MODEL 1
REMARK VINA RESULT:    -5.470      0.000      0.000
REMARK INTER + INTRA:         -11.785
REMARK INTER:                  -9.786
REMARK INTRA:                  -1.999
REMARK UNBOUND:                -1.999
REMARK SMILES CC[C@H](C)[C@H]1NC(=O)c2coc(n2)[C@H](C(C)C)NC(=O)[C@H]([C@@H](C)O)NC(=O)[C@H](C)NC(=O)c2csc1n2
REMARK SMILES IDX 11 1 13 2 12 3 9 4 10 5 7 6 6 7 8 8 5 10 36 11 35 12 34 13
REMARK SMILES IDX 37 14 33 15 31 16 32 17 30 18 28 20 29 21 3 23 4 24 2 25
REMARK SMILES IDX 1 26 14 27 18 28 19 29 20 30 21 32 25 33 26 34 27 35 22 38
REMARK SMILES IDX 23 39 24 40 15 42 16 43 17 44
REMARK H PARENT 6 9 30 19 18 31 25 36 24 41
REMARK Flexibility Score:   94.900
ROOT
ATOM      1  O   UNL     1       6.186   3.649   7.118  1.00  0.00    -0.446 OA
ATOM      2  N   UNL     1       7.448   2.974   8.860  1.00  0.00    -0.207 NA
ATOM      3  C   UNL     1       6.344   3.591   8.477  1.00  0.00     0.217 A 
ATOM      4  C   UNL     1       8.043   2.577   7.674  1.00  0.00     0.167 A 
ATOM      5  C   UNL     1       7.269   2.991   6.618  1.00  0.00     0.231 A 
ENDROOT
BRANCH   4   6
ATOM      6  C   UNL     1       9.308   1.865   7.621  1.00  0.00     0.273 C 
ATOM      7  N   UNL     1       9.202   0.599   8.140  1.00  0.00    -0.341 N 
ATOM      8  O   UNL     1      10.343   2.354   7.186  1.00  0.00    -0.267 OA
ATOM      9  H   UNL     1       8.302   0.365   8.549  1.00  0.00     0.164 HD
BRANCH   7  10
ATOM     10  C   UNL     1      10.351  -0.233   8.436  1.00  0.00     0.145 C 
BRANCH  10  11
ATOM     11  C   UNL     1      10.492  -0.302   9.950  1.00  0.00     0.116 A 
ATOM     12  S   UNL     1      12.043  -0.566  10.653  1.00  0.00    -0.124 S 
ATOM     13  C   UNL     1      11.347  -0.464  12.211  1.00  0.00     0.101 A 
ATOM     14  N   UNL     1       9.498  -0.158  10.811  1.00  0.00    -0.234 NA
ATOM     15  C   UNL     1       9.988  -0.234  12.118  1.00  0.00     0.139 A 
BRANCH  15  16
ATOM     16  C   UNL     1       9.110  -0.070  13.279  1.00  0.00     0.271 C 
ATOM     17  O   UNL     1       9.267  -0.693  14.324  1.00  0.00    -0.267 OA
ATOM     18  N   UNL     1       8.100   0.848  13.081  1.00  0.00    -0.339 N 
ATOM     19  H   UNL     1       8.011   1.213  12.137  1.00  0.00     0.164 HD
BRANCH  18  20
ATOM     20  C   UNL     1       7.091   1.092  14.103  1.00  0.00     0.168 CG0
ATOM     21  C   UNL     1       7.212   2.505  14.678  1.00  0.00     0.041 C 
ATOM     22  G   UNL     1       5.658   0.919  13.576  1.00  0.00     0.000 G0
ENDBRANCH  18  20
ENDBRANCH  15  16
ENDBRANCH  10  11
BRANCH  10  23
ATOM     23  C   UNL     1      10.239  -1.639   7.789  1.00  0.00     0.015 C 
ATOM     24  C   UNL     1       9.175  -2.531   8.449  1.00  0.00     0.010 C 
BRANCH  23  25
ATOM     25  C   UNL     1       9.959  -1.577   6.270  1.00  0.00     0.002 C 
ATOM     26  C   UNL     1       9.487  -2.896   5.674  1.00  0.00     0.004 C 
ENDBRANCH  23  25
ENDBRANCH  10  23
ENDBRANCH   7  10
ENDBRANCH   4   6
BRANCH   3  27
ATOM     27  C   UNL     1       5.322   4.251   9.361  1.00  0.00     0.171 C 
BRANCH  27  28
ATOM     28  N   UNL     1       5.115   3.393  10.523  1.00  0.00    -0.342 N 
ATOM     29  C   UNL     1       3.954   2.682  10.729  1.00  0.00     0.245 C 
ATOM     30  O   UNL     1       3.010   2.707   9.941  1.00  0.00    -0.273 OA
ATOM     31  H   UNL     1       5.895   3.233  11.159  1.00  0.00     0.164 HD
BRANCH  29  32
ATOM     32  C   UNL     1       3.970   1.730  11.944  1.00  0.00     0.200 C 
BRANCH  32  33
ATOM     33  N   UNL     1       5.332   1.704  12.491  1.00  0.00    -0.340 N 
ATOM     34  C   UNL     1       5.653   0.916  13.577  1.00  0.00     0.243 CG0
ATOM     35  O   UNL     1       4.805   0.254  14.172  1.00  0.00    -0.273 OA
ATOM     36  H   UNL     1       6.047   2.264  12.040  1.00  0.00     0.164 HD
ATOM     37  G   UNL     1       7.077   1.090  14.129  1.00  0.00     0.000 G0
ENDBRANCH  32  33
BRANCH  32  38
ATOM     38  C   UNL     1       2.907   2.134  12.993  1.00  0.00     0.143 C 
ATOM     39  C   UNL     1       3.088   3.540  13.553  1.00  0.00     0.041 C 
BRANCH  38  40
ATOM     40  O   UNL     1       1.588   2.023  12.425  1.00  0.00    -0.391 OA
ATOM     41  H   UNL     1       1.408   1.069  12.321  1.00  0.00     0.211 HD
ENDBRANCH  38  40
ENDBRANCH  32  38
ENDBRANCH  29  32
ENDBRANCH  27  28
BRANCH  27  42
ATOM     42  C   UNL     1       5.581   5.720   9.777  1.00  0.00     0.015 C 
ATOM     43  C   UNL     1       5.006   6.785   8.836  1.00  0.00     0.010 C 
ATOM     44  C   UNL     1       5.141   5.992  11.220  1.00  0.00     0.010 C 
ENDBRANCH  27  42
ENDBRANCH   3  27
TORSDOF 5
ENDMDL
MODEL 2
REMARK VINA RESULT:    -5.375      2.121      3.145
REMARK INTER + INTRA:         -11.615
REMARK INTER:                  -9.804
REMARK INTRA:                  -1.811
REMARK UNBOUND:                -1.999
REMARK SMILES CC[C@H](C)[C@H]1NC(=O)c2coc(n2)[C@H](C(C)C)NC(=O)[C@H]([C@@H](C)O)NC(=O)[C@H](C)NC(=O)c2csc1n2
REMARK SMILES IDX 11 1 13 2 12 3 9 4 10 5 7 6 6 7 8 8 5 10 36 11 35 12 34 13
REMARK SMILES IDX 37 14 33 15 31 16 32 17 30 18 28 20 29 21 3 23 4 24 2 25
REMARK SMILES IDX 1 26 14 27 18 28 19 29 20 30 21 32 25 33 26 34 27 35 22 38
REMARK SMILES IDX 23 39 24 40 15 42 16 43 17 44
REMARK H PARENT 6 9 30 19 18 31 25 36 24 41
REMARK Flexibility Score:   94.900
ROOT
ATOM      1  O   UNL     1       6.724   3.625   5.512  1.00  0.00    -0.446 OA
ATOM      2  N   UNL     1       7.728   4.185   7.451  1.00  0.00    -0.207 NA
ATOM      3  C   UNL     1       6.755   4.456   6.600  1.00  0.00     0.217 A 
ATOM      4  C   UNL     1       8.365   3.086   6.900  1.00  0.00     0.167 A 
ATOM      5  C   UNL     1       7.748   2.750   5.720  1.00  0.00     0.231 A 
ENDROOT
BRANCH   4   6
ATOM      6  C   UNL     1       9.522   2.452   7.507  1.00  0.00     0.273 C 
ATOM      7  N   UNL     1       9.210   1.227   8.042  1.00  0.00    -0.341 N 
ATOM      8  O   UNL     1      10.632   2.968   7.553  1.00  0.00    -0.267 OA
ATOM      9  H   UNL     1       8.227   0.970   8.010  1.00  0.00     0.164 HD
BRANCH   7  10
ATOM     10  C   UNL     1      10.104   0.494   8.916  1.00  0.00     0.145 C 
BRANCH  10  11
ATOM     11  C   UNL     1       9.650   0.738  10.348  1.00  0.00     0.116 A 
ATOM     12  S   UNL     1      10.823   0.969  11.589  1.00  0.00    -0.124 S 
ATOM     13  C   UNL     1       9.567   1.192  12.726  1.00  0.00     0.101 A 
ATOM     14  N   UNL     1       8.389   0.805  10.743  1.00  0.00    -0.234 NA
ATOM     15  C   UNL     1       8.334   1.083  12.111  1.00  0.00     0.139 A 
BRANCH  15  16
ATOM     16  C   UNL     1       7.059   1.251  12.811  1.00  0.00     0.271 C 
ATOM     17  O   UNL     1       6.661   0.466  13.665  1.00  0.00    -0.267 OA
ATOM     18  N   UNL     1       6.358   2.372  12.419  1.00  0.00    -0.339 N 
ATOM     19  H   UNL     1       6.741   2.881  11.626  1.00  0.00     0.164 HD
BRANCH  18  20
ATOM     20  C   UNL     1       5.038   2.664  12.960  1.00  0.00     0.168 CG0
ATOM     21  C   UNL     1       5.107   2.989  14.453  1.00  0.00     0.041 C 
ATOM     22  G   UNL     1       4.354   3.846  12.253  1.00  0.00     0.000 G0
ENDBRANCH  18  20
ENDBRANCH  15  16
ENDBRANCH  10  11
BRANCH  10  23
ATOM     23  C   UNL     1      10.161  -1.016   8.563  1.00  0.00     0.015 C 
ATOM     24  C   UNL     1       9.116  -1.436   7.516  1.00  0.00     0.010 C 
BRANCH  23  25
ATOM     25  C   UNL     1      11.558  -1.463   8.075  1.00  0.00     0.002 C 
ATOM     26  C   UNL     1      12.689  -0.540   8.507  1.00  0.00     0.004 C 
ENDBRANCH  23  25
ENDBRANCH  10  23
ENDBRANCH   7  10
ENDBRANCH   4   6
BRANCH   3  27
ATOM     27  C   UNL     1       5.758   5.579   6.691  1.00  0.00     0.171 C 
BRANCH  27  28
ATOM     28  N   UNL     1       5.480   5.816   8.103  1.00  0.00    -0.342 N 
ATOM     29  C   UNL     1       4.523   5.117   8.804  1.00  0.00     0.245 C 
ATOM     30  O   UNL     1       3.841   4.229   8.295  1.00  0.00    -0.273 OA
ATOM     31  H   UNL     1       6.082   6.456   8.621  1.00  0.00     0.164 HD
BRANCH  29  32
ATOM     32  C   UNL     1       4.462   5.417  10.317  1.00  0.00     0.200 C 
BRANCH  32  33
ATOM     33  N   UNL     1       4.922   4.225  11.041  1.00  0.00    -0.340 N 
ATOM     34  C   UNL     1       4.357   3.858  12.245  1.00  0.00     0.243 CG0
ATOM     35  O   UNL     1       3.494   4.540  12.794  1.00  0.00    -0.273 OA
ATOM     36  H   UNL     1       5.653   3.659  10.629  1.00  0.00     0.164 HD
ATOM     37  G   UNL     1       5.025   2.672  12.960  1.00  0.00     0.000 G0
ENDBRANCH  32  33
BRANCH  32  38
ATOM     38  C   UNL     1       5.268   6.688  10.674  1.00  0.00     0.143 C 
ATOM     39  C   UNL     1       4.491   7.987  10.497  1.00  0.00     0.041 C 
BRANCH  38  40
ATOM     40  O   UNL     1       5.739   6.606  12.033  1.00  0.00    -0.391 OA
ATOM     41  H   UNL     1       5.633   5.677  12.310  1.00  0.00     0.211 HD
ENDBRANCH  38  40
ENDBRANCH  32  38
ENDBRANCH  29  32
ENDBRANCH  27  28
BRANCH  27  42
ATOM     42  C   UNL     1       6.097   6.894   5.948  1.00  0.00     0.015 C 
ATOM     43  C   UNL     1       6.357   8.111   6.844  1.00  0.00     0.010 C 
ATOM     44  C   UNL     1       7.247   6.711   4.953  1.00  0.00     0.010 C 
ENDBRANCH  27  42
ENDBRANCH   3  27
TORSDOF 5
ENDMDL
MODEL 3
REMARK VINA RESULT:    -5.100      4.579      7.417
REMARK INTER + INTRA:         -11.124
REMARK INTER:                  -8.813
REMARK INTRA:                  -2.311
REMARK UNBOUND:                -1.999
REMARK SMILES CC[C@H](C)[C@H]1NC(=O)c2coc(n2)[C@H](C(C)C)NC(=O)[C@H]([C@@H](C)O)NC(=O)[C@H](C)NC(=O)c2csc1n2
REMARK SMILES IDX 11 1 13 2 12 3 9 4 10 5 7 6 6 7 8 8 5 10 36 11 35 12 34 13
REMARK SMILES IDX 37 14 33 15 31 16 32 17 30 18 28 20 29 21 3 23 4 24 2 25
REMARK SMILES IDX 1 26 14 27 18 28 19 29 20 30 21 32 25 33 26 34 27 35 22 38
REMARK SMILES IDX 23 39 24 40 15 42 16 43 17 44
REMARK H PARENT 6 9 30 19 18 31 25 36 24 41
REMARK Flexibility Score:   94.900
ROOT
ATOM      1  O   UNL     1       1.556  -0.070  12.039  1.00  0.00    -0.446 OA
ATOM      2  N   UNL     1       2.675   0.084  13.989  1.00  0.00    -0.207 NA
ATOM      3  C   UNL     1       1.810  -0.610  13.271  1.00  0.00     0.217 A 
ATOM      4  C   UNL     1       3.034   1.136  13.164  1.00  0.00     0.167 A 
ATOM      5  C   UNL     1       2.349   1.036  11.978  1.00  0.00     0.231 A 
ENDROOT
BRANCH   4   6
ATOM      6  C   UNL     1       3.971   2.173  13.562  1.00  0.00     0.273 C 
ATOM      7  N   UNL     1       5.183   2.031  12.936  1.00  0.00    -0.341 N 
ATOM      8  O   UNL     1       3.707   3.047  14.378  1.00  0.00    -0.267 OA
ATOM      9  H   UNL     1       5.285   1.204  12.355  1.00  0.00     0.164 HD
BRANCH   7  10
ATOM     10  C   UNL     1       6.367   2.770  13.328  1.00  0.00     0.145 C 
BRANCH  10  11
ATOM     11  C   UNL     1       7.151   1.900  14.300  1.00  0.00     0.116 A 
ATOM     12  S   UNL     1       8.617   2.493  14.986  1.00  0.00    -0.124 S 
ATOM     13  C   UNL     1       8.774   1.046  15.883  1.00  0.00     0.101 A 
ATOM     14  N   UNL     1       6.792   0.690  14.694  1.00  0.00    -0.234 NA
ATOM     15  C   UNL     1       7.715   0.199  15.621  1.00  0.00     0.139 A 
BRANCH  15  16
ATOM     16  C   UNL     1       7.546  -1.111  16.255  1.00  0.00     0.271 C 
ATOM     17  O   UNL     1       8.283  -1.517  17.147  1.00  0.00    -0.267 OA
ATOM     18  N   UNL     1       6.483  -1.833  15.754  1.00  0.00    -0.339 N 
ATOM     19  H   UNL     1       6.019  -1.434  14.942  1.00  0.00     0.164 HD
BRANCH  18  20
ATOM     20  C   UNL     1       6.204  -3.185  16.218  1.00  0.00     0.168 CG0
ATOM     21  C   UNL     1       5.355  -3.172  17.491  1.00  0.00     0.041 C 
ATOM     22  G   UNL     1       5.465  -4.032  15.170  1.00  0.00     0.000 G0
ENDBRANCH  18  20
ENDBRANCH  15  16
ENDBRANCH  10  11
BRANCH  10  23
ATOM     23  C   UNL     1       7.218   3.205  12.105  1.00  0.00     0.015 C 
ATOM     24  C   UNL     1       7.924   2.031  11.406  1.00  0.00     0.010 C 
BRANCH  23  25
ATOM     25  C   UNL     1       6.399   3.986  11.053  1.00  0.00     0.002 C 
ATOM     26  C   UNL     1       5.685   5.211  11.611  1.00  0.00     0.004 C 
ENDBRANCH  23  25
ENDBRANCH  10  23
ENDBRANCH   7  10
ENDBRANCH   4   6
BRANCH   3  27
ATOM     27  C   UNL     1       1.073  -1.852  13.691  1.00  0.00     0.171 C 
BRANCH  27  28
ATOM     28  N   UNL     1       2.053  -2.795  14.220  1.00  0.00    -0.342 N 
ATOM     29  C   UNL     1       2.090  -4.121  13.850  1.00  0.00     0.245 C 
ATOM     30  O   UNL     1       1.308  -4.605  13.034  1.00  0.00    -0.273 OA
ATOM     31  H   UNL     1       2.804  -2.441  14.812  1.00  0.00     0.164 HD
BRANCH  29  32
ATOM     32  C   UNL     1       3.276  -4.931  14.415  1.00  0.00     0.200 C 
BRANCH  32  33
ATOM     33  N   UNL     1       4.090  -4.037  15.247  1.00  0.00    -0.340 N 
ATOM     34  C   UNL     1       5.467  -4.049  15.177  1.00  0.00     0.243 CG0
ATOM     35  O   UNL     1       6.074  -4.848  14.467  1.00  0.00    -0.273 OA
ATOM     36  H   UNL     1       3.618  -3.387  15.866  1.00  0.00     0.164 HD
ATOM     37  G   UNL     1       6.195  -3.163  16.200  1.00  0.00     0.000 G0
ENDBRANCH  32  33
BRANCH  32  38
ATOM     38  C   UNL     1       2.791  -6.187  15.175  1.00  0.00     0.143 C 
ATOM     39  C   UNL     1       1.975  -5.882  16.425  1.00  0.00     0.041 C 
BRANCH  38  40
ATOM     40  O   UNL     1       2.009  -7.022  14.298  1.00  0.00    -0.391 OA
ATOM     41  H   UNL     1       2.126  -6.667  13.397  1.00  0.00     0.211 HD
ENDBRANCH  38  40
ENDBRANCH  32  38
ENDBRANCH  29  32
ENDBRANCH  27  28
BRANCH  27  42
ATOM     42  C   UNL     1      -0.127  -1.679  14.654  1.00  0.00     0.015 C 
ATOM     43  C   UNL     1      -1.461  -2.247  14.157  1.00  0.00     0.010 C 
ATOM     44  C   UNL     1       0.185  -2.206  16.059  1.00  0.00     0.010 C 
ENDBRANCH  27  42
ENDBRANCH   3  27
TORSDOF 5
ENDMDL
MODEL 4
REMARK VINA RESULT:    -5.052      2.727      6.728
REMARK INTER + INTRA:         -11.039
REMARK INTER:                  -8.923
REMARK INTRA:                  -2.115
REMARK UNBOUND:                -1.999
REMARK SMILES CC[C@H](C)[C@H]1NC(=O)c2coc(n2)[C@H](C(C)C)NC(=O)[C@H]([C@@H](C)O)NC(=O)[C@H](C)NC(=O)c2csc1n2
REMARK SMILES IDX 11 1 13 2 12 3 9 4 10 5 7 6 6 7 8 8 5 10 36 11 35 12 34 13
REMARK SMILES IDX 37 14 33 15 31 16 32 17 30 18 28 20 29 21 3 23 4 24 2 25
REMARK SMILES IDX 1 26 14 27 18 28 19 29 20 30 21 32 25 33 26 34 27 35 22 38
REMARK SMILES IDX 23 39 24 40 15 42 16 43 17 44
REMARK H PARENT 6 9 30 19 18 31 25 36 24 41
REMARK Flexibility Score:   94.900
ROOT
ATOM      1  O   UNL     1       9.564  -0.265   7.444  1.00  0.00    -0.446 OA
ATOM      2  N   UNL     1       9.671   1.935   7.923  1.00  0.00    -0.207 NA
ATOM      3  C   UNL     1      10.097   0.722   8.229  1.00  0.00     0.217 A 
ATOM      4  C   UNL     1       8.822   1.735   6.848  1.00  0.00     0.167 A 
ATOM      5  C   UNL     1       8.762   0.393   6.561  1.00  0.00     0.231 A 
ENDROOT
BRANCH   4   6
ATOM      6  C   UNL     1       8.109   2.815   6.189  1.00  0.00     0.273 C 
ATOM      7  N   UNL     1       7.969   3.908   7.008  1.00  0.00    -0.341 N 
ATOM      8  O   UNL     1       7.667   2.739   5.049  1.00  0.00    -0.267 OA
ATOM      9  H   UNL     1       8.305   3.791   7.959  1.00  0.00     0.164 HD
BRANCH   7  10
ATOM     10  C   UNL     1       7.093   5.021   6.699  1.00  0.00     0.145 C 
BRANCH  10  11
ATOM     11  C   UNL     1       6.126   5.182   7.863  1.00  0.00     0.116 A 
ATOM     12  S   UNL     1       4.719   6.159   7.677  1.00  0.00    -0.124 S 
ATOM     13  C   UNL     1       4.251   5.778   9.276  1.00  0.00     0.101 A 
ATOM     14  N   UNL     1       6.262   4.608   9.047  1.00  0.00    -0.234 NA
ATOM     15  C   UNL     1       5.175   4.934   9.861  1.00  0.00     0.139 A 
BRANCH  15  16
ATOM     16  C   UNL     1       5.044   4.404  11.220  1.00  0.00     0.271 C 
ATOM     17  O   UNL     1       4.207   4.815  12.017  1.00  0.00    -0.267 OA
ATOM     18  N   UNL     1       5.948   3.404  11.511  1.00  0.00    -0.339 N 
ATOM     19  H   UNL     1       6.661   3.231  10.807  1.00  0.00     0.164 HD
BRANCH  18  20
ATOM     20  C   UNL     1       6.010   2.805  12.837  1.00  0.00     0.168 CG0
ATOM     21  C   UNL     1       5.075   1.599  12.948  1.00  0.00     0.041 C 
ATOM     22  G   UNL     1       7.426   2.338  13.212  1.00  0.00     0.000 G0
ENDBRANCH  18  20
ENDBRANCH  15  16
ENDBRANCH  10  11
BRANCH  10  23
ATOM     23  C   UNL     1       7.883   6.323   6.402  1.00  0.00     0.015 C 
ATOM     24  C   UNL     1       7.155   7.268   5.432  1.00  0.00     0.010 C 
BRANCH  23  25
ATOM     25  C   UNL     1       8.243   7.110   7.683  1.00  0.00     0.002 C 
ATOM     26  C   UNL     1       7.869   8.584   7.629  1.00  0.00     0.004 C 
ENDBRANCH  23  25
ENDBRANCH  10  23
ENDBRANCH   7  10
ENDBRANCH   4   6
BRANCH   3  27
ATOM     27  C   UNL     1      11.030   0.344   9.347  1.00  0.00     0.171 C 
BRANCH  27  28
ATOM     28  N   UNL     1      10.227   0.143  10.549  1.00  0.00    -0.342 N 
ATOM     29  C   UNL     1      10.237   1.022  11.609  1.00  0.00     0.245 C 
ATOM     30  O   UNL     1      10.912   2.050  11.615  1.00  0.00    -0.273 OA
ATOM     31  H   UNL     1       9.558  -0.625  10.569  1.00  0.00     0.164 HD
BRANCH  29  32
ATOM     32  C   UNL     1       9.228   0.709  12.734  1.00  0.00     0.200 C 
BRANCH  32  33
ATOM     33  N   UNL     1       7.954   1.361  12.404  1.00  0.00    -0.340 N 
ATOM     34  C   UNL     1       7.409   2.325  13.226  1.00  0.00     0.243 CG0
ATOM     35  O   UNL     1       7.928   2.635  14.296  1.00  0.00    -0.273 OA
ATOM     36  H   UNL     1       7.487   1.103  11.542  1.00  0.00     0.164 HD
ATOM     37  G   UNL     1       6.009   2.822  12.832  1.00  0.00     0.000 G0
ENDBRANCH  32  33
BRANCH  32  38
ATOM     38  C   UNL     1       9.086  -0.814  12.959  1.00  0.00     0.143 C 
ATOM     39  C   UNL     1      10.182  -1.420  13.827  1.00  0.00     0.041 C 
BRANCH  38  40
ATOM     40  O   UNL     1       7.805  -1.107  13.551  1.00  0.00    -0.391 OA
ATOM     41  H   UNL     1       7.951  -1.175  14.514  1.00  0.00     0.211 HD
ENDBRANCH  38  40
ENDBRANCH  32  38
ENDBRANCH  29  32
ENDBRANCH  27  28
BRANCH  27  42
ATOM     42  C   UNL     1      11.994  -0.842   9.101  1.00  0.00     0.015 C 
ATOM     43  C   UNL     1      13.011  -0.644   7.972  1.00  0.00     0.010 C 
ATOM     44  C   UNL     1      12.705  -1.279  10.386  1.00  0.00     0.010 C 
ENDBRANCH  27  42
ENDBRANCH   3  27
TORSDOF 5
ENDMDL
MODEL 5
REMARK VINA RESULT:    -4.950      3.754      7.045
REMARK INTER + INTRA:         -10.855
REMARK INTER:                  -9.148
REMARK INTRA:                  -1.708
REMARK UNBOUND:                -1.999
REMARK SMILES CC[C@H](C)[C@H]1NC(=O)c2coc(n2)[C@H](C(C)C)NC(=O)[C@H]([C@@H](C)O)NC(=O)[C@H](C)NC(=O)c2csc1n2
REMARK SMILES IDX 11 1 13 2 12 3 9 4 10 5 7 6 6 7 8 8 5 10 36 11 35 12 34 13
REMARK SMILES IDX 37 14 33 15 31 16 32 17 30 18 28 20 29 21 3 23 4 24 2 25
REMARK SMILES IDX 1 26 14 27 18 28 19 29 20 30 21 32 25 33 26 34 27 35 22 38
REMARK SMILES IDX 23 39 24 40 15 42 16 43 17 44
REMARK H PARENT 6 9 30 19 18 31 25 36 24 41
REMARK Flexibility Score:   94.900
ROOT
ATOM      1  O   UNL     1       3.047   2.768  10.731  1.00  0.00    -0.446 OA
ATOM      2  N   UNL     1       4.455   1.111  11.327  1.00  0.00    -0.207 NA
ATOM      3  C   UNL     1       4.340   2.326  10.820  1.00  0.00     0.217 A 
ATOM      4  C   UNL     1       3.153   0.739  11.614  1.00  0.00     0.167 A 
ATOM      5  C   UNL     1       2.301   1.753  11.249  1.00  0.00     0.231 A 
ENDROOT
BRANCH   4   6
ATOM      6  C   UNL     1       2.803  -0.551  12.182  1.00  0.00     0.273 C 
ATOM      7  N   UNL     1       2.078  -0.419  13.339  1.00  0.00    -0.341 N 
ATOM      8  O   UNL     1       3.142  -1.622  11.692  1.00  0.00    -0.267 OA
ATOM      9  H   UNL     1       1.952   0.532  13.674  1.00  0.00     0.164 HD
BRANCH   7  10
ATOM     10  C   UNL     1       1.813  -1.525  14.238  1.00  0.00     0.145 C 
BRANCH  10  11
ATOM     11  C   UNL     1       2.928  -1.556  15.272  1.00  0.00     0.116 A 
ATOM     12  S   UNL     1       3.522  -3.069  15.843  1.00  0.00    -0.124 S 
ATOM     13  C   UNL     1       4.653  -2.246  16.826  1.00  0.00     0.101 A 
ATOM     14  N   UNL     1       3.517  -0.488  15.784  1.00  0.00    -0.234 NA
ATOM     15  C   UNL     1       4.525  -0.879  16.669  1.00  0.00     0.139 A 
BRANCH  15  16
ATOM     16  C   UNL     1       5.370   0.100  17.355  1.00  0.00     0.271 C 
ATOM     17  O   UNL     1       5.297   0.313  18.560  1.00  0.00    -0.267 OA
ATOM     18  N   UNL     1       6.251   0.751  16.517  1.00  0.00    -0.339 N 
ATOM     19  H   UNL     1       6.138   0.567  15.524  1.00  0.00     0.164 HD
BRANCH  18  20
ATOM     20  C   UNL     1       7.123   1.807  17.012  1.00  0.00     0.168 CG0
ATOM     21  C   UNL     1       8.428   1.235  17.570  1.00  0.00     0.041 C 
ATOM     22  G   UNL     1       7.486   2.836  15.929  1.00  0.00     0.000 G0
ENDBRANCH  18  20
ENDBRANCH  15  16
ENDBRANCH  10  11
BRANCH  10  23
ATOM     23  C   UNL     1       0.407  -1.428  14.887  1.00  0.00     0.015 C 
ATOM     24  C   UNL     1      -0.737  -1.771  13.917  1.00  0.00     0.010 C 
BRANCH  23  25
ATOM     25  C   UNL     1       0.267  -2.311  16.147  1.00  0.00     0.002 C 
ATOM     26  C   UNL     1      -0.261  -3.711  15.866  1.00  0.00     0.004 C 
ENDBRANCH  23  25
ENDBRANCH  10  23
ENDBRANCH   7  10
ENDBRANCH   4   6
BRANCH   3  27
ATOM     27  C   UNL     1       5.449   3.203  10.308  1.00  0.00     0.171 C 
BRANCH  27  28
ATOM     28  N   UNL     1       6.545   3.145  11.269  1.00  0.00    -0.342 N 
ATOM     29  C   UNL     1       6.413   3.550  12.578  1.00  0.00     0.245 C 
ATOM     30  O   UNL     1       5.356   3.977  13.039  1.00  0.00    -0.273 OA
ATOM     31  H   UNL     1       7.418   2.696  10.991  1.00  0.00     0.164 HD
BRANCH  29  32
ATOM     32  C   UNL     1       7.642   3.292  13.476  1.00  0.00     0.200 C 
BRANCH  32  33
ATOM     33  N   UNL     1       7.217   2.467  14.613  1.00  0.00    -0.340 N 
ATOM     34  C   UNL     1       7.504   2.836  15.911  1.00  0.00     0.243 CG0
ATOM     35  O   UNL     1       8.179   3.831  16.170  1.00  0.00    -0.273 OA
ATOM     36  H   UNL     1       6.685   1.625  14.430  1.00  0.00     0.164 HD
ATOM     37  G   UNL     1       7.122   1.815  16.995  1.00  0.00     0.000 G0
ENDBRANCH  32  33
BRANCH  32  38
ATOM     38  C   UNL     1       8.805   2.661  12.674  1.00  0.00     0.143 C 
ATOM     39  C   UNL     1      10.183   3.189  13.056  1.00  0.00     0.041 C 
BRANCH  38  40
ATOM     40  O   UNL     1       8.793   1.229  12.834  1.00  0.00    -0.391 OA
ATOM     41  H   UNL     1       8.210   0.875  12.136  1.00  0.00     0.211 HD
ENDBRANCH  38  40
ENDBRANCH  32  38
ENDBRANCH  29  32
ENDBRANCH  27  28
BRANCH  27  42
ATOM     42  C   UNL     1       5.945   2.954   8.862  1.00  0.00     0.015 C 
ATOM     43  C   UNL     1       6.721   4.110   8.221  1.00  0.00     0.010 C 
ATOM     44  C   UNL     1       6.743   1.651   8.747  1.00  0.00     0.010 C 
ENDBRANCH  27  42
ENDBRANCH   3  27
TORSDOF 5
ENDMDL
MODEL 6
REMARK VINA RESULT:    -4.861      3.667      7.001
REMARK INTER + INTRA:         -10.697
REMARK INTER:                  -8.571
REMARK INTRA:                  -2.126
REMARK UNBOUND:                -1.999
REMARK SMILES CC[C@H](C)[C@H]1NC(=O)c2coc(n2)[C@H](C(C)C)NC(=O)[C@H]([C@@H](C)O)NC(=O)[C@H](C)NC(=O)c2csc1n2
REMARK SMILES IDX 11 1 13 2 12 3 9 4 10 5 7 6 6 7 8 8 5 10 36 11 35 12 34 13
REMARK SMILES IDX 37 14 33 15 31 16 32 17 30 18 28 20 29 21 3 23 4 24 2 25
REMARK SMILES IDX 1 26 14 27 18 28 19 29 20 30 21 32 25 33 26 34 27 35 22 38
REMARK SMILES IDX 23 39 24 40 15 42 16 43 17 44
REMARK H PARENT 6 9 30 19 18 31 25 36 24 41
REMARK Flexibility Score:   94.900
ROOT
ATOM      1  O   UNL     1       4.143   3.549  12.415  1.00  0.00    -0.446 OA
ATOM      2  N   UNL     1       4.895   1.585  11.603  1.00  0.00    -0.207 NA
ATOM      3  C   UNL     1       5.172   2.855  11.836  1.00  0.00     0.217 A 
ATOM      4  C   UNL     1       3.607   1.425  12.083  1.00  0.00     0.167 A 
ATOM      5  C   UNL     1       3.155   2.625  12.577  1.00  0.00     0.231 A 
ENDROOT
BRANCH   4   6
ATOM      6  C   UNL     1       2.885   0.166  12.017  1.00  0.00     0.273 C 
ATOM      7  N   UNL     1       2.423  -0.222  13.249  1.00  0.00    -0.341 N 
ATOM      8  O   UNL     1       2.736  -0.476  10.984  1.00  0.00    -0.267 OA
ATOM      9  H   UNL     1       2.703   0.365  14.029  1.00  0.00     0.164 HD
BRANCH   7  10
ATOM     10  C   UNL     1       1.891  -1.544  13.514  1.00  0.00     0.145 C 
BRANCH  10  11
ATOM     11  C   UNL     1       3.066  -2.457  13.833  1.00  0.00     0.116 A 
ATOM     12  S   UNL     1       2.866  -4.167  13.752  1.00  0.00    -0.124 S 
ATOM     13  C   UNL     1       4.510  -4.372  14.171  1.00  0.00     0.101 A 
ATOM     14  N   UNL     1       4.279  -2.045  14.165  1.00  0.00    -0.234 NA
ATOM     15  C   UNL     1       5.121  -3.145  14.345  1.00  0.00     0.139 A 
BRANCH  15  16
ATOM     16  C   UNL     1       6.537  -2.983  14.682  1.00  0.00     0.271 C 
ATOM     17  O   UNL     1       7.178  -3.835  15.288  1.00  0.00    -0.267 OA
ATOM     18  N   UNL     1       7.072  -1.787  14.252  1.00  0.00    -0.339 N 
ATOM     19  H   UNL     1       6.412  -1.120  13.861  1.00  0.00     0.164 HD
BRANCH  18  20
ATOM     20  C   UNL     1       8.449  -1.423  14.557  1.00  0.00     0.168 CG0
ATOM     21  C   UNL     1       9.363  -1.640  13.349  1.00  0.00     0.041 C 
ATOM     22  G   UNL     1       8.593   0.042  14.999  1.00  0.00     0.000 G0
ENDBRANCH  18  20
ENDBRANCH  15  16
ENDBRANCH  10  11
BRANCH  10  23
ATOM     23  C   UNL     1       0.828  -1.532  14.645  1.00  0.00     0.015 C 
ATOM     24  C   UNL     1      -0.462  -2.282  14.275  1.00  0.00     0.010 C 
BRANCH  23  25
ATOM     25  C   UNL     1       1.366  -2.100  15.978  1.00  0.00     0.002 C 
ATOM     26  C   UNL     1       0.368  -2.974  16.725  1.00  0.00     0.004 C 
ENDBRANCH  23  25
ENDBRANCH  10  23
ENDBRANCH   7  10
ENDBRANCH   4   6
BRANCH   3  27
ATOM     27  C   UNL     1       6.441   3.585  11.489  1.00  0.00     0.171 C 
BRANCH  27  28
ATOM     28  N   UNL     1       7.527   2.981  12.254  1.00  0.00    -0.342 N 
ATOM     29  C   UNL     1       7.716   3.217  13.597  1.00  0.00     0.245 C 
ATOM     30  O   UNL     1       6.972   3.942  14.256  1.00  0.00    -0.273 OA
ATOM     31  H   UNL     1       8.114   2.281  11.802  1.00  0.00     0.164 HD
BRANCH  29  32
ATOM     32  C   UNL     1       8.837   2.390  14.261  1.00  0.00     0.200 C 
BRANCH  32  33
ATOM     33  N   UNL     1       8.583   0.969  13.992  1.00  0.00    -0.340 N 
ATOM     34  C   UNL     1       8.596   0.035  15.007  1.00  0.00     0.243 CG0
ATOM     35  O   UNL     1       8.883   0.336  16.164  1.00  0.00    -0.273 OA
ATOM     36  H   UNL     1       8.374   0.685  13.042  1.00  0.00     0.164 HD
ATOM     37  G   UNL     1       8.451  -1.430  14.566  1.00  0.00     0.000 G0
ENDBRANCH  32  33
BRANCH  32  38
ATOM     38  C   UNL     1      10.235   2.852  13.789  1.00  0.00     0.143 C 
ATOM     39  C   UNL     1      10.825   2.004  12.668  1.00  0.00     0.041 C 
BRANCH  38  40
ATOM     40  O   UNL     1      10.180   4.225  13.356  1.00  0.00    -0.391 OA
ATOM     41  H   UNL     1      10.882   4.699  13.841  1.00  0.00     0.211 HD
ENDBRANCH  38  40
ENDBRANCH  32  38
ENDBRANCH  29  32
ENDBRANCH  27  28
BRANCH  27  42
ATOM     42  C   UNL     1       6.803   3.712   9.989  1.00  0.00     0.015 C 
ATOM     43  C   UNL     1       7.672   2.584   9.421  1.00  0.00     0.010 C 
ATOM     44  C   UNL     1       5.561   3.917   9.115  1.00  0.00     0.010 C 
ENDBRANCH  27  42
ENDBRANCH   3  27
TORSDOF 5
ENDMDL
MODEL 7
REMARK VINA RESULT:    -4.468      4.160      7.358
REMARK INTER + INTRA:          -9.993
REMARK INTER:                  -7.517
REMARK INTRA:                  -2.476
REMARK UNBOUND:                -1.999
REMARK SMILES CC[C@H](C)[C@H]1NC(=O)c2coc(n2)[C@H](C(C)C)NC(=O)[C@H]([C@@H](C)O)NC(=O)[C@H](C)NC(=O)c2csc1n2
REMARK SMILES IDX 11 1 13 2 12 3 9 4 10 5 7 6 6 7 8 8 5 10 36 11 35 12 34 13
REMARK SMILES IDX 37 14 33 15 31 16 32 17 30 18 28 20 29 21 3 23 4 24 2 25
REMARK SMILES IDX 1 26 14 27 18 28 19 29 20 30 21 32 25 33 26 34 27 35 22 38
REMARK SMILES IDX 23 39 24 40 15 42 16 43 17 44
REMARK H PARENT 6 9 30 19 18 31 25 36 24 41
REMARK Flexibility Score:   94.900
ROOT
ATOM      1  O   UNL     1       1.526  -0.197  13.105  1.00  0.00    -0.446 OA
ATOM      2  N   UNL     1       3.239  -0.169  14.571  1.00  0.00    -0.207 NA
ATOM      3  C   UNL     1       2.176  -0.822  14.136  1.00  0.00     0.217 A 
ATOM      4  C   UNL     1       3.308   0.947  13.755  1.00  0.00     0.167 A 
ATOM      5  C   UNL     1       2.263   0.923  12.864  1.00  0.00     0.231 A 
ENDROOT
BRANCH   4   6
ATOM      6  C   UNL     1       4.334   1.967  13.891  1.00  0.00     0.273 C 
ATOM      7  N   UNL     1       5.366   1.773  13.007  1.00  0.00    -0.341 N 
ATOM      8  O   UNL     1       4.285   2.871  14.715  1.00  0.00    -0.267 OA
ATOM      9  H   UNL     1       5.313   0.927  12.447  1.00  0.00     0.164 HD
BRANCH   7  10
ATOM     10  C   UNL     1       6.624   2.487  13.091  1.00  0.00     0.145 C 
BRANCH  10  11
ATOM     11  C   UNL     1       7.720   1.462  13.341  1.00  0.00     0.116 A 
ATOM     12  S   UNL     1       9.272   1.983  13.880  1.00  0.00    -0.124 S 
ATOM     13  C   UNL     1       9.792   0.356  13.934  1.00  0.00     0.101 A 
ATOM     14  N   UNL     1       7.584   0.154  13.191  1.00  0.00    -0.234 NA
ATOM     15  C   UNL     1       8.771  -0.491  13.548  1.00  0.00     0.139 A 
BRANCH  15  16
ATOM     16  C   UNL     1       8.894  -1.950  13.515  1.00  0.00     0.271 C 
ATOM     17  O   UNL     1       9.497  -2.546  12.630  1.00  0.00    -0.267 OA
ATOM     18  N   UNL     1       8.269  -2.579  14.571  1.00  0.00    -0.339 N 
ATOM     19  H   UNL     1       7.710  -1.983  15.176  1.00  0.00     0.164 HD
BRANCH  18  20
ATOM     20  C   UNL     1       8.229  -4.032  14.667  1.00  0.00     0.168 CG0
ATOM     21  C   UNL     1       9.245  -4.550  15.688  1.00  0.00     0.041 C 
ATOM     22  G   UNL     1       6.845  -4.563  15.070  1.00  0.00     0.000 G0
ENDBRANCH  18  20
ENDBRANCH  15  16
ENDBRANCH  10  11
BRANCH  10  23
ATOM     23  C   UNL     1       6.895   3.346  11.828  1.00  0.00     0.015 C 
ATOM     24  C   UNL     1       6.909   2.528  10.526  1.00  0.00     0.010 C 
BRANCH  23  25
ATOM     25  C   UNL     1       5.891   4.511  11.669  1.00  0.00     0.002 C 
ATOM     26  C   UNL     1       5.131   4.497  10.350  1.00  0.00     0.004 C 
ENDBRANCH  23  25
ENDBRANCH  10  23
ENDBRANCH   7  10
ENDBRANCH   4   6
BRANCH   3  27
ATOM     27  C   UNL     1       1.613  -2.104  14.685  1.00  0.00     0.171 C 
BRANCH  27  28
ATOM     28  N   UNL     1       2.640  -2.725  15.515  1.00  0.00    -0.342 N 
ATOM     29  C   UNL     1       3.507  -3.682  15.039  1.00  0.00     0.245 C 
ATOM     30  O   UNL     1       3.490  -4.075  13.874  1.00  0.00    -0.273 OA
ATOM     31  H   UNL     1       2.789  -2.368  16.458  1.00  0.00     0.164 HD
BRANCH  29  32
ATOM     32  C   UNL     1       4.607  -4.126  16.027  1.00  0.00     0.200 C 
BRANCH  32  33
ATOM     33  N   UNL     1       5.905  -3.689  15.499  1.00  0.00    -0.340 N 
ATOM     34  C   UNL     1       6.847  -4.600  15.071  1.00  0.00     0.243 CG0
ATOM     35  O   UNL     1       6.671  -5.813  15.172  1.00  0.00    -0.273 OA
ATOM     36  H   UNL     1       6.092  -2.695  15.433  1.00  0.00     0.164 HD
ATOM     37  G   UNL     1       8.210  -4.012  14.672  1.00  0.00     0.000 G0
ENDBRANCH  32  33
BRANCH  32  38
ATOM     38  C   UNL     1       4.329  -3.600  17.455  1.00  0.00     0.143 C 
ATOM     39  C   UNL     1       5.055  -4.369  18.553  1.00  0.00     0.041 C 
BRANCH  38  40
ATOM     40  O   UNL     1       4.685  -2.207  17.546  1.00  0.00    -0.391 OA
ATOM     41  H   UNL     1       5.257  -2.015  16.778  1.00  0.00     0.211 HD
ENDBRANCH  38  40
ENDBRANCH  32  38
ENDBRANCH  29  32
ENDBRANCH  27  28
BRANCH  27  42
ATOM     42  C   UNL     1       0.254  -2.028  15.423  1.00  0.00     0.015 C 
ATOM     43  C   UNL     1      -0.989  -2.083  14.527  1.00  0.00     0.010 C 
ATOM     44  C   UNL     1       0.149  -3.071  16.540  1.00  0.00     0.010 C 
ENDBRANCH  27  42
ENDBRANCH   3  27
TORSDOF 5
ENDMDL
MODEL 8
REMARK VINA RESULT:    -4.441      3.739      6.484
REMARK INTER + INTRA:          -9.945
REMARK INTER:                  -7.944
REMARK INTRA:                  -2.002
REMARK UNBOUND:                -1.999
REMARK SMILES CC[C@H](C)[C@H]1NC(=O)c2coc(n2)[C@H](C(C)C)NC(=O)[C@H]([C@@H](C)O)NC(=O)[C@H](C)NC(=O)c2csc1n2
REMARK SMILES IDX 11 1 13 2 12 3 9 4 10 5 7 6 6 7 8 8 5 10 36 11 35 12 34 13
REMARK SMILES IDX 37 14 33 15 31 16 32 17 30 18 28 20 29 21 3 23 4 24 2 25
REMARK SMILES IDX 1 26 14 27 18 28 19 29 20 30 21 32 25 33 26 34 27 35 22 38
REMARK SMILES IDX 23 39 24 40 15 42 16 43 17 44
REMARK H PARENT 6 9 30 19 18 31 25 36 24 41
REMARK Flexibility Score:   94.900
ROOT
ATOM      1  O   UNL     1       3.496   3.316  10.903  1.00  0.00    -0.446 OA
ATOM      2  N   UNL     1       4.811   1.793  11.921  1.00  0.00    -0.207 NA
ATOM      3  C   UNL     1       4.701   3.039  11.493  1.00  0.00     0.217 A 
ATOM      4  C   UNL     1       3.589   1.220  11.615  1.00  0.00     0.167 A 
ATOM      5  C   UNL     1       2.793   2.153  10.996  1.00  0.00     0.231 A 
ENDROOT
BRANCH   4   6
ATOM      6  C   UNL     1       3.270  -0.168  11.900  1.00  0.00     0.273 C 
ATOM      7  N   UNL     1       3.355  -0.445  13.241  1.00  0.00    -0.341 N 
ATOM      8  O   UNL     1       2.986  -0.989  11.037  1.00  0.00    -0.267 OA
ATOM      9  H   UNL     1       3.693   0.313  13.828  1.00  0.00     0.164 HD
BRANCH   7  10
ATOM     10  C   UNL     1       3.332  -1.793  13.774  1.00  0.00     0.145 C 
BRANCH  10  11
ATOM     11  C   UNL     1       4.172  -1.801  15.043  1.00  0.00     0.116 A 
ATOM     12  S   UNL     1       3.553  -2.538  16.473  1.00  0.00    -0.124 S 
ATOM     13  C   UNL     1       5.009  -2.163  17.287  1.00  0.00     0.101 A 
ATOM     14  N   UNL     1       5.386  -1.287  15.152  1.00  0.00    -0.234 NA
ATOM     15  C   UNL     1       5.881  -1.508  16.440  1.00  0.00     0.139 A 
BRANCH  15  16
ATOM     16  C   UNL     1       7.225  -1.076  16.832  1.00  0.00     0.271 C 
ATOM     17  O   UNL     1       7.692  -1.288  17.946  1.00  0.00    -0.267 OA
ATOM     18  N   UNL     1       7.906  -0.416  15.831  1.00  0.00    -0.339 N 
ATOM     19  H   UNL     1       7.370  -0.207  14.993  1.00  0.00     0.164 HD
BRANCH  18  20
ATOM     20  C   UNL     1       9.230   0.144  16.061  1.00  0.00     0.168 CG0
ATOM     21  C   UNL     1      10.328  -0.876  15.752  1.00  0.00     0.041 C 
ATOM     22  G   UNL     1       9.501   1.397  15.214  1.00  0.00     0.000 G0
ENDBRANCH  18  20
ENDBRANCH  15  16
ENDBRANCH  10  11
BRANCH  10  23
ATOM     23  C   UNL     1       1.886  -2.301  14.019  1.00  0.00     0.015 C 
ATOM     24  C   UNL     1       0.825  -1.194  13.911  1.00  0.00     0.010 C 
BRANCH  23  25
ATOM     25  C   UNL     1       1.492  -3.459  13.074  1.00  0.00     0.002 C 
ATOM     26  C   UNL     1       0.798  -4.620  13.774  1.00  0.00     0.004 C 
ENDBRANCH  23  25
ENDBRANCH  10  23
ENDBRANCH   7  10
ENDBRANCH   4   6
BRANCH   3  27
ATOM     27  C   UNL     1       5.753   4.112  11.547  1.00  0.00     0.171 C 
BRANCH  27  28
ATOM     28  N   UNL     1       7.034   3.469  11.817  1.00  0.00    -0.342 N 
ATOM     29  C   UNL     1       7.659   3.533  13.042  1.00  0.00     0.245 C 
ATOM     30  O   UNL     1       7.175   4.125  14.005  1.00  0.00    -0.273 OA
ATOM     31  H   UNL     1       7.440   2.866  11.102  1.00  0.00     0.164 HD
BRANCH  29  32
ATOM     32  C   UNL     1       8.941   2.684  13.174  1.00  0.00     0.200 C 
BRANCH  32  33
ATOM     33  N   UNL     1       8.686   1.613  14.145  1.00  0.00    -0.340 N 
ATOM     34  C   UNL     1       9.529   1.403  15.217  1.00  0.00     0.243 CG0
ATOM     35  O   UNL     1      10.559   2.056  15.371  1.00  0.00    -0.273 OA
ATOM     36  H   UNL     1       7.861   1.037  14.027  1.00  0.00     0.164 HD
ATOM     37  G   UNL     1       9.222   0.165  16.074  1.00  0.00     0.000 G0
ENDBRANCH  32  33
BRANCH  32  38
ATOM     38  C   UNL     1       9.411   2.153  11.800  1.00  0.00     0.143 C 
ATOM     39  C   UNL     1      10.870   1.712  11.769  1.00  0.00     0.041 C 
BRANCH  38  40
ATOM     40  O   UNL     1       8.580   1.050  11.387  1.00  0.00    -0.391 OA
ATOM     41  H   UNL     1       9.011   0.652  10.608  1.00  0.00     0.211 HD
ENDBRANCH  38  40
ENDBRANCH  32  38
ENDBRANCH  29  32
ENDBRANCH  27  28
BRANCH  27  42
ATOM     42  C   UNL     1       5.844   5.082  10.343  1.00  0.00     0.015 C 
ATOM     43  C   UNL     1       5.823   4.422   8.959  1.00  0.00     0.010 C 
ATOM     44  C   UNL     1       4.789   6.190  10.419  1.00  0.00     0.010 C 
ENDBRANCH  27  42
ENDBRANCH   3  27
TORSDOF 5
ENDMDL
MODEL 9
REMARK VINA RESULT:    -4.397      4.054      7.010
REMARK INTER + INTRA:          -9.866
REMARK INTER:                  -7.790
REMARK INTRA:                  -2.076
REMARK UNBOUND:                -1.999
REMARK SMILES CC[C@H](C)[C@H]1NC(=O)c2coc(n2)[C@H](C(C)C)NC(=O)[C@H]([C@@H](C)O)NC(=O)[C@H](C)NC(=O)c2csc1n2
REMARK SMILES IDX 11 1 13 2 12 3 9 4 10 5 7 6 6 7 8 8 5 10 36 11 35 12 34 13
REMARK SMILES IDX 37 14 33 15 31 16 32 17 30 18 28 20 29 21 3 23 4 24 2 25
REMARK SMILES IDX 1 26 14 27 18 28 19 29 20 30 21 32 25 33 26 34 27 35 22 38
REMARK SMILES IDX 23 39 24 40 15 42 16 43 17 44
REMARK H PARENT 6 9 30 19 18 31 25 36 24 41
REMARK Flexibility Score:   94.900
ROOT
ATOM      1  O   UNL     1       1.473  -0.037  12.423  1.00  0.00    -0.446 OA
ATOM      2  N   UNL     1       2.886   0.695  14.020  1.00  0.00    -0.207 NA
ATOM      3  C   UNL     1       2.066  -0.268  13.636  1.00  0.00     0.217 A 
ATOM      4  C   UNL     1       2.850   1.606  12.980  1.00  0.00     0.167 A 
ATOM      5  C   UNL     1       1.988   1.155  12.010  1.00  0.00     0.231 A 
ENDROOT
BRANCH   4   6
ATOM      6  C   UNL     1       3.605   2.848  12.985  1.00  0.00     0.273 C 
ATOM      7  N   UNL     1       4.770   2.739  12.270  1.00  0.00    -0.341 N 
ATOM      8  O   UNL     1       3.246   3.856  13.582  1.00  0.00    -0.267 OA
ATOM      9  H   UNL     1       4.980   1.813  11.908  1.00  0.00     0.164 HD
BRANCH   7  10
ATOM     10  C   UNL     1       5.823   3.735  12.315  1.00  0.00     0.145 C 
BRANCH  10  11
ATOM     11  C   UNL     1       6.973   3.153  13.124  1.00  0.00     0.116 A 
ATOM     12  S   UNL     1       8.075   4.209  13.924  1.00  0.00    -0.124 S 
ATOM     13  C   UNL     1       8.910   2.854  14.547  1.00  0.00     0.101 A 
ATOM     14  N   UNL     1       7.207   1.861  13.289  1.00  0.00    -0.234 NA
ATOM     15  C   UNL     1       8.313   1.682  14.123  1.00  0.00     0.139 A 
BRANCH  15  16
ATOM     16  C   UNL     1       8.778   0.348  14.509  1.00  0.00     0.271 C 
ATOM     17  O   UNL     1       9.586  -0.293  13.845  1.00  0.00    -0.267 OA
ATOM     18  N   UNL     1       8.222  -0.110  15.685  1.00  0.00    -0.339 N 
ATOM     19  H   UNL     1       7.484   0.465  16.081  1.00  0.00     0.164 HD
BRANCH  18  20
ATOM     20  C   UNL     1       8.516  -1.445  16.188  1.00  0.00     0.168 CG0
ATOM     21  C   UNL     1       9.565  -1.401  17.302  1.00  0.00     0.041 C 
ATOM     22  G   UNL     1       7.272  -2.158  16.742  1.00  0.00     0.000 G0
ENDBRANCH  18  20
ENDBRANCH  15  16
ENDBRANCH  10  11
BRANCH  10  23
ATOM     23  C   UNL     1       6.265   4.184  10.897  1.00  0.00     0.015 C 
ATOM     24  C   UNL     1       5.942   3.153   9.803  1.00  0.00     0.010 C 
BRANCH  23  25
ATOM     25  C   UNL     1       5.662   5.546  10.486  1.00  0.00     0.002 C 
ATOM     26  C   UNL     1       4.676   5.462   9.329  1.00  0.00     0.004 C 
ENDBRANCH  23  25
ENDBRANCH  10  23
ENDBRANCH   7  10
ENDBRANCH   4   6
BRANCH   3  27
ATOM     27  C   UNL     1       1.703  -1.509  14.403  1.00  0.00     0.171 C 
BRANCH  27  28
ATOM     28  N   UNL     1       2.671  -1.666  15.484  1.00  0.00    -0.342 N 
ATOM     29  C   UNL     1       3.840  -2.380  15.342  1.00  0.00     0.245 C 
ATOM     30  O   UNL     1       4.162  -2.927  14.288  1.00  0.00    -0.273 OA
ATOM     31  H   UNL     1       2.528  -1.147  16.349  1.00  0.00     0.164 HD
BRANCH  29  32
ATOM     32  C   UNL     1       4.797  -2.325  16.552  1.00  0.00     0.200 C 
BRANCH  32  33
ATOM     33  N   UNL     1       6.094  -1.816  16.090  1.00  0.00    -0.340 N 
ATOM     34  C   UNL     1       7.267  -2.165  16.726  1.00  0.00     0.243 CG0
ATOM     35  O   UNL     1       7.275  -2.861  17.739  1.00  0.00    -0.273 OA
ATOM     36  H   UNL     1       6.117  -1.214  15.275  1.00  0.00     0.164 HD
ATOM     37  G   UNL     1       8.534  -1.452  16.225  1.00  0.00     0.000 G0
ENDBRANCH  32  33
BRANCH  32  38
ATOM     38  C   UNL     1       4.199  -1.492  17.709  1.00  0.00     0.143 C 
ATOM     39  C   UNL     1       3.977  -2.280  18.994  1.00  0.00     0.041 C 
BRANCH  38  40
ATOM     40  O   UNL     1       5.048  -0.363  17.993  1.00  0.00    -0.391 OA
ATOM     41  H   UNL     1       4.479   0.320  18.396  1.00  0.00     0.211 HD
ENDBRANCH  38  40
ENDBRANCH  32  38
ENDBRANCH  29  32
ENDBRANCH  27  28
BRANCH  27  42
ATOM     42  C   UNL     1       0.249  -1.629  14.920  1.00  0.00     0.015 C 
ATOM     43  C   UNL     1      -0.760  -2.217  13.926  1.00  0.00     0.010 C 
ATOM     44  C   UNL     1       0.175  -2.375  16.256  1.00  0.00     0.010 C 
ENDBRANCH  27  42
ENDBRANCH   3  27
TORSDOF 5
ENDMDL
MODEL 10
REMARK VINA RESULT:    -4.086      2.679      6.624
REMARK INTER + INTRA:          -9.309
REMARK INTER:                  -7.425
REMARK INTRA:                  -1.885
REMARK UNBOUND:                -1.999
REMARK SMILES CC[C@H](C)[C@H]1NC(=O)c2coc(n2)[C@H](C(C)C)NC(=O)[C@H]([C@@H](C)O)NC(=O)[C@H](C)NC(=O)c2csc1n2
REMARK SMILES IDX 11 1 13 2 12 3 9 4 10 5 7 6 6 7 8 8 5 10 36 11 35 12 34 13
REMARK SMILES IDX 37 14 33 15 31 16 32 17 30 18 28 20 29 21 3 23 4 24 2 25
REMARK SMILES IDX 1 26 14 27 18 28 19 29 20 30 21 32 25 33 26 34 27 35 22 38
REMARK SMILES IDX 23 39 24 40 15 42 16 43 17 44
REMARK H PARENT 6 9 30 19 18 31 25 36 24 41
REMARK Flexibility Score:   94.900
ROOT
ATOM      1  O   UNL     1       5.151   1.950   9.421  1.00  0.00    -0.446 OA
ATOM      2  N   UNL     1       6.891   2.054  10.850  1.00  0.00    -0.207 NA
ATOM      3  C   UNL     1       6.506   2.060   9.586  1.00  0.00     0.217 A 
ATOM      4  C   UNL     1       5.710   1.961  11.565  1.00  0.00     0.167 A 
ATOM      5  C   UNL     1       4.653   1.899  10.689  1.00  0.00     0.231 A 
ENDROOT
BRANCH   4   6
ATOM      6  C   UNL     1       5.662   1.907  13.015  1.00  0.00     0.273 C 
ATOM      7  N   UNL     1       6.807   2.408  13.582  1.00  0.00    -0.341 N 
ATOM      8  O   UNL     1       4.719   1.445  13.646  1.00  0.00    -0.267 OA
ATOM      9  H   UNL     1       7.542   2.670  12.931  1.00  0.00     0.164 HD
BRANCH   7  10
ATOM     10  C   UNL     1       7.129   2.251  14.986  1.00  0.00     0.145 C 
BRANCH  10  11
ATOM     11  C   UNL     1       7.903   0.949  15.138  1.00  0.00     0.116 A 
ATOM     12  S   UNL     1       7.827   0.079  16.624  1.00  0.00    -0.124 S 
ATOM     13  C   UNL     1       8.839  -1.128  15.959  1.00  0.00     0.101 A 
ATOM     14  N   UNL     1       8.646   0.395  14.195  1.00  0.00    -0.234 NA
ATOM     15  C   UNL     1       9.175  -0.813  14.656  1.00  0.00     0.139 A 
BRANCH  15  16
ATOM     16  C   UNL     1      10.010  -1.663  13.805  1.00  0.00     0.271 C 
ATOM     17  O   UNL     1      10.875  -2.408  14.253  1.00  0.00    -0.267 OA
ATOM     18  N   UNL     1       9.728  -1.543  12.460  1.00  0.00    -0.339 N 
ATOM     19  H   UNL     1       9.068  -0.811  12.209  1.00  0.00     0.164 HD
BRANCH  18  20
ATOM     20  C   UNL     1      10.503  -2.262  11.459  1.00  0.00     0.168 CG0
ATOM     21  C   UNL     1       9.873  -3.618  11.135  1.00  0.00     0.041 C 
ATOM     22  G   UNL     1      10.642  -1.481  10.142  1.00  0.00     0.000 G0
ENDBRANCH  18  20
ENDBRANCH  15  16
ENDBRANCH  10  11
BRANCH  10  23
ATOM     23  C   UNL     1       7.907   3.470  15.549  1.00  0.00     0.015 C 
ATOM     24  C   UNL     1       8.928   3.093  16.635  1.00  0.00     0.010 C 
BRANCH  23  25
ATOM     25  C   UNL     1       8.631   4.278  14.448  1.00  0.00     0.002 C 
ATOM     26  C   UNL     1      10.079   3.862  14.228  1.00  0.00     0.004 C 
ENDBRANCH  23  25
ENDBRANCH  10  23
ENDBRANCH   7  10
ENDBRANCH   4   6
BRANCH   3  27
ATOM     27  C   UNL     1       7.388   2.119   8.370  1.00  0.00     0.171 C 
BRANCH  27  28
ATOM     28  N   UNL     1       7.919   0.780   8.138  1.00  0.00    -0.342 N 
ATOM     29  C   UNL     1       9.267   0.517   8.037  1.00  0.00     0.245 C 
ATOM     30  O   UNL     1      10.125   1.391   8.151  1.00  0.00    -0.273 OA
ATOM     31  H   UNL     1       7.275  -0.011   8.147  1.00  0.00     0.164 HD
BRANCH  29  32
ATOM     32  C   UNL     1       9.642  -0.975   7.921  1.00  0.00     0.200 C 
BRANCH  32  33
ATOM     33  N   UNL     1       9.584  -1.570   9.262  1.00  0.00    -0.340 N 
ATOM     34  C   UNL     1      10.647  -1.471  10.135  1.00  0.00     0.243 CG0
ATOM     35  O   UNL     1      11.707  -0.939   9.811  1.00  0.00    -0.273 OA
ATOM     36  H   UNL     1       8.734  -2.042   9.547  1.00  0.00     0.164 HD
ATOM     37  G   UNL     1      10.506  -2.255  11.450  1.00  0.00     0.000 G0
ENDBRANCH  32  33
BRANCH  32  38
ATOM     38  C   UNL     1       8.741  -1.706   6.898  1.00  0.00     0.143 C 
ATOM     39  C   UNL     1       9.505  -2.581   5.911  1.00  0.00     0.041 C 
BRANCH  38  40
ATOM     40  O   UNL     1       7.770  -2.517   7.587  1.00  0.00    -0.391 OA
ATOM     41  H   UNL     1       7.694  -3.350   7.084  1.00  0.00     0.211 HD
ENDBRANCH  38  40
ENDBRANCH  32  38
ENDBRANCH  29  32
ENDBRANCH  27  28
BRANCH  27  42
ATOM     42  C   UNL     1       6.783   2.723   7.079  1.00  0.00     0.015 C 
ATOM     43  C   UNL     1       6.389   4.202   7.163  1.00  0.00     0.010 C 
ATOM     44  C   UNL     1       7.678   2.480   5.859  1.00  0.00     0.010 C 
ENDBRANCH  27  42
ENDBRANCH   3  27
TORSDOF 5
ENDMDL
