MODEL 1
REMARK VINA RESULT:    -6.259      0.000      0.000
REMARK INTER + INTRA:         -27.847
REMARK INTER:                 -18.698
REMARK INTRA:                  -9.148
REMARK UNBOUND:                -9.148
REMARK SMILES C=C1C(=O)N[C@H](C)C(=O)N[C@@H](CC(C)C)C(=O)N[C@@H](C(=O)O)[C@H](C)C(=O)N[C@@H](CCCN=C(N)N)C(=O)N[C@@H](/C=C/C(C)=C/[C@H](C)[C@H](Cc2ccccc2)OC)[C@H](C)C(=O)N[C@@H](C(=O)O)CCC(=O)N1C
REMARK SMILES IDX 39 1 38 2 37 3 36 4 28 6 27 7 25 8 26 9 23 11 24 12 19 13
REMARK SMILES IDX 18 14 16 15 17 16 11 18 10 19 8 20 9 21 12 24 13 25 14 26
REMARK SMILES IDX 15 27 20 28 21 29 22 30 29 32 30 33 31 34 32 35 33 36 34 37
REMARK SMILES IDX 35 38 57 43 58 44 59 45 60 46 61 47 62 49 66 50 67 51 68 52
REMARK SMILES IDX 69 53 70 54 71 55 2 56 1 57 3 58 4 59 5 60 6 62 7 63 63 65
REMARK SMILES IDX 64 66 65 67 40 69 41 70 42 71 44 72 43 73 45 74 46 75 47 76
REMARK SMILES IDX 55 77 56 78 48 79 49 80 50 81 54 82 51 83 53 84 52 85
REMARK H PARENT 38 5 27 10 18 17 10 22 22 31 34 39 34 40 35 41 35 42 61 48
REMARK H PARENT 5 61 65 68
REMARK Flexibility Score:  369.900
ROOT
ATOM      1  C   UNL     1       4.040   8.111  -0.222  1.00  0.00     0.117 C 
ENDROOT
BRANCH   1   2
ATOM      2  N   UNL     1       5.452   7.812  -0.463  1.00  0.00    -0.347 N 
ATOM      3  O   UNL     1       6.263   9.950  -0.260  1.00  0.00    -0.273 OA
ATOM      4  C   UNL     1       6.466   8.745  -0.372  1.00  0.00     0.243 C 
ATOM      5  H   UNL     1       5.730   6.863  -0.662  1.00  0.00     0.164 HD
BRANCH   4   6
ATOM      6  C   UNL     1       7.881   8.151  -0.590  1.00  0.00     0.171 C 
BRANCH   6   7
ATOM      7  N   UNL     1       7.920   7.356  -1.828  1.00  0.00    -0.344 N 
ATOM      8  C   UNL     1       8.828   6.330  -1.975  1.00  0.00     0.226 C 
ATOM      9  O   UNL     1       9.648   6.045  -1.111  1.00  0.00    -0.275 OA
ATOM     10  H   UNL     1       7.303   7.606  -2.591  1.00  0.00     0.164 HD
BRANCH   8  11
ATOM     11  C   UNL     1       8.706   5.571  -3.285  1.00  0.00     0.109 C 
ATOM     12  C   UNL     1       9.916   4.657  -3.478  1.00  0.00     0.021 C 
BRANCH  11  13
ATOM     13  C   UNL     1       7.340   4.859  -3.350  1.00  0.00     0.204 C 
BRANCH  13  14
ATOM     14  N   UNL     1       7.336   3.759  -4.319  1.00  0.00    -0.340 N 
ATOM     15  C   UNL     1       7.256   3.961  -5.680  1.00  0.00     0.243 C 
ATOM     16  O   UNL     1       7.243   5.084  -6.181  1.00  0.00    -0.273 OA
ATOM     17  H   UNL     1       7.192   2.809  -3.967  1.00  0.00     0.164 HD
BRANCH  15  18
ATOM     18  C   UNL     1       7.058   2.655  -6.489  1.00  0.00     0.171 C 
BRANCH  18  19
ATOM     19  N   UNL     1       8.383   2.062  -6.657  1.00  0.00    -0.343 N 
ATOM     20  C   UNL     1       8.927   1.838  -7.907  1.00  0.00     0.242 CG0
ATOM     21  O   UNL     1       8.272   2.001  -8.933  1.00  0.00    -0.273 OA
ATOM     22  H   UNL     1       8.920   1.802  -5.837  1.00  0.00     0.164 HD
ATOM     23  G   UNL     1      10.365   1.279  -7.884  1.00  0.00     0.000 G0
ENDBRANCH  18  19
BRANCH  18  24
ATOM     24  C   UNL     1       6.106   1.703  -5.755  1.00  0.00     0.038 C 
BRANCH  24  25
ATOM     25  C   UNL     1       4.834   1.328  -6.545  1.00  0.00    -0.015 C 
ATOM     26  C   UNL     1       3.879   0.451  -5.735  1.00  0.00     0.007 C 
ATOM     27  C   UNL     1       5.225   0.607  -7.837  1.00  0.00     0.007 C 
ENDBRANCH  24  25
ENDBRANCH  18  24
ENDBRANCH  15  18
ENDBRANCH  13  14
BRANCH  13  28
ATOM     28  C   UNL     1       6.896   4.279  -2.003  1.00  0.00     0.327 C 
ATOM     29  O   UNL     1       7.319   3.259  -1.481  1.00  0.00    -0.250 OA
BRANCH  28  30
ATOM     30  O   UNL     1       5.865   4.951  -1.452  1.00  0.00    -0.480 OA
ATOM     31  H   UNL     1       6.064   4.952  -0.492  1.00  0.00     0.296 HD
ENDBRANCH  28  30
ENDBRANCH  13  28
ENDBRANCH  11  13
ENDBRANCH   8  11
ENDBRANCH   6   7
BRANCH   6  32
ATOM     32  C   UNL     1       8.904   9.292  -0.639  1.00  0.00     0.037 C 
BRANCH  32  33
ATOM     33  C   UNL     1       9.998   9.136   0.426  1.00  0.00     0.026 C 
BRANCH  33  34
ATOM     34  C   UNL     1       9.951  10.243   1.480  1.00  0.00     0.146 C 
BRANCH  34  35
ATOM     35  N   UNL     1       8.786  10.035   2.329  1.00  0.00    -0.254 NA
ATOM     36  C   UNL     1       7.844  10.902   2.302  1.00  0.00     0.185 C 
ATOM     37  N   UNL     1       6.764  10.718   3.077  1.00  0.00    -0.370 N 
ATOM     38  N   UNL     1       7.757  12.034   1.581  1.00  0.00    -0.370 N 
ATOM     39  H   UNL     1       6.750   9.880   3.645  1.00  0.00     0.159 HD
ATOM     40  H   UNL     1       5.916  11.251   2.986  1.00  0.00     0.159 HD
ATOM     41  H   UNL     1       7.027  12.706   1.752  1.00  0.00     0.159 HD
ATOM     42  H   UNL     1       8.506  12.308   0.965  1.00  0.00     0.159 HD
ENDBRANCH  34  35
ENDBRANCH  33  34
ENDBRANCH  32  33
ENDBRANCH   6  32
ENDBRANCH   4   6
ENDBRANCH   1   2
BRANCH   1  43
ATOM     43  C   UNL     1       3.722   7.825   1.274  1.00  0.00     0.102 C 
ATOM     44  C   UNL     1       3.779   9.079   2.163  1.00  0.00     0.020 C 
BRANCH  43  45
ATOM     45  C   UNL     1       4.557   6.653   1.800  1.00  0.00     0.225 C 
ATOM     46  O   UNL     1       4.423   5.501   1.397  1.00  0.00    -0.275 OA
ATOM     47  N   UNL     1       5.415   6.953   2.833  1.00  0.00    -0.342 N 
ATOM     48  H   UNL     1       5.623   7.919   3.046  1.00  0.00     0.164 HD
BRANCH  47  49
ATOM     49  C   UNL     1       6.302   5.939   3.412  1.00  0.00     0.192 C 
BRANCH  49  50
ATOM     50  C   UNL     1       6.621   6.303   4.864  1.00  0.00     0.047 C 
BRANCH  50  51
ATOM     51  C   UNL     1       5.383   6.797   5.626  1.00  0.00     0.103 C 
BRANCH  51  52
ATOM     52  C   UNL     1       4.434   5.653   5.979  1.00  0.00     0.226 C 
ATOM     53  O   UNL     1       4.881   4.626   6.493  1.00  0.00    -0.275 OA
BRANCH  52  54
ATOM     54  N   UNL     1       3.064   5.885   5.758  1.00  0.00    -0.311 N 
ATOM     55  C   UNL     1       2.600   7.125   5.122  1.00  0.00     0.153 C 
BRANCH  54  56
ATOM     56  C   UNL     1       2.092   4.941   6.130  1.00  0.00     0.102 C 
ATOM     57  C   UNL     1       1.680   3.919   5.362  1.00  0.00     0.043 C 
BRANCH  56  58
ATOM     58  C   UNL     1       1.448   4.988   7.495  1.00  0.00     0.268 C 
ATOM     59  O   UNL     1       0.725   4.100   7.926  1.00  0.00    -0.268 OA
ATOM     60  N   UNL     1       1.812   6.094   8.226  1.00  0.00    -0.339 N 
ATOM     61  H   UNL     1       2.408   6.790   7.793  1.00  0.00     0.164 HD
BRANCH  60  62
ATOM     62  C   UNL     1       1.354   6.306   9.598  1.00  0.00     0.168 CG0
ATOM     63  C   UNL     1       0.999   7.769   9.837  1.00  0.00     0.041 C 
ATOM     64  G   UNL     1       2.444   5.841  10.585  1.00  0.00     0.000 G0
ENDBRANCH  60  62
ENDBRANCH  56  58
ENDBRANCH  54  56
ENDBRANCH  52  54
ENDBRANCH  51  52
ENDBRANCH  50  51
ENDBRANCH  49  50
BRANCH  49  65
ATOM     65  C   UNL     1       7.612   5.813   2.619  1.00  0.00     0.326 C 
ATOM     66  O   UNL     1       8.056   4.780   2.140  1.00  0.00    -0.250 OA
BRANCH  65  67
ATOM     67  O   UNL     1       8.322   6.958   2.518  1.00  0.00    -0.480 OA
ATOM     68  H   UNL     1       7.796   7.503   1.894  1.00  0.00     0.296 HD
ENDBRANCH  65  67
ENDBRANCH  49  65
ENDBRANCH  47  49
ENDBRANCH  43  45
ENDBRANCH   1  43
BRANCH   1  69
ATOM     69  C   UNL     1       3.261   7.368  -1.292  1.00  0.00    -0.001 C 
ATOM     70  C   UNL     1       1.927   7.216  -1.373  1.00  0.00     0.001 C 
BRANCH  70  71
ATOM     71  C   UNL     1       1.184   6.515  -2.423  1.00  0.00    -0.055 C 
ATOM     72  C   UNL     1       0.449   5.442  -2.062  1.00  0.00    -0.018 C 
ATOM     73  C   UNL     1       1.287   7.045  -3.829  1.00  0.00     0.044 C 
BRANCH  72  74
ATOM     74  C   UNL     1      -0.415   4.533  -2.924  1.00  0.00     0.038 C 
ATOM     75  C   UNL     1      -1.872   4.968  -2.721  1.00  0.00     0.015 C 
BRANCH  74  76
ATOM     76  C   UNL     1      -0.117   3.052  -2.546  1.00  0.00     0.128 C 
BRANCH  76  77
ATOM     77  O   UNL     1      -1.349   2.346  -2.321  1.00  0.00    -0.381 OA
ATOM     78  C   UNL     1      -1.245   1.311  -1.352  1.00  0.00     0.195 C 
ENDBRANCH  76  77
BRANCH  76  79
ATOM     79  C   UNL     1       0.818   2.324  -3.544  1.00  0.00     0.068 C 
BRANCH  79  80
ATOM     80  C   UNL     1       1.778   3.162  -4.354  1.00  0.00    -0.045 A 
ATOM     81  C   UNL     1       1.510   3.474  -5.693  1.00  0.00     0.004 A 
ATOM     82  C   UNL     1       2.974   3.619  -3.781  1.00  0.00     0.004 A 
ATOM     83  C   UNL     1       2.409   4.238  -6.439  1.00  0.00     0.000 A 
ATOM     84  C   UNL     1       3.873   4.382  -4.529  1.00  0.00     0.000 A 
ATOM     85  C   UNL     1       3.590   4.693  -5.857  1.00  0.00     0.000 A 
ENDBRANCH  79  80
ENDBRANCH  76  79
ENDBRANCH  74  76
ENDBRANCH  72  74
ENDBRANCH  70  71
ENDBRANCH   1  69
TORSDOF 17
ENDMDL
MODEL 2
REMARK VINA RESULT:    -6.116      1.625      2.646
REMARK INTER + INTRA:         -27.422
REMARK INTER:                 -18.913
REMARK INTRA:                  -8.508
REMARK UNBOUND:                -9.148
REMARK SMILES C=C1C(=O)N[C@H](C)C(=O)N[C@@H](CC(C)C)C(=O)N[C@@H](C(=O)O)[C@H](C)C(=O)N[C@@H](CCCN=C(N)N)C(=O)N[C@@H](/C=C/C(C)=C/[C@H](C)[C@H](Cc2ccccc2)OC)[C@H](C)C(=O)N[C@@H](C(=O)O)CCC(=O)N1C
REMARK SMILES IDX 39 1 38 2 37 3 36 4 28 6 27 7 25 8 26 9 23 11 24 12 19 13
REMARK SMILES IDX 18 14 16 15 17 16 11 18 10 19 8 20 9 21 12 24 13 25 14 26
REMARK SMILES IDX 15 27 20 28 21 29 22 30 29 32 30 33 31 34 32 35 33 36 34 37
REMARK SMILES IDX 35 38 57 43 58 44 59 45 60 46 61 47 62 49 66 50 67 51 68 52
REMARK SMILES IDX 69 53 70 54 71 55 2 56 1 57 3 58 4 59 5 60 6 62 7 63 63 65
REMARK SMILES IDX 64 66 65 67 40 69 41 70 42 71 44 72 43 73 45 74 46 75 47 76
REMARK SMILES IDX 55 77 56 78 48 79 49 80 50 81 54 82 51 83 53 84 52 85
REMARK H PARENT 38 5 27 10 18 17 10 22 22 31 34 39 34 40 35 41 35 42 61 48
REMARK H PARENT 5 61 65 68
REMARK Flexibility Score:  369.900
ROOT
ATOM      1  C   UNL     1       3.956   8.399   0.452  1.00  0.00     0.117 C 
ENDROOT
BRANCH   1   2
ATOM      2  N   UNL     1       5.287   7.936   0.059  1.00  0.00    -0.347 N 
ATOM      3  O   UNL     1       6.219   9.990  -0.369  1.00  0.00    -0.273 OA
ATOM      4  C   UNL     1       6.344   8.777  -0.233  1.00  0.00     0.243 C 
ATOM      5  H   UNL     1       5.481   6.946   0.041  1.00  0.00     0.164 HD
BRANCH   4   6
ATOM      6  C   UNL     1       7.668   8.032  -0.536  1.00  0.00     0.171 C 
BRANCH   6   7
ATOM      7  N   UNL     1       7.536   7.226  -1.761  1.00  0.00    -0.344 N 
ATOM      8  C   UNL     1       8.215   6.034  -1.894  1.00  0.00     0.226 C 
ATOM      9  O   UNL     1       8.966   5.602  -1.029  1.00  0.00    -0.275 OA
ATOM     10  H   UNL     1       6.977   7.584  -2.526  1.00  0.00     0.164 HD
BRANCH   8  11
ATOM     11  C   UNL     1       7.932   5.295  -3.190  1.00  0.00     0.109 C 
ATOM     12  C   UNL     1       9.150   4.467  -3.600  1.00  0.00     0.021 C 
BRANCH  11  13
ATOM     13  C   UNL     1       6.619   4.497  -3.060  1.00  0.00     0.204 C 
BRANCH  13  14
ATOM     14  N   UNL     1       6.525   3.423  -4.054  1.00  0.00    -0.340 N 
ATOM     15  C   UNL     1       6.146   3.644  -5.360  1.00  0.00     0.243 C 
ATOM     16  O   UNL     1       5.917   4.769  -5.800  1.00  0.00    -0.273 OA
ATOM     17  H   UNL     1       6.553   2.456  -3.720  1.00  0.00     0.164 HD
BRANCH  15  18
ATOM     18  C   UNL     1       5.917   2.341  -6.166  1.00  0.00     0.171 C 
BRANCH  18  19
ATOM     19  N   UNL     1       7.234   1.879  -6.597  1.00  0.00    -0.343 N 
ATOM     20  C   UNL     1       7.440   1.330  -7.849  1.00  0.00     0.242 CG0
ATOM     21  O   UNL     1       6.504   1.084  -8.605  1.00  0.00    -0.273 OA
ATOM     22  H   UNL     1       8.021   1.955  -5.962  1.00  0.00     0.164 HD
ATOM     23  G   UNL     1       8.910   0.974  -8.154  1.00  0.00     0.000 G0
ENDBRANCH  18  19
BRANCH  18  24
ATOM     24  C   UNL     1       5.206   1.290  -5.304  1.00  0.00     0.038 C 
BRANCH  24  25
ATOM     25  C   UNL     1       3.696   1.142  -5.583  1.00  0.00    -0.015 C 
ATOM     26  C   UNL     1       3.230  -0.313  -5.527  1.00  0.00     0.007 C 
ATOM     27  C   UNL     1       3.365   1.736  -6.955  1.00  0.00     0.007 C 
ENDBRANCH  24  25
ENDBRANCH  18  24
ENDBRANCH  15  18
ENDBRANCH  13  14
BRANCH  13  28
ATOM     28  C   UNL     1       6.437   3.857  -1.681  1.00  0.00     0.327 C 
ATOM     29  O   UNL     1       6.891   2.783  -1.317  1.00  0.00    -0.250 OA
BRANCH  28  30
ATOM     30  O   UNL     1       5.597   4.548  -0.883  1.00  0.00    -0.480 OA
ATOM     31  H   UNL     1       5.383   3.923  -0.160  1.00  0.00     0.296 HD
ENDBRANCH  28  30
ENDBRANCH  13  28
ENDBRANCH  11  13
ENDBRANCH   8  11
ENDBRANCH   6   7
BRANCH   6  32
ATOM     32  C   UNL     1       8.801   9.055  -0.674  1.00  0.00     0.037 C 
BRANCH  32  33
ATOM     33  C   UNL     1      10.011   8.701   0.203  1.00  0.00     0.026 C 
BRANCH  33  34
ATOM     34  C   UNL     1      10.217   9.697   1.345  1.00  0.00     0.146 C 
BRANCH  34  35
ATOM     35  N   UNL     1       9.014  10.507   1.485  1.00  0.00    -0.254 NA
ATOM     36  C   UNL     1       8.230  10.277   2.471  1.00  0.00     0.185 C 
ATOM     37  N   UNL     1       7.122  11.021   2.612  1.00  0.00    -0.370 N 
ATOM     38  N   UNL     1       8.345   9.357   3.445  1.00  0.00    -0.370 N 
ATOM     39  H   UNL     1       6.969  11.744   1.921  1.00  0.00     0.159 HD
ATOM     40  H   UNL     1       6.554  11.021   3.442  1.00  0.00     0.159 HD
ATOM     41  H   UNL     1       7.589   9.182   4.088  1.00  0.00     0.159 HD
ATOM     42  H   UNL     1       9.123   8.716   3.456  1.00  0.00     0.159 HD
ENDBRANCH  34  35
ENDBRANCH  33  34
ENDBRANCH  32  33
ENDBRANCH   6  32
ENDBRANCH   4   6
ENDBRANCH   1   2
BRANCH   1  43
ATOM     43  C   UNL     1       3.648   7.865   1.881  1.00  0.00     0.102 C 
ATOM     44  C   UNL     1       3.615   8.967   2.953  1.00  0.00     0.020 C 
BRANCH  43  45
ATOM     45  C   UNL     1       4.555   6.682   2.233  1.00  0.00     0.225 C 
ATOM     46  O   UNL     1       4.385   5.551   1.787  1.00  0.00    -0.275 OA
ATOM     47  N   UNL     1       5.532   6.942   3.166  1.00  0.00    -0.342 N 
ATOM     48  H   UNL     1       5.753   7.899   3.405  1.00  0.00     0.164 HD
BRANCH  47  49
ATOM     49  C   UNL     1       6.495   5.915   3.574  1.00  0.00     0.192 C 
BRANCH  49  50
ATOM     50  C   UNL     1       7.076   6.269   4.945  1.00  0.00     0.047 C 
BRANCH  50  51
ATOM     51  C   UNL     1       5.994   6.725   5.935  1.00  0.00     0.103 C 
BRANCH  51  52
ATOM     52  C   UNL     1       5.368   5.548   6.681  1.00  0.00     0.226 C 
ATOM     53  O   UNL     1       6.058   4.875   7.448  1.00  0.00    -0.275 OA
BRANCH  52  54
ATOM     54  N   UNL     1       3.987   5.352   6.494  1.00  0.00    -0.311 N 
ATOM     55  C   UNL     1       3.481   4.569   5.359  1.00  0.00     0.153 C 
BRANCH  54  56
ATOM     56  C   UNL     1       3.044   5.889   7.386  1.00  0.00     0.102 C 
ATOM     57  C   UNL     1       2.495   5.226   8.417  1.00  0.00     0.043 C 
BRANCH  56  58
ATOM     58  C   UNL     1       2.597   7.327   7.267  1.00  0.00     0.268 C 
ATOM     59  O   UNL     1       2.488   7.908   6.196  1.00  0.00    -0.268 OA
ATOM     60  N   UNL     1       2.263   7.891   8.476  1.00  0.00    -0.339 N 
ATOM     61  H   UNL     1       2.392   7.346   9.320  1.00  0.00     0.164 HD
BRANCH  60  62
ATOM     62  C   UNL     1       1.747   9.255   8.583  1.00  0.00     0.168 CG0
ATOM     63  C   UNL     1       2.866  10.242   8.890  1.00  0.00     0.041 C 
ATOM     64  G   UNL     1       0.657   9.310   9.673  1.00  0.00     0.000 G0
ENDBRANCH  60  62
ENDBRANCH  56  58
ENDBRANCH  54  56
ENDBRANCH  52  54
ENDBRANCH  51  52
ENDBRANCH  50  51
ENDBRANCH  49  50
BRANCH  49  65
ATOM     65  C   UNL     1       7.640   5.777   2.557  1.00  0.00     0.326 C 
ATOM     66  O   UNL     1       8.658   6.453   2.538  1.00  0.00    -0.250 OA
BRANCH  65  67
ATOM     67  O   UNL     1       7.428   4.855   1.592  1.00  0.00    -0.480 OA
ATOM     68  H   UNL     1       6.582   4.434   1.856  1.00  0.00     0.296 HD
ENDBRANCH  65  67
ENDBRANCH  49  65
ENDBRANCH  47  49
ENDBRANCH  43  45
ENDBRANCH   1  43
BRANCH   1  69
ATOM     69  C   UNL     1       3.024   8.028  -0.687  1.00  0.00    -0.001 C 
ATOM     70  C   UNL     1       3.354   7.461  -1.860  1.00  0.00     0.001 C 
BRANCH  70  71
ATOM     71  C   UNL     1       2.443   7.087  -2.944  1.00  0.00    -0.055 C 
ATOM     72  C   UNL     1       1.153   6.848  -2.625  1.00  0.00    -0.018 C 
ATOM     73  C   UNL     1       3.006   7.004  -4.338  1.00  0.00     0.044 C 
BRANCH  72  74
ATOM     74  C   UNL     1      -0.005   6.450  -3.529  1.00  0.00     0.038 C 
ATOM     75  C   UNL     1      -0.843   7.711  -3.772  1.00  0.00     0.015 C 
BRANCH  74  76
ATOM     76  C   UNL     1      -0.776   5.271  -2.866  1.00  0.00     0.128 C 
BRANCH  76  77
ATOM     77  O   UNL     1      -1.526   4.554  -3.861  1.00  0.00    -0.381 OA
ATOM     78  C   UNL     1      -2.242   3.441  -3.344  1.00  0.00     0.195 C 
ENDBRANCH  76  77
BRANCH  76  79
ATOM     79  C   UNL     1       0.116   4.342  -2.004  1.00  0.00     0.068 C 
BRANCH  79  80
ATOM     80  C   UNL     1      -0.013   4.434  -0.502  1.00  0.00    -0.045 A 
ATOM     81  C   UNL     1       1.084   4.784   0.296  1.00  0.00     0.004 A 
ATOM     82  C   UNL     1      -1.235   4.141   0.122  1.00  0.00     0.004 A 
ATOM     83  C   UNL     1       0.961   4.853   1.685  1.00  0.00     0.000 A 
ATOM     84  C   UNL     1      -1.357   4.210   1.512  1.00  0.00     0.000 A 
ATOM     85  C   UNL     1      -0.260   4.568   2.293  1.00  0.00     0.000 A 
ENDBRANCH  79  80
ENDBRANCH  76  79
ENDBRANCH  74  76
ENDBRANCH  72  74
ENDBRANCH  70  71
ENDBRANCH   1  69
TORSDOF 17
ENDMDL
MODEL 3
REMARK VINA RESULT:    -5.811     14.673     21.930
REMARK INTER + INTRA:         -26.510
REMARK INTER:                 -18.975
REMARK INTRA:                  -7.535
REMARK UNBOUND:                -9.148
REMARK SMILES C=C1C(=O)N[C@H](C)C(=O)N[C@@H](CC(C)C)C(=O)N[C@@H](C(=O)O)[C@H](C)C(=O)N[C@@H](CCCN=C(N)N)C(=O)N[C@@H](/C=C/C(C)=C/[C@H](C)[C@H](Cc2ccccc2)OC)[C@H](C)C(=O)N[C@@H](C(=O)O)CCC(=O)N1C
REMARK SMILES IDX 39 1 38 2 37 3 36 4 28 6 27 7 25 8 26 9 23 11 24 12 19 13
REMARK SMILES IDX 18 14 16 15 17 16 11 18 10 19 8 20 9 21 12 24 13 25 14 26
REMARK SMILES IDX 15 27 20 28 21 29 22 30 29 32 30 33 31 34 32 35 33 36 34 37
REMARK SMILES IDX 35 38 57 43 58 44 59 45 60 46 61 47 62 49 66 50 67 51 68 52
REMARK SMILES IDX 69 53 70 54 71 55 2 56 1 57 3 58 4 59 5 60 6 62 7 63 63 65
REMARK SMILES IDX 64 66 65 67 40 69 41 70 42 71 44 72 43 73 45 74 46 75 47 76
REMARK SMILES IDX 55 77 56 78 48 79 49 80 50 81 54 82 51 83 53 84 52 85
REMARK H PARENT 38 5 27 10 18 17 10 22 22 31 34 39 34 40 35 41 35 42 61 48
REMARK H PARENT 5 61 65 68
REMARK Flexibility Score:  369.900
ROOT
ATOM      1  C   UNL     1     -10.073   1.484  11.136  1.00  0.00     0.117 C 
ENDROOT
BRANCH   1   2
ATOM      2  N   UNL     1     -10.293   0.210  11.822  1.00  0.00    -0.347 N 
ATOM      3  O   UNL     1     -10.669   1.048  13.926  1.00  0.00    -0.273 OA
ATOM      4  C   UNL     1     -10.664   0.099  13.148  1.00  0.00     0.243 C 
ATOM      5  H   UNL     1     -10.221  -0.651  11.301  1.00  0.00     0.164 HD
BRANCH   4   6
ATOM      6  C   UNL     1     -10.917  -1.360  13.605  1.00  0.00     0.171 C 
BRANCH   6   7
ATOM      7  N   UNL     1     -11.532  -2.140  12.520  1.00  0.00    -0.344 N 
ATOM      8  C   UNL     1     -12.627  -2.941  12.763  1.00  0.00     0.226 C 
ATOM      9  O   UNL     1     -13.122  -3.062  13.877  1.00  0.00    -0.275 OA
ATOM     10  H   UNL     1     -11.110  -2.119  11.600  1.00  0.00     0.164 HD
BRANCH   8  11
ATOM     11  C   UNL     1     -13.178  -3.637  11.532  1.00  0.00     0.109 C 
ATOM     12  C   UNL     1     -12.480  -3.116  10.275  1.00  0.00     0.021 C 
BRANCH  11  13
ATOM     13  C   UNL     1     -13.112  -5.166  11.723  1.00  0.00     0.204 C 
BRANCH  13  14
ATOM     14  N   UNL     1     -12.275  -5.543  12.866  1.00  0.00    -0.340 N 
ATOM     15  C   UNL     1     -11.014  -6.080  12.725  1.00  0.00     0.243 C 
ATOM     16  O   UNL     1     -10.477  -6.226  11.628  1.00  0.00    -0.273 OA
ATOM     17  H   UNL     1     -12.714  -5.590  13.789  1.00  0.00     0.164 HD
BRANCH  15  18
ATOM     18  C   UNL     1     -10.406  -6.591  14.055  1.00  0.00     0.171 C 
BRANCH  18  19
ATOM     19  N   UNL     1     -10.550  -8.046  14.049  1.00  0.00    -0.343 N 
ATOM     20  C   UNL     1     -11.750  -8.661  14.348  1.00  0.00     0.242 CG0
ATOM     21  O   UNL     1     -12.715  -8.022  14.762  1.00  0.00    -0.273 OA
ATOM     22  H   UNL     1      -9.747  -8.624  13.826  1.00  0.00     0.164 HD
ATOM     23  G   UNL     1     -11.729 -10.198  14.213  1.00  0.00     0.000 G0
ENDBRANCH  18  19
BRANCH  18  24
ATOM     24  C   UNL     1      -8.936  -6.172  14.175  1.00  0.00     0.038 C 
BRANCH  24  25
ATOM     25  C   UNL     1      -8.498  -5.760  15.597  1.00  0.00    -0.015 C 
ATOM     26  C   UNL     1      -9.581  -4.979  16.340  1.00  0.00     0.007 C 
ATOM     27  C   UNL     1      -7.219  -4.922  15.518  1.00  0.00     0.007 C 
ENDBRANCH  24  25
ENDBRANCH  18  24
ENDBRANCH  15  18
ENDBRANCH  13  14
BRANCH  13  28
ATOM     28  C   UNL     1     -14.487  -5.807  11.937  1.00  0.00     0.327 C 
ATOM     29  O   UNL     1     -15.570  -5.270  11.763  1.00  0.00    -0.250 OA
BRANCH  28  30
ATOM     30  O   UNL     1     -14.416  -7.045  12.468  1.00  0.00    -0.480 OA
ATOM     31  H   UNL     1     -15.317  -7.211  12.813  1.00  0.00     0.296 HD
ENDBRANCH  28  30
ENDBRANCH  13  28
ENDBRANCH  11  13
ENDBRANCH   8  11
ENDBRANCH   6   7
BRANCH   6  32
ATOM     32  C   UNL     1      -9.588  -1.986  14.044  1.00  0.00     0.037 C 
BRANCH  32  33
ATOM     33  C   UNL     1      -8.903  -2.750  12.903  1.00  0.00     0.026 C 
BRANCH  33  34
ATOM     34  C   UNL     1      -7.465  -2.286  12.669  1.00  0.00     0.146 C 
BRANCH  34  35
ATOM     35  N   UNL     1      -6.922  -1.786  13.925  1.00  0.00    -0.254 NA
ATOM     36  C   UNL     1      -5.823  -1.129  13.901  1.00  0.00     0.185 C 
ATOM     37  N   UNL     1      -5.317  -0.659  15.052  1.00  0.00    -0.370 N 
ATOM     38  N   UNL     1      -5.050  -0.814  12.847  1.00  0.00    -0.370 N 
ATOM     39  H   UNL     1      -5.849  -0.847  15.892  1.00  0.00     0.159 HD
ATOM     40  H   UNL     1      -4.563   0.005  15.098  1.00  0.00     0.159 HD
ATOM     41  H   UNL     1      -4.135  -0.412  12.973  1.00  0.00     0.159 HD
ATOM     42  H   UNL     1      -5.301  -1.116  11.918  1.00  0.00     0.159 HD
ENDBRANCH  34  35
ENDBRANCH  33  34
ENDBRANCH  32  33
ENDBRANCH   6  32
ENDBRANCH   4   6
ENDBRANCH   1   2
BRANCH   1  43
ATOM     43  C   UNL     1     -11.333   1.810  10.283  1.00  0.00     0.102 C 
ATOM     44  C   UNL     1     -11.094   1.692   8.768  1.00  0.00     0.020 C 
BRANCH  43  45
ATOM     45  C   UNL     1     -11.958   3.141  10.711  1.00  0.00     0.225 C 
ATOM     46  O   UNL     1     -13.015   3.564  10.252  1.00  0.00    -0.275 OA
ATOM     47  N   UNL     1     -11.209   3.892  11.587  1.00  0.00    -0.342 N 
ATOM     48  H   UNL     1     -10.427   3.469  12.067  1.00  0.00     0.164 HD
BRANCH  47  49
ATOM     49  C   UNL     1     -11.697   5.171  12.111  1.00  0.00     0.192 C 
BRANCH  49  50
ATOM     50  C   UNL     1     -10.813   6.310  11.595  1.00  0.00     0.047 C 
BRANCH  50  51
ATOM     51  C   UNL     1     -11.452   7.053  10.414  1.00  0.00     0.103 C 
BRANCH  51  52
ATOM     52  C   UNL     1     -11.092   6.417   9.073  1.00  0.00     0.226 C 
ATOM     53  O   UNL     1     -10.110   5.676   8.994  1.00  0.00    -0.275 OA
BRANCH  52  54
ATOM     54  N   UNL     1     -11.972   6.666   8.004  1.00  0.00    -0.311 N 
ATOM     55  C   UNL     1     -13.355   6.173   8.033  1.00  0.00     0.153 C 
BRANCH  54  56
ATOM     56  C   UNL     1     -11.565   7.398   6.876  1.00  0.00     0.102 C 
ATOM     57  C   UNL     1     -11.687   8.728   6.738  1.00  0.00     0.043 C 
BRANCH  56  58
ATOM     58  C   UNL     1     -10.894   6.713   5.709  1.00  0.00     0.268 C 
ATOM     59  O   UNL     1     -10.665   5.511   5.679  1.00  0.00    -0.268 OA
ATOM     60  N   UNL     1     -10.628   7.564   4.663  1.00  0.00    -0.339 N 
ATOM     61  H   UNL     1     -10.839   8.549   4.771  1.00  0.00     0.164 HD
BRANCH  60  62
ATOM     62  C   UNL     1     -10.037   7.098   3.410  1.00  0.00     0.168 CG0
ATOM     63  C   UNL     1      -8.750   7.851   3.097  1.00  0.00     0.041 C 
ATOM     64  G   UNL     1     -11.058   7.262   2.265  1.00  0.00     0.000 G0
ENDBRANCH  60  62
ENDBRANCH  56  58
ENDBRANCH  54  56
ENDBRANCH  52  54
ENDBRANCH  51  52
ENDBRANCH  50  51
ENDBRANCH  49  50
BRANCH  49  65
ATOM     65  C   UNL     1     -11.704   5.189  13.648  1.00  0.00     0.326 C 
ATOM     66  O   UNL     1     -11.751   6.190  14.347  1.00  0.00    -0.250 OA
BRANCH  65  67
ATOM     67  O   UNL     1     -11.590   3.973  14.226  1.00  0.00    -0.480 OA
ATOM     68  H   UNL     1     -10.644   3.926  14.484  1.00  0.00     0.296 HD
ENDBRANCH  65  67
ENDBRANCH  49  65
ENDBRANCH  47  49
ENDBRANCH  43  45
ENDBRANCH   1  43
BRANCH   1  69
ATOM     69  C   UNL     1      -8.728   1.366  10.442  1.00  0.00    -0.001 C 
ATOM     70  C   UNL     1      -7.834   2.345  10.221  1.00  0.00     0.001 C 
BRANCH  70  71
ATOM     71  C   UNL     1      -6.530   2.215   9.570  1.00  0.00    -0.055 C 
ATOM     72  C   UNL     1      -5.498   1.766  10.315  1.00  0.00    -0.018 C 
ATOM     73  C   UNL     1      -6.433   2.583   8.112  1.00  0.00     0.044 C 
BRANCH  72  74
ATOM     74  C   UNL     1      -4.049   1.530   9.912  1.00  0.00     0.038 C 
ATOM     75  C   UNL     1      -3.976   0.133   9.284  1.00  0.00     0.015 C 
BRANCH  74  76
ATOM     76  C   UNL     1      -3.142   1.733  11.161  1.00  0.00     0.128 C 
BRANCH  76  77
ATOM     77  O   UNL     1      -1.854   2.227  10.758  1.00  0.00    -0.381 OA
ATOM     78  C   UNL     1      -1.919   3.348   9.887  1.00  0.00     0.195 C 
ENDBRANCH  76  77
BRANCH  76  79
ATOM     79  C   UNL     1      -3.790   2.591  12.277  1.00  0.00     0.068 C 
BRANCH  79  80
ATOM     80  C   UNL     1      -3.358   2.342  13.702  1.00  0.00    -0.045 A 
ATOM     81  C   UNL     1      -3.873   3.107  14.757  1.00  0.00     0.004 A 
ATOM     82  C   UNL     1      -2.407   1.351  13.989  1.00  0.00     0.004 A 
ATOM     83  C   UNL     1      -3.458   2.879  16.070  1.00  0.00     0.000 A 
ATOM     84  C   UNL     1      -1.992   1.125  15.303  1.00  0.00     0.000 A 
ATOM     85  C   UNL     1      -2.518   1.887  16.343  1.00  0.00     0.000 A 
ENDBRANCH  79  80
ENDBRANCH  76  79
ENDBRANCH  74  76
ENDBRANCH  72  74
ENDBRANCH  70  71
ENDBRANCH   1  69
TORSDOF 17
ENDMDL
MODEL 4
REMARK VINA RESULT:    -5.803      2.849     11.951
REMARK INTER + INTRA:         -26.486
REMARK INTER:                 -18.299
REMARK INTRA:                  -8.187
REMARK UNBOUND:                -9.148
REMARK SMILES C=C1C(=O)N[C@H](C)C(=O)N[C@@H](CC(C)C)C(=O)N[C@@H](C(=O)O)[C@H](C)C(=O)N[C@@H](CCCN=C(N)N)C(=O)N[C@@H](/C=C/C(C)=C/[C@H](C)[C@H](Cc2ccccc2)OC)[C@H](C)C(=O)N[C@@H](C(=O)O)CCC(=O)N1C
REMARK SMILES IDX 39 1 38 2 37 3 36 4 28 6 27 7 25 8 26 9 23 11 24 12 19 13
REMARK SMILES IDX 18 14 16 15 17 16 11 18 10 19 8 20 9 21 12 24 13 25 14 26
REMARK SMILES IDX 15 27 20 28 21 29 22 30 29 32 30 33 31 34 32 35 33 36 34 37
REMARK SMILES IDX 35 38 57 43 58 44 59 45 60 46 61 47 62 49 66 50 67 51 68 52
REMARK SMILES IDX 69 53 70 54 71 55 2 56 1 57 3 58 4 59 5 60 6 62 7 63 63 65
REMARK SMILES IDX 64 66 65 67 40 69 41 70 42 71 44 72 43 73 45 74 46 75 47 76
REMARK SMILES IDX 55 77 56 78 48 79 49 80 50 81 54 82 51 83 53 84 52 85
REMARK H PARENT 38 5 27 10 18 17 10 22 22 31 34 39 34 40 35 41 35 42 61 48
REMARK H PARENT 5 61 65 68
REMARK Flexibility Score:  369.900
ROOT
ATOM      1  C   UNL     1       3.555   7.143  -1.891  1.00  0.00     0.117 C 
ENDROOT
BRANCH   1   2
ATOM      2  N   UNL     1       2.692   6.048  -1.446  1.00  0.00    -0.347 N 
ATOM      3  O   UNL     1       0.682   6.953  -2.088  1.00  0.00    -0.273 OA
ATOM      4  C   UNL     1       1.329   6.001  -1.663  1.00  0.00     0.243 C 
ATOM      5  H   UNL     1       3.104   5.246  -0.993  1.00  0.00     0.164 HD
BRANCH   4   6
ATOM      6  C   UNL     1       0.663   4.692  -1.168  1.00  0.00     0.171 C 
BRANCH   6   7
ATOM      7  N   UNL     1       0.141   4.864   0.197  1.00  0.00    -0.344 N 
ATOM      8  C   UNL     1       0.994   4.877   1.279  1.00  0.00     0.226 C 
ATOM      9  O   UNL     1       2.205   4.725   1.167  1.00  0.00    -0.275 OA
ATOM     10  H   UNL     1      -0.860   4.925   0.336  1.00  0.00     0.164 HD
BRANCH   8  11
ATOM     11  C   UNL     1       0.310   5.119   2.613  1.00  0.00     0.109 C 
ATOM     12  C   UNL     1      -1.196   4.889   2.480  1.00  0.00     0.021 C 
BRANCH  11  13
ATOM     13  C   UNL     1       0.998   4.285   3.712  1.00  0.00     0.204 C 
BRANCH  13  14
ATOM     14  N   UNL     1       1.711   5.127   4.678  1.00  0.00    -0.340 N 
ATOM     15  C   UNL     1       2.916   4.764   5.240  1.00  0.00     0.243 C 
ATOM     16  O   UNL     1       3.509   3.734   4.925  1.00  0.00    -0.273 OA
ATOM     17  H   UNL     1       1.206   5.914   5.093  1.00  0.00     0.164 HD
BRANCH  15  18
ATOM     18  C   UNL     1       3.373   5.705   6.382  1.00  0.00     0.171 C 
BRANCH  18  19
ATOM     19  N   UNL     1       2.720   5.232   7.601  1.00  0.00    -0.343 N 
ATOM     20  C   UNL     1       1.474   5.689   7.985  1.00  0.00     0.242 CG0
ATOM     21  O   UNL     1       0.916   6.609   7.393  1.00  0.00    -0.273 OA
ATOM     22  H   UNL     1       3.194   4.554   8.188  1.00  0.00     0.164 HD
ATOM     23  G   UNL     1       0.914   5.017   9.256  1.00  0.00     0.000 G0
ENDBRANCH  18  19
BRANCH  18  24
ATOM     24  C   UNL     1       4.900   5.687   6.519  1.00  0.00     0.038 C 
BRANCH  24  25
ATOM     25  C   UNL     1       5.513   6.991   7.074  1.00  0.00    -0.015 C 
ATOM     26  C   UNL     1       5.351   7.114   8.590  1.00  0.00     0.007 C 
ATOM     27  C   UNL     1       4.867   8.196   6.387  1.00  0.00     0.007 C 
ENDBRANCH  24  25
ENDBRANCH  18  24
ENDBRANCH  15  18
ENDBRANCH  13  14
BRANCH  13  28
ATOM     28  C   UNL     1       0.023   3.409   4.505  1.00  0.00     0.327 C 
ATOM     29  O   UNL     1      -0.530   3.709   5.552  1.00  0.00    -0.250 OA
BRANCH  28  30
ATOM     30  O   UNL     1      -0.104   2.167   3.997  1.00  0.00    -0.480 OA
ATOM     31  H   UNL     1       0.804   1.923   3.725  1.00  0.00     0.296 HD
ENDBRANCH  28  30
ENDBRANCH  13  28
ENDBRANCH  11  13
ENDBRANCH   8  11
ENDBRANCH   6   7
BRANCH   6  32
ATOM     32  C   UNL     1      -0.457   4.299  -2.137  1.00  0.00     0.037 C 
BRANCH  32  33
ATOM     33  C   UNL     1      -0.450   2.796  -2.452  1.00  0.00     0.026 C 
BRANCH  33  34
ATOM     34  C   UNL     1       0.688   2.056  -1.749  1.00  0.00     0.146 C 
BRANCH  34  35
ATOM     35  N   UNL     1       0.238   0.713  -1.411  1.00  0.00    -0.254 NA
ATOM     36  C   UNL     1      -0.110   0.468  -0.203  1.00  0.00     0.185 C 
ATOM     37  N   UNL     1      -0.532  -0.764   0.119  1.00  0.00    -0.370 N 
ATOM     38  N   UNL     1      -0.123   1.296   0.857  1.00  0.00    -0.370 N 
ATOM     39  H   UNL     1      -0.561  -1.444  -0.630  1.00  0.00     0.159 HD
ATOM     40  H   UNL     1      -0.982  -0.989   0.990  1.00  0.00     0.159 HD
ATOM     41  H   UNL     1      -0.285   0.948   1.788  1.00  0.00     0.159 HD
ATOM     42  H   UNL     1       0.185   2.252   0.765  1.00  0.00     0.159 HD
ENDBRANCH  34  35
ENDBRANCH  33  34
ENDBRANCH  32  33
ENDBRANCH   6  32
ENDBRANCH   4   6
ENDBRANCH   1   2
BRANCH   1  43
ATOM     43  C   UNL     1       4.593   6.575  -2.901  1.00  0.00     0.102 C 
ATOM     44  C   UNL     1       3.962   5.712  -4.007  1.00  0.00     0.020 C 
BRANCH  43  45
ATOM     45  C   UNL     1       5.757   5.897  -2.172  1.00  0.00     0.225 C 
ATOM     46  O   UNL     1       6.764   6.500  -1.809  1.00  0.00    -0.275 OA
ATOM     47  N   UNL     1       5.650   4.533  -2.026  1.00  0.00    -0.342 N 
ATOM     48  H   UNL     1       4.762   4.080  -2.189  1.00  0.00     0.164 HD
BRANCH  47  49
ATOM     49  C   UNL     1       6.672   3.756  -1.316  1.00  0.00     0.192 C 
BRANCH  49  50
ATOM     50  C   UNL     1       6.999   2.490  -2.112  1.00  0.00     0.047 C 
BRANCH  50  51
ATOM     51  C   UNL     1       6.547   2.588  -3.575  1.00  0.00     0.103 C 
BRANCH  51  52
ATOM     52  C   UNL     1       7.729   2.712  -4.534  1.00  0.00     0.226 C 
ATOM     53  O   UNL     1       8.824   2.244  -4.216  1.00  0.00    -0.275 OA
BRANCH  52  54
ATOM     54  N   UNL     1       7.464   3.304  -5.783  1.00  0.00    -0.311 N 
ATOM     55  C   UNL     1       7.061   4.713  -5.882  1.00  0.00     0.153 C 
BRANCH  54  56
ATOM     56  C   UNL     1       7.579   2.574  -6.978  1.00  0.00     0.102 C 
ATOM     57  C   UNL     1       6.625   1.777  -7.486  1.00  0.00     0.043 C 
BRANCH  56  58
ATOM     58  C   UNL     1       8.820   2.676  -7.832  1.00  0.00     0.268 C 
ATOM     59  O   UNL     1       9.907   2.231  -7.489  1.00  0.00    -0.268 OA
ATOM     60  N   UNL     1       8.589   3.259  -9.055  1.00  0.00    -0.339 N 
ATOM     61  H   UNL     1       7.661   3.612  -9.258  1.00  0.00     0.164 HD
BRANCH  60  62
ATOM     62  C   UNL     1       9.639   3.401 -10.062  1.00  0.00     0.168 CG0
ATOM     63  C   UNL     1      10.370   4.729  -9.907  1.00  0.00     0.041 C 
ATOM     64  G   UNL     1       9.024   3.277 -11.471  1.00  0.00     0.000 G0
ENDBRANCH  60  62
ENDBRANCH  56  58
ENDBRANCH  54  56
ENDBRANCH  52  54
ENDBRANCH  51  52
ENDBRANCH  50  51
ENDBRANCH  49  50
BRANCH  49  65
ATOM     65  C   UNL     1       6.207   3.365   0.095  1.00  0.00     0.326 C 
ATOM     66  O   UNL     1       5.786   4.137   0.944  1.00  0.00    -0.250 OA
BRANCH  65  67
ATOM     67  O   UNL     1       6.349   2.055   0.392  1.00  0.00    -0.480 OA
ATOM     68  H   UNL     1       7.319   1.910   0.348  1.00  0.00     0.296 HD
ENDBRANCH  65  67
ENDBRANCH  49  65
ENDBRANCH  47  49
ENDBRANCH  43  45
ENDBRANCH   1  43
BRANCH   1  69
ATOM     69  C   UNL     1       4.055   7.827  -0.632  1.00  0.00    -0.001 C 
ATOM     70  C   UNL     1       3.666   7.595   0.634  1.00  0.00     0.001 C 
BRANCH  70  71
ATOM     71  C   UNL     1       4.172   8.247   1.844  1.00  0.00    -0.055 C 
ATOM     72  C   UNL     1       4.583   9.528   1.741  1.00  0.00    -0.018 C 
ATOM     73  C   UNL     1       4.189   7.445   3.119  1.00  0.00     0.044 C 
BRANCH  72  74
ATOM     74  C   UNL     1       5.145  10.449   2.815  1.00  0.00     0.038 C 
ATOM     75  C   UNL     1       4.193  11.645   2.929  1.00  0.00     0.015 C 
BRANCH  74  76
ATOM     76  C   UNL     1       6.613  10.815   2.443  1.00  0.00     0.128 C 
BRANCH  76  77
ATOM     77  O   UNL     1       6.792  12.240   2.497  1.00  0.00    -0.381 OA
ATOM     78  C   UNL     1       7.772  12.727   1.590  1.00  0.00     0.195 C 
ENDBRANCH  76  77
BRANCH  76  79
ATOM     79  C   UNL     1       7.680  10.045   3.261  1.00  0.00     0.068 C 
BRANCH  79  80
ATOM     80  C   UNL     1       7.820   8.561   3.022  1.00  0.00    -0.045 A 
ATOM     81  C   UNL     1       8.048   8.056   1.735  1.00  0.00     0.004 A 
ATOM     82  C   UNL     1       7.694   7.657   4.088  1.00  0.00     0.004 A 
ATOM     83  C   UNL     1       8.162   6.681   1.520  1.00  0.00     0.000 A 
ATOM     84  C   UNL     1       7.807   6.282   3.871  1.00  0.00     0.000 A 
ATOM     85  C   UNL     1       8.043   5.795   2.588  1.00  0.00     0.000 A 
ENDBRANCH  79  80
ENDBRANCH  76  79
ENDBRANCH  74  76
ENDBRANCH  72  74
ENDBRANCH  70  71
ENDBRANCH   1  69
TORSDOF 17
ENDMDL
MODEL 5
REMARK VINA RESULT:    -5.792      2.688      5.109
REMARK INTER + INTRA:         -26.453
REMARK INTER:                 -16.920
REMARK INTRA:                  -9.533
REMARK UNBOUND:                -9.148
REMARK SMILES C=C1C(=O)N[C@H](C)C(=O)N[C@@H](CC(C)C)C(=O)N[C@@H](C(=O)O)[C@H](C)C(=O)N[C@@H](CCCN=C(N)N)C(=O)N[C@@H](/C=C/C(C)=C/[C@H](C)[C@H](Cc2ccccc2)OC)[C@H](C)C(=O)N[C@@H](C(=O)O)CCC(=O)N1C
REMARK SMILES IDX 39 1 38 2 37 3 36 4 28 6 27 7 25 8 26 9 23 11 24 12 19 13
REMARK SMILES IDX 18 14 16 15 17 16 11 18 10 19 8 20 9 21 12 24 13 25 14 26
REMARK SMILES IDX 15 27 20 28 21 29 22 30 29 32 30 33 31 34 32 35 33 36 34 37
REMARK SMILES IDX 35 38 57 43 58 44 59 45 60 46 61 47 62 49 66 50 67 51 68 52
REMARK SMILES IDX 69 53 70 54 71 55 2 56 1 57 3 58 4 59 5 60 6 62 7 63 63 65
REMARK SMILES IDX 64 66 65 67 40 69 41 70 42 71 44 72 43 73 45 74 46 75 47 76
REMARK SMILES IDX 55 77 56 78 48 79 49 80 50 81 54 82 51 83 53 84 52 85
REMARK H PARENT 38 5 27 10 18 17 10 22 22 31 34 39 34 40 35 41 35 42 61 48
REMARK H PARENT 5 61 65 68
REMARK Flexibility Score:  369.900
ROOT
ATOM      1  C   UNL     1       3.788   4.201  -2.783  1.00  0.00     0.117 C 
ENDROOT
BRANCH   1   2
ATOM      2  N   UNL     1       4.995   3.486  -3.197  1.00  0.00    -0.347 N 
ATOM      3  O   UNL     1       5.871   5.114  -4.558  1.00  0.00    -0.273 OA
ATOM      4  C   UNL     1       5.989   4.037  -3.982  1.00  0.00     0.243 C 
ATOM      5  H   UNL     1       5.155   2.549  -2.860  1.00  0.00     0.164 HD
BRANCH   4   6
ATOM      6  C   UNL     1       7.202   3.098  -4.204  1.00  0.00     0.171 C 
BRANCH   6   7
ATOM      7  N   UNL     1       7.852   3.392  -5.490  1.00  0.00    -0.344 N 
ATOM      8  C   UNL     1       7.613   2.604  -6.595  1.00  0.00     0.226 C 
ATOM      9  O   UNL     1       6.879   1.623  -6.560  1.00  0.00    -0.275 OA
ATOM     10  H   UNL     1       8.517   4.154  -5.541  1.00  0.00     0.164 HD
BRANCH   8  11
ATOM     11  C   UNL     1       8.315   3.069  -7.859  1.00  0.00     0.109 C 
ATOM     12  C   UNL     1       8.480   1.900  -8.830  1.00  0.00     0.021 C 
BRANCH  11  13
ATOM     13  C   UNL     1       7.583   4.296  -8.440  1.00  0.00     0.204 C 
BRANCH  13  14
ATOM     14  N   UNL     1       6.126   4.143  -8.393  1.00  0.00    -0.340 N 
ATOM     15  C   UNL     1       5.330   4.200  -9.516  1.00  0.00     0.243 C 
ATOM     16  O   UNL     1       5.794   4.324 -10.648  1.00  0.00    -0.273 OA
ATOM     17  H   UNL     1       5.668   4.189  -7.479  1.00  0.00     0.164 HD
BRANCH  15  18
ATOM     18  C   UNL     1       3.814   4.222  -9.200  1.00  0.00     0.171 C 
BRANCH  18  19
ATOM     19  N   UNL     1       3.226   3.077  -9.892  1.00  0.00    -0.343 N 
ATOM     20  C   UNL     1       2.335   3.235 -10.936  1.00  0.00     0.242 CG0
ATOM     21  O   UNL     1       1.894   4.339 -11.244  1.00  0.00    -0.273 OA
ATOM     22  H   UNL     1       3.471   2.138  -9.596  1.00  0.00     0.164 HD
ATOM     23  G   UNL     1       1.883   1.914 -11.592  1.00  0.00     0.000 G0
ENDBRANCH  18  19
BRANCH  18  24
ATOM     24  C   UNL     1       3.576   4.149  -7.687  1.00  0.00     0.038 C 
BRANCH  24  25
ATOM     25  C   UNL     1       2.704   5.288  -7.116  1.00  0.00    -0.015 C 
ATOM     26  C   UNL     1       1.491   5.594  -7.995  1.00  0.00     0.007 C 
ATOM     27  C   UNL     1       3.552   6.551  -6.951  1.00  0.00     0.007 C 
ENDBRANCH  24  25
ENDBRANCH  18  24
ENDBRANCH  15  18
ENDBRANCH  13  14
BRANCH  13  28
ATOM     28  C   UNL     1       7.927   5.602  -7.717  1.00  0.00     0.327 C 
ATOM     29  O   UNL     1       8.987   6.204  -7.779  1.00  0.00    -0.250 OA
BRANCH  28  30
ATOM     30  O   UNL     1       6.959   6.007  -6.870  1.00  0.00    -0.480 OA
ATOM     31  H   UNL     1       6.261   6.367  -7.455  1.00  0.00     0.296 HD
ENDBRANCH  28  30
ENDBRANCH  13  28
ENDBRANCH  11  13
ENDBRANCH   8  11
ENDBRANCH   6   7
BRANCH   6  32
ATOM     32  C   UNL     1       8.187   3.265  -3.041  1.00  0.00     0.037 C 
BRANCH  32  33
ATOM     33  C   UNL     1       9.562   3.759  -3.514  1.00  0.00     0.026 C 
BRANCH  33  34
ATOM     34  C   UNL     1       9.861   5.186  -3.053  1.00  0.00     0.146 C 
BRANCH  34  35
ATOM     35  N   UNL     1       9.189   5.420  -1.782  1.00  0.00    -0.254 NA
ATOM     36  C   UNL     1       8.884   6.622  -1.460  1.00  0.00     0.185 C 
ATOM     37  N   UNL     1       8.261   6.848  -0.293  1.00  0.00    -0.370 N 
ATOM     38  N   UNL     1       9.100   7.760  -2.143  1.00  0.00    -0.370 N 
ATOM     39  H   UNL     1       8.053   6.037   0.275  1.00  0.00     0.159 HD
ATOM     40  H   UNL     1       7.837   7.727  -0.051  1.00  0.00     0.159 HD
ATOM     41  H   UNL     1       8.939   8.660  -1.721  1.00  0.00     0.159 HD
ATOM     42  H   UNL     1       9.576   7.742  -3.032  1.00  0.00     0.159 HD
ENDBRANCH  34  35
ENDBRANCH  33  34
ENDBRANCH  32  33
ENDBRANCH   6  32
ENDBRANCH   4   6
ENDBRANCH   1   2
BRANCH   1  43
ATOM     43  C   UNL     1       3.674   4.124  -1.233  1.00  0.00     0.102 C 
ATOM     44  C   UNL     1       2.222   4.102  -0.726  1.00  0.00     0.020 C 
BRANCH  43  45
ATOM     45  C   UNL     1       4.549   5.188  -0.564  1.00  0.00     0.225 C 
ATOM     46  O   UNL     1       5.776   5.164  -0.595  1.00  0.00    -0.275 OA
ATOM     47  N   UNL     1       3.872   6.138   0.166  1.00  0.00    -0.342 N 
ATOM     48  H   UNL     1       2.872   6.234   0.058  1.00  0.00     0.164 HD
BRANCH  47  49
ATOM     49  C   UNL     1       4.577   7.239   0.831  1.00  0.00     0.192 C 
BRANCH  49  50
ATOM     50  C   UNL     1       4.154   7.306   2.301  1.00  0.00     0.047 C 
BRANCH  50  51
ATOM     51  C   UNL     1       5.281   6.878   3.251  1.00  0.00     0.103 C 
BRANCH  51  52
ATOM     52  C   UNL     1       5.120   5.433   3.718  1.00  0.00     0.226 C 
ATOM     53  O   UNL     1       5.674   4.525   3.095  1.00  0.00    -0.275 OA
BRANCH  52  54
ATOM     54  N   UNL     1       4.392   5.236   4.906  1.00  0.00    -0.311 N 
ATOM     55  C   UNL     1       3.305   4.250   4.972  1.00  0.00     0.153 C 
BRANCH  54  56
ATOM     56  C   UNL     1       4.679   5.967   6.071  1.00  0.00     0.102 C 
ATOM     57  C   UNL     1       5.884   6.035   6.658  1.00  0.00     0.043 C 
BRANCH  56  58
ATOM     58  C   UNL     1       3.613   6.799   6.746  1.00  0.00     0.268 C 
ATOM     59  O   UNL     1       3.060   7.746   6.204  1.00  0.00    -0.268 OA
ATOM     60  N   UNL     1       3.285   6.342   8.000  1.00  0.00    -0.339 N 
ATOM     61  H   UNL     1       3.798   5.557   8.382  1.00  0.00     0.164 HD
BRANCH  60  62
ATOM     62  C   UNL     1       2.234   6.963   8.805  1.00  0.00     0.168 CG0
ATOM     63  C   UNL     1       2.762   7.372  10.174  1.00  0.00     0.041 C 
ATOM     64  G   UNL     1       1.048   5.987   8.947  1.00  0.00     0.000 G0
ENDBRANCH  60  62
ENDBRANCH  56  58
ENDBRANCH  54  56
ENDBRANCH  52  54
ENDBRANCH  51  52
ENDBRANCH  50  51
ENDBRANCH  49  50
BRANCH  49  65
ATOM     65  C   UNL     1       4.286   8.588   0.156  1.00  0.00     0.326 C 
ATOM     66  O   UNL     1       4.915   9.621   0.333  1.00  0.00    -0.250 OA
BRANCH  65  67
ATOM     67  O   UNL     1       3.201   8.594  -0.649  1.00  0.00    -0.480 OA
ATOM     68  H   UNL     1       3.032   9.548  -0.803  1.00  0.00     0.296 HD
ENDBRANCH  65  67
ENDBRANCH  49  65
ENDBRANCH  47  49
ENDBRANCH  43  45
ENDBRANCH   1  43
BRANCH   1  69
ATOM     69  C   UNL     1       2.656   3.648  -3.630  1.00  0.00    -0.001 C 
ATOM     70  C   UNL     1       2.430   2.362  -3.952  1.00  0.00     0.001 C 
BRANCH  70  71
ATOM     71  C   UNL     1       1.322   1.837  -4.752  1.00  0.00    -0.055 C 
ATOM     72  C   UNL     1       0.765   2.658  -5.667  1.00  0.00    -0.018 C 
ATOM     73  C   UNL     1       0.887   0.416  -4.504  1.00  0.00     0.044 C 
BRANCH  72  74
ATOM     74  C   UNL     1      -0.383   2.390  -6.631  1.00  0.00     0.038 C 
ATOM     75  C   UNL     1       0.238   2.075  -7.997  1.00  0.00     0.015 C 
BRANCH  74  76
ATOM     76  C   UNL     1      -1.345   3.614  -6.617  1.00  0.00     0.128 C 
BRANCH  76  77
ATOM     77  O   UNL     1      -2.425   3.399  -7.541  1.00  0.00    -0.381 OA
ATOM     78  C   UNL     1      -3.478   2.603  -7.013  1.00  0.00     0.195 C 
ENDBRANCH  76  77
BRANCH  76  79
ATOM     79  C   UNL     1      -1.836   4.013  -5.202  1.00  0.00     0.068 C 
BRANCH  79  80
ATOM     80  C   UNL     1      -1.046   5.055  -4.448  1.00  0.00    -0.045 A 
ATOM     81  C   UNL     1      -0.476   6.150  -5.112  1.00  0.00     0.004 A 
ATOM     82  C   UNL     1      -0.847   4.927  -3.065  1.00  0.00     0.004 A 
ATOM     83  C   UNL     1       0.265   7.102  -4.409  1.00  0.00     0.000 A 
ATOM     84  C   UNL     1      -0.105   5.880  -2.363  1.00  0.00     0.000 A 
ATOM     85  C   UNL     1       0.449   6.967  -3.034  1.00  0.00     0.000 A 
ENDBRANCH  79  80
ENDBRANCH  76  79
ENDBRANCH  74  76
ENDBRANCH  72  74
ENDBRANCH  70  71
ENDBRANCH   1  69
TORSDOF 17
ENDMDL
MODEL 6
REMARK VINA RESULT:    -5.778      4.234      7.417
REMARK INTER + INTRA:         -26.410
REMARK INTER:                 -18.437
REMARK INTRA:                  -7.973
REMARK UNBOUND:                -9.148
REMARK SMILES C=C1C(=O)N[C@H](C)C(=O)N[C@@H](CC(C)C)C(=O)N[C@@H](C(=O)O)[C@H](C)C(=O)N[C@@H](CCCN=C(N)N)C(=O)N[C@@H](/C=C/C(C)=C/[C@H](C)[C@H](Cc2ccccc2)OC)[C@H](C)C(=O)N[C@@H](C(=O)O)CCC(=O)N1C
REMARK SMILES IDX 39 1 38 2 37 3 36 4 28 6 27 7 25 8 26 9 23 11 24 12 19 13
REMARK SMILES IDX 18 14 16 15 17 16 11 18 10 19 8 20 9 21 12 24 13 25 14 26
REMARK SMILES IDX 15 27 20 28 21 29 22 30 29 32 30 33 31 34 32 35 33 36 34 37
REMARK SMILES IDX 35 38 57 43 58 44 59 45 60 46 61 47 62 49 66 50 67 51 68 52
REMARK SMILES IDX 69 53 70 54 71 55 2 56 1 57 3 58 4 59 5 60 6 62 7 63 63 65
REMARK SMILES IDX 64 66 65 67 40 69 41 70 42 71 44 72 43 73 45 74 46 75 47 76
REMARK SMILES IDX 55 77 56 78 48 79 49 80 50 81 54 82 51 83 53 84 52 85
REMARK H PARENT 38 5 27 10 18 17 10 22 22 31 34 39 34 40 35 41 35 42 61 48
REMARK H PARENT 5 61 65 68
REMARK Flexibility Score:  369.900
ROOT
ATOM      1  C   UNL     1       7.272   5.619  -2.517  1.00  0.00     0.117 C 
ENDROOT
BRANCH   1   2
ATOM      2  N   UNL     1       7.554   4.500  -3.417  1.00  0.00    -0.347 N 
ATOM      3  O   UNL     1       9.747   5.008  -3.870  1.00  0.00    -0.273 OA
ATOM      4  C   UNL     1       8.800   4.233  -3.951  1.00  0.00     0.243 C 
ATOM      5  H   UNL     1       6.820   3.844  -3.635  1.00  0.00     0.164 HD
BRANCH   4   6
ATOM      6  C   UNL     1       8.848   2.939  -4.804  1.00  0.00     0.171 C 
BRANCH   6   7
ATOM      7  N   UNL     1       7.615   2.798  -5.595  1.00  0.00    -0.344 N 
ATOM      8  C   UNL     1       6.547   2.077  -5.109  1.00  0.00     0.226 C 
ATOM      9  O   UNL     1       6.574   1.506  -4.025  1.00  0.00    -0.275 OA
ATOM     10  H   UNL     1       7.580   3.199  -6.524  1.00  0.00     0.164 HD
BRANCH   8  11
ATOM     11  C   UNL     1       5.330   2.071  -6.018  1.00  0.00     0.109 C 
ATOM     12  C   UNL     1       5.632   2.840  -7.304  1.00  0.00     0.021 C 
BRANCH  11  13
ATOM     13  C   UNL     1       4.842   0.623  -6.227  1.00  0.00     0.204 C 
BRANCH  13  14
ATOM     14  N   UNL     1       3.398   0.558  -6.472  1.00  0.00    -0.340 N 
ATOM     15  C   UNL     1       2.603  -0.458  -5.989  1.00  0.00     0.243 C 
ATOM     16  O   UNL     1       3.039  -1.352  -5.266  1.00  0.00    -0.273 OA
ATOM     17  H   UNL     1       3.003   1.178  -7.184  1.00  0.00     0.164 HD
BRANCH  15  18
ATOM     18  C   UNL     1       1.158  -0.431  -6.546  1.00  0.00     0.171 C 
BRANCH  18  19
ATOM     19  N   UNL     1       0.272  -0.743  -5.427  1.00  0.00    -0.343 N 
ATOM     20  C   UNL     1      -0.303  -1.990  -5.278  1.00  0.00     0.242 CG0
ATOM     21  O   UNL     1      -0.204  -2.852  -6.148  1.00  0.00    -0.273 OA
ATOM     22  H   UNL     1       0.066  -0.025  -4.741  1.00  0.00     0.164 HD
ATOM     23  G   UNL     1      -1.144  -2.155  -3.995  1.00  0.00     0.000 G0
ENDBRANCH  18  19
BRANCH  18  24
ATOM     24  C   UNL     1       0.837   0.941  -7.152  1.00  0.00     0.038 C 
BRANCH  24  25
ATOM     25  C   UNL     1      -0.174   0.911  -8.317  1.00  0.00    -0.015 C 
ATOM     26  C   UNL     1      -0.333  -0.486  -8.918  1.00  0.00     0.007 C 
ATOM     27  C   UNL     1       0.266   1.893  -9.406  1.00  0.00     0.007 C 
ENDBRANCH  24  25
ENDBRANCH  18  24
ENDBRANCH  15  18
ENDBRANCH  13  14
BRANCH  13  28
ATOM     28  C   UNL     1       5.534  -0.083  -7.397  1.00  0.00     0.327 C 
ATOM     29  O   UNL     1       5.131  -0.137  -8.549  1.00  0.00    -0.250 OA
BRANCH  28  30
ATOM     30  O   UNL     1       6.627  -0.779  -7.023  1.00  0.00    -0.480 OA
ATOM     31  H   UNL     1       7.363  -0.140  -7.116  1.00  0.00     0.296 HD
ENDBRANCH  28  30
ENDBRANCH  13  28
ENDBRANCH  11  13
ENDBRANCH   8  11
ENDBRANCH   6   7
BRANCH   6  32
ATOM     32  C   UNL     1      10.081   2.981  -5.714  1.00  0.00     0.037 C 
BRANCH  32  33
ATOM     33  C   UNL     1       9.707   2.882  -7.199  1.00  0.00     0.026 C 
BRANCH  33  34
ATOM     34  C   UNL     1       9.797   4.230  -7.916  1.00  0.00     0.146 C 
BRANCH  34  35
ATOM     35  N   UNL     1       8.455   4.779  -8.054  1.00  0.00    -0.254 NA
ATOM     36  C   UNL     1       8.149   5.829  -7.388  1.00  0.00     0.185 C 
ATOM     37  N   UNL     1       6.917   6.346  -7.512  1.00  0.00    -0.370 N 
ATOM     38  N   UNL     1       8.909   6.539  -6.535  1.00  0.00    -0.370 N 
ATOM     39  H   UNL     1       6.287   5.872  -8.146  1.00  0.00     0.159 HD
ATOM     40  H   UNL     1       6.657   7.253  -7.164  1.00  0.00     0.159 HD
ATOM     41  H   UNL     1       8.510   7.267  -5.965  1.00  0.00     0.159 HD
ATOM     42  H   UNL     1       9.855   6.256  -6.333  1.00  0.00     0.159 HD
ENDBRANCH  34  35
ENDBRANCH  33  34
ENDBRANCH  32  33
ENDBRANCH   6  32
ENDBRANCH   4   6
ENDBRANCH   1   2
BRANCH   1  43
ATOM     43  C   UNL     1       7.738   5.231  -1.084  1.00  0.00     0.102 C 
ATOM     44  C   UNL     1       6.770   4.279  -0.363  1.00  0.00     0.020 C 
BRANCH  43  45
ATOM     45  C   UNL     1       8.107   6.475  -0.271  1.00  0.00     0.225 C 
ATOM     46  O   UNL     1       9.244   6.698   0.136  1.00  0.00    -0.275 OA
ATOM     47  N   UNL     1       7.056   7.297   0.065  1.00  0.00    -0.342 N 
ATOM     48  H   UNL     1       6.165   7.185  -0.398  1.00  0.00     0.164 HD
BRANCH  47  49
ATOM     49  C   UNL     1       7.265   8.542   0.811  1.00  0.00     0.192 C 
BRANCH  49  50
ATOM     50  C   UNL     1       6.764   8.370   2.248  1.00  0.00     0.047 C 
BRANCH  50  51
ATOM     51  C   UNL     1       7.602   9.170   3.255  1.00  0.00     0.103 C 
BRANCH  51  52
ATOM     52  C   UNL     1       6.770  10.221   3.987  1.00  0.00     0.226 C 
ATOM     53  O   UNL     1       6.141   9.904   4.999  1.00  0.00    -0.275 OA
BRANCH  52  54
ATOM     54  N   UNL     1       6.837  11.534   3.487  1.00  0.00    -0.311 N 
ATOM     55  C   UNL     1       5.623  12.248   3.071  1.00  0.00     0.153 C 
BRANCH  54  56
ATOM     56  C   UNL     1       8.062  12.212   3.372  1.00  0.00     0.102 C 
ATOM     57  C   UNL     1       8.881  12.498   4.398  1.00  0.00     0.043 C 
BRANCH  56  58
ATOM     58  C   UNL     1       8.586  12.644   2.023  1.00  0.00     0.268 C 
ATOM     59  O   UNL     1       9.057  11.864   1.206  1.00  0.00    -0.268 OA
ATOM     60  N   UNL     1       8.417  13.987   1.782  1.00  0.00    -0.339 N 
ATOM     61  H   UNL     1       8.027  14.568   2.515  1.00  0.00     0.164 HD
BRANCH  60  62
ATOM     62  C   UNL     1       8.797  14.605   0.513  1.00  0.00     0.168 CG0
ATOM     63  C   UNL     1      10.207  15.177   0.583  1.00  0.00     0.041 C 
ATOM     64  G   UNL     1       7.778  15.705   0.148  1.00  0.00     0.000 G0
ENDBRANCH  60  62
ENDBRANCH  56  58
ENDBRANCH  54  56
ENDBRANCH  52  54
ENDBRANCH  51  52
ENDBRANCH  50  51
ENDBRANCH  49  50
BRANCH  49  65
ATOM     65  C   UNL     1       6.534   9.725   0.156  1.00  0.00     0.326 C 
ATOM     66  O   UNL     1       5.344   9.978   0.273  1.00  0.00    -0.250 OA
BRANCH  65  67
ATOM     67  O   UNL     1       7.305  10.486  -0.651  1.00  0.00    -0.480 OA
ATOM     68  H   UNL     1       8.147  10.572  -0.154  1.00  0.00     0.296 HD
ENDBRANCH  65  67
ENDBRANCH  49  65
ENDBRANCH  47  49
ENDBRANCH  43  45
ENDBRANCH   1  43
BRANCH   1  69
ATOM     69  C   UNL     1       5.817   5.987  -2.741  1.00  0.00    -0.001 C 
ATOM     70  C   UNL     1       5.029   5.616  -3.766  1.00  0.00     0.001 C 
BRANCH  70  71
ATOM     71  C   UNL     1       3.619   5.959  -3.960  1.00  0.00    -0.055 C 
ATOM     72  C   UNL     1       2.745   5.595  -2.998  1.00  0.00    -0.018 C 
ATOM     73  C   UNL     1       3.243   6.702  -5.216  1.00  0.00     0.044 C 
BRANCH  72  74
ATOM     74  C   UNL     1       1.241   5.817  -2.927  1.00  0.00     0.038 C 
ATOM     75  C   UNL     1       0.967   6.671  -1.684  1.00  0.00     0.015 C 
BRANCH  74  76
ATOM     76  C   UNL     1       0.530   4.432  -2.938  1.00  0.00     0.128 C 
BRANCH  76  77
ATOM     77  O   UNL     1      -0.863   4.593  -2.620  1.00  0.00    -0.381 OA
ATOM     78  C   UNL     1      -1.344   3.653  -1.668  1.00  0.00     0.195 C 
ENDBRANCH  76  77
BRANCH  76  79
ATOM     79  C   UNL     1       0.757   3.617  -4.236  1.00  0.00     0.068 C 
BRANCH  79  80
ATOM     80  C   UNL     1      -0.082   3.960  -5.443  1.00  0.00    -0.045 A 
ATOM     81  C   UNL     1      -1.362   3.416  -5.610  1.00  0.00     0.004 A 
ATOM     82  C   UNL     1       0.422   4.814  -6.436  1.00  0.00     0.004 A 
ATOM     83  C   UNL     1      -2.127   3.728  -6.736  1.00  0.00     0.000 A 
ATOM     84  C   UNL     1      -0.343   5.124  -7.562  1.00  0.00     0.000 A 
ATOM     85  C   UNL     1      -1.618   4.583  -7.711  1.00  0.00     0.000 A 
ENDBRANCH  79  80
ENDBRANCH  76  79
ENDBRANCH  74  76
ENDBRANCH  72  74
ENDBRANCH  70  71
ENDBRANCH   1  69
TORSDOF 17
ENDMDL
MODEL 7
REMARK VINA RESULT:    -5.759     14.357     22.399
REMARK INTER + INTRA:         -26.354
REMARK INTER:                 -18.847
REMARK INTRA:                  -7.507
REMARK UNBOUND:                -9.148
REMARK SMILES C=C1C(=O)N[C@H](C)C(=O)N[C@@H](CC(C)C)C(=O)N[C@@H](C(=O)O)[C@H](C)C(=O)N[C@@H](CCCN=C(N)N)C(=O)N[C@@H](/C=C/C(C)=C/[C@H](C)[C@H](Cc2ccccc2)OC)[C@H](C)C(=O)N[C@@H](C(=O)O)CCC(=O)N1C
REMARK SMILES IDX 39 1 38 2 37 3 36 4 28 6 27 7 25 8 26 9 23 11 24 12 19 13
REMARK SMILES IDX 18 14 16 15 17 16 11 18 10 19 8 20 9 21 12 24 13 25 14 26
REMARK SMILES IDX 15 27 20 28 21 29 22 30 29 32 30 33 31 34 32 35 33 36 34 37
REMARK SMILES IDX 35 38 57 43 58 44 59 45 60 46 61 47 62 49 66 50 67 51 68 52
REMARK SMILES IDX 69 53 70 54 71 55 2 56 1 57 3 58 4 59 5 60 6 62 7 63 63 65
REMARK SMILES IDX 64 66 65 67 40 69 41 70 42 71 44 72 43 73 45 74 46 75 47 76
REMARK SMILES IDX 55 77 56 78 48 79 49 80 50 81 54 82 51 83 53 84 52 85
REMARK H PARENT 38 5 27 10 18 17 10 22 22 31 34 39 34 40 35 41 35 42 61 48
REMARK H PARENT 5 61 65 68
REMARK Flexibility Score:  369.900
ROOT
ATOM      1  C   UNL     1     -10.239   2.670  10.481  1.00  0.00     0.117 C 
ENDROOT
BRANCH   1   2
ATOM      2  N   UNL     1     -10.333   1.393  11.191  1.00  0.00    -0.347 N 
ATOM      3  O   UNL     1     -11.015   2.214  13.223  1.00  0.00    -0.273 OA
ATOM      4  C   UNL     1     -10.803   1.259  12.483  1.00  0.00     0.243 C 
ATOM      5  H   UNL     1     -10.091   0.541  10.708  1.00  0.00     0.164 HD
BRANCH   4   6
ATOM      6  C   UNL     1     -10.882  -0.211  12.968  1.00  0.00     0.171 C 
BRANCH   6   7
ATOM      7  N   UNL     1     -12.222  -0.506  13.500  1.00  0.00    -0.344 N 
ATOM      8  C   UNL     1     -12.374  -1.079  14.743  1.00  0.00     0.226 C 
ATOM      9  O   UNL     1     -11.421  -1.389  15.449  1.00  0.00    -0.275 OA
ATOM     10  H   UNL     1     -13.031  -0.327  12.918  1.00  0.00     0.164 HD
BRANCH   8  11
ATOM     11  C   UNL     1     -13.818  -1.271  15.172  1.00  0.00     0.109 C 
ATOM     12  C   UNL     1     -14.669  -0.094  14.693  1.00  0.00     0.021 C 
BRANCH  11  13
ATOM     13  C   UNL     1     -14.317  -2.658  14.720  1.00  0.00     0.204 C 
BRANCH  13  14
ATOM     14  N   UNL     1     -13.231  -3.641  14.660  1.00  0.00    -0.340 N 
ATOM     15  C   UNL     1     -13.164  -4.624  13.696  1.00  0.00     0.243 C 
ATOM     16  O   UNL     1     -13.980  -4.707  12.780  1.00  0.00    -0.273 OA
ATOM     17  H   UNL     1     -12.611  -3.723  15.470  1.00  0.00     0.164 HD
BRANCH  15  18
ATOM     18  C   UNL     1     -12.051  -5.669  13.954  1.00  0.00     0.171 C 
BRANCH  18  19
ATOM     19  N   UNL     1     -12.523  -6.522  15.043  1.00  0.00    -0.343 N 
ATOM     20  C   UNL     1     -11.748  -6.775  16.159  1.00  0.00     0.242 CG0
ATOM     21  O   UNL     1     -10.579  -6.404  16.227  1.00  0.00    -0.273 OA
ATOM     22  H   UNL     1     -13.440  -6.948  14.979  1.00  0.00     0.164 HD
ATOM     23  G   UNL     1     -12.444  -7.632  17.236  1.00  0.00     0.000 G0
ENDBRANCH  18  19
BRANCH  18  24
ATOM     24  C   UNL     1     -11.767  -6.482  12.685  1.00  0.00     0.038 C 
BRANCH  24  25
ATOM     25  C   UNL     1     -10.272  -6.614  12.326  1.00  0.00    -0.015 C 
ATOM     26  C   UNL     1      -9.647  -7.893  12.883  1.00  0.00     0.007 C 
ATOM     27  C   UNL     1      -9.507  -5.396  12.849  1.00  0.00     0.007 C 
ENDBRANCH  24  25
ENDBRANCH  18  24
ENDBRANCH  15  18
ENDBRANCH  13  14
BRANCH  13  28
ATOM     28  C   UNL     1     -15.403  -3.236  15.633  1.00  0.00     0.327 C 
ATOM     29  O   UNL     1     -15.661  -2.869  16.770  1.00  0.00    -0.250 OA
BRANCH  28  30
ATOM     30  O   UNL     1     -16.016  -4.315  15.108  1.00  0.00    -0.480 OA
ATOM     31  H   UNL     1     -16.912  -3.994  14.876  1.00  0.00     0.296 HD
ENDBRANCH  28  30
ENDBRANCH  13  28
ENDBRANCH  11  13
ENDBRANCH   8  11
ENDBRANCH   6   7
BRANCH   6  32
ATOM     32  C   UNL     1     -10.537  -1.145  11.803  1.00  0.00     0.037 C 
BRANCH  32  33
ATOM     33  C   UNL     1     -11.662  -2.148  11.512  1.00  0.00     0.026 C 
BRANCH  33  34
ATOM     34  C   UNL     1     -12.143  -2.084  10.062  1.00  0.00     0.146 C 
BRANCH  34  35
ATOM     35  N   UNL     1     -12.140  -3.430   9.506  1.00  0.00    -0.254 NA
ATOM     36  C   UNL     1     -13.240  -4.085   9.476  1.00  0.00     0.185 C 
ATOM     37  N   UNL     1     -13.250  -5.325   8.961  1.00  0.00    -0.370 N 
ATOM     38  N   UNL     1     -14.460  -3.708   9.899  1.00  0.00    -0.370 N 
ATOM     39  H   UNL     1     -12.369  -5.677   8.610  1.00  0.00     0.159 HD
ATOM     40  H   UNL     1     -14.092  -5.830   8.743  1.00  0.00     0.159 HD
ATOM     41  H   UNL     1     -15.220  -4.365   9.949  1.00  0.00     0.159 HD
ATOM     42  H   UNL     1     -14.598  -2.804  10.324  1.00  0.00     0.159 HD
ENDBRANCH  34  35
ENDBRANCH  33  34
ENDBRANCH  32  33
ENDBRANCH   6  32
ENDBRANCH   4   6
ENDBRANCH   1   2
BRANCH   1  43
ATOM     43  C   UNL     1     -11.619   2.976   9.829  1.00  0.00     0.102 C 
ATOM     44  C   UNL     1     -11.586   2.955   8.291  1.00  0.00     0.020 C 
BRANCH  43  45
ATOM     45  C   UNL     1     -12.237   4.246  10.421  1.00  0.00     0.225 C 
ATOM     46  O   UNL     1     -13.249   4.774   9.968  1.00  0.00    -0.275 OA
ATOM     47  N   UNL     1     -11.529   4.826  11.449  1.00  0.00    -0.342 N 
ATOM     48  H   UNL     1     -10.793   4.306  11.905  1.00  0.00     0.164 HD
BRANCH  47  49
ATOM     49  C   UNL     1     -12.019   6.026  12.135  1.00  0.00     0.192 C 
BRANCH  49  50
ATOM     50  C   UNL     1     -11.352   7.268  11.538  1.00  0.00     0.047 C 
BRANCH  50  51
ATOM     51  C   UNL     1     -12.332   8.118  10.719  1.00  0.00     0.103 C 
BRANCH  51  52
ATOM     52  C   UNL     1     -11.769   8.480   9.346  1.00  0.00     0.226 C 
ATOM     53  O   UNL     1     -11.033   9.462   9.228  1.00  0.00    -0.275 OA
BRANCH  52  54
ATOM     54  N   UNL     1     -12.075   7.601   8.291  1.00  0.00    -0.311 N 
ATOM     55  C   UNL     1     -13.448   7.477   7.784  1.00  0.00     0.153 C 
BRANCH  54  56
ATOM     56  C   UNL     1     -11.082   6.816   7.680  1.00  0.00     0.102 C 
ATOM     57  C   UNL     1     -10.052   6.244   8.323  1.00  0.00     0.043 C 
BRANCH  56  58
ATOM     58  C   UNL     1     -11.135   6.513   6.201  1.00  0.00     0.268 C 
ATOM     59  O   UNL     1     -11.460   5.422   5.752  1.00  0.00    -0.268 OA
ATOM     60  N   UNL     1     -10.845   7.604   5.416  1.00  0.00    -0.339 N 
ATOM     61  H   UNL     1     -10.575   8.470   5.865  1.00  0.00     0.164 HD
BRANCH  60  62
ATOM     62  C   UNL     1     -10.899   7.548   3.955  1.00  0.00     0.168 CG0
ATOM     63  C   UNL     1      -9.499   7.476   3.359  1.00  0.00     0.041 C 
ATOM     64  G   UNL     1     -11.659   8.779   3.419  1.00  0.00     0.000 G0
ENDBRANCH  60  62
ENDBRANCH  56  58
ENDBRANCH  54  56
ENDBRANCH  52  54
ENDBRANCH  51  52
ENDBRANCH  50  51
ENDBRANCH  49  50
BRANCH  49  65
ATOM     65  C   UNL     1     -11.735   5.971  13.644  1.00  0.00     0.326 C 
ATOM     66  O   UNL     1     -11.447   6.928  14.348  1.00  0.00    -0.250 OA
BRANCH  65  67
ATOM     67  O   UNL     1     -11.764   4.730  14.179  1.00  0.00    -0.480 OA
ATOM     68  H   UNL     1     -12.246   4.201  13.507  1.00  0.00     0.296 HD
ENDBRANCH  65  67
ENDBRANCH  49  65
ENDBRANCH  47  49
ENDBRANCH  43  45
ENDBRANCH   1  43
BRANCH   1  69
ATOM     69  C   UNL     1      -9.013   2.571   9.592  1.00  0.00    -0.001 C 
ATOM     70  C   UNL     1      -8.346   1.458   9.241  1.00  0.00     0.001 C 
BRANCH  70  71
ATOM     71  C   UNL     1      -7.176   1.374   8.364  1.00  0.00    -0.055 C 
ATOM     72  C   UNL     1      -5.982   1.105   8.934  1.00  0.00    -0.018 C 
ATOM     73  C   UNL     1      -7.388   1.584   6.888  1.00  0.00     0.044 C 
BRANCH  72  74
ATOM     74  C   UNL     1      -4.615   0.957   8.283  1.00  0.00     0.038 C 
ATOM     75  C   UNL     1      -4.243  -0.529   8.344  1.00  0.00     0.015 C 
BRANCH  74  76
ATOM     76  C   UNL     1      -3.613   1.911   8.997  1.00  0.00     0.128 C 
BRANCH  76  77
ATOM     77  O   UNL     1      -3.125   2.895   8.070  1.00  0.00    -0.381 OA
ATOM     78  C   UNL     1      -3.761   2.847   6.799  1.00  0.00     0.195 C 
ENDBRANCH  76  77
BRANCH  76  79
ATOM     79  C   UNL     1      -4.164   2.540  10.302  1.00  0.00     0.068 C 
BRANCH  79  80
ATOM     80  C   UNL     1      -3.731   1.935  11.616  1.00  0.00    -0.045 A 
ATOM     81  C   UNL     1      -2.747   2.547  12.403  1.00  0.00     0.004 A 
ATOM     82  C   UNL     1      -4.292   0.727  12.057  1.00  0.00     0.004 A 
ATOM     83  C   UNL     1      -2.342   1.974  13.610  1.00  0.00     0.000 A 
ATOM     84  C   UNL     1      -3.885   0.154  13.264  1.00  0.00     0.000 A 
ATOM     85  C   UNL     1      -2.912   0.778  14.041  1.00  0.00     0.000 A 
ENDBRANCH  79  80
ENDBRANCH  76  79
ENDBRANCH  74  76
ENDBRANCH  72  74
ENDBRANCH  70  71
ENDBRANCH   1  69
TORSDOF 17
ENDMDL
MODEL 8
REMARK VINA RESULT:    -5.729      3.020      5.975
REMARK INTER + INTRA:         -26.265
REMARK INTER:                 -18.825
REMARK INTRA:                  -7.440
REMARK UNBOUND:                -9.148
REMARK SMILES C=C1C(=O)N[C@H](C)C(=O)N[C@@H](CC(C)C)C(=O)N[C@@H](C(=O)O)[C@H](C)C(=O)N[C@@H](CCCN=C(N)N)C(=O)N[C@@H](/C=C/C(C)=C/[C@H](C)[C@H](Cc2ccccc2)OC)[C@H](C)C(=O)N[C@@H](C(=O)O)CCC(=O)N1C
REMARK SMILES IDX 39 1 38 2 37 3 36 4 28 6 27 7 25 8 26 9 23 11 24 12 19 13
REMARK SMILES IDX 18 14 16 15 17 16 11 18 10 19 8 20 9 21 12 24 13 25 14 26
REMARK SMILES IDX 15 27 20 28 21 29 22 30 29 32 30 33 31 34 32 35 33 36 34 37
REMARK SMILES IDX 35 38 57 43 58 44 59 45 60 46 61 47 62 49 66 50 67 51 68 52
REMARK SMILES IDX 69 53 70 54 71 55 2 56 1 57 3 58 4 59 5 60 6 62 7 63 63 65
REMARK SMILES IDX 64 66 65 67 40 69 41 70 42 71 44 72 43 73 45 74 46 75 47 76
REMARK SMILES IDX 55 77 56 78 48 79 49 80 50 81 54 82 51 83 53 84 52 85
REMARK H PARENT 38 5 27 10 18 17 10 22 22 31 34 39 34 40 35 41 35 42 61 48
REMARK H PARENT 5 61 65 68
REMARK Flexibility Score:  369.900
ROOT
ATOM      1  C   UNL     1       6.963   5.515  -2.548  1.00  0.00     0.117 C 
ENDROOT
BRANCH   1   2
ATOM      2  N   UNL     1       7.321   4.429  -3.461  1.00  0.00    -0.347 N 
ATOM      3  O   UNL     1       9.589   4.784  -3.497  1.00  0.00    -0.273 OA
ATOM      4  C   UNL     1       8.620   4.093  -3.791  1.00  0.00     0.243 C 
ATOM      5  H   UNL     1       6.593   3.846  -3.846  1.00  0.00     0.164 HD
BRANCH   4   6
ATOM      6  C   UNL     1       8.727   2.848  -4.709  1.00  0.00     0.171 C 
BRANCH   6   7
ATOM      7  N   UNL     1       7.516   2.712  -5.534  1.00  0.00    -0.344 N 
ATOM      8  C   UNL     1       6.358   2.188  -5.001  1.00  0.00     0.226 C 
ATOM      9  O   UNL     1       6.283   1.794  -3.843  1.00  0.00    -0.275 OA
ATOM     10  H   UNL     1       7.559   2.963  -6.514  1.00  0.00     0.164 HD
BRANCH   8  11
ATOM     11  C   UNL     1       5.183   2.163  -5.962  1.00  0.00     0.109 C 
ATOM     12  C   UNL     1       5.444   3.107  -7.137  1.00  0.00     0.021 C 
BRANCH  11  13
ATOM     13  C   UNL     1       4.863   0.708  -6.359  1.00  0.00     0.204 C 
BRANCH  13  14
ATOM     14  N   UNL     1       3.481   0.553  -6.822  1.00  0.00    -0.340 N 
ATOM     15  C   UNL     1       2.627  -0.406  -6.322  1.00  0.00     0.243 C 
ATOM     16  O   UNL     1       2.947  -1.163  -5.407  1.00  0.00    -0.273 OA
ATOM     17  H   UNL     1       3.203   1.042  -7.677  1.00  0.00     0.164 HD
BRANCH  15  18
ATOM     18  C   UNL     1       1.295  -0.517  -7.103  1.00  0.00     0.171 C 
BRANCH  18  19
ATOM     19  N   UNL     1       1.531  -1.450  -8.203  1.00  0.00    -0.343 N 
ATOM     20  C   UNL     1       2.034  -1.031  -9.420  1.00  0.00     0.242 CG0
ATOM     21  O   UNL     1       2.180   0.161  -9.679  1.00  0.00    -0.273 OA
ATOM     22  H   UNL     1       1.316  -2.433  -8.077  1.00  0.00     0.164 HD
ATOM     23  G   UNL     1       2.290  -2.169 -10.429  1.00  0.00     0.000 G0
ENDBRANCH  18  19
BRANCH  18  24
ATOM     24  C   UNL     1       0.168  -1.004  -6.185  1.00  0.00     0.038 C 
BRANCH  24  25
ATOM     25  C   UNL     1      -0.258  -2.471  -6.409  1.00  0.00    -0.015 C 
ATOM     26  C   UNL     1      -1.762  -2.615  -6.644  1.00  0.00     0.007 C 
ATOM     27  C   UNL     1       0.158  -3.317  -5.203  1.00  0.00     0.007 C 
ENDBRANCH  24  25
ENDBRANCH  18  24
ENDBRANCH  15  18
ENDBRANCH  13  14
BRANCH  13  28
ATOM     28  C   UNL     1       5.776   0.170  -7.465  1.00  0.00     0.327 C 
ATOM     29  O   UNL     1       6.985   0.012  -7.392  1.00  0.00    -0.250 OA
BRANCH  28  30
ATOM     30  O   UNL     1       5.131  -0.025  -8.634  1.00  0.00    -0.480 OA
ATOM     31  H   UNL     1       5.810  -0.417  -9.221  1.00  0.00     0.296 HD
ENDBRANCH  28  30
ENDBRANCH  13  28
ENDBRANCH  11  13
ENDBRANCH   8  11
ENDBRANCH   6   7
BRANCH   6  32
ATOM     32  C   UNL     1       9.976   2.977  -5.588  1.00  0.00     0.037 C 
BRANCH  32  33
ATOM     33  C   UNL     1       9.648   2.858  -7.083  1.00  0.00     0.026 C 
BRANCH  33  34
ATOM     34  C   UNL     1       9.791   4.189  -7.821  1.00  0.00     0.146 C 
BRANCH  34  35
ATOM     35  N   UNL     1       8.472   4.790  -7.967  1.00  0.00    -0.254 NA
ATOM     36  C   UNL     1       8.164   5.783  -7.220  1.00  0.00     0.185 C 
ATOM     37  N   UNL     1       6.953   6.347  -7.350  1.00  0.00    -0.370 N 
ATOM     38  N   UNL     1       8.901   6.389  -6.272  1.00  0.00    -0.370 N 
ATOM     39  H   UNL     1       6.341   5.953  -8.053  1.00  0.00     0.159 HD
ATOM     40  H   UNL     1       6.701   7.227  -6.931  1.00  0.00     0.159 HD
ATOM     41  H   UNL     1       8.495   7.073  -5.655  1.00  0.00     0.159 HD
ATOM     42  H   UNL     1       9.829   6.059  -6.056  1.00  0.00     0.159 HD
ENDBRANCH  34  35
ENDBRANCH  33  34
ENDBRANCH  32  33
ENDBRANCH   6  32
ENDBRANCH   4   6
ENDBRANCH   1   2
BRANCH   1  43
ATOM     43  C   UNL     1       7.179   5.025  -1.087  1.00  0.00     0.102 C 
ATOM     44  C   UNL     1       6.074   4.079  -0.589  1.00  0.00     0.020 C 
BRANCH  43  45
ATOM     45  C   UNL     1       7.458   6.203  -0.148  1.00  0.00     0.225 C 
ATOM     46  O   UNL     1       8.529   6.359   0.432  1.00  0.00    -0.275 OA
ATOM     47  N   UNL     1       6.391   7.040   0.086  1.00  0.00    -0.342 N 
ATOM     48  H   UNL     1       5.575   6.988  -0.508  1.00  0.00     0.164 HD
BRANCH  47  49
ATOM     49  C   UNL     1       6.521   8.228   0.935  1.00  0.00     0.192 C 
BRANCH  49  50
ATOM     50  C   UNL     1       5.801   7.990   2.265  1.00  0.00     0.047 C 
BRANCH  50  51
ATOM     51  C   UNL     1       4.638   6.998   2.129  1.00  0.00     0.103 C 
BRANCH  51  52
ATOM     52  C   UNL     1       4.642   5.953   3.243  1.00  0.00     0.226 C 
ATOM     53  O   UNL     1       5.524   5.093   3.270  1.00  0.00    -0.275 OA
BRANCH  52  54
ATOM     54  N   UNL     1       3.653   6.092   4.235  1.00  0.00    -0.311 N 
ATOM     55  C   UNL     1       2.681   7.192   4.186  1.00  0.00     0.153 C 
BRANCH  54  56
ATOM     56  C   UNL     1       3.554   5.183   5.302  1.00  0.00     0.102 C 
ATOM     57  C   UNL     1       2.761   4.100   5.318  1.00  0.00     0.043 C 
BRANCH  56  58
ATOM     58  C   UNL     1       4.405   5.347   6.540  1.00  0.00     0.268 C 
ATOM     59  O   UNL     1       5.519   4.854   6.657  1.00  0.00    -0.268 OA
ATOM     60  N   UNL     1       3.827   6.156   7.489  1.00  0.00    -0.339 N 
ATOM     61  H   UNL     1       2.896   6.517   7.320  1.00  0.00     0.164 HD
BRANCH  60  62
ATOM     62  C   UNL     1       4.506   6.499   8.738  1.00  0.00     0.168 CG0
ATOM     63  C   UNL     1       4.033   5.607   9.879  1.00  0.00     0.041 C 
ATOM     64  G   UNL     1       4.261   7.985   9.069  1.00  0.00     0.000 G0
ENDBRANCH  60  62
ENDBRANCH  56  58
ENDBRANCH  54  56
ENDBRANCH  52  54
ENDBRANCH  51  52
ENDBRANCH  50  51
ENDBRANCH  49  50
BRANCH  49  65
ATOM     65  C   UNL     1       5.937   9.476   0.256  1.00  0.00     0.326 C 
ATOM     66  O   UNL     1       4.746   9.720   0.120  1.00  0.00    -0.250 OA
BRANCH  65  67
ATOM     67  O   UNL     1       6.857  10.317  -0.266  1.00  0.00    -0.480 OA
ATOM     68  H   UNL     1       7.665   9.764  -0.331  1.00  0.00     0.296 HD
ENDBRANCH  65  67
ENDBRANCH  49  65
ENDBRANCH  47  49
ENDBRANCH  43  45
ENDBRANCH   1  43
BRANCH   1  69
ATOM     69  C   UNL     1       5.582   5.984  -2.968  1.00  0.00    -0.001 C 
ATOM     70  C   UNL     1       4.875   5.585  -4.040  1.00  0.00     0.001 C 
BRANCH  70  71
ATOM     71  C   UNL     1       3.533   6.029  -4.424  1.00  0.00    -0.055 C 
ATOM     72  C   UNL     1       2.629   6.217  -3.439  1.00  0.00    -0.018 C 
ATOM     73  C   UNL     1       3.259   6.253  -5.888  1.00  0.00     0.044 C 
BRANCH  72  74
ATOM     74  C   UNL     1       1.180   6.672  -3.536  1.00  0.00     0.038 C 
ATOM     75  C   UNL     1       0.993   7.808  -2.523  1.00  0.00     0.015 C 
BRANCH  74  76
ATOM     76  C   UNL     1       0.253   5.441  -3.315  1.00  0.00     0.128 C 
BRANCH  76  77
ATOM     77  O   UNL     1      -0.154   4.898  -4.583  1.00  0.00    -0.381 OA
ATOM     78  C   UNL     1      -1.542   4.600  -4.657  1.00  0.00     0.195 C 
ENDBRANCH  76  77
BRANCH  76  79
ATOM     79  C   UNL     1       0.846   4.368  -2.367  1.00  0.00     0.068 C 
BRANCH  79  80
ATOM     80  C   UNL     1       0.645   4.548  -0.882  1.00  0.00    -0.045 A 
ATOM     81  C   UNL     1       1.660   5.078  -0.075  1.00  0.00     0.004 A 
ATOM     82  C   UNL     1      -0.560   4.158  -0.279  1.00  0.00     0.004 A 
ATOM     83  C   UNL     1       1.472   5.228   1.301  1.00  0.00     0.000 A 
ATOM     84  C   UNL     1      -0.748   4.308   1.097  1.00  0.00     0.000 A 
ATOM     85  C   UNL     1       0.267   4.844   1.886  1.00  0.00     0.000 A 
ENDBRANCH  79  80
ENDBRANCH  76  79
ENDBRANCH  74  76
ENDBRANCH  72  74
ENDBRANCH  70  71
ENDBRANCH   1  69
TORSDOF 17
ENDMDL
MODEL 9
REMARK VINA RESULT:    -5.669      1.715      2.444
REMARK INTER + INTRA:         -26.085
REMARK INTER:                 -17.403
REMARK INTRA:                  -8.682
REMARK UNBOUND:                -9.148
REMARK SMILES C=C1C(=O)N[C@H](C)C(=O)N[C@@H](CC(C)C)C(=O)N[C@@H](C(=O)O)[C@H](C)C(=O)N[C@@H](CCCN=C(N)N)C(=O)N[C@@H](/C=C/C(C)=C/[C@H](C)[C@H](Cc2ccccc2)OC)[C@H](C)C(=O)N[C@@H](C(=O)O)CCC(=O)N1C
REMARK SMILES IDX 39 1 38 2 37 3 36 4 28 6 27 7 25 8 26 9 23 11 24 12 19 13
REMARK SMILES IDX 18 14 16 15 17 16 11 18 10 19 8 20 9 21 12 24 13 25 14 26
REMARK SMILES IDX 15 27 20 28 21 29 22 30 29 32 30 33 31 34 32 35 33 36 34 37
REMARK SMILES IDX 35 38 57 43 58 44 59 45 60 46 61 47 62 49 66 50 67 51 68 52
REMARK SMILES IDX 69 53 70 54 71 55 2 56 1 57 3 58 4 59 5 60 6 62 7 63 63 65
REMARK SMILES IDX 64 66 65 67 40 69 41 70 42 71 44 72 43 73 45 74 46 75 47 76
REMARK SMILES IDX 55 77 56 78 48 79 49 80 50 81 54 82 51 83 53 84 52 85
REMARK H PARENT 38 5 27 10 18 17 10 22 22 31 34 39 34 40 35 41 35 42 61 48
REMARK H PARENT 5 61 65 68
REMARK Flexibility Score:  369.900
ROOT
ATOM      1  C   UNL     1       3.718   7.017   0.019  1.00  0.00     0.117 C 
ENDROOT
BRANCH   1   2
ATOM      2  N   UNL     1       5.144   7.068  -0.304  1.00  0.00    -0.347 N 
ATOM      3  O   UNL     1       5.390   9.350  -0.270  1.00  0.00    -0.273 OA
ATOM      4  C   UNL     1       5.889   8.231  -0.333  1.00  0.00     0.243 C 
ATOM      5  H   UNL     1       5.645   6.208  -0.471  1.00  0.00     0.164 HD
BRANCH   4   6
ATOM      6  C   UNL     1       7.395   8.000  -0.617  1.00  0.00     0.171 C 
BRANCH   6   7
ATOM      7  N   UNL     1       7.569   7.114  -1.779  1.00  0.00    -0.344 N 
ATOM      8  C   UNL     1       8.700   6.338  -1.908  1.00  0.00     0.226 C 
ATOM      9  O   UNL     1       9.613   6.361  -1.091  1.00  0.00    -0.275 OA
ATOM     10  H   UNL     1       6.867   7.118  -2.509  1.00  0.00     0.164 HD
BRANCH   8  11
ATOM     11  C   UNL     1       8.706   5.439  -3.131  1.00  0.00     0.109 C 
ATOM     12  C   UNL     1      10.066   4.757  -3.277  1.00  0.00     0.021 C 
BRANCH  11  13
ATOM     13  C   UNL     1       7.502   4.477  -3.077  1.00  0.00     0.204 C 
BRANCH  13  14
ATOM     14  N   UNL     1       7.464   3.574  -4.231  1.00  0.00    -0.340 N 
ATOM     15  C   UNL     1       6.755   3.855  -5.379  1.00  0.00     0.243 C 
ATOM     16  O   UNL     1       6.151   4.915  -5.539  1.00  0.00    -0.273 OA
ATOM     17  H   UNL     1       7.814   2.620  -4.107  1.00  0.00     0.164 HD
BRANCH  15  18
ATOM     18  C   UNL     1       6.692   2.670  -6.373  1.00  0.00     0.171 C 
BRANCH  18  19
ATOM     19  N   UNL     1       8.071   2.251  -6.614  1.00  0.00    -0.343 N 
ATOM     20  C   UNL     1       8.486   1.783  -7.846  1.00  0.00     0.242 CG0
ATOM     21  O   UNL     1       7.689   1.572  -8.756  1.00  0.00    -0.273 OA
ATOM     22  H   UNL     1       8.744   2.298  -5.857  1.00  0.00     0.164 HD
ATOM     23  G   UNL     1       9.993   1.464  -7.931  1.00  0.00     0.000 G0
ENDBRANCH  18  19
BRANCH  18  24
ATOM     24  C   UNL     1       5.849   1.525  -5.798  1.00  0.00     0.038 C 
BRANCH  24  25
ATOM     25  C   UNL     1       4.581   1.187  -6.611  1.00  0.00    -0.015 C 
ATOM     26  C   UNL     1       3.968   2.418  -7.278  1.00  0.00     0.007 C 
ATOM     27  C   UNL     1       3.545   0.526  -5.698  1.00  0.00     0.007 C 
ENDBRANCH  24  25
ENDBRANCH  18  24
ENDBRANCH  15  18
ENDBRANCH  13  14
BRANCH  13  28
ATOM     28  C   UNL     1       7.482   3.605  -1.818  1.00  0.00     0.327 C 
ATOM     29  O   UNL     1       7.353   3.998  -0.668  1.00  0.00    -0.250 OA
BRANCH  28  30
ATOM     30  O   UNL     1       7.744   2.307  -2.070  1.00  0.00    -0.480 OA
ATOM     31  H   UNL     1       8.256   2.009  -1.290  1.00  0.00     0.296 HD
ENDBRANCH  28  30
ENDBRANCH  13  28
ENDBRANCH  11  13
ENDBRANCH   8  11
ENDBRANCH   6   7
BRANCH   6  32
ATOM     32  C   UNL     1       8.076   9.353  -0.854  1.00  0.00     0.037 C 
BRANCH  32  33
ATOM     33  C   UNL     1       9.100   9.685   0.240  1.00  0.00     0.026 C 
BRANCH  33  34
ATOM     34  C   UNL     1       8.878  11.070   0.849  1.00  0.00     0.146 C 
BRANCH  34  35
ATOM     35  N   UNL     1       7.473  11.206   1.208  1.00  0.00    -0.254 NA
ATOM     36  C   UNL     1       7.149  11.171   2.447  1.00  0.00     0.185 C 
ATOM     37  N   UNL     1       5.858  11.300   2.789  1.00  0.00    -0.370 N 
ATOM     38  N   UNL     1       7.941  11.017   3.523  1.00  0.00    -0.370 N 
ATOM     39  H   UNL     1       5.198  11.430   2.032  1.00  0.00     0.159 HD
ATOM     40  H   UNL     1       5.545  11.456   3.731  1.00  0.00     0.159 HD
ATOM     41  H   UNL     1       7.551  10.866   4.439  1.00  0.00     0.159 HD
ATOM     42  H   UNL     1       8.935  10.892   3.414  1.00  0.00     0.159 HD
ENDBRANCH  34  35
ENDBRANCH  33  34
ENDBRANCH  32  33
ENDBRANCH   6  32
ENDBRANCH   4   6
ENDBRANCH   1   2
BRANCH   1  43
ATOM     43  C   UNL     1       3.483   5.867   1.041  1.00  0.00     0.102 C 
ATOM     44  C   UNL     1       2.127   5.955   1.761  1.00  0.00     0.020 C 
BRANCH  43  45
ATOM     45  C   UNL     1       4.680   5.717   1.985  1.00  0.00     0.225 C 
ATOM     46  O   UNL     1       5.584   4.907   1.799  1.00  0.00    -0.275 OA
ATOM     47  N   UNL     1       4.637   6.490   3.123  1.00  0.00    -0.342 N 
ATOM     48  H   UNL     1       3.975   7.251   3.186  1.00  0.00     0.164 HD
BRANCH  47  49
ATOM     49  C   UNL     1       5.730   6.477   4.100  1.00  0.00     0.192 C 
BRANCH  49  50
ATOM     50  C   UNL     1       5.160   6.283   5.507  1.00  0.00     0.047 C 
BRANCH  50  51
ATOM     51  C   UNL     1       3.657   5.975   5.489  1.00  0.00     0.103 C 
BRANCH  51  52
ATOM     52  C   UNL     1       2.815   7.211   5.802  1.00  0.00     0.226 C 
ATOM     53  O   UNL     1       2.917   8.214   5.094  1.00  0.00    -0.275 OA
BRANCH  52  54
ATOM     54  N   UNL     1       1.898   7.092   6.863  1.00  0.00    -0.311 N 
ATOM     55  C   UNL     1       0.626   6.379   6.687  1.00  0.00     0.153 C 
BRANCH  54  56
ATOM     56  C   UNL     1       2.165   7.644   8.127  1.00  0.00     0.102 C 
ATOM     57  C   UNL     1       1.760   8.857   8.537  1.00  0.00     0.043 C 
BRANCH  56  58
ATOM     58  C   UNL     1       2.921   6.857   9.172  1.00  0.00     0.268 C 
ATOM     59  O   UNL     1       3.089   5.647   9.107  1.00  0.00    -0.268 OA
ATOM     60  N   UNL     1       3.454   7.647  10.162  1.00  0.00    -0.339 N 
ATOM     61  H   UNL     1       3.260   8.642  10.150  1.00  0.00     0.164 HD
BRANCH  60  62
ATOM     62  C   UNL     1       4.275   7.098  11.240  1.00  0.00     0.168 CG0
ATOM     63  C   UNL     1       3.712   7.475  12.604  1.00  0.00     0.041 C 
ATOM     64  G   UNL     1       5.727   7.599  11.090  1.00  0.00     0.000 G0
ENDBRANCH  60  62
ENDBRANCH  56  58
ENDBRANCH  54  56
ENDBRANCH  52  54
ENDBRANCH  51  52
ENDBRANCH  50  51
ENDBRANCH  49  50
BRANCH  49  65
ATOM     65  C   UNL     1       6.545   7.779   4.056  1.00  0.00     0.326 C 
ATOM     66  O   UNL     1       7.655   7.907   3.560  1.00  0.00    -0.250 OA
BRANCH  65  67
ATOM     67  O   UNL     1       5.965   8.828   4.679  1.00  0.00    -0.480 OA
ATOM     68  H   UNL     1       5.054   8.512   4.866  1.00  0.00     0.296 HD
ENDBRANCH  65  67
ENDBRANCH  49  65
ENDBRANCH  47  49
ENDBRANCH  43  45
ENDBRANCH   1  43
BRANCH   1  69
ATOM     69  C   UNL     1       2.983   6.980  -1.308  1.00  0.00    -0.001 C 
ATOM     70  C   UNL     1       1.654   7.017  -1.508  1.00  0.00     0.001 C 
BRANCH  70  71
ATOM     71  C   UNL     1       0.957   7.002  -2.795  1.00  0.00    -0.055 C 
ATOM     72  C   UNL     1       0.273   5.887  -3.126  1.00  0.00    -0.018 C 
ATOM     73  C   UNL     1       1.046   8.235  -3.656  1.00  0.00     0.044 C 
BRANCH  72  74
ATOM     74  C   UNL     1      -0.538   5.590  -4.379  1.00  0.00     0.038 C 
ATOM     75  C   UNL     1      -1.777   4.800  -3.941  1.00  0.00     0.015 C 
BRANCH  74  76
ATOM     76  C   UNL     1       0.375   4.856  -5.404  1.00  0.00     0.128 C 
BRANCH  76  77
ATOM     77  O   UNL     1       1.453   5.717  -5.807  1.00  0.00    -0.381 OA
ATOM     78  C   UNL     1       1.809   5.585  -7.177  1.00  0.00     0.195 C 
ENDBRANCH  76  77
BRANCH  76  79
ATOM     79  C   UNL     1       0.866   3.465  -4.927  1.00  0.00     0.068 C 
BRANCH  79  80
ATOM     80  C   UNL     1       1.814   3.414  -3.754  1.00  0.00    -0.045 A 
ATOM     81  C   UNL     1       1.371   3.024  -2.484  1.00  0.00     0.004 A 
ATOM     82  C   UNL     1       3.158   3.787  -3.914  1.00  0.00     0.004 A 
ATOM     83  C   UNL     1       2.251   2.994  -1.400  1.00  0.00     0.000 A 
ATOM     84  C   UNL     1       4.037   3.756  -2.830  1.00  0.00     0.000 A 
ATOM     85  C   UNL     1       3.585   3.358  -1.574  1.00  0.00     0.000 A 
ENDBRANCH  79  80
ENDBRANCH  76  79
ENDBRANCH  74  76
ENDBRANCH  72  74
ENDBRANCH  70  71
ENDBRANCH   1  69
TORSDOF 17
ENDMDL
MODEL 10
REMARK VINA RESULT:    -5.664      4.057      8.276
REMARK INTER + INTRA:         -26.070
REMARK INTER:                 -19.916
REMARK INTRA:                  -6.154
REMARK UNBOUND:                -9.148
REMARK SMILES C=C1C(=O)N[C@H](C)C(=O)N[C@@H](CC(C)C)C(=O)N[C@@H](C(=O)O)[C@H](C)C(=O)N[C@@H](CCCN=C(N)N)C(=O)N[C@@H](/C=C/C(C)=C/[C@H](C)[C@H](Cc2ccccc2)OC)[C@H](C)C(=O)N[C@@H](C(=O)O)CCC(=O)N1C
REMARK SMILES IDX 39 1 38 2 37 3 36 4 28 6 27 7 25 8 26 9 23 11 24 12 19 13
REMARK SMILES IDX 18 14 16 15 17 16 11 18 10 19 8 20 9 21 12 24 13 25 14 26
REMARK SMILES IDX 15 27 20 28 21 29 22 30 29 32 30 33 31 34 32 35 33 36 34 37
REMARK SMILES IDX 35 38 57 43 58 44 59 45 60 46 61 47 62 49 66 50 67 51 68 52
REMARK SMILES IDX 69 53 70 54 71 55 2 56 1 57 3 58 4 59 5 60 6 62 7 63 63 65
REMARK SMILES IDX 64 66 65 67 40 69 41 70 42 71 44 72 43 73 45 74 46 75 47 76
REMARK SMILES IDX 55 77 56 78 48 79 49 80 50 81 54 82 51 83 53 84 52 85
REMARK H PARENT 38 5 27 10 18 17 10 22 22 31 34 39 34 40 35 41 35 42 61 48
REMARK H PARENT 5 61 65 68
REMARK Flexibility Score:  369.900
ROOT
ATOM      1  C   UNL     1       7.273   4.166  -1.937  1.00  0.00     0.117 C 
ENDROOT
BRANCH   1   2
ATOM      2  N   UNL     1       5.938   4.269  -2.526  1.00  0.00    -0.347 N 
ATOM      3  O   UNL     1       4.787   3.139  -0.893  1.00  0.00    -0.273 OA
ATOM      4  C   UNL     1       4.784   3.825  -1.909  1.00  0.00     0.243 C 
ATOM      5  H   UNL     1       5.824   4.733  -3.415  1.00  0.00     0.164 HD
BRANCH   4   6
ATOM      6  C   UNL     1       3.492   4.132  -2.708  1.00  0.00     0.171 C 
BRANCH   6   7
ATOM      7  N   UNL     1       3.238   3.075  -3.701  1.00  0.00    -0.344 N 
ATOM      8  C   UNL     1       3.676   3.212  -5.000  1.00  0.00     0.226 C 
ATOM      9  O   UNL     1       4.268   4.209  -5.396  1.00  0.00    -0.275 OA
ATOM     10  H   UNL     1       2.694   2.266  -3.428  1.00  0.00     0.164 HD
BRANCH   8  11
ATOM     11  C   UNL     1       3.385   2.014  -5.888  1.00  0.00     0.109 C 
ATOM     12  C   UNL     1       3.944   2.251  -7.291  1.00  0.00     0.021 C 
BRANCH  11  13
ATOM     13  C   UNL     1       3.879   0.725  -5.202  1.00  0.00     0.204 C 
BRANCH  13  14
ATOM     14  N   UNL     1       3.071  -0.441  -5.573  1.00  0.00    -0.340 N 
ATOM     15  C   UNL     1       1.933  -0.811  -4.890  1.00  0.00     0.243 C 
ATOM     16  O   UNL     1       1.479  -0.152  -3.957  1.00  0.00    -0.273 OA
ATOM     17  H   UNL     1       3.471  -1.111  -6.236  1.00  0.00     0.164 HD
BRANCH  15  18
ATOM     18  C   UNL     1       1.367  -2.185  -5.329  1.00  0.00     0.171 C 
BRANCH  18  19
ATOM     19  N   UNL     1       1.617  -3.111  -4.227  1.00  0.00    -0.343 N 
ATOM     20  C   UNL     1       1.730  -4.473  -4.431  1.00  0.00     0.242 CG0
ATOM     21  O   UNL     1       1.494  -4.981  -5.524  1.00  0.00    -0.273 OA
ATOM     22  H   UNL     1       1.705  -2.750  -3.283  1.00  0.00     0.164 HD
ATOM     23  G   UNL     1       2.073  -5.281  -3.162  1.00  0.00     0.000 G0
ENDBRANCH  18  19
BRANCH  18  24
ATOM     24  C   UNL     1      -0.130  -2.078  -5.645  1.00  0.00     0.038 C 
BRANCH  24  25
ATOM     25  C   UNL     1      -0.466  -1.991  -7.148  1.00  0.00    -0.015 C 
ATOM     26  C   UNL     1      -1.806  -2.646  -7.487  1.00  0.00     0.007 C 
ATOM     27  C   UNL     1       0.649  -2.650  -7.964  1.00  0.00     0.007 C 
ENDBRANCH  24  25
ENDBRANCH  18  24
ENDBRANCH  15  18
ENDBRANCH  13  14
BRANCH  13  28
ATOM     28  C   UNL     1       5.337   0.389  -5.527  1.00  0.00     0.327 C 
ATOM     29  O   UNL     1       5.725  -0.476  -6.297  1.00  0.00    -0.250 OA
BRANCH  28  30
ATOM     30  O   UNL     1       6.219   1.080  -4.777  1.00  0.00    -0.480 OA
ATOM     31  H   UNL     1       7.088   0.687  -5.002  1.00  0.00     0.296 HD
ENDBRANCH  28  30
ENDBRANCH  13  28
ENDBRANCH  11  13
ENDBRANCH   8  11
ENDBRANCH   6   7
BRANCH   6  32
ATOM     32  C   UNL     1       2.317   4.261  -1.734  1.00  0.00     0.037 C 
BRANCH  32  33
ATOM     33  C   UNL     1       1.016   4.659  -2.445  1.00  0.00     0.026 C 
BRANCH  33  34
ATOM     34  C   UNL     1       0.609   6.105  -2.155  1.00  0.00     0.146 C 
BRANCH  34  35
ATOM     35  N   UNL     1       1.545   6.999  -2.822  1.00  0.00    -0.254 NA
ATOM     36  C   UNL     1       1.274   7.397  -4.009  1.00  0.00     0.185 C 
ATOM     37  N   UNL     1       2.127   8.225  -4.632  1.00  0.00    -0.370 N 
ATOM     38  N   UNL     1       0.210   7.103  -4.777  1.00  0.00    -0.370 N 
ATOM     39  H   UNL     1       2.951   8.503  -4.113  1.00  0.00     0.159 HD
ATOM     40  H   UNL     1       1.906   8.715  -5.482  1.00  0.00     0.159 HD
ATOM     41  H   UNL     1       0.179   7.367  -5.748  1.00  0.00     0.159 HD
ATOM     42  H   UNL     1      -0.506   6.477  -4.442  1.00  0.00     0.159 HD
ENDBRANCH  34  35
ENDBRANCH  33  34
ENDBRANCH  32  33
ENDBRANCH   6  32
ENDBRANCH   4   6
ENDBRANCH   1   2
BRANCH   1  43
ATOM     43  C   UNL     1       7.558   5.463  -1.126  1.00  0.00     0.102 C 
ATOM     44  C   UNL     1       8.871   6.158  -1.524  1.00  0.00     0.020 C 
BRANCH  43  45
ATOM     45  C   UNL     1       7.418   5.212   0.378  1.00  0.00     0.225 C 
ATOM     46  O   UNL     1       7.368   4.088   0.869  1.00  0.00    -0.275 OA
ATOM     47  N   UNL     1       7.257   6.338   1.154  1.00  0.00    -0.342 N 
ATOM     48  H   UNL     1       7.451   7.248   0.761  1.00  0.00     0.164 HD
BRANCH  47  49
ATOM     49  C   UNL     1       7.147   6.253   2.613  1.00  0.00     0.192 C 
BRANCH  49  50
ATOM     50  C   UNL     1       6.387   7.472   3.143  1.00  0.00     0.047 C 
BRANCH  50  51
ATOM     51  C   UNL     1       7.212   8.762   3.040  1.00  0.00     0.103 C 
BRANCH  51  52
ATOM     52  C   UNL     1       6.463   9.864   2.292  1.00  0.00     0.226 C 
ATOM     53  O   UNL     1       5.911  10.765   2.927  1.00  0.00    -0.275 OA
BRANCH  52  54
ATOM     54  N   UNL     1       6.518   9.816   0.887  1.00  0.00    -0.311 N 
ATOM     55  C   UNL     1       5.356   9.384   0.099  1.00  0.00     0.153 C 
BRANCH  54  56
ATOM     56  C   UNL     1       7.679  10.184   0.187  1.00  0.00     0.102 C 
ATOM     57  C   UNL     1       8.028   9.715  -1.022  1.00  0.00     0.043 C 
BRANCH  56  58
ATOM     58  C   UNL     1       8.632  11.211   0.751  1.00  0.00     0.268 C 
ATOM     59  O   UNL     1       9.704  10.919   1.265  1.00  0.00    -0.268 OA
ATOM     60  N   UNL     1       8.203  12.504   0.570  1.00  0.00    -0.339 N 
ATOM     61  H   UNL     1       7.297  12.661   0.145  1.00  0.00     0.164 HD
BRANCH  60  62
ATOM     62  C   UNL     1       9.002  13.656   0.985  1.00  0.00     0.168 CG0
ATOM     63  C   UNL     1       8.124  14.882   1.201  1.00  0.00     0.041 C 
ATOM     64  G   UNL     1      10.087  13.940  -0.073  1.00  0.00     0.000 G0
ENDBRANCH  60  62
ENDBRANCH  56  58
ENDBRANCH  54  56
ENDBRANCH  52  54
ENDBRANCH  51  52
ENDBRANCH  50  51
ENDBRANCH  49  50
BRANCH  49  65
ATOM     65  C   UNL     1       8.528   6.184   3.282  1.00  0.00     0.326 C 
ATOM     66  O   UNL     1       9.600   6.349   2.718  1.00  0.00    -0.250 OA
BRANCH  65  67
ATOM     67  O   UNL     1       8.504   5.856   4.593  1.00  0.00    -0.480 OA
ATOM     68  H   UNL     1       7.547   5.773   4.793  1.00  0.00     0.296 HD
ENDBRANCH  65  67
ENDBRANCH  49  65
ENDBRANCH  47  49
ENDBRANCH  43  45
ENDBRANCH   1  43
BRANCH   1  69
ATOM     69  C   UNL     1       8.209   3.790  -3.072  1.00  0.00    -0.001 C 
ATOM     70  C   UNL     1       8.063   4.071  -4.379  1.00  0.00     0.001 C 
BRANCH  70  71
ATOM     71  C   UNL     1       8.984   3.721  -5.462  1.00  0.00    -0.055 C 
ATOM     72  C   UNL     1       8.651   4.097  -6.715  1.00  0.00    -0.018 C 
ATOM     73  C   UNL     1      10.242   2.975  -5.101  1.00  0.00     0.044 C 
BRANCH  72  74
ATOM     74  C   UNL     1       9.405   3.877  -8.019  1.00  0.00     0.038 C 
ATOM     75  C   UNL     1      10.296   5.106  -8.239  1.00  0.00     0.015 C 
BRANCH  74  76
ATOM     76  C   UNL     1       8.374   3.607  -9.154  1.00  0.00     0.128 C 
BRANCH  76  77
ATOM     77  O   UNL     1       8.563   2.284  -9.684  1.00  0.00    -0.381 OA
ATOM     78  C   UNL     1       9.432   1.475  -8.903  1.00  0.00     0.195 C 
ENDBRANCH  76  77
BRANCH  76  79
ATOM     79  C   UNL     1       6.904   3.886  -8.749  1.00  0.00     0.068 C 
BRANCH  79  80
ATOM     80  C   UNL     1       6.292   5.200  -9.171  1.00  0.00    -0.045 A 
ATOM     81  C   UNL     1       6.998   6.098  -9.982  1.00  0.00     0.004 A 
ATOM     82  C   UNL     1       5.009   5.556  -8.729  1.00  0.00     0.004 A 
ATOM     83  C   UNL     1       6.430   7.318 -10.356  1.00  0.00     0.000 A 
ATOM     84  C   UNL     1       4.442   6.777  -9.102  1.00  0.00     0.000 A 
ATOM     85  C   UNL     1       5.152   7.656  -9.917  1.00  0.00     0.000 A 
ENDBRANCH  79  80
ENDBRANCH  76  79
ENDBRANCH  74  76
ENDBRANCH  72  74
ENDBRANCH  70  71
ENDBRANCH   1  69
TORSDOF 17
ENDMDL
MODEL 11
REMARK VINA RESULT:    -5.656      4.134      7.283
REMARK INTER + INTRA:         -26.045
REMARK INTER:                 -18.274
REMARK INTRA:                  -7.771
REMARK UNBOUND:                -9.148
REMARK SMILES C=C1C(=O)N[C@H](C)C(=O)N[C@@H](CC(C)C)C(=O)N[C@@H](C(=O)O)[C@H](C)C(=O)N[C@@H](CCCN=C(N)N)C(=O)N[C@@H](/C=C/C(C)=C/[C@H](C)[C@H](Cc2ccccc2)OC)[C@H](C)C(=O)N[C@@H](C(=O)O)CCC(=O)N1C
REMARK SMILES IDX 39 1 38 2 37 3 36 4 28 6 27 7 25 8 26 9 23 11 24 12 19 13
REMARK SMILES IDX 18 14 16 15 17 16 11 18 10 19 8 20 9 21 12 24 13 25 14 26
REMARK SMILES IDX 15 27 20 28 21 29 22 30 29 32 30 33 31 34 32 35 33 36 34 37
REMARK SMILES IDX 35 38 57 43 58 44 59 45 60 46 61 47 62 49 66 50 67 51 68 52
REMARK SMILES IDX 69 53 70 54 71 55 2 56 1 57 3 58 4 59 5 60 6 62 7 63 63 65
REMARK SMILES IDX 64 66 65 67 40 69 41 70 42 71 44 72 43 73 45 74 46 75 47 76
REMARK SMILES IDX 55 77 56 78 48 79 49 80 50 81 54 82 51 83 53 84 52 85
REMARK H PARENT 38 5 27 10 18 17 10 22 22 31 34 39 34 40 35 41 35 42 61 48
REMARK H PARENT 5 61 65 68
REMARK Flexibility Score:  369.900
ROOT
ATOM      1  C   UNL     1       7.020   5.659  -2.586  1.00  0.00     0.117 C 
ENDROOT
BRANCH   1   2
ATOM      2  N   UNL     1       7.348   4.595  -3.536  1.00  0.00    -0.347 N 
ATOM      3  O   UNL     1       9.606   4.502  -3.132  1.00  0.00    -0.273 OA
ATOM      4  C   UNL     1       8.605   4.037  -3.667  1.00  0.00     0.243 C 
ATOM      5  H   UNL     1       6.617   4.197  -4.105  1.00  0.00     0.164 HD
BRANCH   4   6
ATOM      6  C   UNL     1       8.665   2.868  -4.683  1.00  0.00     0.171 C 
BRANCH   6   7
ATOM      7  N   UNL     1       7.486   2.891  -5.564  1.00  0.00    -0.344 N 
ATOM      8  C   UNL     1       6.346   2.192  -5.230  1.00  0.00     0.226 C 
ATOM      9  O   UNL     1       6.263   1.510  -4.216  1.00  0.00    -0.275 OA
ATOM     10  H   UNL     1       7.540   3.389  -6.444  1.00  0.00     0.164 HD
BRANCH   8  11
ATOM     11  C   UNL     1       5.199   2.360  -6.211  1.00  0.00     0.109 C 
ATOM     12  C   UNL     1       5.620   3.276  -7.360  1.00  0.00     0.021 C 
BRANCH  11  13
ATOM     13  C   UNL     1       4.676   0.976  -6.644  1.00  0.00     0.204 C 
BRANCH  13  14
ATOM     14  N   UNL     1       3.617   1.077  -7.653  1.00  0.00    -0.340 N 
ATOM     15  C   UNL     1       2.563   0.192  -7.722  1.00  0.00     0.243 C 
ATOM     16  O   UNL     1       2.405  -0.712  -6.904  1.00  0.00    -0.273 OA
ATOM     17  H   UNL     1       3.767   1.705  -8.446  1.00  0.00     0.164 HD
BRANCH  15  18
ATOM     18  C   UNL     1       1.688   0.370  -8.987  1.00  0.00     0.171 C 
BRANCH  18  19
ATOM     19  N   UNL     1       1.862  -0.839  -9.791  1.00  0.00    -0.343 N 
ATOM     20  C   UNL     1       3.064  -1.140 -10.402  1.00  0.00     0.242 CG0
ATOM     21  O   UNL     1       4.000  -0.344 -10.410  1.00  0.00    -0.273 OA
ATOM     22  H   UNL     1       1.081  -1.473  -9.911  1.00  0.00     0.164 HD
ATOM     23  G   UNL     1       3.080  -2.495 -11.140  1.00  0.00     0.000 G0
ENDBRANCH  18  19
BRANCH  18  24
ATOM     24  C   UNL     1       0.218   0.583  -8.604  1.00  0.00     0.038 C 
BRANCH  24  25
ATOM     25  C   UNL     1      -0.484   1.733  -9.355  1.00  0.00    -0.015 C 
ATOM     26  C   UNL     1      -1.608   2.367  -8.535  1.00  0.00     0.007 C 
ATOM     27  C   UNL     1      -1.043   1.216 -10.683  1.00  0.00     0.007 C 
ENDBRANCH  24  25
ENDBRANCH  18  24
ENDBRANCH  15  18
ENDBRANCH  13  14
BRANCH  13  28
ATOM     28  C   UNL     1       5.769   0.072  -7.224  1.00  0.00     0.327 C 
ATOM     29  O   UNL     1       6.317  -0.858  -6.651  1.00  0.00    -0.250 OA
BRANCH  28  30
ATOM     30  O   UNL     1       6.189   0.465  -8.443  1.00  0.00    -0.480 OA
ATOM     31  H   UNL     1       6.087   1.440  -8.431  1.00  0.00     0.296 HD
ENDBRANCH  28  30
ENDBRANCH  13  28
ENDBRANCH  11  13
ENDBRANCH   8  11
ENDBRANCH   6   7
BRANCH   6  32
ATOM     32  C   UNL     1       9.958   2.975  -5.498  1.00  0.00     0.037 C 
BRANCH  32  33
ATOM     33  C   UNL     1       9.713   2.789  -7.002  1.00  0.00     0.026 C 
BRANCH  33  34
ATOM     34  C   UNL     1      10.003   4.058  -7.804  1.00  0.00     0.146 C 
BRANCH  34  35
ATOM     35  N   UNL     1       9.245   5.161  -7.228  1.00  0.00    -0.254 NA
ATOM     36  C   UNL     1       8.315   5.698  -7.926  1.00  0.00     0.185 C 
ATOM     37  N   UNL     1       7.607   6.711  -7.403  1.00  0.00    -0.370 N 
ATOM     38  N   UNL     1       7.909   5.391  -9.171  1.00  0.00    -0.370 N 
ATOM     39  H   UNL     1       7.847   6.995  -6.462  1.00  0.00     0.159 HD
ATOM     40  H   UNL     1       6.759   7.066  -7.811  1.00  0.00     0.159 HD
ATOM     41  H   UNL     1       7.258   5.979  -9.666  1.00  0.00     0.159 HD
ATOM     42  H   UNL     1       8.363   4.658  -9.693  1.00  0.00     0.159 HD
ENDBRANCH  34  35
ENDBRANCH  33  34
ENDBRANCH  32  33
ENDBRANCH   6  32
ENDBRANCH   4   6
ENDBRANCH   1   2
BRANCH   1  43
ATOM     43  C   UNL     1       7.515   5.233  -1.174  1.00  0.00     0.102 C 
ATOM     44  C   UNL     1       6.527   4.321  -0.429  1.00  0.00     0.020 C 
BRANCH  43  45
ATOM     45  C   UNL     1       7.973   6.448  -0.362  1.00  0.00     0.225 C 
ATOM     46  O   UNL     1       9.137   6.619  -0.009  1.00  0.00    -0.275 OA
ATOM     47  N   UNL     1       6.973   7.305   0.036  1.00  0.00    -0.342 N 
ATOM     48  H   UNL     1       6.057   7.236  -0.384  1.00  0.00     0.164 HD
BRANCH  47  49
ATOM     49  C   UNL     1       7.268   8.529   0.789  1.00  0.00     0.192 C 
BRANCH  49  50
ATOM     50  C   UNL     1       6.696   8.412   2.204  1.00  0.00     0.047 C 
BRANCH  50  51
ATOM     51  C   UNL     1       7.544   9.164   3.238  1.00  0.00     0.103 C 
BRANCH  51  52
ATOM     52  C   UNL     1       6.714  10.160   4.046  1.00  0.00     0.226 C 
ATOM     53  O   UNL     1       6.185   9.801   5.099  1.00  0.00    -0.275 OA
BRANCH  52  54
ATOM     54  N   UNL     1       6.669  11.480   3.558  1.00  0.00    -0.311 N 
ATOM     55  C   UNL     1       5.408  12.072   3.094  1.00  0.00     0.153 C 
BRANCH  54  56
ATOM     56  C   UNL     1       7.823  12.279   3.501  1.00  0.00     0.102 C 
ATOM     57  C   UNL     1       8.522  12.697   4.569  1.00  0.00     0.043 C 
BRANCH  56  58
ATOM     58  C   UNL     1       8.407  12.703   2.174  1.00  0.00     0.268 C 
ATOM     59  O   UNL     1       9.032  11.946   1.444  1.00  0.00    -0.268 OA
ATOM     60  N   UNL     1       8.108  14.004   1.843  1.00  0.00    -0.339 N 
ATOM     61  H   UNL     1       7.594  14.569   2.508  1.00  0.00     0.164 HD
BRANCH  60  62
ATOM     62  C   UNL     1       8.522  14.599   0.573  1.00  0.00     0.168 CG0
ATOM     63  C   UNL     1       9.940  15.149   0.664  1.00  0.00     0.041 C 
ATOM     64  G   UNL     1       7.530  15.712   0.176  1.00  0.00     0.000 G0
ENDBRANCH  60  62
ENDBRANCH  56  58
ENDBRANCH  54  56
ENDBRANCH  52  54
ENDBRANCH  51  52
ENDBRANCH  50  51
ENDBRANCH  49  50
BRANCH  49  65
ATOM     65  C   UNL     1       6.679   9.771   0.103  1.00  0.00     0.326 C 
ATOM     66  O   UNL     1       5.502  10.099   0.114  1.00  0.00    -0.250 OA
BRANCH  65  67
ATOM     67  O   UNL     1       7.571  10.499  -0.606  1.00  0.00    -0.480 OA
ATOM     68  H   UNL     1       7.472  11.405  -0.240  1.00  0.00     0.296 HD
ENDBRANCH  65  67
ENDBRANCH  49  65
ENDBRANCH  47  49
ENDBRANCH  43  45
ENDBRANCH   1  43
BRANCH   1  69
ATOM     69  C   UNL     1       5.546   5.965  -2.785  1.00  0.00    -0.001 C 
ATOM     70  C   UNL     1       4.696   5.368  -3.640  1.00  0.00     0.001 C 
BRANCH  70  71
ATOM     71  C   UNL     1       3.271   5.658  -3.808  1.00  0.00    -0.055 C 
ATOM     72  C   UNL     1       2.433   4.612  -3.967  1.00  0.00    -0.018 C 
ATOM     73  C   UNL     1       2.839   7.101  -3.783  1.00  0.00     0.044 C 
BRANCH  72  74
ATOM     74  C   UNL     1       0.923   4.608  -4.157  1.00  0.00     0.038 C 
ATOM     75  C   UNL     1       0.349   3.552  -3.205  1.00  0.00     0.015 C 
BRANCH  74  76
ATOM     76  C   UNL     1       0.608   4.369  -5.664  1.00  0.00     0.128 C 
BRANCH  76  77
ATOM     77  O   UNL     1      -0.047   5.522  -6.218  1.00  0.00    -0.381 OA
ATOM     78  C   UNL     1      -1.439   5.338  -6.436  1.00  0.00     0.195 C 
ENDBRANCH  76  77
BRANCH  76  79
ATOM     79  C   UNL     1       1.833   3.916  -6.498  1.00  0.00     0.068 C 
BRANCH  79  80
ATOM     80  C   UNL     1       2.272   4.796  -7.643  1.00  0.00    -0.045 A 
ATOM     81  C   UNL     1       1.871   4.524  -8.958  1.00  0.00     0.004 A 
ATOM     82  C   UNL     1       3.119   5.891  -7.409  1.00  0.00     0.004 A 
ATOM     83  C   UNL     1       2.294   5.335 -10.013  1.00  0.00     0.000 A 
ATOM     84  C   UNL     1       3.541   6.701  -8.466  1.00  0.00     0.000 A 
ATOM     85  C   UNL     1       3.127   6.424  -9.767  1.00  0.00     0.000 A 
ENDBRANCH  79  80
ENDBRANCH  76  79
ENDBRANCH  74  76
ENDBRANCH  72  74
ENDBRANCH  70  71
ENDBRANCH   1  69
TORSDOF 17
ENDMDL
MODEL 12
REMARK VINA RESULT:    -5.647      1.855      2.478
REMARK INTER + INTRA:         -26.020
REMARK INTER:                 -17.550
REMARK INTRA:                  -8.469
REMARK UNBOUND:                -9.148
REMARK SMILES C=C1C(=O)N[C@H](C)C(=O)N[C@@H](CC(C)C)C(=O)N[C@@H](C(=O)O)[C@H](C)C(=O)N[C@@H](CCCN=C(N)N)C(=O)N[C@@H](/C=C/C(C)=C/[C@H](C)[C@H](Cc2ccccc2)OC)[C@H](C)C(=O)N[C@@H](C(=O)O)CCC(=O)N1C
REMARK SMILES IDX 39 1 38 2 37 3 36 4 28 6 27 7 25 8 26 9 23 11 24 12 19 13
REMARK SMILES IDX 18 14 16 15 17 16 11 18 10 19 8 20 9 21 12 24 13 25 14 26
REMARK SMILES IDX 15 27 20 28 21 29 22 30 29 32 30 33 31 34 32 35 33 36 34 37
REMARK SMILES IDX 35 38 57 43 58 44 59 45 60 46 61 47 62 49 66 50 67 51 68 52
REMARK SMILES IDX 69 53 70 54 71 55 2 56 1 57 3 58 4 59 5 60 6 62 7 63 63 65
REMARK SMILES IDX 64 66 65 67 40 69 41 70 42 71 44 72 43 73 45 74 46 75 47 76
REMARK SMILES IDX 55 77 56 78 48 79 49 80 50 81 54 82 51 83 53 84 52 85
REMARK H PARENT 38 5 27 10 18 17 10 22 22 31 34 39 34 40 35 41 35 42 61 48
REMARK H PARENT 5 61 65 68
REMARK Flexibility Score:  369.900
ROOT
ATOM      1  C   UNL     1       4.157   7.327   1.062  1.00  0.00     0.117 C 
ENDROOT
BRANCH   1   2
ATOM      2  N   UNL     1       5.527   7.501   0.577  1.00  0.00    -0.347 N 
ATOM      3  O   UNL     1       5.432   9.760   0.175  1.00  0.00    -0.273 OA
ATOM      4  C   UNL     1       6.085   8.725   0.258  1.00  0.00     0.243 C 
ATOM      5  H   UNL     1       6.134   6.699   0.512  1.00  0.00     0.164 HD
BRANCH   4   6
ATOM      6  C   UNL     1       7.579   8.642  -0.146  1.00  0.00     0.171 C 
BRANCH   6   7
ATOM      7  N   UNL     1       7.737   7.832  -1.365  1.00  0.00    -0.344 N 
ATOM      8  C   UNL     1       8.582   6.743  -1.380  1.00  0.00     0.226 C 
ATOM      9  O   UNL     1       9.249   6.412  -0.408  1.00  0.00    -0.275 OA
ATOM     10  H   UNL     1       7.254   8.115  -2.209  1.00  0.00     0.164 HD
BRANCH   8  11
ATOM     11  C   UNL     1       8.594   5.980  -2.693  1.00  0.00     0.109 C 
ATOM     12  C   UNL     1       9.941   5.282  -2.883  1.00  0.00     0.021 C 
BRANCH  11  13
ATOM     13  C   UNL     1       7.367   5.050  -2.767  1.00  0.00     0.204 C 
BRANCH  13  14
ATOM     14  N   UNL     1       7.514   4.023  -3.803  1.00  0.00    -0.340 N 
ATOM     15  C   UNL     1       7.000   4.163  -5.074  1.00  0.00     0.243 C 
ATOM     16  O   UNL     1       6.432   5.188  -5.447  1.00  0.00    -0.273 OA
ATOM     17  H   UNL     1       7.838   3.095  -3.517  1.00  0.00     0.164 HD
BRANCH  15  18
ATOM     18  C   UNL     1       7.095   2.873  -5.925  1.00  0.00     0.171 C 
BRANCH  18  19
ATOM     19  N   UNL     1       8.511   2.516  -5.986  1.00  0.00    -0.343 N 
ATOM     20  C   UNL     1       9.233   2.596  -7.161  1.00  0.00     0.242 CG0
ATOM     21  O   UNL     1       8.689   2.843  -8.235  1.00  0.00    -0.273 OA
ATOM     22  H   UNL     1       8.979   2.193  -5.146  1.00  0.00     0.164 HD
ATOM     23  G   UNL     1      10.730   2.254  -7.013  1.00  0.00     0.000 G0
ENDBRANCH  18  19
BRANCH  18  24
ATOM     24  C   UNL     1       6.258   1.749  -5.302  1.00  0.00     0.038 C 
BRANCH  24  25
ATOM     25  C   UNL     1       5.217   1.118  -6.251  1.00  0.00    -0.015 C 
ATOM     26  C   UNL     1       4.270   0.161  -5.528  1.00  0.00     0.007 C 
ATOM     27  C   UNL     1       5.935   0.377  -7.382  1.00  0.00     0.007 C 
ENDBRANCH  24  25
ENDBRANCH  18  24
ENDBRANCH  15  18
ENDBRANCH  13  14
BRANCH  13  28
ATOM     28  C   UNL     1       7.077   4.326  -1.448  1.00  0.00     0.327 C 
ATOM     29  O   UNL     1       7.375   3.173  -1.177  1.00  0.00    -0.250 OA
BRANCH  28  30
ATOM     30  O   UNL     1       6.328   5.056  -0.597  1.00  0.00    -0.480 OA
ATOM     31  H   UNL     1       6.795   4.980   0.261  1.00  0.00     0.296 HD
ENDBRANCH  28  30
ENDBRANCH  13  28
ENDBRANCH  11  13
ENDBRANCH   8  11
ENDBRANCH   6   7
BRANCH   6  32
ATOM     32  C   UNL     1       8.122  10.060  -0.357  1.00  0.00     0.037 C 
BRANCH  32  33
ATOM     33  C   UNL     1       8.909  10.565   0.861  1.00  0.00     0.026 C 
BRANCH  33  34
ATOM     34  C   UNL     1       9.096  12.082   0.848  1.00  0.00     0.146 C 
BRANCH  34  35
ATOM     35  N   UNL     1       7.939  12.704   1.477  1.00  0.00    -0.254 NA
ATOM     36  C   UNL     1       8.050  13.136   2.678  1.00  0.00     0.185 C 
ATOM     37  N   UNL     1       6.991  13.715   3.265  1.00  0.00    -0.370 N 
ATOM     38  N   UNL     1       9.119  13.101   3.492  1.00  0.00    -0.370 N 
ATOM     39  H   UNL     1       6.148  13.788   2.710  1.00  0.00     0.159 HD
ATOM     40  H   UNL     1       7.045  14.229   4.127  1.00  0.00     0.159 HD
ATOM     41  H   UNL     1       9.040  13.348   4.465  1.00  0.00     0.159 HD
ATOM     42  H   UNL     1       9.982  12.679   3.188  1.00  0.00     0.159 HD
ENDBRANCH  34  35
ENDBRANCH  33  34
ENDBRANCH  32  33
ENDBRANCH   6  32
ENDBRANCH   4   6
ENDBRANCH   1   2
BRANCH   1  43
ATOM     43  C   UNL     1       4.192   6.430   2.333  1.00  0.00     0.102 C 
ATOM     44  C   UNL     1       2.795   6.040   2.845  1.00  0.00     0.020 C 
BRANCH  43  45
ATOM     45  C   UNL     1       5.101   7.034   3.407  1.00  0.00     0.225 C 
ATOM     46  O   UNL     1       5.983   6.396   3.976  1.00  0.00    -0.275 OA
ATOM     47  N   UNL     1       4.808   8.328   3.772  1.00  0.00    -0.342 N 
ATOM     48  H   UNL     1       4.190   8.882   3.197  1.00  0.00     0.164 HD
BRANCH  47  49
ATOM     49  C   UNL     1       5.616   9.047   4.762  1.00  0.00     0.192 C 
BRANCH  49  50
ATOM     50  C   UNL     1       4.718   9.539   5.900  1.00  0.00     0.047 C 
BRANCH  50  51
ATOM     51  C   UNL     1       4.954   8.766   7.204  1.00  0.00     0.103 C 
BRANCH  51  52
ATOM     52  C   UNL     1       4.298   7.387   7.180  1.00  0.00     0.226 C 
ATOM     53  O   UNL     1       3.329   7.185   6.446  1.00  0.00    -0.275 OA
BRANCH  52  54
ATOM     54  N   UNL     1       4.908   6.389   7.963  1.00  0.00    -0.311 N 
ATOM     55  C   UNL     1       6.030   5.598   7.441  1.00  0.00     0.153 C 
BRANCH  54  56
ATOM     56  C   UNL     1       4.472   6.117   9.271  1.00  0.00     0.102 C 
ATOM     57  C   UNL     1       5.202   5.492  10.209  1.00  0.00     0.043 C 
BRANCH  56  58
ATOM     58  C   UNL     1       3.111   6.567   9.744  1.00  0.00     0.268 C 
ATOM     59  O   UNL     1       2.074   5.986   9.452  1.00  0.00    -0.268 OA
ATOM     60  N   UNL     1       3.163   7.653  10.585  1.00  0.00    -0.339 N 
ATOM     61  H   UNL     1       4.061   8.084  10.769  1.00  0.00     0.164 HD
BRANCH  60  62
ATOM     62  C   UNL     1       1.965   8.214  11.208  1.00  0.00     0.168 CG0
ATOM     63  C   UNL     1       2.097   9.722  11.388  1.00  0.00     0.041 C 
ATOM     64  G   UNL     1       1.715   7.523  12.564  1.00  0.00     0.000 G0
ENDBRANCH  60  62
ENDBRANCH  56  58
ENDBRANCH  54  56
ENDBRANCH  52  54
ENDBRANCH  51  52
ENDBRANCH  50  51
ENDBRANCH  49  50
BRANCH  49  65
ATOM     65  C   UNL     1       6.347  10.245   4.136  1.00  0.00     0.326 C 
ATOM     66  O   UNL     1       7.337  10.794   4.598  1.00  0.00    -0.250 OA
BRANCH  65  67
ATOM     67  O   UNL     1       5.776  10.728   3.011  1.00  0.00    -0.480 OA
ATOM     68  H   UNL     1       5.006  10.136   2.869  1.00  0.00     0.296 HD
ENDBRANCH  65  67
ENDBRANCH  49  65
ENDBRANCH  47  49
ENDBRANCH  43  45
ENDBRANCH   1  43
BRANCH   1  69
ATOM     69  C   UNL     1       3.340   6.873  -0.134  1.00  0.00    -0.001 C 
ATOM     70  C   UNL     1       3.027   7.589  -1.228  1.00  0.00     0.001 C 
BRANCH  70  71
ATOM     71  C   UNL     1       2.254   7.133  -2.386  1.00  0.00    -0.055 C 
ATOM     72  C   UNL     1       0.969   6.777  -2.182  1.00  0.00    -0.018 C 
ATOM     73  C   UNL     1       2.946   7.102  -3.724  1.00  0.00     0.044 C 
BRANCH  72  74
ATOM     74  C   UNL     1      -0.062   6.275  -3.183  1.00  0.00     0.038 C 
ATOM     75  C   UNL     1      -0.871   7.492  -3.649  1.00  0.00     0.015 C 
BRANCH  74  76
ATOM     76  C   UNL     1      -0.904   5.149  -2.512  1.00  0.00     0.128 C 
BRANCH  76  77
ATOM     77  O   UNL     1      -2.269   5.226  -2.959  1.00  0.00    -0.381 OA
ATOM     78  C   UNL     1      -2.654   4.150  -3.804  1.00  0.00     0.195 C 
ENDBRANCH  76  77
BRANCH  76  79
ATOM     79  C   UNL     1      -0.300   3.732  -2.671  1.00  0.00     0.068 C 
BRANCH  79  80
ATOM     80  C   UNL     1       1.201   3.611  -2.774  1.00  0.00    -0.045 A 
ATOM     81  C   UNL     1       1.837   3.554  -4.022  1.00  0.00     0.004 A 
ATOM     82  C   UNL     1       1.985   3.524  -1.614  1.00  0.00     0.004 A 
ATOM     83  C   UNL     1       3.225   3.427  -4.109  1.00  0.00     0.000 A 
ATOM     84  C   UNL     1       3.373   3.397  -1.702  1.00  0.00     0.000 A 
ATOM     85  C   UNL     1       3.993   3.351  -2.949  1.00  0.00     0.000 A 
ENDBRANCH  79  80
ENDBRANCH  76  79
ENDBRANCH  74  76
ENDBRANCH  72  74
ENDBRANCH  70  71
ENDBRANCH   1  69
TORSDOF 17
ENDMDL
MODEL 13
REMARK VINA RESULT:    -5.637      1.757      2.309
REMARK INTER + INTRA:         -25.990
REMARK INTER:                 -17.500
REMARK INTRA:                  -8.490
REMARK UNBOUND:                -9.148
REMARK SMILES C=C1C(=O)N[C@H](C)C(=O)N[C@@H](CC(C)C)C(=O)N[C@@H](C(=O)O)[C@H](C)C(=O)N[C@@H](CCCN=C(N)N)C(=O)N[C@@H](/C=C/C(C)=C/[C@H](C)[C@H](Cc2ccccc2)OC)[C@H](C)C(=O)N[C@@H](C(=O)O)CCC(=O)N1C
REMARK SMILES IDX 39 1 38 2 37 3 36 4 28 6 27 7 25 8 26 9 23 11 24 12 19 13
REMARK SMILES IDX 18 14 16 15 17 16 11 18 10 19 8 20 9 21 12 24 13 25 14 26
REMARK SMILES IDX 15 27 20 28 21 29 22 30 29 32 30 33 31 34 32 35 33 36 34 37
REMARK SMILES IDX 35 38 57 43 58 44 59 45 60 46 61 47 62 49 66 50 67 51 68 52
REMARK SMILES IDX 69 53 70 54 71 55 2 56 1 57 3 58 4 59 5 60 6 62 7 63 63 65
REMARK SMILES IDX 64 66 65 67 40 69 41 70 42 71 44 72 43 73 45 74 46 75 47 76
REMARK SMILES IDX 55 77 56 78 48 79 49 80 50 81 54 82 51 83 53 84 52 85
REMARK H PARENT 38 5 27 10 18 17 10 22 22 31 34 39 34 40 35 41 35 42 61 48
REMARK H PARENT 5 61 65 68
REMARK Flexibility Score:  369.900
ROOT
ATOM      1  C   UNL     1       4.016   6.869   0.579  1.00  0.00     0.117 C 
ENDROOT
BRANCH   1   2
ATOM      2  N   UNL     1       5.392   6.810   0.084  1.00  0.00    -0.347 N 
ATOM      3  O   UNL     1       5.678   9.053  -0.313  1.00  0.00    -0.273 OA
ATOM      4  C   UNL     1       6.147   7.921  -0.238  1.00  0.00     0.243 C 
ATOM      5  H   UNL     1       5.853   5.916   0.011  1.00  0.00     0.164 HD
BRANCH   4   6
ATOM      6  C   UNL     1       7.601   7.588  -0.655  1.00  0.00     0.171 C 
BRANCH   6   7
ATOM      7  N   UNL     1       7.615   6.849  -1.927  1.00  0.00    -0.344 N 
ATOM      8  C   UNL     1       8.590   5.909  -2.184  1.00  0.00     0.226 C 
ATOM      9  O   UNL     1       9.492   5.661  -1.393  1.00  0.00    -0.275 OA
ATOM     10  H   UNL     1       6.925   7.074  -2.633  1.00  0.00     0.164 HD
BRANCH   8  11
ATOM     11  C   UNL     1       8.435   5.195  -3.515  1.00  0.00     0.109 C 
ATOM     12  C   UNL     1       9.680   4.358  -3.811  1.00  0.00     0.021 C 
BRANCH  11  13
ATOM     13  C   UNL     1       7.108   4.412  -3.536  1.00  0.00     0.204 C 
BRANCH  13  14
ATOM     14  N   UNL     1       7.097   3.371  -4.568  1.00  0.00    -0.340 N 
ATOM     15  C   UNL     1       6.886   3.643  -5.903  1.00  0.00     0.243 C 
ATOM     16  O   UNL     1       6.752   4.789  -6.330  1.00  0.00    -0.273 OA
ATOM     17  H   UNL     1       7.050   2.394  -4.266  1.00  0.00     0.164 HD
BRANCH  15  18
ATOM     18  C   UNL     1       6.710   2.374  -6.773  1.00  0.00     0.171 C 
BRANCH  18  19
ATOM     19  N   UNL     1       8.047   1.822  -6.982  1.00  0.00    -0.343 N 
ATOM     20  C   UNL     1       8.504   1.479  -8.240  1.00  0.00     0.242 CG0
ATOM     21  O   UNL     1       7.765   1.497  -9.221  1.00  0.00    -0.273 OA
ATOM     22  H   UNL     1       8.656   1.679  -6.185  1.00  0.00     0.164 HD
ATOM     23  G   UNL     1       9.966   0.987  -8.273  1.00  0.00     0.000 G0
ENDBRANCH  18  19
BRANCH  18  24
ATOM     24  C   UNL     1       5.787   1.365  -6.078  1.00  0.00     0.038 C 
BRANCH  24  25
ATOM     25  C   UNL     1       4.302   1.782  -6.022  1.00  0.00    -0.015 C 
ATOM     26  C   UNL     1       3.390   0.638  -5.581  1.00  0.00     0.007 C 
ATOM     27  C   UNL     1       3.859   2.295  -7.394  1.00  0.00     0.007 C 
ENDBRANCH  24  25
ENDBRANCH  18  24
ENDBRANCH  15  18
ENDBRANCH  13  14
BRANCH  13  28
ATOM     28  C   UNL     1       6.789   3.730  -2.201  1.00  0.00     0.327 C 
ATOM     29  O   UNL     1       6.016   4.138  -1.348  1.00  0.00    -0.250 OA
BRANCH  28  30
ATOM     30  O   UNL     1       7.548   2.640  -1.969  1.00  0.00    -0.480 OA
ATOM     31  H   UNL     1       7.147   1.943  -2.529  1.00  0.00     0.296 HD
ENDBRANCH  28  30
ENDBRANCH  13  28
ENDBRANCH  11  13
ENDBRANCH   8  11
ENDBRANCH   6   7
BRANCH   6  32
ATOM     32  C   UNL     1       8.403   8.889  -0.769  1.00  0.00     0.037 C 
BRANCH  32  33
ATOM     33  C   UNL     1       9.563   8.944   0.235  1.00  0.00     0.026 C 
BRANCH  33  34
ATOM     34  C   UNL     1       9.426  10.102   1.224  1.00  0.00     0.146 C 
BRANCH  34  35
ATOM     35  N   UNL     1       9.029  11.299   0.495  1.00  0.00    -0.254 NA
ATOM     36  C   UNL     1       8.482  12.259   1.142  1.00  0.00     0.185 C 
ATOM     37  N   UNL     1       8.117  13.369   0.480  1.00  0.00    -0.370 N 
ATOM     38  N   UNL     1       8.198  12.341   2.454  1.00  0.00    -0.370 N 
ATOM     39  H   UNL     1       8.308  13.388  -0.513  1.00  0.00     0.159 HD
ATOM     40  H   UNL     1       7.846  14.223   0.935  1.00  0.00     0.159 HD
ATOM     41  H   UNL     1       7.639  13.093   2.820  1.00  0.00     0.159 HD
ATOM     42  H   UNL     1       8.403  11.571   3.071  1.00  0.00     0.159 HD
ENDBRANCH  34  35
ENDBRANCH  33  34
ENDBRANCH  32  33
ENDBRANCH   6  32
ENDBRANCH   4   6
ENDBRANCH   1   2
BRANCH   1  43
ATOM     43  C   UNL     1       3.925   6.034   1.889  1.00  0.00     0.102 C 
ATOM     44  C   UNL     1       2.506   5.973   2.478  1.00  0.00     0.020 C 
BRANCH  43  45
ATOM     45  C   UNL     1       4.997   6.468   2.893  1.00  0.00     0.225 C 
ATOM     46  O   UNL     1       5.934   5.749   3.227  1.00  0.00    -0.275 OA
ATOM     47  N   UNL     1       4.795   7.696   3.481  1.00  0.00    -0.342 N 
ATOM     48  H   UNL     1       4.115   8.332   3.090  1.00  0.00     0.164 HD
BRANCH  47  49
ATOM     49  C   UNL     1       5.758   8.256   4.435  1.00  0.00     0.192 C 
BRANCH  49  50
ATOM     50  C   UNL     1       5.056   8.544   5.765  1.00  0.00     0.047 C 
BRANCH  50  51
ATOM     51  C   UNL     1       5.437   7.532   6.854  1.00  0.00     0.103 C 
BRANCH  51  52
ATOM     52  C   UNL     1       4.344   6.488   7.074  1.00  0.00     0.226 C 
ATOM     53  O   UNL     1       4.236   5.543   6.291  1.00  0.00    -0.275 OA
BRANCH  52  54
ATOM     54  N   UNL     1       3.558   6.638   8.232  1.00  0.00    -0.311 N 
ATOM     55  C   UNL     1       3.770   5.780   9.406  1.00  0.00     0.153 C 
BRANCH  54  56
ATOM     56  C   UNL     1       2.550   7.613   8.312  1.00  0.00     0.102 C 
ATOM     57  C   UNL     1       1.370   7.552   7.672  1.00  0.00     0.043 C 
BRANCH  56  58
ATOM     58  C   UNL     1       2.713   8.826   9.196  1.00  0.00     0.268 C 
ATOM     59  O   UNL     1       3.788   9.379   9.383  1.00  0.00    -0.268 OA
ATOM     60  N   UNL     1       1.523   9.281   9.713  1.00  0.00    -0.339 N 
ATOM     61  H   UNL     1       0.677   8.760   9.520  1.00  0.00     0.164 HD
BRANCH  60  62
ATOM     62  C   UNL     1       1.444  10.481  10.546  1.00  0.00     0.168 CG0
ATOM     63  C   UNL     1       1.139  11.713   9.703  1.00  0.00     0.041 C 
ATOM     64  G   UNL     1       2.768  10.663  11.318  1.00  0.00     0.000 G0
ENDBRANCH  60  62
ENDBRANCH  56  58
ENDBRANCH  54  56
ENDBRANCH  52  54
ENDBRANCH  51  52
ENDBRANCH  50  51
ENDBRANCH  49  50
BRANCH  49  65
ATOM     65  C   UNL     1       6.393   9.551   3.904  1.00  0.00     0.326 C 
ATOM     66  O   UNL     1       6.863  10.445   4.592  1.00  0.00    -0.250 OA
BRANCH  65  67
ATOM     67  O   UNL     1       6.355   9.688   2.560  1.00  0.00    -0.480 OA
ATOM     68  H   UNL     1       7.297   9.805   2.313  1.00  0.00     0.296 HD
ENDBRANCH  65  67
ENDBRANCH  49  65
ENDBRANCH  47  49
ENDBRANCH  43  45
ENDBRANCH   1  43
BRANCH   1  69
ATOM     69  C   UNL     1       3.127   6.494  -0.593  1.00  0.00    -0.001 C 
ATOM     70  C   UNL     1       2.022   7.133  -1.017  1.00  0.00     0.001 C 
BRANCH  70  71
ATOM     71  C   UNL     1       1.184   6.774  -2.163  1.00  0.00    -0.055 C 
ATOM     72  C   UNL     1       0.536   5.590  -2.120  1.00  0.00    -0.018 C 
ATOM     73  C   UNL     1       1.097   7.753  -3.304  1.00  0.00     0.044 C 
BRANCH  72  74
ATOM     74  C   UNL     1      -0.393   4.964  -3.150  1.00  0.00     0.038 C 
ATOM     75  C   UNL     1      -1.830   5.228  -2.683  1.00  0.00     0.015 C 
BRANCH  74  76
ATOM     76  C   UNL     1      -0.024   3.459  -3.308  1.00  0.00     0.128 C 
BRANCH  76  77
ATOM     77  O   UNL     1      -1.023   2.788  -4.094  1.00  0.00    -0.381 OA
ATOM     78  C   UNL     1      -0.487   1.856  -5.024  1.00  0.00     0.195 C 
ENDBRANCH  76  77
BRANCH  76  79
ATOM     79  C   UNL     1       1.414   3.215  -3.830  1.00  0.00     0.068 C 
BRANCH  79  80
ATOM     80  C   UNL     1       2.061   4.302  -4.655  1.00  0.00    -0.045 A 
ATOM     81  C   UNL     1       1.462   4.768  -5.833  1.00  0.00     0.004 A 
ATOM     82  C   UNL     1       3.294   4.846  -4.265  1.00  0.00     0.004 A 
ATOM     83  C   UNL     1       2.073   5.764  -6.597  1.00  0.00     0.000 A 
ATOM     84  C   UNL     1       3.905   5.842  -5.030  1.00  0.00     0.000 A 
ATOM     85  C   UNL     1       3.294   6.301  -6.195  1.00  0.00     0.000 A 
ENDBRANCH  79  80
ENDBRANCH  76  79
ENDBRANCH  74  76
ENDBRANCH  72  74
ENDBRANCH  70  71
ENDBRANCH   1  69
TORSDOF 17
ENDMDL
MODEL 14
REMARK VINA RESULT:    -5.630      5.951     11.606
REMARK INTER + INTRA:         -25.967
REMARK INTER:                 -19.203
REMARK INTRA:                  -6.764
REMARK UNBOUND:                -9.148
REMARK SMILES C=C1C(=O)N[C@H](C)C(=O)N[C@@H](CC(C)C)C(=O)N[C@@H](C(=O)O)[C@H](C)C(=O)N[C@@H](CCCN=C(N)N)C(=O)N[C@@H](/C=C/C(C)=C/[C@H](C)[C@H](Cc2ccccc2)OC)[C@H](C)C(=O)N[C@@H](C(=O)O)CCC(=O)N1C
REMARK SMILES IDX 39 1 38 2 37 3 36 4 28 6 27 7 25 8 26 9 23 11 24 12 19 13
REMARK SMILES IDX 18 14 16 15 17 16 11 18 10 19 8 20 9 21 12 24 13 25 14 26
REMARK SMILES IDX 15 27 20 28 21 29 22 30 29 32 30 33 31 34 32 35 33 36 34 37
REMARK SMILES IDX 35 38 57 43 58 44 59 45 60 46 61 47 62 49 66 50 67 51 68 52
REMARK SMILES IDX 69 53 70 54 71 55 2 56 1 57 3 58 4 59 5 60 6 62 7 63 63 65
REMARK SMILES IDX 64 66 65 67 40 69 41 70 42 71 44 72 43 73 45 74 46 75 47 76
REMARK SMILES IDX 55 77 56 78 48 79 49 80 50 81 54 82 51 83 53 84 52 85
REMARK H PARENT 38 5 27 10 18 17 10 22 22 31 34 39 34 40 35 41 35 42 61 48
REMARK H PARENT 5 61 65 68
REMARK Flexibility Score:  369.900
ROOT
ATOM      1  C   UNL     1      -1.537   4.281   6.050  1.00  0.00     0.117 C 
ENDROOT
BRANCH   1   2
ATOM      2  N   UNL     1      -1.255   3.650   4.761  1.00  0.00    -0.347 N 
ATOM      3  O   UNL     1      -1.347   5.539   3.460  1.00  0.00    -0.273 OA
ATOM      4  C   UNL     1      -1.092   4.346   3.578  1.00  0.00     0.243 C 
ATOM      5  H   UNL     1      -1.119   2.651   4.719  1.00  0.00     0.164 HD
BRANCH   4   6
ATOM      6  C   UNL     1      -0.714   3.447   2.374  1.00  0.00     0.171 C 
BRANCH   6   7
ATOM      7  N   UNL     1      -1.624   2.293   2.287  1.00  0.00    -0.344 N 
ATOM      8  C   UNL     1      -1.260   1.071   2.808  1.00  0.00     0.226 C 
ATOM      9  O   UNL     1      -0.174   0.876   3.340  1.00  0.00    -0.275 OA
ATOM     10  H   UNL     1      -2.503   2.397   1.796  1.00  0.00     0.164 HD
BRANCH   8  11
ATOM     11  C   UNL     1      -2.328  -0.003   2.690  1.00  0.00     0.109 C 
ATOM     12  C   UNL     1      -3.650   0.618   2.236  1.00  0.00     0.021 C 
BRANCH  11  13
ATOM     13  C   UNL     1      -1.814  -1.154   1.802  1.00  0.00     0.204 C 
BRANCH  13  14
ATOM     14  N   UNL     1      -2.874  -2.111   1.470  1.00  0.00    -0.340 N 
ATOM     15  C   UNL     1      -2.623  -3.432   1.172  1.00  0.00     0.243 C 
ATOM     16  O   UNL     1      -1.494  -3.917   1.221  1.00  0.00    -0.273 OA
ATOM     17  H   UNL     1      -3.807  -1.742   1.265  1.00  0.00     0.164 HD
BRANCH  15  18
ATOM     18  C   UNL     1      -3.865  -4.196   0.652  1.00  0.00     0.171 C 
BRANCH  18  19
ATOM     19  N   UNL     1      -4.550  -4.731   1.828  1.00  0.00    -0.343 N 
ATOM     20  C   UNL     1      -5.017  -6.030   1.871  1.00  0.00     0.242 CG0
ATOM     21  O   UNL     1      -4.998  -6.754   0.879  1.00  0.00    -0.273 OA
ATOM     22  H   UNL     1      -4.693  -4.133   2.634  1.00  0.00     0.164 HD
ATOM     23  G   UNL     1      -5.640  -6.438   3.222  1.00  0.00     0.000 G0
ENDBRANCH  18  19
BRANCH  18  24
ATOM     24  C   UNL     1      -4.777  -3.263  -0.153  1.00  0.00     0.038 C 
BRANCH  24  25
ATOM     25  C   UNL     1      -5.319  -3.867  -1.466  1.00  0.00    -0.015 C 
ATOM     26  C   UNL     1      -6.688  -4.524  -1.287  1.00  0.00     0.007 C 
ATOM     27  C   UNL     1      -4.322  -4.893  -2.011  1.00  0.00     0.007 C 
ENDBRANCH  24  25
ENDBRANCH  18  24
ENDBRANCH  15  18
ENDBRANCH  13  14
BRANCH  13  28
ATOM     28  C   UNL     1      -1.208  -0.672   0.480  1.00  0.00     0.327 C 
ATOM     29  O   UNL     1      -1.818  -0.446  -0.554  1.00  0.00    -0.250 OA
BRANCH  28  30
ATOM     30  O   UNL     1       0.139  -0.618   0.504  1.00  0.00    -0.480 OA
ATOM     31  H   UNL     1       0.388  -1.169   1.275  1.00  0.00     0.296 HD
ENDBRANCH  28  30
ENDBRANCH  13  28
ENDBRANCH  11  13
ENDBRANCH   8  11
ENDBRANCH   6   7
BRANCH   6  32
ATOM     32  C   UNL     1      -0.764   4.280   1.088  1.00  0.00     0.037 C 
BRANCH  32  33
ATOM     33  C   UNL     1       0.181   3.737   0.008  1.00  0.00     0.026 C 
BRANCH  33  34
ATOM     34  C   UNL     1       1.506   4.499  -0.048  1.00  0.00     0.146 C 
BRANCH  34  35
ATOM     35  N   UNL     1       1.291   5.765  -0.735  1.00  0.00    -0.254 NA
ATOM     36  C   UNL     1       2.305   6.500  -1.000  1.00  0.00     0.185 C 
ATOM     37  N   UNL     1       2.119   7.667  -1.637  1.00  0.00    -0.370 N 
ATOM     38  N   UNL     1       3.604   6.278  -0.728  1.00  0.00    -0.370 N 
ATOM     39  H   UNL     1       1.167   7.901  -1.886  1.00  0.00     0.159 HD
ATOM     40  H   UNL     1       2.867   8.211  -2.031  1.00  0.00     0.159 HD
ATOM     41  H   UNL     1       4.295   6.998  -0.863  1.00  0.00     0.159 HD
ATOM     42  H   UNL     1       3.889   5.446  -0.236  1.00  0.00     0.159 HD
ENDBRANCH  34  35
ENDBRANCH  33  34
ENDBRANCH  32  33
ENDBRANCH   6  32
ENDBRANCH   4   6
ENDBRANCH   1   2
BRANCH   1  43
ATOM     43  C   UNL     1      -0.233   4.278   6.899  1.00  0.00     0.102 C 
ATOM     44  C   UNL     1      -0.482   4.481   8.403  1.00  0.00     0.020 C 
BRANCH  43  45
ATOM     45  C   UNL     1       0.811   5.230   6.307  1.00  0.00     0.225 C 
ATOM     46  O   UNL     1       0.651   6.445   6.245  1.00  0.00    -0.275 OA
ATOM     47  N   UNL     1       1.918   4.626   5.756  1.00  0.00    -0.342 N 
ATOM     48  H   UNL     1       2.104   3.652   5.948  1.00  0.00     0.164 HD
BRANCH  47  49
ATOM     49  C   UNL     1       3.015   5.413   5.185  1.00  0.00     0.192 C 
BRANCH  49  50
ATOM     50  C   UNL     1       2.762   5.642   3.693  1.00  0.00     0.047 C 
BRANCH  50  51
ATOM     51  C   UNL     1       2.876   7.122   3.303  1.00  0.00     0.103 C 
BRANCH  51  52
ATOM     52  C   UNL     1       4.195   7.429   2.596  1.00  0.00     0.226 C 
ATOM     53  O   UNL     1       4.807   6.523   2.027  1.00  0.00    -0.275 OA
BRANCH  52  54
ATOM     54  N   UNL     1       4.596   8.777   2.576  1.00  0.00    -0.311 N 
ATOM     55  C   UNL     1       5.935   9.174   3.032  1.00  0.00     0.153 C 
BRANCH  54  56
ATOM     56  C   UNL     1       3.739   9.790   2.115  1.00  0.00     0.102 C 
ATOM     57  C   UNL     1       3.318   9.922   0.846  1.00  0.00     0.043 C 
BRANCH  56  58
ATOM     58  C   UNL     1       3.172  10.818   3.066  1.00  0.00     0.268 C 
ATOM     59  O   UNL     1       2.502  10.524   4.046  1.00  0.00    -0.268 OA
ATOM     60  N   UNL     1       3.541  12.104   2.753  1.00  0.00    -0.339 N 
ATOM     61  H   UNL     1       4.090  12.264   1.917  1.00  0.00     0.164 HD
BRANCH  60  62
ATOM     62  C   UNL     1       3.154  13.248   3.578  1.00  0.00     0.168 CG0
ATOM     63  C   UNL     1       2.972  14.499   2.728  1.00  0.00     0.041 C 
ATOM     64  G   UNL     1       4.217  13.480   4.672  1.00  0.00     0.000 G0
ENDBRANCH  60  62
ENDBRANCH  56  58
ENDBRANCH  54  56
ENDBRANCH  52  54
ENDBRANCH  51  52
ENDBRANCH  50  51
ENDBRANCH  49  50
BRANCH  49  65
ATOM     65  C   UNL     1       4.370   4.713   5.370  1.00  0.00     0.326 C 
ATOM     66  O   UNL     1       4.905   4.472   6.442  1.00  0.00    -0.250 OA
BRANCH  65  67
ATOM     67  O   UNL     1       5.009   4.407   4.219  1.00  0.00    -0.480 OA
ATOM     68  H   UNL     1       5.415   5.258   3.947  1.00  0.00     0.296 HD
ENDBRANCH  65  67
ENDBRANCH  49  65
ENDBRANCH  47  49
ENDBRANCH  43  45
ENDBRANCH   1  43
BRANCH   1  69
ATOM     69  C   UNL     1      -2.772   3.590   6.600  1.00  0.00    -0.001 C 
ATOM     70  C   UNL     1      -3.694   2.895   5.911  1.00  0.00     0.001 C 
BRANCH  70  71
ATOM     71  C   UNL     1      -4.870   2.214   6.455  1.00  0.00    -0.055 C 
ATOM     72  C   UNL     1      -5.087   2.302   7.784  1.00  0.00    -0.018 C 
ATOM     73  C   UNL     1      -5.759   1.471   5.493  1.00  0.00     0.044 C 
BRANCH  72  74
ATOM     74  C   UNL     1      -6.213   1.707   8.618  1.00  0.00     0.038 C 
ATOM     75  C   UNL     1      -6.699   2.806   9.571  1.00  0.00     0.015 C 
BRANCH  74  76
ATOM     76  C   UNL     1      -5.691   0.419   9.319  1.00  0.00     0.128 C 
BRANCH  76  77
ATOM     77  O   UNL     1      -6.133  -0.745   8.600  1.00  0.00    -0.381 OA
ATOM     78  C   UNL     1      -5.093  -1.410   7.896  1.00  0.00     0.195 C 
ENDBRANCH  76  77
BRANCH  76  79
ATOM     79  C   UNL     1      -4.164   0.418   9.579  1.00  0.00     0.068 C 
BRANCH  79  80
ATOM     80  C   UNL     1      -3.650   1.183  10.775  1.00  0.00    -0.045 A 
ATOM     81  C   UNL     1      -3.986   0.795  12.079  1.00  0.00     0.004 A 
ATOM     82  C   UNL     1      -2.846   2.319  10.596  1.00  0.00     0.004 A 
ATOM     83  C   UNL     1      -3.518   1.516  13.179  1.00  0.00     0.000 A 
ATOM     84  C   UNL     1      -2.379   3.040  11.697  1.00  0.00     0.000 A 
ATOM     85  C   UNL     1      -2.713   2.637  12.988  1.00  0.00     0.000 A 
ENDBRANCH  79  80
ENDBRANCH  76  79
ENDBRANCH  74  76
ENDBRANCH  72  74
ENDBRANCH  70  71
ENDBRANCH   1  69
TORSDOF 17
ENDMDL
MODEL 15
REMARK VINA RESULT:    -5.622      4.819     12.621
REMARK INTER + INTRA:         -25.945
REMARK INTER:                 -19.602
REMARK INTRA:                  -6.343
REMARK UNBOUND:                -9.148
REMARK SMILES C=C1C(=O)N[C@H](C)C(=O)N[C@@H](CC(C)C)C(=O)N[C@@H](C(=O)O)[C@H](C)C(=O)N[C@@H](CCCN=C(N)N)C(=O)N[C@@H](/C=C/C(C)=C/[C@H](C)[C@H](Cc2ccccc2)OC)[C@H](C)C(=O)N[C@@H](C(=O)O)CCC(=O)N1C
REMARK SMILES IDX 39 1 38 2 37 3 36 4 28 6 27 7 25 8 26 9 23 11 24 12 19 13
REMARK SMILES IDX 18 14 16 15 17 16 11 18 10 19 8 20 9 21 12 24 13 25 14 26
REMARK SMILES IDX 15 27 20 28 21 29 22 30 29 32 30 33 31 34 32 35 33 36 34 37
REMARK SMILES IDX 35 38 57 43 58 44 59 45 60 46 61 47 62 49 66 50 67 51 68 52
REMARK SMILES IDX 69 53 70 54 71 55 2 56 1 57 3 58 4 59 5 60 6 62 7 63 63 65
REMARK SMILES IDX 64 66 65 67 40 69 41 70 42 71 44 72 43 73 45 74 46 75 47 76
REMARK SMILES IDX 55 77 56 78 48 79 49 80 50 81 54 82 51 83 53 84 52 85
REMARK H PARENT 38 5 27 10 18 17 10 22 22 31 34 39 34 40 35 41 35 42 61 48
REMARK H PARENT 5 61 65 68
REMARK Flexibility Score:  369.900
ROOT
ATOM      1  C   UNL     1       6.450   7.082   3.668  1.00  0.00     0.117 C 
ENDROOT
BRANCH   1   2
ATOM      2  N   UNL     1       5.707   6.404   4.731  1.00  0.00    -0.347 N 
ATOM      3  O   UNL     1       4.258   5.225   3.398  1.00  0.00    -0.273 OA
ATOM      4  C   UNL     1       4.727   5.457   4.507  1.00  0.00     0.243 C 
ATOM      5  H   UNL     1       5.943   6.590   5.694  1.00  0.00     0.164 HD
BRANCH   4   6
ATOM      6  C   UNL     1       4.157   4.830   5.805  1.00  0.00     0.171 C 
BRANCH   6   7
ATOM      7  N   UNL     1       4.466   5.681   6.965  1.00  0.00    -0.344 N 
ATOM      8  C   UNL     1       5.689   5.596   7.594  1.00  0.00     0.226 C 
ATOM      9  O   UNL     1       6.558   4.807   7.243  1.00  0.00    -0.275 OA
ATOM     10  H   UNL     1       3.748   6.297   7.327  1.00  0.00     0.164 HD
BRANCH   8  11
ATOM     11  C   UNL     1       5.874   6.576   8.739  1.00  0.00     0.109 C 
ATOM     12  C   UNL     1       4.687   7.537   8.805  1.00  0.00     0.021 C 
BRANCH  11  13
ATOM     13  C   UNL     1       6.159   5.807  10.044  1.00  0.00     0.204 C 
BRANCH  13  14
ATOM     14  N   UNL     1       7.430   5.079   9.989  1.00  0.00    -0.340 N 
ATOM     15  C   UNL     1       7.586   3.806  10.493  1.00  0.00     0.243 C 
ATOM     16  O   UNL     1       6.652   3.166  10.972  1.00  0.00    -0.273 OA
ATOM     17  H   UNL     1       8.274   5.604   9.745  1.00  0.00     0.164 HD
BRANCH  15  18
ATOM     18  C   UNL     1       9.058   3.323  10.511  1.00  0.00     0.171 C 
BRANCH  18  19
ATOM     19  N   UNL     1       9.434   3.180  11.916  1.00  0.00    -0.343 N 
ATOM     20  C   UNL     1       9.695   4.275  12.717  1.00  0.00     0.242 CG0
ATOM     21  O   UNL     1       9.753   5.412  12.253  1.00  0.00    -0.273 OA
ATOM     22  H   UNL     1       9.512   2.252  12.318  1.00  0.00     0.164 HD
ATOM     23  G   UNL     1       9.998   3.930  14.189  1.00  0.00     0.000 G0
ENDBRANCH  18  19
BRANCH  18  24
ATOM     24  C   UNL     1       9.203   1.999   9.753  1.00  0.00     0.038 C 
BRANCH  24  25
ATOM     25  C   UNL     1      10.213   2.031   8.586  1.00  0.00    -0.015 C 
ATOM     26  C   UNL     1       9.997   3.227   7.658  1.00  0.00     0.007 C 
ATOM     27  C   UNL     1      10.114   0.732   7.783  1.00  0.00     0.007 C 
ENDBRANCH  24  25
ENDBRANCH  18  24
ENDBRANCH  15  18
ENDBRANCH  13  14
BRANCH  13  28
ATOM     28  C   UNL     1       6.207   6.711  11.280  1.00  0.00     0.327 C 
ATOM     29  O   UNL     1       5.246   7.125  11.910  1.00  0.00    -0.250 OA
BRANCH  28  30
ATOM     30  O   UNL     1       7.452   7.135  11.576  1.00  0.00    -0.480 OA
ATOM     31  H   UNL     1       7.349   8.097  11.732  1.00  0.00     0.296 HD
ENDBRANCH  28  30
ENDBRANCH  13  28
ENDBRANCH  11  13
ENDBRANCH   8  11
ENDBRANCH   6   7
BRANCH   6  32
ATOM     32  C   UNL     1       2.644   4.642   5.651  1.00  0.00     0.037 C 
BRANCH  32  33
ATOM     33  C   UNL     1       1.893   5.981   5.637  1.00  0.00     0.026 C 
BRANCH  33  34
ATOM     34  C   UNL     1       0.993   6.160   6.861  1.00  0.00     0.146 C 
BRANCH  34  35
ATOM     35  N   UNL     1      -0.307   5.566   6.579  1.00  0.00    -0.254 NA
ATOM     36  C   UNL     1      -0.745   4.648   7.357  1.00  0.00     0.185 C 
ATOM     37  N   UNL     1      -1.944   4.098   7.109  1.00  0.00    -0.370 N 
ATOM     38  N   UNL     1      -0.164   4.115   8.446  1.00  0.00    -0.370 N 
ATOM     39  H   UNL     1      -2.451   4.455   6.309  1.00  0.00     0.159 HD
ATOM     40  H   UNL     1      -2.429   3.506   7.760  1.00  0.00     0.159 HD
ATOM     41  H   UNL     1      -0.547   3.300   8.895  1.00  0.00     0.159 HD
ATOM     42  H   UNL     1       0.750   4.423   8.742  1.00  0.00     0.159 HD
ENDBRANCH  34  35
ENDBRANCH  33  34
ENDBRANCH  32  33
ENDBRANCH   6  32
ENDBRANCH   4   6
ENDBRANCH   1   2
BRANCH   1  43
ATOM     43  C   UNL     1       7.710   6.234   3.327  1.00  0.00     0.102 C 
ATOM     44  C   UNL     1       9.019   6.845   3.853  1.00  0.00     0.020 C 
BRANCH  43  45
ATOM     45  C   UNL     1       7.745   5.876   1.838  1.00  0.00     0.225 C 
ATOM     46  O   UNL     1       8.582   6.326   1.060  1.00  0.00    -0.275 OA
ATOM     47  N   UNL     1       6.713   5.082   1.394  1.00  0.00    -0.342 N 
ATOM     48  H   UNL     1       6.128   4.602   2.064  1.00  0.00     0.164 HD
BRANCH  47  49
ATOM     49  C   UNL     1       6.637   4.631   0.002  1.00  0.00     0.192 C 
BRANCH  49  50
ATOM     50  C   UNL     1       5.379   5.203  -0.657  1.00  0.00     0.047 C 
BRANCH  50  51
ATOM     51  C   UNL     1       5.615   6.601  -1.246  1.00  0.00     0.103 C 
BRANCH  51  52
ATOM     52  C   UNL     1       4.323   7.410  -1.337  1.00  0.00     0.226 C 
ATOM     53  O   UNL     1       4.197   8.437  -0.667  1.00  0.00    -0.275 OA
BRANCH  52  54
ATOM     54  N   UNL     1       3.364   6.958  -2.263  1.00  0.00    -0.311 N 
ATOM     55  C   UNL     1       3.722   6.725  -3.669  1.00  0.00     0.153 C 
BRANCH  54  56
ATOM     56  C   UNL     1       2.036   6.708  -1.880  1.00  0.00     0.102 C 
ATOM     57  C   UNL     1       1.659   6.236  -0.680  1.00  0.00     0.043 C 
BRANCH  56  58
ATOM     58  C   UNL     1       0.889   7.009  -2.816  1.00  0.00     0.268 C 
ATOM     59  O   UNL     1       0.618   8.139  -3.201  1.00  0.00    -0.268 OA
ATOM     60  N   UNL     1       0.227   5.882  -3.239  1.00  0.00    -0.339 N 
ATOM     61  H   UNL     1       0.506   4.983  -2.864  1.00  0.00     0.164 HD
BRANCH  60  62
ATOM     62  C   UNL     1      -0.876   5.939  -4.197  1.00  0.00     0.168 CG0
ATOM     63  C   UNL     1      -0.384   5.674  -5.614  1.00  0.00     0.041 C 
ATOM     64  G   UNL     1      -1.567   7.316  -4.108  1.00  0.00     0.000 G0
ENDBRANCH  60  62
ENDBRANCH  56  58
ENDBRANCH  54  56
ENDBRANCH  52  54
ENDBRANCH  51  52
ENDBRANCH  50  51
ENDBRANCH  49  50
BRANCH  49  65
ATOM     65  C   UNL     1       6.610   3.098  -0.097  1.00  0.00     0.326 C 
ATOM     66  O   UNL     1       6.250   2.335   0.788  1.00  0.00    -0.250 OA
BRANCH  65  67
ATOM     67  O   UNL     1       7.087   2.599  -1.259  1.00  0.00    -0.480 OA
ATOM     68  H   UNL     1       6.859   1.645  -1.212  1.00  0.00     0.296 HD
ENDBRANCH  65  67
ENDBRANCH  49  65
ENDBRANCH  47  49
ENDBRANCH  43  45
ENDBRANCH   1  43
BRANCH   1  69
ATOM     69  C   UNL     1       6.634   8.516   4.127  1.00  0.00    -0.001 C 
ATOM     70  C   UNL     1       6.137   9.627   3.555  1.00  0.00     0.001 C 
BRANCH  70  71
ATOM     71  C   UNL     1       6.304  11.006   4.020  1.00  0.00    -0.055 C 
ATOM     72  C   UNL     1       6.144  11.248   5.338  1.00  0.00    -0.018 C 
ATOM     73  C   UNL     1       6.651  12.055   2.996  1.00  0.00     0.044 C 
BRANCH  72  74
ATOM     74  C   UNL     1       6.258  12.562   6.097  1.00  0.00     0.038 C 
ATOM     75  C   UNL     1       7.728  12.726   6.500  1.00  0.00     0.015 C 
BRANCH  74  76
ATOM     76  C   UNL     1       5.252  12.542   7.286  1.00  0.00     0.128 C 
BRANCH  76  77
ATOM     77  O   UNL     1       3.912  12.726   6.799  1.00  0.00    -0.381 OA
ATOM     78  C   UNL     1       2.909  12.317   7.719  1.00  0.00     0.195 C 
ENDBRANCH  76  77
BRANCH  76  79
ATOM     79  C   UNL     1       5.391  11.304   8.207  1.00  0.00     0.068 C 
BRANCH  79  80
ATOM     80  C   UNL     1       6.177  11.458   9.486  1.00  0.00    -0.045 A 
ATOM     81  C   UNL     1       6.498  12.727   9.988  1.00  0.00     0.004 A 
ATOM     82  C   UNL     1       6.626  10.325  10.181  1.00  0.00     0.004 A 
ATOM     83  C   UNL     1       7.238  12.861  11.164  1.00  0.00     0.000 A 
ATOM     84  C   UNL     1       7.367  10.461  11.358  1.00  0.00     0.000 A 
ATOM     85  C   UNL     1       7.671  11.728  11.849  1.00  0.00     0.000 A 
ENDBRANCH  79  80
ENDBRANCH  76  79
ENDBRANCH  74  76
ENDBRANCH  72  74
ENDBRANCH  70  71
ENDBRANCH   1  69
TORSDOF 17
ENDMDL
MODEL 16
REMARK VINA RESULT:    -5.611      3.946      9.590
REMARK INTER + INTRA:         -25.911
REMARK INTER:                 -18.017
REMARK INTRA:                  -7.894
REMARK UNBOUND:                -9.148
REMARK SMILES C=C1C(=O)N[C@H](C)C(=O)N[C@@H](CC(C)C)C(=O)N[C@@H](C(=O)O)[C@H](C)C(=O)N[C@@H](CCCN=C(N)N)C(=O)N[C@@H](/C=C/C(C)=C/[C@H](C)[C@H](Cc2ccccc2)OC)[C@H](C)C(=O)N[C@@H](C(=O)O)CCC(=O)N1C
REMARK SMILES IDX 39 1 38 2 37 3 36 4 28 6 27 7 25 8 26 9 23 11 24 12 19 13
REMARK SMILES IDX 18 14 16 15 17 16 11 18 10 19 8 20 9 21 12 24 13 25 14 26
REMARK SMILES IDX 15 27 20 28 21 29 22 30 29 32 30 33 31 34 32 35 33 36 34 37
REMARK SMILES IDX 35 38 57 43 58 44 59 45 60 46 61 47 62 49 66 50 67 51 68 52
REMARK SMILES IDX 69 53 70 54 71 55 2 56 1 57 3 58 4 59 5 60 6 62 7 63 63 65
REMARK SMILES IDX 64 66 65 67 40 69 41 70 42 71 44 72 43 73 45 74 46 75 47 76
REMARK SMILES IDX 55 77 56 78 48 79 49 80 50 81 54 82 51 83 53 84 52 85
REMARK H PARENT 38 5 27 10 18 17 10 22 22 31 34 39 34 40 35 41 35 42 61 48
REMARK H PARENT 5 61 65 68
REMARK Flexibility Score:  369.900
ROOT
ATOM      1  C   UNL     1       6.870   5.981   2.837  1.00  0.00     0.117 C 
ENDROOT
BRANCH   1   2
ATOM      2  N   UNL     1       5.613   6.628   3.217  1.00  0.00    -0.347 N 
ATOM      3  O   UNL     1       4.544   4.773   4.045  1.00  0.00    -0.273 OA
ATOM      4  C   UNL     1       4.582   5.988   3.877  1.00  0.00     0.243 C 
ATOM      5  H   UNL     1       5.491   7.614   3.040  1.00  0.00     0.164 HD
BRANCH   4   6
ATOM      6  C   UNL     1       3.400   6.921   4.240  1.00  0.00     0.171 C 
BRANCH   6   7
ATOM      7  N   UNL     1       2.754   6.473   5.484  1.00  0.00    -0.344 N 
ATOM      8  C   UNL     1       1.386   6.319   5.550  1.00  0.00     0.226 C 
ATOM      9  O   UNL     1       0.648   6.564   4.603  1.00  0.00    -0.275 OA
ATOM     10  H   UNL     1       3.324   6.326   6.308  1.00  0.00     0.164 HD
BRANCH   8  11
ATOM     11  C   UNL     1       0.879   5.799   6.884  1.00  0.00     0.109 C 
ATOM     12  C   UNL     1       0.622   6.964   7.839  1.00  0.00     0.021 C 
BRANCH  11  13
ATOM     13  C   UNL     1      -0.330   4.869   6.655  1.00  0.00     0.204 C 
BRANCH  13  14
ATOM     14  N   UNL     1      -0.072   3.877   5.607  1.00  0.00    -0.340 N 
ATOM     15  C   UNL     1      -1.043   3.445   4.730  1.00  0.00     0.243 C 
ATOM     16  O   UNL     1      -2.183   3.908   4.726  1.00  0.00    -0.273 OA
ATOM     17  H   UNL     1       0.802   3.347   5.652  1.00  0.00     0.164 HD
BRANCH  15  18
ATOM     18  C   UNL     1      -0.597   2.250   3.852  1.00  0.00     0.171 C 
BRANCH  18  19
ATOM     19  N   UNL     1      -1.750   1.358   3.742  1.00  0.00    -0.343 N 
ATOM     20  C   UNL     1      -1.604  -0.011   3.624  1.00  0.00     0.242 CG0
ATOM     21  O   UNL     1      -0.501  -0.530   3.473  1.00  0.00    -0.273 OA
ATOM     22  H   UNL     1      -2.685   1.751   3.746  1.00  0.00     0.164 HD
ATOM     23  G   UNL     1      -2.934  -0.793   3.600  1.00  0.00     0.000 G0
ENDBRANCH  18  19
BRANCH  18  24
ATOM     24  C   UNL     1      -0.128   2.734   2.475  1.00  0.00     0.038 C 
BRANCH  24  25
ATOM     25  C   UNL     1      -1.226   2.757   1.391  1.00  0.00    -0.015 C 
ATOM     26  C   UNL     1      -0.983   1.725   0.290  1.00  0.00     0.007 C 
ATOM     27  C   UNL     1      -1.313   4.156   0.776  1.00  0.00     0.007 C 
ENDBRANCH  24  25
ENDBRANCH  18  24
ENDBRANCH  15  18
ENDBRANCH  13  14
BRANCH  13  28
ATOM     28  C   UNL     1      -0.748   4.102   7.913  1.00  0.00     0.327 C 
ATOM     29  O   UNL     1      -0.012   3.747   8.821  1.00  0.00    -0.250 OA
BRANCH  28  30
ATOM     30  O   UNL     1      -2.042   3.725   7.896  1.00  0.00    -0.480 OA
ATOM     31  H   UNL     1      -2.184   3.311   8.773  1.00  0.00     0.296 HD
ENDBRANCH  28  30
ENDBRANCH  13  28
ENDBRANCH  11  13
ENDBRANCH   8  11
ENDBRANCH   6   7
BRANCH   6  32
ATOM     32  C   UNL     1       3.916   8.358   4.378  1.00  0.00     0.037 C 
BRANCH  32  33
ATOM     33  C   UNL     1       2.872   9.393   3.936  1.00  0.00     0.026 C 
BRANCH  33  34
ATOM     34  C   UNL     1       3.468  10.793   3.777  1.00  0.00     0.146 C 
BRANCH  34  35
ATOM     35  N   UNL     1       2.507  11.635   3.078  1.00  0.00    -0.254 NA
ATOM     36  C   UNL     1       2.739  12.892   2.994  1.00  0.00     0.185 C 
ATOM     37  N   UNL     1       1.862  13.677   2.348  1.00  0.00    -0.370 N 
ATOM     38  N   UNL     1       3.780  13.593   3.476  1.00  0.00    -0.370 N 
ATOM     39  H   UNL     1       1.054  13.220   1.946  1.00  0.00     0.159 HD
ATOM     40  H   UNL     1       2.054  14.630   2.090  1.00  0.00     0.159 HD
ATOM     41  H   UNL     1       3.780  14.600   3.466  1.00  0.00     0.159 HD
ATOM     42  H   UNL     1       4.509  13.134   3.999  1.00  0.00     0.159 HD
ENDBRANCH  34  35
ENDBRANCH  33  34
ENDBRANCH  32  33
ENDBRANCH   6  32
ENDBRANCH   4   6
ENDBRANCH   1   2
BRANCH   1  43
ATOM     43  C   UNL     1       8.048   6.920   3.227  1.00  0.00     0.102 C 
ATOM     44  C   UNL     1       7.655   8.005   4.244  1.00  0.00     0.020 C 
BRANCH  43  45
ATOM     45  C   UNL     1       8.755   7.462   1.982  1.00  0.00     0.225 C 
ATOM     46  O   UNL     1       9.597   6.823   1.357  1.00  0.00    -0.275 OA
ATOM     47  N   UNL     1       8.457   8.764   1.651  1.00  0.00    -0.342 N 
ATOM     48  H   UNL     1       7.662   9.219   2.076  1.00  0.00     0.164 HD
BRANCH  47  49
ATOM     49  C   UNL     1       9.032   9.403   0.464  1.00  0.00     0.192 C 
BRANCH  49  50
ATOM     50  C   UNL     1       9.622  10.763   0.846  1.00  0.00     0.047 C 
BRANCH  50  51
ATOM     51  C   UNL     1       9.755  10.933   2.366  1.00  0.00     0.103 C 
BRANCH  51  52
ATOM     52  C   UNL     1       9.380  12.342   2.821  1.00  0.00     0.226 C 
ATOM     53  O   UNL     1      10.208  13.031   3.419  1.00  0.00    -0.275 OA
BRANCH  52  54
ATOM     54  N   UNL     1       8.101  12.800   2.451  1.00  0.00    -0.311 N 
ATOM     55  C   UNL     1       6.908  11.974   2.676  1.00  0.00     0.153 C 
BRANCH  54  56
ATOM     56  C   UNL     1       7.918  14.062   1.861  1.00  0.00     0.102 C 
ATOM     57  C   UNL     1       8.497  14.467   0.719  1.00  0.00     0.043 C 
BRANCH  56  58
ATOM     58  C   UNL     1       6.981  15.075   2.475  1.00  0.00     0.268 C 
ATOM     59  O   UNL     1       6.640  15.047   3.649  1.00  0.00    -0.268 OA
ATOM     60  N   UNL     1       6.607  16.066   1.598  1.00  0.00    -0.339 N 
ATOM     61  H   UNL     1       6.925  16.011   0.638  1.00  0.00     0.164 HD
BRANCH  60  62
ATOM     62  C   UNL     1       5.754  17.182   2.002  1.00  0.00     0.168 CG0
ATOM     63  C   UNL     1       4.284  16.862   1.762  1.00  0.00     0.041 C 
ATOM     64  G   UNL     1       6.168  18.454   1.232  1.00  0.00     0.000 G0
ENDBRANCH  60  62
ENDBRANCH  56  58
ENDBRANCH  54  56
ENDBRANCH  52  54
ENDBRANCH  51  52
ENDBRANCH  50  51
ENDBRANCH  49  50
BRANCH  49  65
ATOM     65  C   UNL     1       7.981   9.597  -0.641  1.00  0.00     0.326 C 
ATOM     66  O   UNL     1       6.976  10.287  -0.552  1.00  0.00    -0.250 OA
BRANCH  65  67
ATOM     67  O   UNL     1       8.205   8.880  -1.764  1.00  0.00    -0.480 OA
ATOM     68  H   UNL     1       7.319   8.521  -1.989  1.00  0.00     0.296 HD
ENDBRANCH  65  67
ENDBRANCH  49  65
ENDBRANCH  47  49
ENDBRANCH  43  45
ENDBRANCH   1  43
BRANCH   1  69
ATOM     69  C   UNL     1       6.711   5.568   1.385  1.00  0.00    -0.001 C 
ATOM     70  C   UNL     1       6.961   4.361   0.847  1.00  0.00     0.001 C 
BRANCH  70  71
ATOM     71  C   UNL     1       6.784   3.968  -0.552  1.00  0.00    -0.055 C 
ATOM     72  C   UNL     1       7.119   4.865  -1.503  1.00  0.00    -0.018 C 
ATOM     73  C   UNL     1       6.248   2.588  -0.832  1.00  0.00     0.044 C 
BRANCH  72  74
ATOM     74  C   UNL     1       7.046   4.736  -3.018  1.00  0.00     0.038 C 
ATOM     75  C   UNL     1       8.421   5.129  -3.573  1.00  0.00     0.015 C 
BRANCH  74  76
ATOM     76  C   UNL     1       5.860   5.600  -3.538  1.00  0.00     0.128 C 
BRANCH  76  77
ATOM     77  O   UNL     1       5.793   5.528  -4.973  1.00  0.00    -0.381 OA
ATOM     78  C   UNL     1       4.511   5.165  -5.467  1.00  0.00     0.195 C 
ENDBRANCH  76  77
BRANCH  76  79
ATOM     79  C   UNL     1       4.504   5.283  -2.858  1.00  0.00     0.068 C 
BRANCH  79  80
ATOM     80  C   UNL     1       4.105   6.109  -1.659  1.00  0.00    -0.045 A 
ATOM     81  C   UNL     1       4.483   7.454  -1.551  1.00  0.00     0.004 A 
ATOM     82  C   UNL     1       3.367   5.530  -0.616  1.00  0.00     0.004 A 
ATOM     83  C   UNL     1       4.121   8.207  -0.432  1.00  0.00     0.000 A 
ATOM     84  C   UNL     1       3.007   6.284   0.503  1.00  0.00     0.000 A 
ATOM     85  C   UNL     1       3.382   7.622   0.594  1.00  0.00     0.000 A 
ENDBRANCH  79  80
ENDBRANCH  76  79
ENDBRANCH  74  76
ENDBRANCH  72  74
ENDBRANCH  70  71
ENDBRANCH   1  69
TORSDOF 17
ENDMDL
MODEL 17
REMARK VINA RESULT:    -5.574      3.593      6.739
REMARK INTER + INTRA:         -25.802
REMARK INTER:                 -19.203
REMARK INTRA:                  -6.599
REMARK UNBOUND:                -9.148
REMARK SMILES C=C1C(=O)N[C@H](C)C(=O)N[C@@H](CC(C)C)C(=O)N[C@@H](C(=O)O)[C@H](C)C(=O)N[C@@H](CCCN=C(N)N)C(=O)N[C@@H](/C=C/C(C)=C/[C@H](C)[C@H](Cc2ccccc2)OC)[C@H](C)C(=O)N[C@@H](C(=O)O)CCC(=O)N1C
REMARK SMILES IDX 39 1 38 2 37 3 36 4 28 6 27 7 25 8 26 9 23 11 24 12 19 13
REMARK SMILES IDX 18 14 16 15 17 16 11 18 10 19 8 20 9 21 12 24 13 25 14 26
REMARK SMILES IDX 15 27 20 28 21 29 22 30 29 32 30 33 31 34 32 35 33 36 34 37
REMARK SMILES IDX 35 38 57 43 58 44 59 45 60 46 61 47 62 49 66 50 67 51 68 52
REMARK SMILES IDX 69 53 70 54 71 55 2 56 1 57 3 58 4 59 5 60 6 62 7 63 63 65
REMARK SMILES IDX 64 66 65 67 40 69 41 70 42 71 44 72 43 73 45 74 46 75 47 76
REMARK SMILES IDX 55 77 56 78 48 79 49 80 50 81 54 82 51 83 53 84 52 85
REMARK H PARENT 38 5 27 10 18 17 10 22 22 31 34 39 34 40 35 41 35 42 61 48
REMARK H PARENT 5 61 65 68
REMARK Flexibility Score:  369.900
ROOT
ATOM      1  C   UNL     1       6.864   5.417  -2.332  1.00  0.00     0.117 C 
ENDROOT
BRANCH   1   2
ATOM      2  N   UNL     1       7.350   4.461  -3.327  1.00  0.00    -0.347 N 
ATOM      3  O   UNL     1       9.592   4.637  -2.863  1.00  0.00    -0.273 OA
ATOM      4  C   UNL     1       8.672   4.078  -3.451  1.00  0.00     0.243 C 
ATOM      5  H   UNL     1       6.690   4.004  -3.938  1.00  0.00     0.164 HD
BRANCH   4   6
ATOM      6  C   UNL     1       8.907   2.987  -4.527  1.00  0.00     0.171 C 
BRANCH   6   7
ATOM      7  N   UNL     1       7.724   2.854  -5.392  1.00  0.00    -0.344 N 
ATOM      8  C   UNL     1       6.646   2.093  -4.996  1.00  0.00     0.226 C 
ATOM      9  O   UNL     1       6.624   1.479  -3.936  1.00  0.00    -0.275 OA
ATOM     10  H   UNL     1       7.732   3.291  -6.305  1.00  0.00     0.164 HD
BRANCH   8  11
ATOM     11  C   UNL     1       5.483   2.100  -5.973  1.00  0.00     0.109 C 
ATOM     12  C   UNL     1       5.885   2.812  -7.264  1.00  0.00     0.021 C 
BRANCH  11  13
ATOM     13  C   UNL     1       4.952   0.665  -6.162  1.00  0.00     0.204 C 
BRANCH  13  14
ATOM     14  N   UNL     1       3.494   0.631  -6.313  1.00  0.00    -0.340 N 
ATOM     15  C   UNL     1       2.714  -0.389  -5.814  1.00  0.00     0.243 C 
ATOM     16  O   UNL     1       3.180  -1.315  -5.153  1.00  0.00    -0.273 OA
ATOM     17  H   UNL     1       3.064   1.283  -6.975  1.00  0.00     0.164 HD
BRANCH  15  18
ATOM     18  C   UNL     1       1.236  -0.318  -6.272  1.00  0.00     0.171 C 
BRANCH  18  19
ATOM     19  N   UNL     1       0.746  -1.694  -6.320  1.00  0.00    -0.343 N 
ATOM     20  C   UNL     1       0.893  -2.481  -7.447  1.00  0.00     0.242 CG0
ATOM     21  O   UNL     1       1.320  -2.020  -8.502  1.00  0.00    -0.273 OA
ATOM     22  H   UNL     1       0.281  -2.085  -5.509  1.00  0.00     0.164 HD
ATOM     23  G   UNL     1       0.386  -3.929  -7.283  1.00  0.00     0.000 G0
ENDBRANCH  18  19
BRANCH  18  24
ATOM     24  C   UNL     1       0.410   0.539  -5.305  1.00  0.00     0.038 C 
BRANCH  24  25
ATOM     25  C   UNL     1       0.646   0.233  -3.810  1.00  0.00    -0.015 C 
ATOM     26  C   UNL     1      -0.565  -0.425  -3.149  1.00  0.00     0.007 C 
ATOM     27  C   UNL     1       0.998   1.526  -3.070  1.00  0.00     0.007 C 
ENDBRANCH  24  25
ENDBRANCH  18  24
ENDBRANCH  15  18
ENDBRANCH  13  14
BRANCH  13  28
ATOM     28  C   UNL     1       5.551  -0.044  -7.381  1.00  0.00     0.327 C 
ATOM     29  O   UNL     1       5.091  -0.048  -8.513  1.00  0.00    -0.250 OA
BRANCH  28  30
ATOM     30  O   UNL     1       6.624  -0.802  -7.078  1.00  0.00    -0.480 OA
ATOM     31  H   UNL     1       7.294  -0.550  -7.747  1.00  0.00     0.296 HD
ENDBRANCH  28  30
ENDBRANCH  13  28
ENDBRANCH  11  13
ENDBRANCH   8  11
ENDBRANCH   6   7
BRANCH   6  32
ATOM     32  C   UNL     1      10.149   3.350  -5.349  1.00  0.00     0.037 C 
BRANCH  32  33
ATOM     33  C   UNL     1       9.997   2.964  -6.827  1.00  0.00     0.026 C 
BRANCH  33  34
ATOM     34  C   UNL     1      10.038   4.178  -7.756  1.00  0.00     0.146 C 
BRANCH  34  35
ATOM     35  N   UNL     1       9.181   5.219  -7.206  1.00  0.00    -0.254 NA
ATOM     36  C   UNL     1       8.185   5.626  -7.901  1.00  0.00     0.185 C 
ATOM     37  N   UNL     1       7.386   6.582  -7.402  1.00  0.00    -0.370 N 
ATOM     38  N   UNL     1       7.788   5.227  -9.122  1.00  0.00    -0.370 N 
ATOM     39  H   UNL     1       7.614   6.928  -6.479  1.00  0.00     0.159 HD
ATOM     40  H   UNL     1       6.497   6.828  -7.802  1.00  0.00     0.159 HD
ATOM     41  H   UNL     1       7.069   5.722  -9.624  1.00  0.00     0.159 HD
ATOM     42  H   UNL     1       8.306   4.523  -9.625  1.00  0.00     0.159 HD
ENDBRANCH  34  35
ENDBRANCH  33  34
ENDBRANCH  32  33
ENDBRANCH   6  32
ENDBRANCH   4   6
ENDBRANCH   1   2
BRANCH   1  43
ATOM     43  C   UNL     1       7.088   4.814  -0.915  1.00  0.00     0.102 C 
ATOM     44  C   UNL     1       5.830   4.155  -0.325  1.00  0.00     0.020 C 
BRANCH  43  45
ATOM     45  C   UNL     1       7.753   5.831   0.017  1.00  0.00     0.225 C 
ATOM     46  O   UNL     1       8.880   6.278  -0.173  1.00  0.00    -0.275 OA
ATOM     47  N   UNL     1       7.040   6.151   1.150  1.00  0.00    -0.342 N 
ATOM     48  H   UNL     1       6.064   5.897   1.214  1.00  0.00     0.164 HD
BRANCH  47  49
ATOM     49  C   UNL     1       7.535   7.137   2.114  1.00  0.00     0.192 C 
BRANCH  49  50
ATOM     50  C   UNL     1       7.877   8.440   1.388  1.00  0.00     0.047 C 
BRANCH  50  51
ATOM     51  C   UNL     1       7.221   9.662   2.045  1.00  0.00     0.103 C 
BRANCH  51  52
ATOM     52  C   UNL     1       5.818   9.922   1.501  1.00  0.00     0.226 C 
ATOM     53  O   UNL     1       5.642  10.010   0.285  1.00  0.00    -0.275 OA
BRANCH  52  54
ATOM     54  N   UNL     1       4.778   9.971   2.448  1.00  0.00    -0.311 N 
ATOM     55  C   UNL     1       4.725   9.015   3.563  1.00  0.00     0.153 C 
BRANCH  54  56
ATOM     56  C   UNL     1       3.759  10.934   2.368  1.00  0.00     0.102 C 
ATOM     57  C   UNL     1       2.661  10.829   1.600  1.00  0.00     0.043 C 
BRANCH  56  58
ATOM     58  C   UNL     1       3.808  12.187   3.210  1.00  0.00     0.268 C 
ATOM     59  O   UNL     1       2.875  12.563   3.907  1.00  0.00    -0.268 OA
ATOM     60  N   UNL     1       5.027  12.821   3.163  1.00  0.00    -0.339 N 
ATOM     61  H   UNL     1       5.745  12.452   2.552  1.00  0.00     0.164 HD
BRANCH  60  62
ATOM     62  C   UNL     1       5.312  14.019   3.952  1.00  0.00     0.168 CG0
ATOM     63  C   UNL     1       6.585  14.702   3.468  1.00  0.00     0.041 C 
ATOM     64  G   UNL     1       5.429  13.640   5.443  1.00  0.00     0.000 G0
ENDBRANCH  60  62
ENDBRANCH  56  58
ENDBRANCH  54  56
ENDBRANCH  52  54
ENDBRANCH  51  52
ENDBRANCH  50  51
ENDBRANCH  49  50
BRANCH  49  65
ATOM     65  C   UNL     1       8.780   6.627   2.857  1.00  0.00     0.326 C 
ATOM     66  O   UNL     1       8.773   5.899   3.839  1.00  0.00    -0.250 OA
BRANCH  65  67
ATOM     67  O   UNL     1       9.954   7.096   2.379  1.00  0.00    -0.480 OA
ATOM     68  H   UNL     1      10.491   6.284   2.248  1.00  0.00     0.296 HD
ENDBRANCH  65  67
ENDBRANCH  49  65
ENDBRANCH  47  49
ENDBRANCH  43  45
ENDBRANCH   1  43
BRANCH   1  69
ATOM     69  C   UNL     1       5.456   5.791  -2.756  1.00  0.00    -0.001 C 
ATOM     70  C   UNL     1       4.810   5.408  -3.871  1.00  0.00     0.001 C 
BRANCH  70  71
ATOM     71  C   UNL     1       3.442   5.758  -4.259  1.00  0.00    -0.055 C 
ATOM     72  C   UNL     1       2.494   4.803  -4.150  1.00  0.00    -0.018 C 
ATOM     73  C   UNL     1       3.187   7.161  -4.746  1.00  0.00     0.044 C 
BRANCH  72  74
ATOM     74  C   UNL     1       1.009   4.879  -4.472  1.00  0.00     0.038 C 
ATOM     75  C   UNL     1       0.882   5.418  -5.902  1.00  0.00     0.015 C 
BRANCH  74  76
ATOM     76  C   UNL     1       0.304   5.742  -3.384  1.00  0.00     0.128 C 
BRANCH  76  77
ATOM     77  O   UNL     1      -1.083   5.918  -3.720  1.00  0.00    -0.381 OA
ATOM     78  C   UNL     1      -1.921   4.870  -3.251  1.00  0.00     0.195 C 
ENDBRANCH  76  77
BRANCH  76  79
ATOM     79  C   UNL     1       0.510   5.224  -1.938  1.00  0.00     0.068 C 
BRANCH  79  80
ATOM     80  C   UNL     1       1.517   5.937  -1.069  1.00  0.00    -0.045 A 
ATOM     81  C   UNL     1       1.999   7.206  -1.414  1.00  0.00     0.004 A 
ATOM     82  C   UNL     1       2.009   5.322   0.092  1.00  0.00     0.004 A 
ATOM     83  C   UNL     1       2.942   7.852  -0.612  1.00  0.00     0.000 A 
ATOM     84  C   UNL     1       2.952   5.969   0.894  1.00  0.00     0.000 A 
ATOM     85  C   UNL     1       3.417   7.234   0.543  1.00  0.00     0.000 A 
ENDBRANCH  79  80
ENDBRANCH  76  79
ENDBRANCH  74  76
ENDBRANCH  72  74
ENDBRANCH  70  71
ENDBRANCH   1  69
TORSDOF 17
ENDMDL
MODEL 18
REMARK VINA RESULT:    -5.569      2.469     10.505
REMARK INTER + INTRA:         -25.788
REMARK INTER:                 -18.201
REMARK INTRA:                  -7.587
REMARK UNBOUND:                -9.148
REMARK SMILES C=C1C(=O)N[C@H](C)C(=O)N[C@@H](CC(C)C)C(=O)N[C@@H](C(=O)O)[C@H](C)C(=O)N[C@@H](CCCN=C(N)N)C(=O)N[C@@H](/C=C/C(C)=C/[C@H](C)[C@H](Cc2ccccc2)OC)[C@H](C)C(=O)N[C@@H](C(=O)O)CCC(=O)N1C
REMARK SMILES IDX 39 1 38 2 37 3 36 4 28 6 27 7 25 8 26 9 23 11 24 12 19 13
REMARK SMILES IDX 18 14 16 15 17 16 11 18 10 19 8 20 9 21 12 24 13 25 14 26
REMARK SMILES IDX 15 27 20 28 21 29 22 30 29 32 30 33 31 34 32 35 33 36 34 37
REMARK SMILES IDX 35 38 57 43 58 44 59 45 60 46 61 47 62 49 66 50 67 51 68 52
REMARK SMILES IDX 69 53 70 54 71 55 2 56 1 57 3 58 4 59 5 60 6 62 7 63 63 65
REMARK SMILES IDX 64 66 65 67 40 69 41 70 42 71 44 72 43 73 45 74 46 75 47 76
REMARK SMILES IDX 55 77 56 78 48 79 49 80 50 81 54 82 51 83 53 84 52 85
REMARK H PARENT 38 5 27 10 18 17 10 22 22 31 34 39 34 40 35 41 35 42 61 48
REMARK H PARENT 5 61 65 68
REMARK Flexibility Score:  369.900
ROOT
ATOM      1  C   UNL     1       4.458   5.140  -0.833  1.00  0.00     0.117 C 
ENDROOT
BRANCH   1   2
ATOM      2  N   UNL     1       4.137   6.172   0.153  1.00  0.00    -0.347 N 
ATOM      3  O   UNL     1       5.194   5.222   1.956  1.00  0.00    -0.273 OA
ATOM      4  C   UNL     1       4.610   6.176   1.451  1.00  0.00     0.243 C 
ATOM      5  H   UNL     1       3.577   6.965  -0.124  1.00  0.00     0.164 HD
BRANCH   4   6
ATOM      6  C   UNL     1       4.192   7.427   2.264  1.00  0.00     0.171 C 
BRANCH   6   7
ATOM      7  N   UNL     1       4.327   7.172   3.707  1.00  0.00    -0.344 N 
ATOM      8  C   UNL     1       3.233   7.258   4.541  1.00  0.00     0.226 C 
ATOM      9  O   UNL     1       2.118   7.567   4.138  1.00  0.00    -0.275 OA
ATOM     10  H   UNL     1       5.245   6.981   4.088  1.00  0.00     0.164 HD
BRANCH   8  11
ATOM     11  C   UNL     1       3.524   6.914   5.992  1.00  0.00     0.109 C 
ATOM     12  C   UNL     1       2.777   7.872   6.920  1.00  0.00     0.021 C 
BRANCH  11  13
ATOM     13  C   UNL     1       3.242   5.419   6.239  1.00  0.00     0.204 C 
BRANCH  13  14
ATOM     14  N   UNL     1       2.043   4.959   5.532  1.00  0.00    -0.340 N 
ATOM     15  C   UNL     1       0.957   4.410   6.179  1.00  0.00     0.243 C 
ATOM     16  O   UNL     1       0.892   4.323   7.404  1.00  0.00    -0.273 OA
ATOM     17  H   UNL     1       2.092   4.864   4.514  1.00  0.00     0.164 HD
BRANCH  15  18
ATOM     18  C   UNL     1      -0.098   3.810   5.217  1.00  0.00     0.171 C 
BRANCH  18  19
ATOM     19  N   UNL     1      -1.077   4.863   4.958  1.00  0.00    -0.343 N 
ATOM     20  C   UNL     1      -2.255   4.955   5.674  1.00  0.00     0.242 CG0
ATOM     21  O   UNL     1      -2.595   4.081   6.468  1.00  0.00    -0.273 OA
ATOM     22  H   UNL     1      -0.894   5.544   4.230  1.00  0.00     0.164 HD
ATOM     23  G   UNL     1      -3.125   6.177   5.314  1.00  0.00     0.000 G0
ENDBRANCH  18  19
BRANCH  18  24
ATOM     24  C   UNL     1       0.565   3.327   3.920  1.00  0.00     0.038 C 
BRANCH  24  25
ATOM     25  C   UNL     1      -0.070   3.881   2.627  1.00  0.00    -0.015 C 
ATOM     26  C   UNL     1      -0.461   2.776   1.647  1.00  0.00     0.007 C 
ATOM     27  C   UNL     1       0.902   4.851   1.950  1.00  0.00     0.007 C 
ENDBRANCH  24  25
ENDBRANCH  18  24
ENDBRANCH  15  18
ENDBRANCH  13  14
BRANCH  13  28
ATOM     28  C   UNL     1       4.397   4.508   5.813  1.00  0.00     0.327 C 
ATOM     29  O   UNL     1       4.347   3.622   4.974  1.00  0.00    -0.250 OA
BRANCH  28  30
ATOM     30  O   UNL     1       5.511   4.686   6.552  1.00  0.00    -0.480 OA
ATOM     31  H   UNL     1       6.049   3.887   6.373  1.00  0.00     0.296 HD
ENDBRANCH  28  30
ENDBRANCH  13  28
ENDBRANCH  11  13
ENDBRANCH   8  11
ENDBRANCH   6   7
BRANCH   6  32
ATOM     32  C   UNL     1       5.056   8.618   1.835  1.00  0.00     0.037 C 
BRANCH  32  33
ATOM     33  C   UNL     1       6.385   8.173   1.209  1.00  0.00     0.026 C 
BRANCH  33  34
ATOM     34  C   UNL     1       6.904   9.166   0.168  1.00  0.00     0.146 C 
BRANCH  34  35
ATOM     35  N   UNL     1       7.392   8.425  -0.986  1.00  0.00    -0.254 NA
ATOM     36  C   UNL     1       8.652   8.219  -1.096  1.00  0.00     0.185 C 
ATOM     37  N   UNL     1       9.112   7.533  -2.154  1.00  0.00    -0.370 N 
ATOM     38  N   UNL     1       9.645   8.600  -0.274  1.00  0.00    -0.370 N 
ATOM     39  H   UNL     1       8.422   7.201  -2.815  1.00  0.00     0.159 HD
ATOM     40  H   UNL     1      10.052   7.182  -2.223  1.00  0.00     0.159 HD
ATOM     41  H   UNL     1      10.610   8.498  -0.541  1.00  0.00     0.159 HD
ATOM     42  H   UNL     1       9.446   9.139   0.555  1.00  0.00     0.159 HD
ENDBRANCH  34  35
ENDBRANCH  33  34
ENDBRANCH  32  33
ENDBRANCH   6  32
ENDBRANCH   4   6
ENDBRANCH   1   2
BRANCH   1  43
ATOM     43  C   UNL     1       5.583   5.677  -1.764  1.00  0.00     0.102 C 
ATOM     44  C   UNL     1       5.100   5.992  -3.189  1.00  0.00     0.020 C 
BRANCH  43  45
ATOM     45  C   UNL     1       6.819   4.774  -1.712  1.00  0.00     0.225 C 
ATOM     46  O   UNL     1       7.391   4.479  -0.666  1.00  0.00    -0.275 OA
ATOM     47  N   UNL     1       7.315   4.378  -2.933  1.00  0.00    -0.342 N 
ATOM     48  H   UNL     1       6.753   4.499  -3.764  1.00  0.00     0.164 HD
BRANCH  47  49
ATOM     49  C   UNL     1       8.471   3.483  -3.036  1.00  0.00     0.192 C 
BRANCH  49  50
ATOM     50  C   UNL     1       9.346   3.907  -4.219  1.00  0.00     0.047 C 
BRANCH  50  51
ATOM     51  C   UNL     1       8.515   4.263  -5.459  1.00  0.00     0.103 C 
BRANCH  51  52
ATOM     52  C   UNL     1       8.409   3.091  -6.434  1.00  0.00     0.226 C 
ATOM     53  O   UNL     1       9.286   2.226  -6.445  1.00  0.00    -0.275 OA
BRANCH  52  54
ATOM     54  N   UNL     1       7.246   3.037  -7.224  1.00  0.00    -0.311 N 
ATOM     55  C   UNL     1       6.271   1.950  -7.061  1.00  0.00     0.153 C 
BRANCH  54  56
ATOM     56  C   UNL     1       6.970   4.019  -8.190  1.00  0.00     0.102 C 
ATOM     57  C   UNL     1       5.791   4.644  -8.336  1.00  0.00     0.043 C 
BRANCH  56  58
ATOM     58  C   UNL     1       8.043   4.489  -9.144  1.00  0.00     0.268 C 
ATOM     59  O   UNL     1       8.501   5.624  -9.130  1.00  0.00    -0.268 OA
ATOM     60  N   UNL     1       8.494   3.497  -9.982  1.00  0.00    -0.339 N 
ATOM     61  H   UNL     1       8.055   2.586  -9.938  1.00  0.00     0.164 HD
BRANCH  60  62
ATOM     62  C   UNL     1       9.574   3.720 -10.942  1.00  0.00     0.168 CG0
ATOM     63  C   UNL     1       9.624   2.603 -11.978  1.00  0.00     0.041 C 
ATOM     64  G   UNL     1      10.918   3.830 -10.192  1.00  0.00     0.000 G0
ENDBRANCH  60  62
ENDBRANCH  56  58
ENDBRANCH  54  56
ENDBRANCH  52  54
ENDBRANCH  51  52
ENDBRANCH  50  51
ENDBRANCH  49  50
BRANCH  49  65
ATOM     65  C   UNL     1       8.040   2.019  -3.221  1.00  0.00     0.326 C 
ATOM     66  O   UNL     1       6.931   1.644  -3.573  1.00  0.00    -0.250 OA
BRANCH  65  67
ATOM     67  O   UNL     1       8.986   1.108  -2.902  1.00  0.00    -0.480 OA
ATOM     68  H   UNL     1       9.213   0.699  -3.765  1.00  0.00     0.296 HD
ENDBRANCH  65  67
ENDBRANCH  49  65
ENDBRANCH  47  49
ENDBRANCH  43  45
ENDBRANCH   1  43
BRANCH   1  69
ATOM     69  C   UNL     1       3.137   4.716  -1.449  1.00  0.00    -0.001 C 
ATOM     70  C   UNL     1       2.385   3.652  -1.116  1.00  0.00     0.001 C 
BRANCH  70  71
ATOM     71  C   UNL     1       1.100   3.265  -1.703  1.00  0.00    -0.055 C 
ATOM     72  C   UNL     1       0.993   2.020  -2.214  1.00  0.00    -0.018 C 
ATOM     73  C   UNL     1      -0.013   4.280  -1.689  1.00  0.00     0.044 C 
BRANCH  72  74
ATOM     74  C   UNL     1      -0.203   1.350  -2.875  1.00  0.00     0.038 C 
ATOM     75  C   UNL     1      -0.638   0.198  -1.962  1.00  0.00     0.015 C 
BRANCH  74  76
ATOM     76  C   UNL     1       0.197   0.924  -4.319  1.00  0.00     0.128 C 
BRANCH  76  77
ATOM     77  O   UNL     1      -0.181  -0.443  -4.549  1.00  0.00    -0.381 OA
ATOM     78  C   UNL     1       0.903  -1.358  -4.457  1.00  0.00     0.195 C 
ENDBRANCH  76  77
BRANCH  76  79
ATOM     79  C   UNL     1      -0.317   1.883  -5.422  1.00  0.00     0.068 C 
BRANCH  79  80
ATOM     80  C   UNL     1       0.082   3.336  -5.339  1.00  0.00    -0.045 A 
ATOM     81  C   UNL     1      -0.886   4.348  -5.273  1.00  0.00     0.004 A 
ATOM     82  C   UNL     1       1.437   3.700  -5.354  1.00  0.00     0.004 A 
ATOM     83  C   UNL     1      -0.509   5.691  -5.211  1.00  0.00     0.000 A 
ATOM     84  C   UNL     1       1.813   5.043  -5.292  1.00  0.00     0.000 A 
ATOM     85  C   UNL     1       0.841   6.038  -5.219  1.00  0.00     0.000 A 
ENDBRANCH  79  80
ENDBRANCH  76  79
ENDBRANCH  74  76
ENDBRANCH  72  74
ENDBRANCH  70  71
ENDBRANCH   1  69
TORSDOF 17
ENDMDL
MODEL 19
REMARK VINA RESULT:    -5.564      3.397      6.287
REMARK INTER + INTRA:         -25.773
REMARK INTER:                 -17.469
REMARK INTRA:                  -8.303
REMARK UNBOUND:                -9.148
REMARK SMILES C=C1C(=O)N[C@H](C)C(=O)N[C@@H](CC(C)C)C(=O)N[C@@H](C(=O)O)[C@H](C)C(=O)N[C@@H](CCCN=C(N)N)C(=O)N[C@@H](/C=C/C(C)=C/[C@H](C)[C@H](Cc2ccccc2)OC)[C@H](C)C(=O)N[C@@H](C(=O)O)CCC(=O)N1C
REMARK SMILES IDX 39 1 38 2 37 3 36 4 28 6 27 7 25 8 26 9 23 11 24 12 19 13
REMARK SMILES IDX 18 14 16 15 17 16 11 18 10 19 8 20 9 21 12 24 13 25 14 26
REMARK SMILES IDX 15 27 20 28 21 29 22 30 29 32 30 33 31 34 32 35 33 36 34 37
REMARK SMILES IDX 35 38 57 43 58 44 59 45 60 46 61 47 62 49 66 50 67 51 68 52
REMARK SMILES IDX 69 53 70 54 71 55 2 56 1 57 3 58 4 59 5 60 6 62 7 63 63 65
REMARK SMILES IDX 64 66 65 67 40 69 41 70 42 71 44 72 43 73 45 74 46 75 47 76
REMARK SMILES IDX 55 77 56 78 48 79 49 80 50 81 54 82 51 83 53 84 52 85
REMARK H PARENT 38 5 27 10 18 17 10 22 22 31 34 39 34 40 35 41 35 42 61 48
REMARK H PARENT 5 61 65 68
REMARK Flexibility Score:  369.900
ROOT
ATOM      1  C   UNL     1       6.669   5.516  -1.888  1.00  0.00     0.117 C 
ENDROOT
BRANCH   1   2
ATOM      2  N   UNL     1       6.985   4.478  -2.870  1.00  0.00    -0.347 N 
ATOM      3  O   UNL     1       8.809   5.494  -3.824  1.00  0.00    -0.273 OA
ATOM      4  C   UNL     1       8.088   4.509  -3.701  1.00  0.00     0.243 C 
ATOM      5  H   UNL     1       6.401   3.657  -2.926  1.00  0.00     0.164 HD
BRANCH   4   6
ATOM      6  C   UNL     1       8.238   3.245  -4.586  1.00  0.00     0.171 C 
BRANCH   6   7
ATOM      7  N   UNL     1       7.109   3.137  -5.523  1.00  0.00    -0.344 N 
ATOM      8  C   UNL     1       5.976   2.432  -5.180  1.00  0.00     0.226 C 
ATOM      9  O   UNL     1       5.860   1.850  -4.108  1.00  0.00    -0.275 OA
ATOM     10  H   UNL     1       7.195   3.548  -6.444  1.00  0.00     0.164 HD
BRANCH   8  11
ATOM     11  C   UNL     1       4.880   2.459  -6.231  1.00  0.00     0.109 C 
ATOM     12  C   UNL     1       5.348   3.239  -7.459  1.00  0.00     0.021 C 
BRANCH  11  13
ATOM     13  C   UNL     1       4.398   1.023  -6.519  1.00  0.00     0.204 C 
BRANCH  13  14
ATOM     14  N   UNL     1       3.413   0.980  -7.604  1.00  0.00    -0.340 N 
ATOM     15  C   UNL     1       2.449  -0.001  -7.702  1.00  0.00     0.243 C 
ATOM     16  O   UNL     1       2.309  -0.876  -6.849  1.00  0.00    -0.273 OA
ATOM     17  H   UNL     1       3.568   1.581  -8.418  1.00  0.00     0.164 HD
BRANCH  15  18
ATOM     18  C   UNL     1       1.661   0.037  -9.034  1.00  0.00     0.171 C 
BRANCH  18  19
ATOM     19  N   UNL     1       2.059  -1.149  -9.789  1.00  0.00    -0.343 N 
ATOM     20  C   UNL     1       3.257  -1.208 -10.476  1.00  0.00     0.242 CG0
ATOM     21  O   UNL     1       3.980  -0.222 -10.593  1.00  0.00    -0.273 OA
ATOM     22  H   UNL     1       1.440  -1.951  -9.819  1.00  0.00     0.164 HD
ATOM     23  G   UNL     1       3.539  -2.568 -11.148  1.00  0.00     0.000 G0
ENDBRANCH  18  19
BRANCH  18  24
ATOM     24  C   UNL     1       0.150   0.053  -8.768  1.00  0.00     0.038 C 
BRANCH  24  25
ATOM     25  C   UNL     1      -0.520  -1.337  -8.772  1.00  0.00    -0.015 C 
ATOM     26  C   UNL     1      -1.588  -1.469  -9.857  1.00  0.00     0.007 C 
ATOM     27  C   UNL     1      -1.142  -1.612  -7.400  1.00  0.00     0.007 C 
ENDBRANCH  24  25
ENDBRANCH  18  24
ENDBRANCH  15  18
ENDBRANCH  13  14
BRANCH  13  28
ATOM     28  C   UNL     1       5.535   0.070  -6.899  1.00  0.00     0.327 C 
ATOM     29  O   UNL     1       6.049  -0.038  -8.002  1.00  0.00    -0.250 OA
BRANCH  28  30
ATOM     30  O   UNL     1       5.874  -0.772  -5.902  1.00  0.00    -0.480 OA
ATOM     31  H   UNL     1       5.298  -1.553  -6.039  1.00  0.00     0.296 HD
ENDBRANCH  28  30
ENDBRANCH  13  28
ENDBRANCH  11  13
ENDBRANCH   8  11
ENDBRANCH   6   7
BRANCH   6  32
ATOM     32  C   UNL     1       9.571   3.314  -5.340  1.00  0.00     0.037 C 
BRANCH  32  33
ATOM     33  C   UNL     1       9.408   2.999  -6.833  1.00  0.00     0.026 C 
BRANCH  33  34
ATOM     34  C   UNL     1       9.673   4.217  -7.720  1.00  0.00     0.146 C 
BRANCH  34  35
ATOM     35  N   UNL     1       8.403   4.856  -8.032  1.00  0.00    -0.254 NA
ATOM     36  C   UNL     1       8.137   5.989  -7.495  1.00  0.00     0.185 C 
ATOM     37  N   UNL     1       6.971   6.590  -7.780  1.00  0.00    -0.370 N 
ATOM     38  N   UNL     1       8.882   6.716  -6.644  1.00  0.00    -0.370 N 
ATOM     39  H   UNL     1       6.357   6.108  -8.424  1.00  0.00     0.159 HD
ATOM     40  H   UNL     1       6.765   7.545  -7.543  1.00  0.00     0.159 HD
ATOM     41  H   UNL     1       8.503   7.526  -6.182  1.00  0.00     0.159 HD
ATOM     42  H   UNL     1       9.778   6.378  -6.330  1.00  0.00     0.159 HD
ENDBRANCH  34  35
ENDBRANCH  33  34
ENDBRANCH  32  33
ENDBRANCH   6  32
ENDBRANCH   4   6
ENDBRANCH   1   2
BRANCH   1  43
ATOM     43  C   UNL     1       7.609   5.339  -0.661  1.00  0.00     0.102 C 
ATOM     44  C   UNL     1       6.959   4.570   0.502  1.00  0.00     0.020 C 
BRANCH  43  45
ATOM     45  C   UNL     1       8.235   6.675  -0.250  1.00  0.00     0.225 C 
ATOM     46  O   UNL     1       9.383   6.997  -0.543  1.00  0.00    -0.275 OA
ATOM     47  N   UNL     1       7.456   7.470   0.560  1.00  0.00    -0.342 N 
ATOM     48  H   UNL     1       6.472   7.265   0.665  1.00  0.00     0.164 HD
BRANCH  47  49
ATOM     49  C   UNL     1       7.910   8.791   1.002  1.00  0.00     0.192 C 
BRANCH  49  50
ATOM     50  C   UNL     1       7.590   8.975   2.488  1.00  0.00     0.047 C 
BRANCH  50  51
ATOM     51  C   UNL     1       6.607   7.917   3.007  1.00  0.00     0.103 C 
BRANCH  51  52
ATOM     52  C   UNL     1       5.306   8.540   3.509  1.00  0.00     0.226 C 
ATOM     53  O   UNL     1       5.106   8.641   4.721  1.00  0.00    -0.275 OA
BRANCH  52  54
ATOM     54  N   UNL     1       4.429   9.038   2.527  1.00  0.00    -0.311 N 
ATOM     55  C   UNL     1       3.906   8.165   1.467  1.00  0.00     0.153 C 
BRANCH  54  56
ATOM     56  C   UNL     1       4.019  10.381   2.526  1.00  0.00     0.102 C 
ATOM     57  C   UNL     1       2.884  10.837   1.971  1.00  0.00     0.043 C 
BRANCH  56  58
ATOM     58  C   UNL     1       4.841  11.444   3.217  1.00  0.00     0.268 C 
ATOM     59  O   UNL     1       5.835  11.952   2.717  1.00  0.00    -0.268 OA
ATOM     60  N   UNL     1       4.320  11.824   4.431  1.00  0.00    -0.339 N 
ATOM     61  H   UNL     1       3.498  11.347   4.780  1.00  0.00     0.164 HD
BRANCH  60  62
ATOM     62  C   UNL     1       4.923  12.883   5.239  1.00  0.00     0.168 CG0
ATOM     63  C   UNL     1       5.289  12.370   6.627  1.00  0.00     0.041 C 
ATOM     64  G   UNL     1       3.951  14.077   5.337  1.00  0.00     0.000 G0
ENDBRANCH  60  62
ENDBRANCH  56  58
ENDBRANCH  54  56
ENDBRANCH  52  54
ENDBRANCH  51  52
ENDBRANCH  50  51
ENDBRANCH  49  50
BRANCH  49  65
ATOM     65  C   UNL     1       7.246   9.918   0.196  1.00  0.00     0.326 C 
ATOM     66  O   UNL     1       6.144   9.861  -0.331  1.00  0.00    -0.250 OA
BRANCH  65  67
ATOM     67  O   UNL     1       8.007  11.024   0.039  1.00  0.00    -0.480 OA
ATOM     68  H   UNL     1       7.764  11.583   0.808  1.00  0.00     0.296 HD
ENDBRANCH  65  67
ENDBRANCH  49  65
ENDBRANCH  47  49
ENDBRANCH  43  45
ENDBRANCH   1  43
BRANCH   1  69
ATOM     69  C   UNL     1       5.167   5.457  -1.676  1.00  0.00    -0.001 C 
ATOM     70  C   UNL     1       4.330   4.467  -2.034  1.00  0.00     0.001 C 
BRANCH  70  71
ATOM     71  C   UNL     1       2.885   4.411  -1.805  1.00  0.00    -0.055 C 
ATOM     72  C   UNL     1       2.197   3.401  -2.377  1.00  0.00    -0.018 C 
ATOM     73  C   UNL     1       2.269   5.481  -0.940  1.00  0.00     0.044 C 
BRANCH  72  74
ATOM     74  C   UNL     1       0.709   3.091  -2.312  1.00  0.00     0.038 C 
ATOM     75  C   UNL     1       0.552   1.783  -1.526  1.00  0.00     0.015 C 
BRANCH  74  76
ATOM     76  C   UNL     1       0.141   3.054  -3.761  1.00  0.00     0.128 C 
BRANCH  76  77
ATOM     77  O   UNL     1      -0.772   1.953  -3.903  1.00  0.00    -0.381 OA
ATOM     78  C   UNL     1      -1.980   2.295  -4.570  1.00  0.00     0.195 C 
ENDBRANCH  76  77
BRANCH  76  79
ATOM     79  C   UNL     1      -0.464   4.399  -4.235  1.00  0.00     0.068 C 
BRANCH  79  80
ATOM     80  C   UNL     1       0.443   5.606  -4.279  1.00  0.00    -0.045 A 
ATOM     81  C   UNL     1       0.137   6.766  -3.555  1.00  0.00     0.004 A 
ATOM     82  C   UNL     1       1.599   5.593  -5.074  1.00  0.00     0.004 A 
ATOM     83  C   UNL     1       0.973   7.882  -3.613  1.00  0.00     0.000 A 
ATOM     84  C   UNL     1       2.434   6.710  -5.132  1.00  0.00     0.000 A 
ATOM     85  C   UNL     1       2.122   7.854  -4.400  1.00  0.00     0.000 A 
ENDBRANCH  79  80
ENDBRANCH  76  79
ENDBRANCH  74  76
ENDBRANCH  72  74
ENDBRANCH  70  71
ENDBRANCH   1  69
TORSDOF 17
ENDMDL
MODEL 20
REMARK VINA RESULT:    -5.561      3.972      7.835
REMARK INTER + INTRA:         -25.763
REMARK INTER:                 -19.275
REMARK INTRA:                  -6.487
REMARK UNBOUND:                -9.148
REMARK SMILES C=C1C(=O)N[C@H](C)C(=O)N[C@@H](CC(C)C)C(=O)N[C@@H](C(=O)O)[C@H](C)C(=O)N[C@@H](CCCN=C(N)N)C(=O)N[C@@H](/C=C/C(C)=C/[C@H](C)[C@H](Cc2ccccc2)OC)[C@H](C)C(=O)N[C@@H](C(=O)O)CCC(=O)N1C
REMARK SMILES IDX 39 1 38 2 37 3 36 4 28 6 27 7 25 8 26 9 23 11 24 12 19 13
REMARK SMILES IDX 18 14 16 15 17 16 11 18 10 19 8 20 9 21 12 24 13 25 14 26
REMARK SMILES IDX 15 27 20 28 21 29 22 30 29 32 30 33 31 34 32 35 33 36 34 37
REMARK SMILES IDX 35 38 57 43 58 44 59 45 60 46 61 47 62 49 66 50 67 51 68 52
REMARK SMILES IDX 69 53 70 54 71 55 2 56 1 57 3 58 4 59 5 60 6 62 7 63 63 65
REMARK SMILES IDX 64 66 65 67 40 69 41 70 42 71 44 72 43 73 45 74 46 75 47 76
REMARK SMILES IDX 55 77 56 78 48 79 49 80 50 81 54 82 51 83 53 84 52 85
REMARK H PARENT 38 5 27 10 18 17 10 22 22 31 34 39 34 40 35 41 35 42 61 48
REMARK H PARENT 5 61 65 68
REMARK Flexibility Score:  369.900
ROOT
ATOM      1  C   UNL     1       2.718   6.848  -1.269  1.00  0.00     0.117 C 
ENDROOT
BRANCH   1   2
ATOM      2  N   UNL     1       3.527   5.786  -1.867  1.00  0.00    -0.347 N 
ATOM      3  O   UNL     1       3.714   6.683  -3.972  1.00  0.00    -0.273 OA
ATOM      4  C   UNL     1       4.039   5.833  -3.150  1.00  0.00     0.243 C 
ATOM      5  H   UNL     1       3.780   4.984  -1.310  1.00  0.00     0.164 HD
BRANCH   4   6
ATOM      6  C   UNL     1       4.935   4.620  -3.508  1.00  0.00     0.171 C 
BRANCH   6   7
ATOM      7  N   UNL     1       4.242   3.730  -4.453  1.00  0.00    -0.344 N 
ATOM      8  C   UNL     1       3.211   2.920  -4.028  1.00  0.00     0.226 C 
ATOM      9  O   UNL     1       2.840   2.881  -2.861  1.00  0.00    -0.275 OA
ATOM     10  H   UNL     1       4.564   3.685  -5.411  1.00  0.00     0.164 HD
BRANCH   8  11
ATOM     11  C   UNL     1       2.562   2.102  -5.131  1.00  0.00     0.109 C 
ATOM     12  C   UNL     1       2.699   2.825  -6.471  1.00  0.00     0.021 C 
BRANCH  11  13
ATOM     13  C   UNL     1       3.119   0.665  -5.111  1.00  0.00     0.204 C 
BRANCH  13  14
ATOM     14  N   UNL     1       2.189  -0.296  -5.714  1.00  0.00    -0.340 N 
ATOM     15  C   UNL     1       1.590  -1.308  -4.996  1.00  0.00     0.243 C 
ATOM     16  O   UNL     1       1.747  -1.441  -3.784  1.00  0.00    -0.273 OA
ATOM     17  H   UNL     1       2.134  -0.335  -6.735  1.00  0.00     0.164 HD
BRANCH  15  18
ATOM     18  C   UNL     1       0.817  -2.318  -5.879  1.00  0.00     0.171 C 
BRANCH  18  19
ATOM     19  N   UNL     1       0.116  -3.220  -4.968  1.00  0.00    -0.343 N 
ATOM     20  C   UNL     1       0.525  -4.526  -4.776  1.00  0.00     0.242 CG0
ATOM     21  O   UNL     1       1.413  -5.029  -5.461  1.00  0.00    -0.273 OA
ATOM     22  H   UNL     1      -0.697  -2.885  -4.464  1.00  0.00     0.164 HD
ATOM     23  G   UNL     1      -0.289  -5.300  -3.719  1.00  0.00     0.000 G0
ENDBRANCH  18  19
BRANCH  18  24
ATOM     24  C   UNL     1      -0.160  -1.588  -6.809  1.00  0.00     0.038 C 
BRANCH  24  25
ATOM     25  C   UNL     1       0.069  -1.844  -8.314  1.00  0.00    -0.015 C 
ATOM     26  C   UNL     1       0.999  -3.030  -8.571  1.00  0.00     0.007 C 
ATOM     27  C   UNL     1       0.646  -0.586  -8.968  1.00  0.00     0.007 C 
ENDBRANCH  24  25
ENDBRANCH  18  24
ENDBRANCH  15  18
ENDBRANCH  13  14
BRANCH  13  28
ATOM     28  C   UNL     1       4.456   0.524  -5.846  1.00  0.00     0.327 C 
ATOM     29  O   UNL     1       5.539   0.939  -5.462  1.00  0.00    -0.250 OA
BRANCH  28  30
ATOM     30  O   UNL     1       4.330  -0.023  -7.072  1.00  0.00    -0.480 OA
ATOM     31  H   UNL     1       5.237  -0.317  -7.299  1.00  0.00     0.296 HD
ENDBRANCH  28  30
ENDBRANCH  13  28
ENDBRANCH  11  13
ENDBRANCH   8  11
ENDBRANCH   6   7
BRANCH   6  32
ATOM     32  C   UNL     1       6.254   5.126  -4.100  1.00  0.00     0.037 C 
BRANCH  32  33
ATOM     33  C   UNL     1       7.434   4.934  -3.136  1.00  0.00     0.026 C 
BRANCH  33  34
ATOM     34  C   UNL     1       8.786   4.987  -3.848  1.00  0.00     0.146 C 
BRANCH  34  35
ATOM     35  N   UNL     1       8.695   4.226  -5.087  1.00  0.00    -0.254 NA
ATOM     36  C   UNL     1       8.990   2.979  -5.065  1.00  0.00     0.185 C 
ATOM     37  N   UNL     1       8.904   2.267  -6.199  1.00  0.00    -0.370 N 
ATOM     38  N   UNL     1       9.393   2.225  -4.027  1.00  0.00    -0.370 N 
ATOM     39  H   UNL     1       8.596   2.764  -7.025  1.00  0.00     0.159 HD
ATOM     40  H   UNL     1       8.948   1.263  -6.230  1.00  0.00     0.159 HD
ATOM     41  H   UNL     1       9.730   1.286  -4.166  1.00  0.00     0.159 HD
ATOM     42  H   UNL     1       9.517   2.633  -3.114  1.00  0.00     0.159 HD
ENDBRANCH  34  35
ENDBRANCH  33  34
ENDBRANCH  32  33
ENDBRANCH   6  32
ENDBRANCH   4   6
ENDBRANCH   1   2
BRANCH   1  43
ATOM     43  C   UNL     1       3.472   7.406  -0.028  1.00  0.00     0.102 C 
ATOM     44  C   UNL     1       4.389   8.598  -0.354  1.00  0.00     0.020 C 
BRANCH  43  45
ATOM     45  C   UNL     1       4.166   6.281   0.746  1.00  0.00     0.225 C 
ATOM     46  O   UNL     1       3.597   5.599   1.593  1.00  0.00    -0.275 OA
ATOM     47  N   UNL     1       5.513   6.137   0.500  1.00  0.00    -0.342 N 
ATOM     48  H   UNL     1       5.928   6.596  -0.299  1.00  0.00     0.164 HD
BRANCH  47  49
ATOM     49  C   UNL     1       6.299   5.079   1.141  1.00  0.00     0.192 C 
BRANCH  49  50
ATOM     50  C   UNL     1       7.748   5.545   1.308  1.00  0.00     0.047 C 
BRANCH  50  51
ATOM     51  C   UNL     1       8.222   6.406   0.130  1.00  0.00     0.103 C 
BRANCH  51  52
ATOM     52  C   UNL     1       9.016   7.626   0.593  1.00  0.00     0.226 C 
ATOM     53  O   UNL     1      10.048   7.468   1.250  1.00  0.00    -0.275 OA
BRANCH  52  54
ATOM     54  N   UNL     1       8.546   8.881   0.165  1.00  0.00    -0.311 N 
ATOM     55  C   UNL     1       8.492   9.220  -1.264  1.00  0.00     0.153 C 
BRANCH  54  56
ATOM     56  C   UNL     1       8.105   9.850   1.081  1.00  0.00     0.102 C 
ATOM     57  C   UNL     1       7.065   9.700   1.917  1.00  0.00     0.043 C 
BRANCH  56  58
ATOM     58  C   UNL     1       8.832  11.166   1.226  1.00  0.00     0.268 C 
ATOM     59  O   UNL     1       9.997  11.251   1.589  1.00  0.00    -0.268 OA
ATOM     60  N   UNL     1       8.072  12.247   0.847  1.00  0.00    -0.339 N 
ATOM     61  H   UNL     1       7.111  12.093   0.568  1.00  0.00     0.164 HD
BRANCH  60  62
ATOM     62  C   UNL     1       8.602  13.610   0.849  1.00  0.00     0.168 CG0
ATOM     63  C   UNL     1       7.944  14.451   1.937  1.00  0.00     0.041 C 
ATOM     64  G   UNL     1       8.389  14.250  -0.538  1.00  0.00     0.000 G0
ENDBRANCH  60  62
ENDBRANCH  56  58
ENDBRANCH  54  56
ENDBRANCH  52  54
ENDBRANCH  51  52
ENDBRANCH  50  51
ENDBRANCH  49  50
BRANCH  49  65
ATOM     65  C   UNL     1       6.274   3.779   0.323  1.00  0.00     0.326 C 
ATOM     66  O   UNL     1       5.349   3.401  -0.382  1.00  0.00    -0.250 OA
BRANCH  65  67
ATOM     67  O   UNL     1       7.366   2.997   0.473  1.00  0.00    -0.480 OA
ATOM     68  H   UNL     1       6.992   2.097   0.592  1.00  0.00     0.296 HD
ENDBRANCH  65  67
ENDBRANCH  49  65
ENDBRANCH  47  49
ENDBRANCH  43  45
ENDBRANCH   1  43
BRANCH   1  69
ATOM     69  C   UNL     1       1.328   6.268  -1.083  1.00  0.00    -0.001 C 
ATOM     70  C   UNL     1       1.005   4.993  -0.802  1.00  0.00     0.001 C 
BRANCH  70  71
ATOM     71  C   UNL     1      -0.340   4.449  -0.603  1.00  0.00    -0.055 C 
ATOM     72  C   UNL     1      -0.650   3.975   0.622  1.00  0.00    -0.018 C 
ATOM     73  C   UNL     1      -1.284   4.464  -1.776  1.00  0.00     0.044 C 
BRANCH  72  74
ATOM     74  C   UNL     1      -1.953   3.362   1.116  1.00  0.00     0.038 C 
ATOM     75  C   UNL     1      -2.764   4.489   1.768  1.00  0.00     0.015 C 
BRANCH  74  76
ATOM     76  C   UNL     1      -1.619   2.168   2.058  1.00  0.00     0.128 C 
BRANCH  76  77
ATOM     77  O   UNL     1      -1.776   0.927   1.351  1.00  0.00    -0.381 OA
ATOM     78  C   UNL     1      -0.567   0.190   1.216  1.00  0.00     0.195 C 
ENDBRANCH  76  77
BRANCH  76  79
ATOM     79  C   UNL     1      -0.244   2.288   2.763  1.00  0.00     0.068 C 
BRANCH  79  80
ATOM     80  C   UNL     1      -0.180   3.056   4.061  1.00  0.00    -0.045 A 
ATOM     81  C   UNL     1      -1.293   3.137   4.909  1.00  0.00     0.004 A 
ATOM     82  C   UNL     1       0.996   3.729   4.427  1.00  0.00     0.004 A 
ATOM     83  C   UNL     1      -1.229   3.861   6.101  1.00  0.00     0.000 A 
ATOM     84  C   UNL     1       1.058   4.453   5.619  1.00  0.00     0.000 A 
ATOM     85  C   UNL     1      -0.053   4.518   6.456  1.00  0.00     0.000 A 
ENDBRANCH  79  80
ENDBRANCH  76  79
ENDBRANCH  74  76
ENDBRANCH  72  74
ENDBRANCH  70  71
ENDBRANCH   1  69
TORSDOF 17
ENDMDL
MODEL 21
REMARK VINA RESULT:    -5.551      2.443      3.943
REMARK INTER + INTRA:         -25.732
REMARK INTER:                 -17.824
REMARK INTRA:                  -7.908
REMARK UNBOUND:                -9.148
REMARK SMILES C=C1C(=O)N[C@H](C)C(=O)N[C@@H](CC(C)C)C(=O)N[C@@H](C(=O)O)[C@H](C)C(=O)N[C@@H](CCCN=C(N)N)C(=O)N[C@@H](/C=C/C(C)=C/[C@H](C)[C@H](Cc2ccccc2)OC)[C@H](C)C(=O)N[C@@H](C(=O)O)CCC(=O)N1C
REMARK SMILES IDX 39 1 38 2 37 3 36 4 28 6 27 7 25 8 26 9 23 11 24 12 19 13
REMARK SMILES IDX 18 14 16 15 17 16 11 18 10 19 8 20 9 21 12 24 13 25 14 26
REMARK SMILES IDX 15 27 20 28 21 29 22 30 29 32 30 33 31 34 32 35 33 36 34 37
REMARK SMILES IDX 35 38 57 43 58 44 59 45 60 46 61 47 62 49 66 50 67 51 68 52
REMARK SMILES IDX 69 53 70 54 71 55 2 56 1 57 3 58 4 59 5 60 6 62 7 63 63 65
REMARK SMILES IDX 64 66 65 67 40 69 41 70 42 71 44 72 43 73 45 74 46 75 47 76
REMARK SMILES IDX 55 77 56 78 48 79 49 80 50 81 54 82 51 83 53 84 52 85
REMARK H PARENT 38 5 27 10 18 17 10 22 22 31 34 39 34 40 35 41 35 42 61 48
REMARK H PARENT 5 61 65 68
REMARK Flexibility Score:  369.900
ROOT
ATOM      1  C   UNL     1       4.169   7.178  -1.863  1.00  0.00     0.117 C 
ENDROOT
BRANCH   1   2
ATOM      2  N   UNL     1       5.116   6.093  -2.122  1.00  0.00    -0.347 N 
ATOM      3  O   UNL     1       4.843   5.975  -4.399  1.00  0.00    -0.273 OA
ATOM      4  C   UNL     1       5.446   5.639  -3.385  1.00  0.00     0.243 C 
ATOM      5  H   UNL     1       5.607   5.669  -1.349  1.00  0.00     0.164 HD
BRANCH   4   6
ATOM      6  C   UNL     1       6.539   4.540  -3.387  1.00  0.00     0.171 C 
BRANCH   6   7
ATOM      7  N   UNL     1       7.353   4.626  -4.610  1.00  0.00    -0.344 N 
ATOM      8  C   UNL     1       7.725   3.485  -5.287  1.00  0.00     0.226 C 
ATOM      9  O   UNL     1       7.425   2.361  -4.903  1.00  0.00    -0.275 OA
ATOM     10  H   UNL     1       7.677   5.533  -4.921  1.00  0.00     0.164 HD
BRANCH   8  11
ATOM     11  C   UNL     1       8.516   3.743  -6.558  1.00  0.00     0.109 C 
ATOM     12  C   UNL     1       9.500   2.600  -6.806  1.00  0.00     0.021 C 
BRANCH  11  13
ATOM     13  C   UNL     1       7.549   4.030  -7.724  1.00  0.00     0.204 C 
BRANCH  13  14
ATOM     14  N   UNL     1       6.154   3.752  -7.366  1.00  0.00    -0.340 N 
ATOM     15  C   UNL     1       5.380   2.827  -8.032  1.00  0.00     0.243 C 
ATOM     16  O   UNL     1       5.825   2.124  -8.938  1.00  0.00    -0.273 OA
ATOM     17  H   UNL     1       5.683   4.402  -6.731  1.00  0.00     0.164 HD
BRANCH  15  18
ATOM     18  C   UNL     1       3.889   2.855  -7.617  1.00  0.00     0.171 C 
BRANCH  18  19
ATOM     19  N   UNL     1       3.149   3.408  -8.750  1.00  0.00    -0.343 N 
ATOM     20  C   UNL     1       3.159   4.760  -9.036  1.00  0.00     0.242 CG0
ATOM     21  O   UNL     1       3.679   5.575  -8.277  1.00  0.00    -0.273 OA
ATOM     22  H   UNL     1       2.608   2.788  -9.342  1.00  0.00     0.164 HD
ATOM     23  G   UNL     1       2.387   5.146 -10.314  1.00  0.00     0.000 G0
ENDBRANCH  18  19
BRANCH  18  24
ATOM     24  C   UNL     1       3.399   1.445  -7.262  1.00  0.00     0.038 C 
BRANCH  24  25
ATOM     25  C   UNL     1       3.632   1.034  -5.793  1.00  0.00    -0.015 C 
ATOM     26  C   UNL     1       3.973   2.226  -4.898  1.00  0.00     0.007 C 
ATOM     27  C   UNL     1       4.756  -0.003  -5.721  1.00  0.00     0.007 C 
ENDBRANCH  24  25
ENDBRANCH  18  24
ENDBRANCH  15  18
ENDBRANCH  13  14
BRANCH  13  28
ATOM     28  C   UNL     1       7.610   5.479  -8.217  1.00  0.00     0.327 C 
ATOM     29  O   UNL     1       8.498   5.975  -8.894  1.00  0.00    -0.250 OA
BRANCH  28  30
ATOM     30  O   UNL     1       6.614   6.246  -7.730  1.00  0.00    -0.480 OA
ATOM     31  H   UNL     1       7.033   6.753  -7.003  1.00  0.00     0.296 HD
ENDBRANCH  28  30
ENDBRANCH  13  28
ENDBRANCH  11  13
ENDBRANCH   8  11
ENDBRANCH   6   7
BRANCH   6  32
ATOM     32  C   UNL     1       7.411   4.696  -2.136  1.00  0.00     0.037 C 
BRANCH  32  33
ATOM     33  C   UNL     1       8.818   5.212  -2.472  1.00  0.00     0.026 C 
BRANCH  33  34
ATOM     34  C   UNL     1       9.044   6.648  -1.997  1.00  0.00     0.146 C 
BRANCH  34  35
ATOM     35  N   UNL     1       9.158   6.649  -0.545  1.00  0.00    -0.254 NA
ATOM     36  C   UNL     1       9.065   7.765   0.078  1.00  0.00     0.185 C 
ATOM     37  N   UNL     1       9.164   7.777   1.416  1.00  0.00    -0.370 N 
ATOM     38  N   UNL     1       8.873   8.998  -0.423  1.00  0.00    -0.370 N 
ATOM     39  H   UNL     1       9.300   6.883   1.870  1.00  0.00     0.159 HD
ATOM     40  H   UNL     1       8.931   8.574   1.984  1.00  0.00     0.159 HD
ATOM     41  H   UNL     1       8.957   9.815   0.159  1.00  0.00     0.159 HD
ATOM     42  H   UNL     1       8.796   9.141  -1.418  1.00  0.00     0.159 HD
ENDBRANCH  34  35
ENDBRANCH  33  34
ENDBRANCH  32  33
ENDBRANCH   6  32
ENDBRANCH   4   6
ENDBRANCH   1   2
BRANCH   1  43
ATOM     43  C   UNL     1       4.267   7.572  -0.361  1.00  0.00     0.102 C 
ATOM     44  C   UNL     1       5.258   8.717  -0.092  1.00  0.00     0.020 C 
BRANCH  43  45
ATOM     45  C   UNL     1       4.490   6.338   0.518  1.00  0.00     0.225 C 
ATOM     46  O   UNL     1       3.757   5.354   0.491  1.00  0.00    -0.275 OA
ATOM     47  N   UNL     1       5.522   6.434   1.423  1.00  0.00    -0.342 N 
ATOM     48  H   UNL     1       6.202   7.176   1.329  1.00  0.00     0.164 HD
BRANCH  47  49
ATOM     49  C   UNL     1       5.875   5.317   2.304  1.00  0.00     0.192 C 
BRANCH  49  50
ATOM     50  C   UNL     1       5.703   5.741   3.765  1.00  0.00     0.047 C 
BRANCH  50  51
ATOM     51  C   UNL     1       4.263   5.551   4.261  1.00  0.00     0.103 C 
BRANCH  51  52
ATOM     52  C   UNL     1       4.211   5.147   5.733  1.00  0.00     0.226 C 
ATOM     53  O   UNL     1       4.749   4.100   6.098  1.00  0.00    -0.275 OA
BRANCH  52  54
ATOM     54  N   UNL     1       3.601   6.061   6.613  1.00  0.00    -0.311 N 
ATOM     55  C   UNL     1       3.169   7.385   6.146  1.00  0.00     0.153 C 
BRANCH  54  56
ATOM     56  C   UNL     1       3.379   5.742   7.962  1.00  0.00     0.102 C 
ATOM     57  C   UNL     1       2.261   5.172   8.443  1.00  0.00     0.043 C 
BRANCH  56  58
ATOM     58  C   UNL     1       4.445   5.987   9.003  1.00  0.00     0.268 C 
ATOM     59  O   UNL     1       5.384   5.225   9.192  1.00  0.00    -0.268 OA
ATOM     60  N   UNL     1       4.289   7.181   9.666  1.00  0.00    -0.339 N 
ATOM     61  H   UNL     1       3.478   7.751   9.458  1.00  0.00     0.164 HD
BRANCH  60  62
ATOM     62  C   UNL     1       5.245   7.645  10.670  1.00  0.00     0.168 CG0
ATOM     63  C   UNL     1       6.249   8.617  10.062  1.00  0.00     0.041 C 
ATOM     64  G   UNL     1       5.967   6.434  11.296  1.00  0.00     0.000 G0
ENDBRANCH  60  62
ENDBRANCH  56  58
ENDBRANCH  54  56
ENDBRANCH  52  54
ENDBRANCH  51  52
ENDBRANCH  50  51
ENDBRANCH  49  50
BRANCH  49  65
ATOM     65  C   UNL     1       7.321   4.850   2.077  1.00  0.00     0.326 C 
ATOM     66  O   UNL     1       7.699   4.126   1.167  1.00  0.00    -0.250 OA
BRANCH  65  67
ATOM     67  O   UNL     1       8.199   5.256   3.020  1.00  0.00    -0.480 OA
ATOM     68  H   UNL     1       8.846   5.796   2.517  1.00  0.00     0.296 HD
ENDBRANCH  65  67
ENDBRANCH  49  65
ENDBRANCH  47  49
ENDBRANCH  43  45
ENDBRANCH   1  43
BRANCH   1  69
ATOM     69  C   UNL     1       2.833   6.715  -2.415  1.00  0.00    -0.001 C 
ATOM     70  C   UNL     1       1.642   7.328  -2.293  1.00  0.00     0.001 C 
BRANCH  70  71
ATOM     71  C   UNL     1       0.363   6.882  -2.848  1.00  0.00    -0.055 C 
ATOM     72  C   UNL     1      -0.056   5.637  -2.539  1.00  0.00    -0.018 C 
ATOM     73  C   UNL     1      -0.399   7.848  -3.718  1.00  0.00     0.044 C 
BRANCH  72  74
ATOM     74  C   UNL     1      -1.328   4.916  -2.962  1.00  0.00     0.038 C 
ATOM     75  C   UNL     1      -1.840   4.146  -1.739  1.00  0.00     0.015 C 
BRANCH  74  76
ATOM     76  C   UNL     1      -1.012   4.032  -4.205  1.00  0.00     0.128 C 
BRANCH  76  77
ATOM     77  O   UNL     1      -1.211   4.791  -5.410  1.00  0.00    -0.381 OA
ATOM     78  C   UNL     1      -0.022   4.988  -6.163  1.00  0.00     0.195 C 
ENDBRANCH  76  77
BRANCH  76  79
ATOM     79  C   UNL     1       0.375   3.344  -4.152  1.00  0.00     0.068 C 
BRANCH  79  80
ATOM     80  C   UNL     1       0.422   1.839  -4.265  1.00  0.00    -0.045 A 
ATOM     81  C   UNL     1       0.925   1.052  -3.221  1.00  0.00     0.004 A 
ATOM     82  C   UNL     1      -0.014   1.205  -5.438  1.00  0.00     0.004 A 
ATOM     83  C   UNL     1       0.978  -0.339  -3.340  1.00  0.00     0.000 A 
ATOM     84  C   UNL     1       0.040  -0.186  -5.556  1.00  0.00     0.000 A 
ATOM     85  C   UNL     1       0.535  -0.957  -4.507  1.00  0.00     0.000 A 
ENDBRANCH  79  80
ENDBRANCH  76  79
ENDBRANCH  74  76
ENDBRANCH  72  74
ENDBRANCH  70  71
ENDBRANCH   1  69
TORSDOF 17
ENDMDL
MODEL 22
REMARK VINA RESULT:    -5.546      2.761      5.465
REMARK INTER + INTRA:         -25.717
REMARK INTER:                 -19.073
REMARK INTRA:                  -6.644
REMARK UNBOUND:                -9.148
REMARK SMILES C=C1C(=O)N[C@H](C)C(=O)N[C@@H](CC(C)C)C(=O)N[C@@H](C(=O)O)[C@H](C)C(=O)N[C@@H](CCCN=C(N)N)C(=O)N[C@@H](/C=C/C(C)=C/[C@H](C)[C@H](Cc2ccccc2)OC)[C@H](C)C(=O)N[C@@H](C(=O)O)CCC(=O)N1C
REMARK SMILES IDX 39 1 38 2 37 3 36 4 28 6 27 7 25 8 26 9 23 11 24 12 19 13
REMARK SMILES IDX 18 14 16 15 17 16 11 18 10 19 8 20 9 21 12 24 13 25 14 26
REMARK SMILES IDX 15 27 20 28 21 29 22 30 29 32 30 33 31 34 32 35 33 36 34 37
REMARK SMILES IDX 35 38 57 43 58 44 59 45 60 46 61 47 62 49 66 50 67 51 68 52
REMARK SMILES IDX 69 53 70 54 71 55 2 56 1 57 3 58 4 59 5 60 6 62 7 63 63 65
REMARK SMILES IDX 64 66 65 67 40 69 41 70 42 71 44 72 43 73 45 74 46 75 47 76
REMARK SMILES IDX 55 77 56 78 48 79 49 80 50 81 54 82 51 83 53 84 52 85
REMARK H PARENT 38 5 27 10 18 17 10 22 22 31 34 39 34 40 35 41 35 42 61 48
REMARK H PARENT 5 61 65 68
REMARK Flexibility Score:  369.900
ROOT
ATOM      1  C   UNL     1       7.273   5.879  -1.647  1.00  0.00     0.117 C 
ENDROOT
BRANCH   1   2
ATOM      2  N   UNL     1       7.546   4.888  -2.689  1.00  0.00    -0.347 N 
ATOM      3  O   UNL     1       9.837   4.906  -2.544  1.00  0.00    -0.273 OA
ATOM      4  C   UNL     1       8.807   4.412  -2.992  1.00  0.00     0.243 C 
ATOM      5  H   UNL     1       6.776   4.479  -3.196  1.00  0.00     0.164 HD
BRANCH   4   6
ATOM      6  C   UNL     1       8.812   3.305  -4.076  1.00  0.00     0.171 C 
BRANCH   6   7
ATOM      7  N   UNL     1       7.515   3.259  -4.770  1.00  0.00    -0.344 N 
ATOM      8  C   UNL     1       6.567   2.319  -4.427  1.00  0.00     0.226 C 
ATOM      9  O   UNL     1       6.758   1.475  -3.560  1.00  0.00    -0.275 OA
ATOM     10  H   UNL     1       7.346   3.898  -5.537  1.00  0.00     0.164 HD
BRANCH   8  11
ATOM     11  C   UNL     1       5.263   2.437  -5.196  1.00  0.00     0.109 C 
ATOM     12  C   UNL     1       5.300   3.661  -6.111  1.00  0.00     0.021 C 
BRANCH  11  13
ATOM     13  C   UNL     1       4.955   1.105  -5.907  1.00  0.00     0.204 C 
BRANCH  13  14
ATOM     14  N   UNL     1       3.891   1.246  -6.906  1.00  0.00    -0.340 N 
ATOM     15  C   UNL     1       2.950   0.267  -7.141  1.00  0.00     0.243 C 
ATOM     16  O   UNL     1       2.899  -0.772  -6.484  1.00  0.00    -0.273 OA
ATOM     17  H   UNL     1       3.966   2.009  -7.584  1.00  0.00     0.164 HD
BRANCH  15  18
ATOM     18  C   UNL     1       2.060   0.547  -8.377  1.00  0.00     0.171 C 
BRANCH  18  19
ATOM     19  N   UNL     1       2.350  -0.505  -9.349  1.00  0.00    -0.343 N 
ATOM     20  C   UNL     1       3.551  -0.557 -10.030  1.00  0.00     0.242 CG0
ATOM     21  O   UNL     1       4.375   0.350  -9.951  1.00  0.00    -0.273 OA
ATOM     22  H   UNL     1       1.651  -1.215  -9.536  1.00  0.00     0.164 HD
ATOM     23  G   UNL     1       3.706  -1.782 -10.954  1.00  0.00     0.000 G0
ENDBRANCH  18  19
BRANCH  18  24
ATOM     24  C   UNL     1       0.577   0.558  -7.985  1.00  0.00     0.038 C 
BRANCH  24  25
ATOM     25  C   UNL     1      -0.111   1.935  -8.103  1.00  0.00    -0.015 C 
ATOM     26  C   UNL     1      -1.619   1.857  -7.868  1.00  0.00     0.007 C 
ATOM     27  C   UNL     1       0.166   2.532  -9.485  1.00  0.00     0.007 C 
ENDBRANCH  24  25
ENDBRANCH  18  24
ENDBRANCH  15  18
ENDBRANCH  13  14
BRANCH  13  28
ATOM     28  C   UNL     1       6.171   0.506  -6.621  1.00  0.00     0.327 C 
ATOM     29  O   UNL     1       6.963   1.110  -7.328  1.00  0.00    -0.250 OA
BRANCH  28  30
ATOM     30  O   UNL     1       6.249  -0.834  -6.499  1.00  0.00    -0.480 OA
ATOM     31  H   UNL     1       7.199  -1.006  -6.332  1.00  0.00     0.296 HD
ENDBRANCH  28  30
ENDBRANCH  13  28
ENDBRANCH  11  13
ENDBRANCH   8  11
ENDBRANCH   6   7
BRANCH   6  32
ATOM     32  C   UNL     1       9.952   3.572  -5.064  1.00  0.00     0.037 C 
BRANCH  32  33
ATOM     33  C   UNL     1       9.635   3.046  -6.471  1.00  0.00     0.026 C 
BRANCH  33  34
ATOM     34  C   UNL     1       9.717   4.139  -7.537  1.00  0.00     0.146 C 
BRANCH  34  35
ATOM     35  N   UNL     1       8.383   4.677  -7.763  1.00  0.00    -0.254 NA
ATOM     36  C   UNL     1       8.111   5.849  -7.325  1.00  0.00     0.185 C 
ATOM     37  N   UNL     1       6.885   6.356  -7.532  1.00  0.00    -0.370 N 
ATOM     38  N   UNL     1       8.901   6.705  -6.653  1.00  0.00    -0.370 N 
ATOM     39  H   UNL     1       6.233   5.775  -8.042  1.00  0.00     0.159 HD
ATOM     40  H   UNL     1       6.650   7.322  -7.377  1.00  0.00     0.159 HD
ATOM     41  H   UNL     1       8.528   7.544  -6.240  1.00  0.00     0.159 HD
ATOM     42  H   UNL     1       9.846   6.449  -6.413  1.00  0.00     0.159 HD
ENDBRANCH  34  35
ENDBRANCH  33  34
ENDBRANCH  32  33
ENDBRANCH   6  32
ENDBRANCH   4   6
ENDBRANCH   1   2
BRANCH   1  43
ATOM     43  C   UNL     1       7.588   5.242  -0.263  1.00  0.00     0.102 C 
ATOM     44  C   UNL     1       6.593   4.142   0.145  1.00  0.00     0.020 C 
BRANCH  43  45
ATOM     45  C   UNL     1       7.795   6.320   0.805  1.00  0.00     0.225 C 
ATOM     46  O   UNL     1       8.774   6.352   1.545  1.00  0.00    -0.275 OA
ATOM     47  N   UNL     1       6.759   7.213   0.954  1.00  0.00    -0.342 N 
ATOM     48  H   UNL     1       6.040   7.268   0.246  1.00  0.00     0.164 HD
BRANCH  47  49
ATOM     49  C   UNL     1       6.833   8.320   1.912  1.00  0.00     0.192 C 
BRANCH  49  50
ATOM     50  C   UNL     1       5.553   8.360   2.751  1.00  0.00     0.047 C 
BRANCH  50  51
ATOM     51  C   UNL     1       5.438   7.155   3.695  1.00  0.00     0.103 C 
BRANCH  51  52
ATOM     52  C   UNL     1       4.249   6.264   3.344  1.00  0.00     0.226 C 
ATOM     53  O   UNL     1       4.267   5.604   2.303  1.00  0.00    -0.275 OA
BRANCH  52  54
ATOM     54  N   UNL     1       3.215   6.196   4.296  1.00  0.00    -0.311 N 
ATOM     55  C   UNL     1       2.142   7.199   4.321  1.00  0.00     0.153 C 
BRANCH  54  56
ATOM     56  C   UNL     1       3.166   5.167   5.252  1.00  0.00     0.102 C 
ATOM     57  C   UNL     1       2.341   4.109   5.200  1.00  0.00     0.043 C 
BRANCH  56  58
ATOM     58  C   UNL     1       4.110   5.159   6.431  1.00  0.00     0.268 C 
ATOM     59  O   UNL     1       5.126   4.478   6.470  1.00  0.00    -0.268 OA
ATOM     60  N   UNL     1       3.746   6.040   7.421  1.00  0.00    -0.339 N 
ATOM     61  H   UNL     1       2.883   6.560   7.317  1.00  0.00     0.164 HD
BRANCH  60  62
ATOM     62  C   UNL     1       4.554   6.237   8.624  1.00  0.00     0.168 CG0
ATOM     63  C   UNL     1       3.886   5.609   9.840  1.00  0.00     0.041 C 
ATOM     64  G   UNL     1       4.789   7.745   8.847  1.00  0.00     0.000 G0
ENDBRANCH  60  62
ENDBRANCH  56  58
ENDBRANCH  54  56
ENDBRANCH  52  54
ENDBRANCH  51  52
ENDBRANCH  50  51
ENDBRANCH  49  50
BRANCH  49  65
ATOM     65  C   UNL     1       7.020   9.671   1.204  1.00  0.00     0.326 C 
ATOM     66  O   UNL     1       6.651  10.755   1.633  1.00  0.00    -0.250 OA
BRANCH  65  67
ATOM     67  O   UNL     1       7.596   9.594  -0.016  1.00  0.00    -0.480 OA
ATOM     68  H   UNL     1       7.297   8.724  -0.358  1.00  0.00     0.296 HD
ENDBRANCH  65  67
ENDBRANCH  49  65
ENDBRANCH  47  49
ENDBRANCH  43  45
ENDBRANCH   1  43
BRANCH   1  69
ATOM     69  C   UNL     1       5.872   6.399  -1.913  1.00  0.00    -0.001 C 
ATOM     70  C   UNL     1       5.006   5.971  -2.849  1.00  0.00     0.001 C 
BRANCH  70  71
ATOM     71  C   UNL     1       3.648   6.467  -3.082  1.00  0.00    -0.055 C 
ATOM     72  C   UNL     1       3.216   6.533  -4.359  1.00  0.00    -0.018 C 
ATOM     73  C   UNL     1       2.828   6.860  -1.882  1.00  0.00     0.044 C 
BRANCH  72  74
ATOM     74  C   UNL     1       1.870   6.998  -4.897  1.00  0.00     0.038 C 
ATOM     75  C   UNL     1       1.297   7.996  -3.883  1.00  0.00     0.015 C 
BRANCH  74  76
ATOM     76  C   UNL     1       0.977   5.749  -5.159  1.00  0.00     0.128 C 
BRANCH  76  77
ATOM     77  O   UNL     1       0.151   5.970  -6.315  1.00  0.00    -0.381 OA
ATOM     78  C   UNL     1      -1.097   5.292  -6.264  1.00  0.00     0.195 C 
ENDBRANCH  76  77
BRANCH  76  79
ATOM     79  C   UNL     1       1.764   4.417  -5.231  1.00  0.00     0.068 C 
BRANCH  79  80
ATOM     80  C   UNL     1       1.442   3.349  -4.213  1.00  0.00    -0.045 A 
ATOM     81  C   UNL     1       1.298   2.009  -4.594  1.00  0.00     0.004 A 
ATOM     82  C   UNL     1       1.252   3.692  -2.866  1.00  0.00     0.004 A 
ATOM     83  C   UNL     1       0.986   1.029  -3.649  1.00  0.00     0.000 A 
ATOM     84  C   UNL     1       0.939   2.712  -1.921  1.00  0.00     0.000 A 
ATOM     85  C   UNL     1       0.808   1.381  -2.312  1.00  0.00     0.000 A 
ENDBRANCH  79  80
ENDBRANCH  76  79
ENDBRANCH  74  76
ENDBRANCH  72  74
ENDBRANCH  70  71
ENDBRANCH   1  69
TORSDOF 17
ENDMDL
MODEL 23
REMARK VINA RESULT:    -5.537      3.798     11.271
REMARK INTER + INTRA:         -25.692
REMARK INTER:                 -18.541
REMARK INTRA:                  -7.151
REMARK UNBOUND:                -9.148
REMARK SMILES C=C1C(=O)N[C@H](C)C(=O)N[C@@H](CC(C)C)C(=O)N[C@@H](C(=O)O)[C@H](C)C(=O)N[C@@H](CCCN=C(N)N)C(=O)N[C@@H](/C=C/C(C)=C/[C@H](C)[C@H](Cc2ccccc2)OC)[C@H](C)C(=O)N[C@@H](C(=O)O)CCC(=O)N1C
REMARK SMILES IDX 39 1 38 2 37 3 36 4 28 6 27 7 25 8 26 9 23 11 24 12 19 13
REMARK SMILES IDX 18 14 16 15 17 16 11 18 10 19 8 20 9 21 12 24 13 25 14 26
REMARK SMILES IDX 15 27 20 28 21 29 22 30 29 32 30 33 31 34 32 35 33 36 34 37
REMARK SMILES IDX 35 38 57 43 58 44 59 45 60 46 61 47 62 49 66 50 67 51 68 52
REMARK SMILES IDX 69 53 70 54 71 55 2 56 1 57 3 58 4 59 5 60 6 62 7 63 63 65
REMARK SMILES IDX 64 66 65 67 40 69 41 70 42 71 44 72 43 73 45 74 46 75 47 76
REMARK SMILES IDX 55 77 56 78 48 79 49 80 50 81 54 82 51 83 53 84 52 85
REMARK H PARENT 38 5 27 10 18 17 10 22 22 31 34 39 34 40 35 41 35 42 61 48
REMARK H PARENT 5 61 65 68
REMARK Flexibility Score:  369.900
ROOT
ATOM      1  C   UNL     1       2.838   5.160  -0.311  1.00  0.00     0.117 C 
ENDROOT
BRANCH   1   2
ATOM      2  N   UNL     1       1.744   4.746   0.568  1.00  0.00    -0.347 N 
ATOM      3  O   UNL     1       2.756   5.225   2.572  1.00  0.00    -0.273 OA
ATOM      4  C   UNL     1       1.757   4.899   1.941  1.00  0.00     0.243 C 
ATOM      5  H   UNL     1       0.900   4.370   0.164  1.00  0.00     0.164 HD
BRANCH   4   6
ATOM      6  C   UNL     1       0.439   4.460   2.629  1.00  0.00     0.171 C 
BRANCH   6   7
ATOM      7  N   UNL     1       0.226   5.224   3.868  1.00  0.00    -0.344 N 
ATOM      8  C   UNL     1       0.724   4.767   5.069  1.00  0.00     0.226 C 
ATOM      9  O   UNL     1       1.338   3.712   5.171  1.00  0.00    -0.275 OA
ATOM     10  H   UNL     1      -0.334   6.066   3.836  1.00  0.00     0.164 HD
BRANCH   8  11
ATOM     11  C   UNL     1       0.469   5.694   6.245  1.00  0.00     0.109 C 
ATOM     12  C   UNL     1       0.131   7.098   5.744  1.00  0.00     0.021 C 
BRANCH  11  13
ATOM     13  C   UNL     1      -0.584   5.069   7.183  1.00  0.00     0.204 C 
BRANCH  13  14
ATOM     14  N   UNL     1      -1.209   3.880   6.596  1.00  0.00    -0.340 N 
ATOM     15  C   UNL     1      -2.436   3.911   5.969  1.00  0.00     0.243 C 
ATOM     16  O   UNL     1      -3.067   4.954   5.804  1.00  0.00    -0.273 OA
ATOM     17  H   UNL     1      -0.814   2.965   6.829  1.00  0.00     0.164 HD
BRANCH  15  18
ATOM     18  C   UNL     1      -2.986   2.508   5.615  1.00  0.00     0.171 C 
BRANCH  18  19
ATOM     19  N   UNL     1      -4.432   2.652   5.459  1.00  0.00    -0.343 N 
ATOM     20  C   UNL     1      -5.323   1.848   6.144  1.00  0.00     0.242 CG0
ATOM     21  O   UNL     1      -4.942   0.889   6.811  1.00  0.00    -0.273 OA
ATOM     22  H   UNL     1      -4.797   3.357   4.828  1.00  0.00     0.164 HD
ATOM     23  G   UNL     1      -6.807   2.200   5.912  1.00  0.00     0.000 G0
ENDBRANCH  18  19
BRANCH  18  24
ATOM     24  C   UNL     1      -2.333   1.978   4.333  1.00  0.00     0.038 C 
BRANCH  24  25
ATOM     25  C   UNL     1      -2.227   0.440   4.252  1.00  0.00    -0.015 C 
ATOM     26  C   UNL     1      -0.910  -0.024   3.630  1.00  0.00     0.007 C 
ATOM     27  C   UNL     1      -3.402  -0.115   3.443  1.00  0.00     0.007 C 
ENDBRANCH  24  25
ENDBRANCH  18  24
ENDBRANCH  15  18
ENDBRANCH  13  14
BRANCH  13  28
ATOM     28  C   UNL     1      -0.012   4.657   8.543  1.00  0.00     0.327 C 
ATOM     29  O   UNL     1       1.058   4.100   8.738  1.00  0.00    -0.250 OA
BRANCH  28  30
ATOM     30  O   UNL     1      -0.871   4.861   9.561  1.00  0.00    -0.480 OA
ATOM     31  H   UNL     1      -0.577   4.235  10.255  1.00  0.00     0.296 HD
ENDBRANCH  28  30
ENDBRANCH  13  28
ENDBRANCH  11  13
ENDBRANCH   8  11
ENDBRANCH   6   7
BRANCH   6  32
ATOM     32  C   UNL     1      -0.728   4.661   1.655  1.00  0.00     0.037 C 
BRANCH  32  33
ATOM     33  C   UNL     1      -2.030   5.029   2.379  1.00  0.00     0.026 C 
BRANCH  33  34
ATOM     34  C   UNL     1      -3.264   4.843   1.496  1.00  0.00     0.146 C 
BRANCH  34  35
ATOM     35  N   UNL     1      -4.004   3.678   1.961  1.00  0.00    -0.254 NA
ATOM     36  C   UNL     1      -5.284   3.726   1.968  1.00  0.00     0.185 C 
ATOM     37  N   UNL     1      -5.976   2.656   2.390  1.00  0.00    -0.370 N 
ATOM     38  N   UNL     1      -6.094   4.734   1.599  1.00  0.00    -0.370 N 
ATOM     39  H   UNL     1      -5.436   1.850   2.677  1.00  0.00     0.159 HD
ATOM     40  H   UNL     1      -6.968   2.550   2.264  1.00  0.00     0.159 HD
ATOM     41  H   UNL     1      -7.083   4.701   1.782  1.00  0.00     0.159 HD
ATOM     42  H   UNL     1      -5.710   5.608   1.275  1.00  0.00     0.159 HD
ENDBRANCH  34  35
ENDBRANCH  33  34
ENDBRANCH  32  33
ENDBRANCH   6  32
ENDBRANCH   4   6
ENDBRANCH   1   2
BRANCH   1  43
ATOM     43  C   UNL     1       3.084   6.683  -0.114  1.00  0.00     0.102 C 
ATOM     44  C   UNL     1       2.593   7.540  -1.292  1.00  0.00     0.020 C 
BRANCH  43  45
ATOM     45  C   UNL     1       4.535   6.958   0.292  1.00  0.00     0.225 C 
ATOM     46  O   UNL     1       5.038   8.078   0.267  1.00  0.00    -0.275 OA
ATOM     47  N   UNL     1       5.285   5.847   0.602  1.00  0.00    -0.342 N 
ATOM     48  H   UNL     1       4.824   4.962   0.764  1.00  0.00     0.164 HD
BRANCH  47  49
ATOM     49  C   UNL     1       6.679   5.960   1.042  1.00  0.00     0.192 C 
BRANCH  49  50
ATOM     50  C   UNL     1       7.605   5.384  -0.032  1.00  0.00     0.047 C 
BRANCH  50  51
ATOM     51  C   UNL     1       6.830   4.677  -1.152  1.00  0.00     0.103 C 
BRANCH  51  52
ATOM     52  C   UNL     1       7.574   4.726  -2.484  1.00  0.00     0.226 C 
ATOM     53  O   UNL     1       8.320   5.676  -2.732  1.00  0.00    -0.275 OA
BRANCH  52  54
ATOM     54  N   UNL     1       7.413   3.615  -3.334  1.00  0.00    -0.311 N 
ATOM     55  C   UNL     1       6.096   2.995  -3.525  1.00  0.00     0.153 C 
BRANCH  54  56
ATOM     56  C   UNL     1       8.500   3.064  -4.032  1.00  0.00     0.102 C 
ATOM     57  C   UNL     1       9.409   2.228  -3.503  1.00  0.00     0.043 C 
BRANCH  56  58
ATOM     58  C   UNL     1       8.704   3.351  -5.501  1.00  0.00     0.268 C 
ATOM     59  O   UNL     1       8.958   4.466  -5.937  1.00  0.00    -0.268 OA
ATOM     60  N   UNL     1       8.639   2.224  -6.286  1.00  0.00    -0.339 N 
ATOM     61  H   UNL     1       8.412   1.339  -5.849  1.00  0.00     0.164 HD
BRANCH  60  62
ATOM     62  C   UNL     1       8.868   2.266  -7.729  1.00  0.00     0.168 CG0
ATOM     63  C   UNL     1       7.550   2.274  -8.493  1.00  0.00     0.041 C 
ATOM     64  G   UNL     1       9.735   1.061  -8.150  1.00  0.00     0.000 G0
ENDBRANCH  60  62
ENDBRANCH  56  58
ENDBRANCH  54  56
ENDBRANCH  52  54
ENDBRANCH  51  52
ENDBRANCH  50  51
ENDBRANCH  49  50
BRANCH  49  65
ATOM     65  C   UNL     1       6.916   5.222   2.368  1.00  0.00     0.326 C 
ATOM     66  O   UNL     1       7.958   5.228   3.008  1.00  0.00    -0.250 OA
BRANCH  65  67
ATOM     67  O   UNL     1       5.873   4.475   2.793  1.00  0.00    -0.480 OA
ATOM     68  H   UNL     1       6.298   3.663   3.143  1.00  0.00     0.296 HD
ENDBRANCH  65  67
ENDBRANCH  49  65
ENDBRANCH  47  49
ENDBRANCH  43  45
ENDBRANCH   1  43
BRANCH   1  69
ATOM     69  C   UNL     1       2.486   4.647  -1.696  1.00  0.00    -0.001 C 
ATOM     70  C   UNL     1       1.809   3.527  -2.004  1.00  0.00     0.001 C 
BRANCH  70  71
ATOM     71  C   UNL     1       1.456   3.053  -3.344  1.00  0.00    -0.055 C 
ATOM     72  C   UNL     1       2.452   2.920  -4.245  1.00  0.00    -0.018 C 
ATOM     73  C   UNL     1       0.008   2.741  -3.620  1.00  0.00     0.044 C 
BRANCH  72  74
ATOM     74  C   UNL     1       2.386   2.453  -5.692  1.00  0.00     0.038 C 
ATOM     75  C   UNL     1       3.416   1.328  -5.853  1.00  0.00     0.015 C 
BRANCH  74  76
ATOM     76  C   UNL     1       2.607   3.680  -6.626  1.00  0.00     0.128 C 
BRANCH  76  77
ATOM     77  O   UNL     1       3.151   3.247  -7.884  1.00  0.00    -0.381 OA
ATOM     78  C   UNL     1       2.350   3.599  -9.004  1.00  0.00     0.195 C 
ENDBRANCH  76  77
BRANCH  76  79
ATOM     79  C   UNL     1       1.356   4.579  -6.790  1.00  0.00     0.068 C 
BRANCH  79  80
ATOM     80  C   UNL     1       1.169   5.715  -5.815  1.00  0.00    -0.045 A 
ATOM     81  C   UNL     1      -0.096   6.021  -5.296  1.00  0.00     0.004 A 
ATOM     82  C   UNL     1       2.263   6.506  -5.431  1.00  0.00     0.004 A 
ATOM     83  C   UNL     1      -0.263   7.083  -4.405  1.00  0.00     0.000 A 
ATOM     84  C   UNL     1       2.095   7.568  -4.540  1.00  0.00     0.000 A 
ATOM     85  C   UNL     1       0.832   7.855  -4.026  1.00  0.00     0.000 A 
ENDBRANCH  79  80
ENDBRANCH  76  79
ENDBRANCH  74  76
ENDBRANCH  72  74
ENDBRANCH  70  71
ENDBRANCH   1  69
TORSDOF 17
ENDMDL
MODEL 24
REMARK VINA RESULT:    -5.533      2.584     11.140
REMARK INTER + INTRA:         -25.677
REMARK INTER:                 -16.973
REMARK INTRA:                  -8.704
REMARK UNBOUND:                -9.148
REMARK SMILES C=C1C(=O)N[C@H](C)C(=O)N[C@@H](CC(C)C)C(=O)N[C@@H](C(=O)O)[C@H](C)C(=O)N[C@@H](CCCN=C(N)N)C(=O)N[C@@H](/C=C/C(C)=C/[C@H](C)[C@H](Cc2ccccc2)OC)[C@H](C)C(=O)N[C@@H](C(=O)O)CCC(=O)N1C
REMARK SMILES IDX 39 1 38 2 37 3 36 4 28 6 27 7 25 8 26 9 23 11 24 12 19 13
REMARK SMILES IDX 18 14 16 15 17 16 11 18 10 19 8 20 9 21 12 24 13 25 14 26
REMARK SMILES IDX 15 27 20 28 21 29 22 30 29 32 30 33 31 34 32 35 33 36 34 37
REMARK SMILES IDX 35 38 57 43 58 44 59 45 60 46 61 47 62 49 66 50 67 51 68 52
REMARK SMILES IDX 69 53 70 54 71 55 2 56 1 57 3 58 4 59 5 60 6 62 7 63 63 65
REMARK SMILES IDX 64 66 65 67 40 69 41 70 42 71 44 72 43 73 45 74 46 75 47 76
REMARK SMILES IDX 55 77 56 78 48 79 49 80 50 81 54 82 51 83 53 84 52 85
REMARK H PARENT 38 5 27 10 18 17 10 22 22 31 34 39 34 40 35 41 35 42 61 48
REMARK H PARENT 5 61 65 68
REMARK Flexibility Score:  369.900
ROOT
ATOM      1  C   UNL     1       3.330   6.247  -0.054  1.00  0.00     0.117 C 
ENDROOT
BRANCH   1   2
ATOM      2  N   UNL     1       3.373   6.563   1.374  1.00  0.00    -0.347 N 
ATOM      3  O   UNL     1       5.153   5.228   1.938  1.00  0.00    -0.273 OA
ATOM      4  C   UNL     1       4.342   6.097   2.241  1.00  0.00     0.243 C 
ATOM      5  H   UNL     1       2.691   7.199   1.760  1.00  0.00     0.164 HD
BRANCH   4   6
ATOM      6  C   UNL     1       4.208   6.650   3.682  1.00  0.00     0.171 C 
BRANCH   6   7
ATOM      7  N   UNL     1       3.413   5.733   4.514  1.00  0.00    -0.344 N 
ATOM      8  C   UNL     1       2.291   6.179   5.178  1.00  0.00     0.226 C 
ATOM      9  O   UNL     1       1.916   7.345   5.130  1.00  0.00    -0.275 OA
ATOM     10  H   UNL     1       3.729   4.778   4.632  1.00  0.00     0.164 HD
BRANCH   8  11
ATOM     11  C   UNL     1       1.549   5.101   5.949  1.00  0.00     0.109 C 
ATOM     12  C   UNL     1       1.839   3.728   5.343  1.00  0.00     0.021 C 
BRANCH  11  13
ATOM     13  C   UNL     1       1.863   5.226   7.453  1.00  0.00     0.204 C 
BRANCH  13  14
ATOM     14  N   UNL     1       2.468   6.520   7.785  1.00  0.00    -0.340 N 
ATOM     15  C   UNL     1       3.605   6.640   8.553  1.00  0.00     0.243 C 
ATOM     16  O   UNL     1       4.229   5.664   8.966  1.00  0.00    -0.273 OA
ATOM     17  H   UNL     1       1.920   7.366   7.604  1.00  0.00     0.164 HD
BRANCH  15  18
ATOM     18  C   UNL     1       3.936   8.101   8.945  1.00  0.00     0.171 C 
BRANCH  18  19
ATOM     19  N   UNL     1       3.284   8.349  10.229  1.00  0.00    -0.343 N 
ATOM     20  C   UNL     1       1.985   8.813  10.309  1.00  0.00     0.242 CG0
ATOM     21  O   UNL     1       1.365   9.165   9.309  1.00  0.00    -0.273 OA
ATOM     22  H   UNL     1       3.797   8.183  11.087  1.00  0.00     0.164 HD
ATOM     23  G   UNL     1       1.442   8.938  11.747  1.00  0.00     0.000 G0
ENDBRANCH  18  19
BRANCH  18  24
ATOM     24  C   UNL     1       5.454   8.306   9.036  1.00  0.00     0.038 C 
BRANCH  24  25
ATOM     25  C   UNL     1       5.919   9.765   8.844  1.00  0.00    -0.015 C 
ATOM     26  C   UNL     1       6.344  10.422  10.157  1.00  0.00     0.007 C 
ATOM     27  C   UNL     1       4.797  10.583   8.199  1.00  0.00     0.007 C 
ENDBRANCH  24  25
ENDBRANCH  18  24
ENDBRANCH  15  18
ENDBRANCH  13  14
BRANCH  13  28
ATOM     28  C   UNL     1       0.628   5.060   8.343  1.00  0.00     0.327 C 
ATOM     29  O   UNL     1      -0.039   5.961   8.829  1.00  0.00    -0.250 OA
BRANCH  28  30
ATOM     30  O   UNL     1       0.378   3.775   8.666  1.00  0.00    -0.480 OA
ATOM     31  H   UNL     1      -0.123   3.831   9.506  1.00  0.00     0.296 HD
ENDBRANCH  28  30
ENDBRANCH  13  28
ENDBRANCH  11  13
ENDBRANCH   8  11
ENDBRANCH   6   7
BRANCH   6  32
ATOM     32  C   UNL     1       5.606   6.854   4.276  1.00  0.00     0.037 C 
BRANCH  32  33
ATOM     33  C   UNL     1       5.621   7.932   5.368  1.00  0.00     0.026 C 
BRANCH  33  34
ATOM     34  C   UNL     1       5.278   9.320   4.826  1.00  0.00     0.146 C 
BRANCH  34  35
ATOM     35  N   UNL     1       6.262   9.686   3.816  1.00  0.00    -0.254 NA
ATOM     36  C   UNL     1       6.944  10.758   3.982  1.00  0.00     0.185 C 
ATOM     37  N   UNL     1       7.856  11.101   3.060  1.00  0.00    -0.370 N 
ATOM     38  N   UNL     1       6.889  11.646   4.990  1.00  0.00    -0.370 N 
ATOM     39  H   UNL     1       7.964  10.475   2.272  1.00  0.00     0.159 HD
ATOM     40  H   UNL     1       8.544  11.821   3.200  1.00  0.00     0.159 HD
ATOM     41  H   UNL     1       7.379  12.524   4.938  1.00  0.00     0.159 HD
ATOM     42  H   UNL     1       6.235  11.522   5.747  1.00  0.00     0.159 HD
ENDBRANCH  34  35
ENDBRANCH  33  34
ENDBRANCH  32  33
ENDBRANCH   6  32
ENDBRANCH   4   6
ENDBRANCH   1   2
BRANCH   1  43
ATOM     43  C   UNL     1       3.672   7.535  -0.857  1.00  0.00     0.102 C 
ATOM     44  C   UNL     1       3.239   7.470  -2.331  1.00  0.00     0.020 C 
BRANCH  43  45
ATOM     45  C   UNL     1       5.137   7.935  -0.656  1.00  0.00     0.225 C 
ATOM     46  O   UNL     1       5.499   9.097  -0.490  1.00  0.00    -0.275 OA
ATOM     47  N   UNL     1       6.051   6.913  -0.768  1.00  0.00    -0.342 N 
ATOM     48  H   UNL     1       5.733   5.954  -0.752  1.00  0.00     0.164 HD
BRANCH  47  49
ATOM     49  C   UNL     1       7.485   7.141  -0.565  1.00  0.00     0.192 C 
BRANCH  49  50
ATOM     50  C   UNL     1       8.281   5.975  -1.156  1.00  0.00     0.047 C 
BRANCH  50  51
ATOM     51  C   UNL     1       7.401   4.746  -1.423  1.00  0.00     0.103 C 
BRANCH  51  52
ATOM     52  C   UNL     1       7.309   4.418  -2.912  1.00  0.00     0.226 C 
ATOM     53  O   UNL     1       6.788   5.225  -3.683  1.00  0.00    -0.275 OA
BRANCH  52  54
ATOM     54  N   UNL     1       7.910   3.215  -3.327  1.00  0.00    -0.311 N 
ATOM     55  C   UNL     1       7.374   1.915  -2.901  1.00  0.00     0.153 C 
BRANCH  54  56
ATOM     56  C   UNL     1       9.037   3.210  -4.165  1.00  0.00     0.102 C 
ATOM     57  C   UNL     1      10.310   3.143  -3.741  1.00  0.00     0.043 C 
BRANCH  56  58
ATOM     58  C   UNL     1       8.886   3.237  -5.668  1.00  0.00     0.268 C 
ATOM     59  O   UNL     1       8.848   2.226  -6.355  1.00  0.00    -0.268 OA
ATOM     60  N   UNL     1       8.729   4.506  -6.172  1.00  0.00    -0.339 N 
ATOM     61  H   UNL     1       8.783   5.293  -5.537  1.00  0.00     0.164 HD
BRANCH  60  62
ATOM     62  C   UNL     1       8.504   4.756  -7.595  1.00  0.00     0.168 CG0
ATOM     63  C   UNL     1       7.017   4.889  -7.899  1.00  0.00     0.041 C 
ATOM     64  G   UNL     1       9.131   3.617  -8.426  1.00  0.00     0.000 G0
ENDBRANCH  60  62
ENDBRANCH  56  58
ENDBRANCH  54  56
ENDBRANCH  52  54
ENDBRANCH  51  52
ENDBRANCH  50  51
ENDBRANCH  49  50
BRANCH  49  65
ATOM     65  C   UNL     1       7.830   7.288   0.926  1.00  0.00     0.326 C 
ATOM     66  O   UNL     1       8.126   6.373   1.680  1.00  0.00    -0.250 OA
BRANCH  65  67
ATOM     67  O   UNL     1       7.729   8.547   1.406  1.00  0.00    -0.480 OA
ATOM     68  H   UNL     1       8.660   8.802   1.584  1.00  0.00     0.296 HD
ENDBRANCH  65  67
ENDBRANCH  49  65
ENDBRANCH  47  49
ENDBRANCH  43  45
ENDBRANCH   1  43
BRANCH   1  69
ATOM     69  C   UNL     1       1.997   5.564  -0.297  1.00  0.00    -0.001 C 
ATOM     70  C   UNL     1       1.753   4.242  -0.344  1.00  0.00     0.001 C 
BRANCH  70  71
ATOM     71  C   UNL     1       0.457   3.594  -0.559  1.00  0.00    -0.055 C 
ATOM     72  C   UNL     1      -0.406   3.560   0.478  1.00  0.00    -0.018 C 
ATOM     73  C   UNL     1       0.177   3.019  -1.923  1.00  0.00     0.044 C 
BRANCH  72  74
ATOM     74  C   UNL     1      -1.805   2.965   0.546  1.00  0.00     0.038 C 
ATOM     75  C   UNL     1      -2.792   4.085   0.196  1.00  0.00     0.015 C 
BRANCH  74  76
ATOM     76  C   UNL     1      -2.012   2.330   1.953  1.00  0.00     0.128 C 
BRANCH  76  77
ATOM     77  O   UNL     1      -2.072   0.898   1.842  1.00  0.00    -0.381 OA
ATOM     78  C   UNL     1      -2.486   0.442   0.562  1.00  0.00     0.195 C 
ENDBRANCH  76  77
BRANCH  76  79
ATOM     79  C   UNL     1      -0.988   2.807   3.015  1.00  0.00     0.068 C 
BRANCH  79  80
ATOM     80  C   UNL     1      -1.407   3.910   3.956  1.00  0.00    -0.045 A 
ATOM     81  C   UNL     1      -1.926   3.619   5.224  1.00  0.00     0.004 A 
ATOM     82  C   UNL     1      -1.308   5.253   3.560  1.00  0.00     0.004 A 
ATOM     83  C   UNL     1      -2.325   4.646   6.083  1.00  0.00     0.000 A 
ATOM     84  C   UNL     1      -1.707   6.278   4.419  1.00  0.00     0.000 A 
ATOM     85  C   UNL     1      -2.214   5.975   5.681  1.00  0.00     0.000 A 
ENDBRANCH  79  80
ENDBRANCH  76  79
ENDBRANCH  74  76
ENDBRANCH  72  74
ENDBRANCH  70  71
ENDBRANCH   1  69
TORSDOF 17
ENDMDL
MODEL 25
REMARK VINA RESULT:    -5.516      3.734     10.983
REMARK INTER + INTRA:         -25.628
REMARK INTER:                 -18.024
REMARK INTRA:                  -7.604
REMARK UNBOUND:                -9.148
REMARK SMILES C=C1C(=O)N[C@H](C)C(=O)N[C@@H](CC(C)C)C(=O)N[C@@H](C(=O)O)[C@H](C)C(=O)N[C@@H](CCCN=C(N)N)C(=O)N[C@@H](/C=C/C(C)=C/[C@H](C)[C@H](Cc2ccccc2)OC)[C@H](C)C(=O)N[C@@H](C(=O)O)CCC(=O)N1C
REMARK SMILES IDX 39 1 38 2 37 3 36 4 28 6 27 7 25 8 26 9 23 11 24 12 19 13
REMARK SMILES IDX 18 14 16 15 17 16 11 18 10 19 8 20 9 21 12 24 13 25 14 26
REMARK SMILES IDX 15 27 20 28 21 29 22 30 29 32 30 33 31 34 32 35 33 36 34 37
REMARK SMILES IDX 35 38 57 43 58 44 59 45 60 46 61 47 62 49 66 50 67 51 68 52
REMARK SMILES IDX 69 53 70 54 71 55 2 56 1 57 3 58 4 59 5 60 6 62 7 63 63 65
REMARK SMILES IDX 64 66 65 67 40 69 41 70 42 71 44 72 43 73 45 74 46 75 47 76
REMARK SMILES IDX 55 77 56 78 48 79 49 80 50 81 54 82 51 83 53 84 52 85
REMARK H PARENT 38 5 27 10 18 17 10 22 22 31 34 39 34 40 35 41 35 42 61 48
REMARK H PARENT 5 61 65 68
REMARK Flexibility Score:  369.900
ROOT
ATOM      1  C   UNL     1       1.364   4.594  -1.299  1.00  0.00     0.117 C 
ENDROOT
BRANCH   1   2
ATOM      2  N   UNL     1       2.542   5.295  -1.813  1.00  0.00    -0.347 N 
ATOM      3  O   UNL     1       4.121   3.748  -1.195  1.00  0.00    -0.273 OA
ATOM      4  C   UNL     1       3.820   4.771  -1.801  1.00  0.00     0.243 C 
ATOM      5  H   UNL     1       2.428   6.196  -2.253  1.00  0.00     0.164 HD
BRANCH   4   6
ATOM      6  C   UNL     1       4.872   5.679  -2.486  1.00  0.00     0.171 C 
BRANCH   6   7
ATOM      7  N   UNL     1       6.177   5.550  -1.817  1.00  0.00    -0.344 N 
ATOM      8  C   UNL     1       6.769   6.639  -1.215  1.00  0.00     0.226 C 
ATOM      9  O   UNL     1       6.263   7.755  -1.224  1.00  0.00    -0.275 OA
ATOM     10  H   UNL     1       6.657   4.659  -1.846  1.00  0.00     0.164 HD
BRANCH   8  11
ATOM     11  C   UNL     1       8.085   6.331  -0.521  1.00  0.00     0.109 C 
ATOM     12  C   UNL     1       9.152   7.340  -0.946  1.00  0.00     0.021 C 
BRANCH  11  13
ATOM     13  C   UNL     1       7.860   6.228   1.001  1.00  0.00     0.204 C 
BRANCH  13  14
ATOM     14  N   UNL     1       6.890   7.216   1.484  1.00  0.00    -0.340 N 
ATOM     15  C   UNL     1       7.255   8.333   2.204  1.00  0.00     0.243 C 
ATOM     16  O   UNL     1       8.429   8.611   2.441  1.00  0.00    -0.273 OA
ATOM     17  H   UNL     1       5.897   6.969   1.454  1.00  0.00     0.164 HD
BRANCH  15  18
ATOM     18  C   UNL     1       6.051   9.116   2.783  1.00  0.00     0.171 C 
BRANCH  18  19
ATOM     19  N   UNL     1       6.603  10.115   3.696  1.00  0.00    -0.343 N 
ATOM     20  C   UNL     1       5.972  10.447   4.880  1.00  0.00     0.242 CG0
ATOM     21  O   UNL     1       4.855  10.016   5.157  1.00  0.00    -0.273 OA
ATOM     22  H   UNL     1       7.468  10.585   3.456  1.00  0.00     0.164 HD
ATOM     23  G   UNL     1       6.743  11.462   5.749  1.00  0.00     0.000 G0
ENDBRANCH  18  19
BRANCH  18  24
ATOM     24  C   UNL     1       5.239   9.770   1.658  1.00  0.00     0.038 C 
BRANCH  24  25
ATOM     25  C   UNL     1       3.739   9.406   1.652  1.00  0.00    -0.015 C 
ATOM     26  C   UNL     1       3.299   8.761   0.338  1.00  0.00     0.007 C 
ATOM     27  C   UNL     1       2.904  10.663   1.913  1.00  0.00     0.007 C 
ENDBRANCH  24  25
ENDBRANCH  18  24
ENDBRANCH  15  18
ENDBRANCH  13  14
BRANCH  13  28
ATOM     28  C   UNL     1       7.363   4.849   1.445  1.00  0.00     0.327 C 
ATOM     29  O   UNL     1       7.342   3.834   0.765  1.00  0.00    -0.250 OA
BRANCH  28  30
ATOM     30  O   UNL     1       6.812   4.857   2.676  1.00  0.00    -0.480 OA
ATOM     31  H   UNL     1       6.040   5.455   2.591  1.00  0.00     0.296 HD
ENDBRANCH  28  30
ENDBRANCH  13  28
ENDBRANCH  11  13
ENDBRANCH   8  11
ENDBRANCH   6   7
BRANCH   6  32
ATOM     32  C   UNL     1       4.977   5.301  -3.967  1.00  0.00     0.037 C 
BRANCH  32  33
ATOM     33  C   UNL     1       6.177   4.385  -4.247  1.00  0.00     0.026 C 
BRANCH  33  34
ATOM     34  C   UNL     1       5.789   2.906  -4.279  1.00  0.00     0.146 C 
BRANCH  34  35
ATOM     35  N   UNL     1       6.998   2.101  -4.174  1.00  0.00    -0.254 NA
ATOM     36  C   UNL     1       7.468   1.846  -3.010  1.00  0.00     0.185 C 
ATOM     37  N   UNL     1       8.579   1.101  -2.902  1.00  0.00    -0.370 N 
ATOM     38  N   UNL     1       6.999   2.225  -1.808  1.00  0.00    -0.370 N 
ATOM     39  H   UNL     1       8.987   0.767  -3.765  1.00  0.00     0.159 HD
ATOM     40  H   UNL     1       8.907   0.715  -2.034  1.00  0.00     0.159 HD
ATOM     41  H   UNL     1       7.536   2.078  -0.969  1.00  0.00     0.159 HD
ATOM     42  H   UNL     1       6.177   2.804  -1.738  1.00  0.00     0.159 HD
ENDBRANCH  34  35
ENDBRANCH  33  34
ENDBRANCH  32  33
ENDBRANCH   6  32
ENDBRANCH   4   6
ENDBRANCH   1   2
BRANCH   1  43
ATOM     43  C   UNL     1       0.245   4.648  -2.378  1.00  0.00     0.102 C 
ATOM     44  C   UNL     1      -1.112   5.121  -1.829  1.00  0.00     0.020 C 
BRANCH  43  45
ATOM     45  C   UNL     1       0.174   3.335  -3.163  1.00  0.00     0.225 C 
ATOM     46  O   UNL     1      -0.584   2.416  -2.867  1.00  0.00    -0.275 OA
ATOM     47  N   UNL     1       1.091   3.204  -4.181  1.00  0.00    -0.342 N 
ATOM     48  H   UNL     1       1.597   4.015  -4.506  1.00  0.00     0.164 HD
BRANCH  47  49
ATOM     49  C   UNL     1       1.117   2.016  -5.040  1.00  0.00     0.192 C 
BRANCH  49  50
ATOM     50  C   UNL     1       2.408   1.231  -4.793  1.00  0.00     0.047 C 
BRANCH  50  51
ATOM     51  C   UNL     1       2.201  -0.285  -4.920  1.00  0.00     0.103 C 
BRANCH  51  52
ATOM     52  C   UNL     1       1.148  -0.804  -3.942  1.00  0.00     0.226 C 
ATOM     53  O   UNL     1       1.373  -0.773  -2.731  1.00  0.00    -0.275 OA
BRANCH  52  54
ATOM     54  N   UNL     1      -0.073  -1.225  -4.501  1.00  0.00    -0.311 N 
ATOM     55  C   UNL     1      -1.343  -1.000  -3.799  1.00  0.00     0.153 C 
BRANCH  54  56
ATOM     56  C   UNL     1      -0.124  -1.868  -5.749  1.00  0.00     0.102 C 
ATOM     57  C   UNL     1      -0.681  -1.353  -6.857  1.00  0.00     0.043 C 
BRANCH  56  58
ATOM     58  C   UNL     1       0.512  -3.224  -5.948  1.00  0.00     0.268 C 
ATOM     59  O   UNL     1       1.374  -3.442  -6.789  1.00  0.00    -0.268 OA
ATOM     60  N   UNL     1       0.073  -4.165  -5.048  1.00  0.00    -0.339 N 
ATOM     61  H   UNL     1      -0.652  -3.907  -4.388  1.00  0.00     0.164 HD
BRANCH  60  62
ATOM     62  C   UNL     1       0.604  -5.527  -5.022  1.00  0.00     0.168 CG0
ATOM     63  C   UNL     1       1.751  -5.648  -4.026  1.00  0.00     0.041 C 
ATOM     64  G   UNL     1       1.067  -5.927  -6.438  1.00  0.00     0.000 G0
ENDBRANCH  60  62
ENDBRANCH  56  58
ENDBRANCH  54  56
ENDBRANCH  52  54
ENDBRANCH  51  52
ENDBRANCH  50  51
ENDBRANCH  49  50
BRANCH  49  65
ATOM     65  C   UNL     1       1.027   2.390  -6.528  1.00  0.00     0.326 C 
ATOM     66  O   UNL     1       0.012   2.354  -7.209  1.00  0.00    -0.250 OA
BRANCH  65  67
ATOM     67  O   UNL     1       2.205   2.728  -7.097  1.00  0.00    -0.480 OA
ATOM     68  H   UNL     1       2.373   1.998  -7.731  1.00  0.00     0.296 HD
ENDBRANCH  65  67
ENDBRANCH  49  65
ENDBRANCH  47  49
ENDBRANCH  43  45
ENDBRANCH   1  43
BRANCH   1  69
ATOM     69  C   UNL     1       1.088   5.181   0.074  1.00  0.00    -0.001 C 
ATOM     70  C   UNL     1       1.047   4.527   1.248  1.00  0.00     0.001 C 
BRANCH  70  71
ATOM     71  C   UNL     1       0.801   5.108   2.570  1.00  0.00    -0.055 C 
ATOM     72  C   UNL     1       1.863   5.584   3.254  1.00  0.00    -0.018 C 
ATOM     73  C   UNL     1      -0.620   5.141   3.069  1.00  0.00     0.044 C 
BRANCH  72  74
ATOM     74  C   UNL     1       1.909   6.236   4.628  1.00  0.00     0.038 C 
ATOM     75  C   UNL     1       1.998   7.751   4.408  1.00  0.00     0.015 C 
BRANCH  74  76
ATOM     76  C   UNL     1       3.093   5.623   5.434  1.00  0.00     0.128 C 
BRANCH  76  77
ATOM     77  O   UNL     1       4.311   5.733   4.677  1.00  0.00    -0.381 OA
ATOM     78  C   UNL     1       5.327   6.477   5.336  1.00  0.00     0.195 C 
ENDBRANCH  76  77
BRANCH  76  79
ATOM     79  C   UNL     1       3.230   6.179   6.873  1.00  0.00     0.068 C 
BRANCH  79  80
ATOM     80  C   UNL     1       2.051   6.029   7.804  1.00  0.00    -0.045 A 
ATOM     81  C   UNL     1       1.708   7.046   8.705  1.00  0.00     0.004 A 
ATOM     82  C   UNL     1       1.292   4.849   7.800  1.00  0.00     0.004 A 
ATOM     83  C   UNL     1       0.624   6.894   9.572  1.00  0.00     0.000 A 
ATOM     84  C   UNL     1       0.208   4.698   8.668  1.00  0.00     0.000 A 
ATOM     85  C   UNL     1      -0.126   5.721   9.553  1.00  0.00     0.000 A 
ENDBRANCH  79  80
ENDBRANCH  76  79
ENDBRANCH  74  76
ENDBRANCH  72  74
ENDBRANCH  70  71
ENDBRANCH   1  69
TORSDOF 17
ENDMDL
MODEL 26
REMARK VINA RESULT:    -5.513      3.142     12.442
REMARK INTER + INTRA:         -25.619
REMARK INTER:                 -17.582
REMARK INTRA:                  -8.037
REMARK UNBOUND:                -9.148
REMARK SMILES C=C1C(=O)N[C@H](C)C(=O)N[C@@H](CC(C)C)C(=O)N[C@@H](C(=O)O)[C@H](C)C(=O)N[C@@H](CCCN=C(N)N)C(=O)N[C@@H](/C=C/C(C)=C/[C@H](C)[C@H](Cc2ccccc2)OC)[C@H](C)C(=O)N[C@@H](C(=O)O)CCC(=O)N1C
REMARK SMILES IDX 39 1 38 2 37 3 36 4 28 6 27 7 25 8 26 9 23 11 24 12 19 13
REMARK SMILES IDX 18 14 16 15 17 16 11 18 10 19 8 20 9 21 12 24 13 25 14 26
REMARK SMILES IDX 15 27 20 28 21 29 22 30 29 32 30 33 31 34 32 35 33 36 34 37
REMARK SMILES IDX 35 38 57 43 58 44 59 45 60 46 61 47 62 49 66 50 67 51 68 52
REMARK SMILES IDX 69 53 70 54 71 55 2 56 1 57 3 58 4 59 5 60 6 62 7 63 63 65
REMARK SMILES IDX 64 66 65 67 40 69 41 70 42 71 44 72 43 73 45 74 46 75 47 76
REMARK SMILES IDX 55 77 56 78 48 79 49 80 50 81 54 82 51 83 53 84 52 85
REMARK H PARENT 38 5 27 10 18 17 10 22 22 31 34 39 34 40 35 41 35 42 61 48
REMARK H PARENT 5 61 65 68
REMARK Flexibility Score:  369.900
ROOT
ATOM      1  C   UNL     1       4.362   5.828  -0.656  1.00  0.00     0.117 C 
ENDROOT
BRANCH   1   2
ATOM      2  N   UNL     1       3.423   5.258   0.311  1.00  0.00    -0.347 N 
ATOM      3  O   UNL     1       1.486   6.069  -0.617  1.00  0.00    -0.273 OA
ATOM      4  C   UNL     1       2.049   5.349   0.201  1.00  0.00     0.243 C 
ATOM      5  H   UNL     1       3.778   4.720   1.087  1.00  0.00     0.164 HD
BRANCH   4   6
ATOM      6  C   UNL     1       1.283   4.585   1.311  1.00  0.00     0.171 C 
BRANCH   6   7
ATOM      7  N   UNL     1       1.084   5.448   2.486  1.00  0.00    -0.344 N 
ATOM      8  C   UNL     1       1.204   4.939   3.761  1.00  0.00     0.226 C 
ATOM      9  O   UNL     1       1.454   3.760   3.980  1.00  0.00    -0.275 OA
ATOM     10  H   UNL     1       0.810   6.413   2.346  1.00  0.00     0.164 HD
BRANCH   8  11
ATOM     11  C   UNL     1       1.024   5.966   4.865  1.00  0.00     0.109 C 
ATOM     12  C   UNL     1      -0.378   6.571   4.797  1.00  0.00     0.021 C 
BRANCH  11  13
ATOM     13  C   UNL     1       1.396   5.341   6.224  1.00  0.00     0.204 C 
BRANCH  13  14
ATOM     14  N   UNL     1       2.295   6.202   6.999  1.00  0.00    -0.340 N 
ATOM     15  C   UNL     1       3.600   5.860   7.281  1.00  0.00     0.243 C 
ATOM     16  O   UNL     1       4.121   4.833   6.849  1.00  0.00    -0.273 OA
ATOM     17  H   UNL     1       1.885   6.988   7.511  1.00  0.00     0.164 HD
BRANCH  15  18
ATOM     18  C   UNL     1       4.288   6.818   8.284  1.00  0.00     0.171 C 
BRANCH  18  19
ATOM     19  N   UNL     1       4.682   6.008   9.435  1.00  0.00    -0.343 N 
ATOM     20  C   UNL     1       4.322   6.350  10.724  1.00  0.00     0.242 CG0
ATOM     21  O   UNL     1       3.770   7.418  10.976  1.00  0.00    -0.273 OA
ATOM     22  H   UNL     1       5.239   5.174   9.289  1.00  0.00     0.164 HD
ATOM     23  G   UNL     1       4.760   5.333  11.798  1.00  0.00     0.000 G0
ENDBRANCH  18  19
BRANCH  18  24
ATOM     24  C   UNL     1       5.499   7.501   7.636  1.00  0.00     0.038 C 
BRANCH  24  25
ATOM     25  C   UNL     1       5.487   9.042   7.711  1.00  0.00    -0.015 C 
ATOM     26  C   UNL     1       5.873   9.564   9.095  1.00  0.00     0.007 C 
ATOM     27  C   UNL     1       4.098   9.565   7.333  1.00  0.00     0.007 C 
ENDBRANCH  24  25
ENDBRANCH  18  24
ENDBRANCH  15  18
ENDBRANCH  13  14
BRANCH  13  28
ATOM     28  C   UNL     1       0.179   5.046   7.106  1.00  0.00     0.327 C 
ATOM     29  O   UNL     1      -0.610   4.124   6.963  1.00  0.00    -0.250 OA
BRANCH  28  30
ATOM     30  O   UNL     1      -0.040   5.994   8.040  1.00  0.00    -0.480 OA
ATOM     31  H   UNL     1      -0.314   5.490   8.834  1.00  0.00     0.296 HD
ENDBRANCH  28  30
ENDBRANCH  13  28
ENDBRANCH  11  13
ENDBRANCH   8  11
ENDBRANCH   6   7
BRANCH   6  32
ATOM     32  C   UNL     1      -0.061   4.101   0.754  1.00  0.00     0.037 C 
BRANCH  32  33
ATOM     33  C   UNL     1       0.030   2.684   0.172  1.00  0.00     0.026 C 
BRANCH  33  34
ATOM     34  C   UNL     1      -0.556   1.628   1.110  1.00  0.00     0.146 C 
BRANCH  34  35
ATOM     35  N   UNL     1      -0.949   2.272   2.356  1.00  0.00    -0.254 NA
ATOM     36  C   UNL     1      -0.888   1.597   3.443  1.00  0.00     0.185 C 
ATOM     37  N   UNL     1      -1.244   2.183   4.597  1.00  0.00    -0.370 N 
ATOM     38  N   UNL     1      -0.501   0.322   3.625  1.00  0.00    -0.370 N 
ATOM     39  H   UNL     1      -1.538   3.150   4.544  1.00  0.00     0.159 HD
ATOM     40  H   UNL     1      -1.061   1.784   5.502  1.00  0.00     0.159 HD
ATOM     41  H   UNL     1      -0.630  -0.140   4.510  1.00  0.00     0.159 HD
ATOM     42  H   UNL     1      -0.222  -0.246   2.840  1.00  0.00     0.159 HD
ENDBRANCH  34  35
ENDBRANCH  33  34
ENDBRANCH  32  33
ENDBRANCH   6  32
ENDBRANCH   4   6
ENDBRANCH   1   2
BRANCH   1  43
ATOM     43  C   UNL     1       4.928   4.676  -1.535  1.00  0.00     0.102 C 
ATOM     44  C   UNL     1       5.395   3.458  -0.720  1.00  0.00     0.020 C 
BRANCH  43  45
ATOM     45  C   UNL     1       5.973   5.201  -2.523  1.00  0.00     0.225 C 
ATOM     46  O   UNL     1       5.704   5.975  -3.437  1.00  0.00    -0.275 OA
ATOM     47  N   UNL     1       7.237   4.674  -2.384  1.00  0.00    -0.342 N 
ATOM     48  H   UNL     1       7.477   4.163  -1.546  1.00  0.00     0.164 HD
BRANCH  47  49
ATOM     49  C   UNL     1       8.347   5.110  -3.237  1.00  0.00     0.192 C 
BRANCH  49  50
ATOM     50  C   UNL     1       9.141   3.890  -3.712  1.00  0.00     0.047 C 
BRANCH  50  51
ATOM     51  C   UNL     1       8.243   2.830  -4.366  1.00  0.00     0.103 C 
BRANCH  51  52
ATOM     52  C   UNL     1       8.198   2.976  -5.886  1.00  0.00     0.226 C 
ATOM     53  O   UNL     1       8.875   2.224  -6.590  1.00  0.00    -0.275 OA
BRANCH  52  54
ATOM     54  N   UNL     1       7.306   3.936  -6.397  1.00  0.00    -0.311 N 
ATOM     55  C   UNL     1       5.858   3.815  -6.178  1.00  0.00     0.153 C 
BRANCH  54  56
ATOM     56  C   UNL     1       7.763   5.044  -7.130  1.00  0.00     0.102 C 
ATOM     57  C   UNL     1       8.873   5.745  -6.850  1.00  0.00     0.043 C 
BRANCH  56  58
ATOM     58  C   UNL     1       7.028   5.514  -8.363  1.00  0.00     0.268 C 
ATOM     59  O   UNL     1       6.873   4.818  -9.357  1.00  0.00    -0.268 OA
ATOM     60  N   UNL     1       6.497   6.775  -8.227  1.00  0.00    -0.339 N 
ATOM     61  H   UNL     1       6.679   7.291  -7.375  1.00  0.00     0.164 HD
BRANCH  60  62
ATOM     62  C   UNL     1       5.694   7.399  -9.278  1.00  0.00     0.168 CG0
ATOM     63  C   UNL     1       4.205   7.238  -8.997  1.00  0.00     0.041 C 
ATOM     64  G   UNL     1       6.061   6.783 -10.644  1.00  0.00     0.000 G0
ENDBRANCH  60  62
ENDBRANCH  56  58
ENDBRANCH  54  56
ENDBRANCH  52  54
ENDBRANCH  51  52
ENDBRANCH  50  51
ENDBRANCH  49  50
BRANCH  49  65
ATOM     65  C   UNL     1       9.288   6.071  -2.494  1.00  0.00     0.326 C 
ATOM     66  O   UNL     1       9.625   5.973  -1.323  1.00  0.00    -0.250 OA
BRANCH  65  67
ATOM     67  O   UNL     1       9.707   7.128  -3.226  1.00  0.00    -0.480 OA
ATOM     68  H   UNL     1      10.651   6.928  -3.402  1.00  0.00     0.296 HD
ENDBRANCH  65  67
ENDBRANCH  49  65
ENDBRANCH  47  49
ENDBRANCH  43  45
ENDBRANCH   1  43
BRANCH   1  69
ATOM     69  C   UNL     1       5.328   6.683   0.144  1.00  0.00    -0.001 C 
ATOM     70  C   UNL     1       5.826   7.886  -0.193  1.00  0.00     0.001 C 
BRANCH  70  71
ATOM     71  C   UNL     1       6.742   8.711   0.597  1.00  0.00    -0.055 C 
ATOM     72  C   UNL     1       6.320   9.940   0.965  1.00  0.00    -0.018 C 
ATOM     73  C   UNL     1       8.085   8.129   0.951  1.00  0.00     0.044 C 
BRANCH  72  74
ATOM     74  C   UNL     1       7.044  11.002   1.779  1.00  0.00     0.038 C 
ATOM     75  C   UNL     1       8.123  11.609   0.875  1.00  0.00     0.015 C 
BRANCH  74  76
ATOM     76  C   UNL     1       7.580  10.351   3.088  1.00  0.00     0.128 C 
BRANCH  76  77
ATOM     77  O   UNL     1       8.589  11.190   3.677  1.00  0.00    -0.381 OA
ATOM     78  C   UNL     1       8.065  12.204   4.524  1.00  0.00     0.195 C 
ENDBRANCH  76  77
BRANCH  76  79
ATOM     79  C   UNL     1       6.470   9.953   4.094  1.00  0.00     0.068 C 
BRANCH  79  80
ATOM     80  C   UNL     1       5.899   8.559   4.002  1.00  0.00    -0.045 A 
ATOM     81  C   UNL     1       6.717   7.432   4.162  1.00  0.00     0.004 A 
ATOM     82  C   UNL     1       4.537   8.369   3.725  1.00  0.00     0.004 A 
ATOM     83  C   UNL     1       6.184   6.145   4.062  1.00  0.00     0.000 A 
ATOM     84  C   UNL     1       4.005   7.081   3.624  1.00  0.00     0.000 A 
ATOM     85  C   UNL     1       4.828   5.970   3.794  1.00  0.00     0.000 A 
ENDBRANCH  79  80
ENDBRANCH  76  79
ENDBRANCH  74  76
ENDBRANCH  72  74
ENDBRANCH  70  71
ENDBRANCH   1  69
TORSDOF 17
ENDMDL
MODEL 27
REMARK VINA RESULT:    -5.481      2.112      3.683
REMARK INTER + INTRA:         -25.524
REMARK INTER:                 -17.799
REMARK INTRA:                  -7.726
REMARK UNBOUND:                -9.148
REMARK SMILES C=C1C(=O)N[C@H](C)C(=O)N[C@@H](CC(C)C)C(=O)N[C@@H](C(=O)O)[C@H](C)C(=O)N[C@@H](CCCN=C(N)N)C(=O)N[C@@H](/C=C/C(C)=C/[C@H](C)[C@H](Cc2ccccc2)OC)[C@H](C)C(=O)N[C@@H](C(=O)O)CCC(=O)N1C
REMARK SMILES IDX 39 1 38 2 37 3 36 4 28 6 27 7 25 8 26 9 23 11 24 12 19 13
REMARK SMILES IDX 18 14 16 15 17 16 11 18 10 19 8 20 9 21 12 24 13 25 14 26
REMARK SMILES IDX 15 27 20 28 21 29 22 30 29 32 30 33 31 34 32 35 33 36 34 37
REMARK SMILES IDX 35 38 57 43 58 44 59 45 60 46 61 47 62 49 66 50 67 51 68 52
REMARK SMILES IDX 69 53 70 54 71 55 2 56 1 57 3 58 4 59 5 60 6 62 7 63 63 65
REMARK SMILES IDX 64 66 65 67 40 69 41 70 42 71 44 72 43 73 45 74 46 75 47 76
REMARK SMILES IDX 55 77 56 78 48 79 49 80 50 81 54 82 51 83 53 84 52 85
REMARK H PARENT 38 5 27 10 18 17 10 22 22 31 34 39 34 40 35 41 35 42 61 48
REMARK H PARENT 5 61 65 68
REMARK Flexibility Score:  369.900
ROOT
ATOM      1  C   UNL     1       4.120   7.186  -1.709  1.00  0.00     0.117 C 
ENDROOT
BRANCH   1   2
ATOM      2  N   UNL     1       5.181   6.177  -1.715  1.00  0.00    -0.347 N 
ATOM      3  O   UNL     1       5.238   5.798  -3.978  1.00  0.00    -0.273 OA
ATOM      4  C   UNL     1       5.720   5.629  -2.863  1.00  0.00     0.243 C 
ATOM      5  H   UNL     1       5.592   5.887  -0.841  1.00  0.00     0.164 HD
BRANCH   4   6
ATOM      6  C   UNL     1       6.890   4.649  -2.595  1.00  0.00     0.171 C 
BRANCH   6   7
ATOM      7  N   UNL     1       7.719   4.496  -3.801  1.00  0.00    -0.344 N 
ATOM      8  C   UNL     1       8.078   3.245  -4.254  1.00  0.00     0.226 C 
ATOM      9  O   UNL     1       7.752   2.215  -3.676  1.00  0.00    -0.275 OA
ATOM     10  H   UNL     1       8.065   5.326  -4.267  1.00  0.00     0.164 HD
BRANCH   8  11
ATOM     11  C   UNL     1       8.888   3.254  -5.539  1.00  0.00     0.109 C 
ATOM     12  C   UNL     1      10.374   3.080  -5.225  1.00  0.00     0.021 C 
BRANCH  11  13
ATOM     13  C   UNL     1       8.309   2.221  -6.527  1.00  0.00     0.204 C 
BRANCH  13  14
ATOM     14  N   UNL     1       6.843   2.206  -6.512  1.00  0.00    -0.340 N 
ATOM     15  C   UNL     1       6.104   1.078  -6.798  1.00  0.00     0.243 C 
ATOM     16  O   UNL     1       6.624  -0.012  -7.027  1.00  0.00    -0.273 OA
ATOM     17  H   UNL     1       6.353   3.104  -6.481  1.00  0.00     0.164 HD
BRANCH  15  18
ATOM     18  C   UNL     1       4.585   1.351  -6.926  1.00  0.00     0.171 C 
BRANCH  18  19
ATOM     19  N   UNL     1       4.219   1.041  -8.307  1.00  0.00    -0.343 N 
ATOM     20  C   UNL     1       4.638   1.824  -9.365  1.00  0.00     0.242 CG0
ATOM     21  O   UNL     1       5.224   2.889  -9.185  1.00  0.00    -0.273 OA
ATOM     22  H   UNL     1       3.636   0.234  -8.498  1.00  0.00     0.164 HD
ATOM     23  G   UNL     1       4.219   1.296 -10.753  1.00  0.00     0.000 G0
ENDBRANCH  18  19
BRANCH  18  24
ATOM     24  C   UNL     1       3.795   0.493  -5.930  1.00  0.00     0.038 C 
BRANCH  24  25
ATOM     25  C   UNL     1       2.789   1.277  -5.061  1.00  0.00    -0.015 C 
ATOM     26  C   UNL     1       1.416   1.400  -5.722  1.00  0.00     0.007 C 
ATOM     27  C   UNL     1       3.344   2.672  -4.762  1.00  0.00     0.007 C 
ENDBRANCH  24  25
ENDBRANCH  18  24
ENDBRANCH  15  18
ENDBRANCH  13  14
BRANCH  13  28
ATOM     28  C   UNL     1       8.746   2.461  -7.975  1.00  0.00     0.327 C 
ATOM     29  O   UNL     1       9.585   1.823  -8.592  1.00  0.00    -0.250 OA
BRANCH  28  30
ATOM     30  O   UNL     1       8.189   3.561  -8.520  1.00  0.00    -0.480 OA
ATOM     31  H   UNL     1       8.783   3.789  -9.266  1.00  0.00     0.296 HD
ENDBRANCH  28  30
ENDBRANCH  13  28
ENDBRANCH  11  13
ENDBRANCH   8  11
ENDBRANCH   6   7
BRANCH   6  32
ATOM     32  C   UNL     1       7.723   5.169  -1.419  1.00  0.00     0.037 C 
BRANCH  32  33
ATOM     33  C   UNL     1       8.789   6.179  -1.867  1.00  0.00     0.026 C 
BRANCH  33  34
ATOM     34  C   UNL     1       9.073   7.240  -0.802  1.00  0.00     0.146 C 
BRANCH  34  35
ATOM     35  N   UNL     1       8.469   8.498  -1.219  1.00  0.00    -0.254 NA
ATOM     36  C   UNL     1       7.929   9.245  -0.329  1.00  0.00     0.185 C 
ATOM     37  N   UNL     1       7.374  10.408  -0.701  1.00  0.00    -0.370 N 
ATOM     38  N   UNL     1       7.824   9.039   0.996  1.00  0.00    -0.370 N 
ATOM     39  H   UNL     1       7.422  10.640  -1.685  1.00  0.00     0.159 HD
ATOM     40  H   UNL     1       7.090  11.122  -0.052  1.00  0.00     0.159 HD
ATOM     41  H   UNL     1       7.253   9.636   1.572  1.00  0.00     0.159 HD
ATOM     42  H   UNL     1       8.184   8.195   1.414  1.00  0.00     0.159 HD
ENDBRANCH  34  35
ENDBRANCH  33  34
ENDBRANCH  32  33
ENDBRANCH   6  32
ENDBRANCH   4   6
ENDBRANCH   1   2
BRANCH   1  43
ATOM     43  C   UNL     1       3.759   7.516  -0.232  1.00  0.00     0.102 C 
ATOM     44  C   UNL     1       4.175   8.933   0.198  1.00  0.00     0.020 C 
BRANCH  43  45
ATOM     45  C   UNL     1       4.246   6.413   0.713  1.00  0.00     0.225 C 
ATOM     46  O   UNL     1       3.927   5.234   0.589  1.00  0.00    -0.275 OA
ATOM     47  N   UNL     1       5.000   6.839   1.783  1.00  0.00    -0.342 N 
ATOM     48  H   UNL     1       5.377   7.776   1.787  1.00  0.00     0.164 HD
BRANCH  47  49
ATOM     49  C   UNL     1       5.564   5.891   2.749  1.00  0.00     0.192 C 
BRANCH  49  50
ATOM     50  C   UNL     1       5.008   6.188   4.144  1.00  0.00     0.047 C 
BRANCH  50  51
ATOM     51  C   UNL     1       4.237   4.997   4.729  1.00  0.00     0.103 C 
BRANCH  51  52
ATOM     52  C   UNL     1       2.729   5.139   4.533  1.00  0.00     0.226 C 
ATOM     53  O   UNL     1       2.231   4.891   3.434  1.00  0.00    -0.275 OA
BRANCH  52  54
ATOM     54  N   UNL     1       1.978   5.481   5.673  1.00  0.00    -0.311 N 
ATOM     55  C   UNL     1       1.171   4.475   6.377  1.00  0.00     0.153 C 
BRANCH  54  56
ATOM     56  C   UNL     1       1.976   6.789   6.184  1.00  0.00     0.102 C 
ATOM     57  C   UNL     1       1.610   7.883   5.495  1.00  0.00     0.043 C 
BRANCH  56  58
ATOM     58  C   UNL     1       2.361   7.062   7.619  1.00  0.00     0.268 C 
ATOM     59  O   UNL     1       1.556   7.407   8.474  1.00  0.00    -0.268 OA
ATOM     60  N   UNL     1       3.689   6.819   7.878  1.00  0.00    -0.339 N 
ATOM     61  H   UNL     1       4.292   6.546   7.112  1.00  0.00     0.164 HD
BRANCH  60  62
ATOM     62  C   UNL     1       4.259   6.959   9.217  1.00  0.00     0.168 CG0
ATOM     63  C   UNL     1       4.373   5.606   9.907  1.00  0.00     0.041 C 
ATOM     64  G   UNL     1       3.392   7.925  10.050  1.00  0.00     0.000 G0
ENDBRANCH  60  62
ENDBRANCH  56  58
ENDBRANCH  54  56
ENDBRANCH  52  54
ENDBRANCH  51  52
ENDBRANCH  50  51
ENDBRANCH  49  50
BRANCH  49  65
ATOM     65  C   UNL     1       7.098   5.965   2.785  1.00  0.00     0.326 C 
ATOM     66  O   UNL     1       7.755   6.940   3.118  1.00  0.00    -0.250 OA
BRANCH  65  67
ATOM     67  O   UNL     1       7.726   4.850   2.352  1.00  0.00    -0.480 OA
ATOM     68  H   UNL     1       7.382   4.729   1.441  1.00  0.00     0.296 HD
ENDBRANCH  65  67
ENDBRANCH  49  65
ENDBRANCH  47  49
ENDBRANCH  43  45
ENDBRANCH   1  43
BRANCH   1  69
ATOM     69  C   UNL     1       3.033   6.663  -2.630  1.00  0.00    -0.001 C 
ATOM     70  C   UNL     1       1.807   7.181  -2.824  1.00  0.00     0.001 C 
BRANCH  70  71
ATOM     71  C   UNL     1       0.774   6.680  -3.732  1.00  0.00    -0.055 C 
ATOM     72  C   UNL     1       1.026   5.534  -4.399  1.00  0.00    -0.018 C 
ATOM     73  C   UNL     1      -0.501   7.474  -3.852  1.00  0.00     0.044 C 
BRANCH  72  74
ATOM     74  C   UNL     1       0.150   4.785  -5.392  1.00  0.00     0.038 C 
ATOM     75  C   UNL     1       0.139   5.600  -6.691  1.00  0.00     0.015 C 
BRANCH  74  76
ATOM     76  C   UNL     1      -1.252   4.558  -4.752  1.00  0.00     0.128 C 
BRANCH  76  77
ATOM     77  O   UNL     1      -2.252   4.468  -5.781  1.00  0.00    -0.381 OA
ATOM     78  C   UNL     1      -3.336   3.610  -5.450  1.00  0.00     0.195 C 
ENDBRANCH  76  77
BRANCH  76  79
ATOM     79  C   UNL     1      -1.305   3.370  -3.758  1.00  0.00     0.068 C 
BRANCH  79  80
ATOM     80  C   UNL     1      -0.554   3.504  -2.456  1.00  0.00    -0.045 A 
ATOM     81  C   UNL     1      -1.017   4.351  -1.440  1.00  0.00     0.004 A 
ATOM     82  C   UNL     1       0.641   2.799  -2.253  1.00  0.00     0.004 A 
ATOM     83  C   UNL     1      -0.309   4.480  -0.243  1.00  0.00     0.000 A 
ATOM     84  C   UNL     1       1.349   2.929  -1.056  1.00  0.00     0.000 A 
ATOM     85  C   UNL     1       0.873   3.768  -0.051  1.00  0.00     0.000 A 
ENDBRANCH  79  80
ENDBRANCH  76  79
ENDBRANCH  74  76
ENDBRANCH  72  74
ENDBRANCH  70  71
ENDBRANCH   1  69
TORSDOF 17
ENDMDL
MODEL 28
REMARK VINA RESULT:    -5.432      3.308      7.584
REMARK INTER + INTRA:         -25.378
REMARK INTER:                 -17.461
REMARK INTRA:                  -7.916
REMARK UNBOUND:                -9.148
REMARK SMILES C=C1C(=O)N[C@H](C)C(=O)N[C@@H](CC(C)C)C(=O)N[C@@H](C(=O)O)[C@H](C)C(=O)N[C@@H](CCCN=C(N)N)C(=O)N[C@@H](/C=C/C(C)=C/[C@H](C)[C@H](Cc2ccccc2)OC)[C@H](C)C(=O)N[C@@H](C(=O)O)CCC(=O)N1C
REMARK SMILES IDX 39 1 38 2 37 3 36 4 28 6 27 7 25 8 26 9 23 11 24 12 19 13
REMARK SMILES IDX 18 14 16 15 17 16 11 18 10 19 8 20 9 21 12 24 13 25 14 26
REMARK SMILES IDX 15 27 20 28 21 29 22 30 29 32 30 33 31 34 32 35 33 36 34 37
REMARK SMILES IDX 35 38 57 43 58 44 59 45 60 46 61 47 62 49 66 50 67 51 68 52
REMARK SMILES IDX 69 53 70 54 71 55 2 56 1 57 3 58 4 59 5 60 6 62 7 63 63 65
REMARK SMILES IDX 64 66 65 67 40 69 41 70 42 71 44 72 43 73 45 74 46 75 47 76
REMARK SMILES IDX 55 77 56 78 48 79 49 80 50 81 54 82 51 83 53 84 52 85
REMARK H PARENT 38 5 27 10 18 17 10 22 22 31 34 39 34 40 35 41 35 42 61 48
REMARK H PARENT 5 61 65 68
REMARK Flexibility Score:  369.900
ROOT
ATOM      1  C   UNL     1       5.809   6.639   2.809  1.00  0.00     0.117 C 
ENDROOT
BRANCH   1   2
ATOM      2  N   UNL     1       5.793   5.993   1.496  1.00  0.00    -0.347 N 
ATOM      3  O   UNL     1       5.410   7.868   0.229  1.00  0.00    -0.273 OA
ATOM      4  C   UNL     1       5.685   6.675   0.300  1.00  0.00     0.243 C 
ATOM      5  H   UNL     1       5.916   4.993   1.436  1.00  0.00     0.164 HD
BRANCH   4   6
ATOM      6  C   UNL     1       5.781   5.762  -0.949  1.00  0.00     0.171 C 
BRANCH   6   7
ATOM      7  N   UNL     1       4.581   5.911  -1.788  1.00  0.00    -0.344 N 
ATOM      8  C   UNL     1       3.509   5.058  -1.640  1.00  0.00     0.226 C 
ATOM      9  O   UNL     1       3.507   4.135  -0.834  1.00  0.00    -0.275 OA
ATOM     10  H   UNL     1       4.573   6.620  -2.511  1.00  0.00     0.164 HD
BRANCH   8  11
ATOM     11  C   UNL     1       2.328   5.375  -2.539  1.00  0.00     0.109 C 
ATOM     12  C   UNL     1       1.279   6.176  -1.768  1.00  0.00     0.021 C 
BRANCH  11  13
ATOM     13  C   UNL     1       2.825   6.041  -3.838  1.00  0.00     0.204 C 
BRANCH  13  14
ATOM     14  N   UNL     1       3.282   5.055  -4.823  1.00  0.00    -0.340 N 
ATOM     15  C   UNL     1       4.601   4.932  -5.202  1.00  0.00     0.243 C 
ATOM     16  O   UNL     1       5.499   5.600  -4.694  1.00  0.00    -0.273 OA
ATOM     17  H   UNL     1       2.574   4.579  -5.389  1.00  0.00     0.164 HD
BRANCH  15  18
ATOM     18  C   UNL     1       4.813   3.974  -6.401  1.00  0.00     0.171 C 
BRANCH  18  19
ATOM     19  N   UNL     1       3.523   3.341  -6.664  1.00  0.00    -0.343 N 
ATOM     20  C   UNL     1       3.378   1.967  -6.698  1.00  0.00     0.242 CG0
ATOM     21  O   UNL     1       4.350   1.217  -6.640  1.00  0.00    -0.273 OA
ATOM     22  H   UNL     1       2.709   3.921  -6.833  1.00  0.00     0.164 HD
ATOM     23  G   UNL     1       1.929   1.484  -6.911  1.00  0.00     0.000 G0
ENDBRANCH  18  19
BRANCH  18  24
ATOM     24  C   UNL     1       5.321   4.745  -7.625  1.00  0.00     0.038 C 
BRANCH  24  25
ATOM     25  C   UNL     1       6.839   4.622  -7.880  1.00  0.00    -0.015 C 
ATOM     26  C   UNL     1       7.471   3.466  -7.104  1.00  0.00     0.007 C 
ATOM     27  C   UNL     1       7.532   5.934  -7.505  1.00  0.00     0.007 C 
ENDBRANCH  24  25
ENDBRANCH  18  24
ENDBRANCH  15  18
ENDBRANCH  13  14
BRANCH  13  28
ATOM     28  C   UNL     1       1.760   6.905  -4.520  1.00  0.00     0.327 C 
ATOM     29  O   UNL     1       0.804   6.499  -5.164  1.00  0.00    -0.250 OA
BRANCH  28  30
ATOM     30  O   UNL     1       2.026   8.225  -4.451  1.00  0.00    -0.480 OA
ATOM     31  H   UNL     1       1.643   8.504  -3.594  1.00  0.00     0.296 HD
ENDBRANCH  28  30
ENDBRANCH  13  28
ENDBRANCH  11  13
ENDBRANCH   8  11
ENDBRANCH   6   7
BRANCH   6  32
ATOM     32  C   UNL     1       7.047   6.117  -1.736  1.00  0.00     0.037 C 
BRANCH  32  33
ATOM     33  C   UNL     1       7.813   4.869  -2.196  1.00  0.00     0.026 C 
BRANCH  33  34
ATOM     34  C   UNL     1       7.137   3.571  -1.750  1.00  0.00     0.146 C 
BRANCH  34  35
ATOM     35  N   UNL     1       6.511   2.946  -2.907  1.00  0.00    -0.254 NA
ATOM     36  C   UNL     1       7.001   1.850  -3.354  1.00  0.00     0.185 C 
ATOM     37  N   UNL     1       6.428   1.263  -4.416  1.00  0.00    -0.370 N 
ATOM     38  N   UNL     1       8.057   1.151  -2.902  1.00  0.00    -0.370 N 
ATOM     39  H   UNL     1       5.618   1.724  -4.808  1.00  0.00     0.159 HD
ATOM     40  H   UNL     1       6.640   0.326  -4.715  1.00  0.00     0.159 HD
ATOM     41  H   UNL     1       8.430   0.375  -3.424  1.00  0.00     0.159 HD
ATOM     42  H   UNL     1       8.594   1.483  -2.116  1.00  0.00     0.159 HD
ENDBRANCH  34  35
ENDBRANCH  33  34
ENDBRANCH  32  33
ENDBRANCH   6  32
ENDBRANCH   4   6
ENDBRANCH   1   2
BRANCH   1  43
ATOM     43  C   UNL     1       7.289   6.906   3.211  1.00  0.00     0.102 C 
ATOM     44  C   UNL     1       7.655   6.350   4.598  1.00  0.00     0.020 C 
BRANCH  43  45
ATOM     45  C   UNL     1       7.654   8.380   3.016  1.00  0.00     0.225 C 
ATOM     46  O   UNL     1       8.726   8.859   3.376  1.00  0.00    -0.275 OA
ATOM     47  N   UNL     1       6.660   9.172   2.488  1.00  0.00    -0.342 N 
ATOM     48  H   UNL     1       5.852   8.742   2.061  1.00  0.00     0.164 HD
BRANCH  47  49
ATOM     49  C   UNL     1       6.880  10.595   2.213  1.00  0.00     0.192 C 
BRANCH  49  50
ATOM     50  C   UNL     1       5.568  11.363   2.395  1.00  0.00     0.047 C 
BRANCH  50  51
ATOM     51  C   UNL     1       4.443  10.471   2.938  1.00  0.00     0.103 C 
BRANCH  51  52
ATOM     52  C   UNL     1       4.010  10.887   4.343  1.00  0.00     0.226 C 
ATOM     53  O   UNL     1       2.916  11.430   4.508  1.00  0.00    -0.275 OA
BRANCH  52  54
ATOM     54  N   UNL     1       4.880  10.545   5.394  1.00  0.00    -0.311 N 
ATOM     55  C   UNL     1       5.144   9.140   5.731  1.00  0.00     0.153 C 
BRANCH  54  56
ATOM     56  C   UNL     1       5.532  11.530   6.155  1.00  0.00     0.102 C 
ATOM     57  C   UNL     1       6.614  12.218   5.756  1.00  0.00     0.043 C 
BRANCH  56  58
ATOM     58  C   UNL     1       5.010  11.931   7.514  1.00  0.00     0.268 C 
ATOM     59  O   UNL     1       3.875  11.680   7.896  1.00  0.00    -0.268 OA
ATOM     60  N   UNL     1       5.958  12.546   8.297  1.00  0.00    -0.339 N 
ATOM     61  H   UNL     1       6.873  12.727   7.902  1.00  0.00     0.164 HD
BRANCH  60  62
ATOM     62  C   UNL     1       5.683  12.960   9.672  1.00  0.00     0.168 CG0
ATOM     63  C   UNL     1       5.254  14.421   9.728  1.00  0.00     0.041 C 
ATOM     64  G   UNL     1       6.934  12.724  10.543  1.00  0.00     0.000 G0
ENDBRANCH  60  62
ENDBRANCH  56  58
ENDBRANCH  54  56
ENDBRANCH  52  54
ENDBRANCH  51  52
ENDBRANCH  50  51
ENDBRANCH  49  50
BRANCH  49  65
ATOM     65  C   UNL     1       7.409  10.821   0.788  1.00  0.00     0.326 C 
ATOM     66  O   UNL     1       8.485  11.324   0.501  1.00  0.00    -0.250 OA
BRANCH  65  67
ATOM     67  O   UNL     1       6.550  10.468  -0.195  1.00  0.00    -0.480 OA
ATOM     68  H   UNL     1       5.750  11.004  -0.006  1.00  0.00     0.296 HD
ENDBRANCH  65  67
ENDBRANCH  49  65
ENDBRANCH  47  49
ENDBRANCH  43  45
ENDBRANCH   1  43
BRANCH   1  69
ATOM     69  C   UNL     1       4.946   5.780   3.715  1.00  0.00    -0.001 C 
ATOM     70  C   UNL     1       3.723   6.069   4.193  1.00  0.00     0.001 C 
BRANCH  70  71
ATOM     71  C   UNL     1       2.891   5.222   5.050  1.00  0.00    -0.055 C 
ATOM     72  C   UNL     1       1.696   4.822   4.566  1.00  0.00    -0.018 C 
ATOM     73  C   UNL     1       3.430   4.850   6.407  1.00  0.00     0.044 C 
BRANCH  72  74
ATOM     74  C   UNL     1       0.635   3.948   5.221  1.00  0.00     0.038 C 
ATOM     75  C   UNL     1       0.125   2.977   4.149  1.00  0.00     0.015 C 
BRANCH  74  76
ATOM     76  C   UNL     1      -0.457   4.867   5.843  1.00  0.00     0.128 C 
BRANCH  76  77
ATOM     77  O   UNL     1      -1.736   4.578   5.253  1.00  0.00    -0.381 OA
ATOM     78  C   UNL     1      -2.352   5.706   4.646  1.00  0.00     0.195 C 
ENDBRANCH  76  77
BRANCH  76  79
ATOM     79  C   UNL     1      -0.492   4.843   7.392  1.00  0.00     0.068 C 
BRANCH  79  80
ATOM     80  C   UNL     1       0.192   5.967   8.132  1.00  0.00    -0.045 A 
ATOM     81  C   UNL     1       0.255   5.976   9.532  1.00  0.00     0.004 A 
ATOM     82  C   UNL     1       0.753   7.041   7.425  1.00  0.00     0.004 A 
ATOM     83  C   UNL     1       0.877   7.027  10.210  1.00  0.00     0.000 A 
ATOM     84  C   UNL     1       1.375   8.091   8.104  1.00  0.00     0.000 A 
ATOM     85  C   UNL     1       1.438   8.084   9.496  1.00  0.00     0.000 A 
ENDBRANCH  79  80
ENDBRANCH  76  79
ENDBRANCH  74  76
ENDBRANCH  72  74
ENDBRANCH  70  71
ENDBRANCH   1  69
TORSDOF 17
ENDMDL
MODEL 29
REMARK VINA RESULT:    -5.424      4.302      8.451
REMARK INTER + INTRA:         -25.352
REMARK INTER:                 -18.467
REMARK INTRA:                  -6.885
REMARK UNBOUND:                -9.148
REMARK SMILES C=C1C(=O)N[C@H](C)C(=O)N[C@@H](CC(C)C)C(=O)N[C@@H](C(=O)O)[C@H](C)C(=O)N[C@@H](CCCN=C(N)N)C(=O)N[C@@H](/C=C/C(C)=C/[C@H](C)[C@H](Cc2ccccc2)OC)[C@H](C)C(=O)N[C@@H](C(=O)O)CCC(=O)N1C
REMARK SMILES IDX 39 1 38 2 37 3 36 4 28 6 27 7 25 8 26 9 23 11 24 12 19 13
REMARK SMILES IDX 18 14 16 15 17 16 11 18 10 19 8 20 9 21 12 24 13 25 14 26
REMARK SMILES IDX 15 27 20 28 21 29 22 30 29 32 30 33 31 34 32 35 33 36 34 37
REMARK SMILES IDX 35 38 57 43 58 44 59 45 60 46 61 47 62 49 66 50 67 51 68 52
REMARK SMILES IDX 69 53 70 54 71 55 2 56 1 57 3 58 4 59 5 60 6 62 7 63 63 65
REMARK SMILES IDX 64 66 65 67 40 69 41 70 42 71 44 72 43 73 45 74 46 75 47 76
REMARK SMILES IDX 55 77 56 78 48 79 49 80 50 81 54 82 51 83 53 84 52 85
REMARK H PARENT 38 5 27 10 18 17 10 22 22 31 34 39 34 40 35 41 35 42 61 48
REMARK H PARENT 5 61 65 68
REMARK Flexibility Score:  369.900
ROOT
ATOM      1  C   UNL     1       2.263   5.228  -0.878  1.00  0.00     0.117 C 
ENDROOT
BRANCH   1   2
ATOM      2  N   UNL     1       3.001   4.314  -1.750  1.00  0.00    -0.347 N 
ATOM      3  O   UNL     1       2.141   5.030  -3.754  1.00  0.00    -0.273 OA
ATOM      4  C   UNL     1       2.949   4.350  -3.130  1.00  0.00     0.243 C 
ATOM      5  H   UNL     1       3.630   3.640  -1.340  1.00  0.00     0.164 HD
BRANCH   4   6
ATOM      6  C   UNL     1       3.892   3.330  -3.817  1.00  0.00     0.171 C 
BRANCH   6   7
ATOM      7  N   UNL     1       3.435   3.047  -5.186  1.00  0.00    -0.344 N 
ATOM      8  C   UNL     1       3.435   1.759  -5.675  1.00  0.00     0.226 C 
ATOM      9  O   UNL     1       3.831   0.803  -5.018  1.00  0.00    -0.275 OA
ATOM     10  H   UNL     1       3.164   3.819  -5.783  1.00  0.00     0.164 HD
BRANCH   8  11
ATOM     11  C   UNL     1       2.884   1.624  -7.084  1.00  0.00     0.109 C 
ATOM     12  C   UNL     1       3.907   2.130  -8.100  1.00  0.00     0.021 C 
BRANCH  11  13
ATOM     13  C   UNL     1       2.397   0.180  -7.317  1.00  0.00     0.204 C 
BRANCH  13  14
ATOM     14  N   UNL     1       1.247  -0.158  -6.473  1.00  0.00    -0.340 N 
ATOM     15  C   UNL     1       1.224  -1.259  -5.645  1.00  0.00     0.243 C 
ATOM     16  O   UNL     1       2.193  -2.004  -5.510  1.00  0.00    -0.273 OA
ATOM     17  H   UNL     1       0.363   0.326  -6.649  1.00  0.00     0.164 HD
BRANCH  15  18
ATOM     18  C   UNL     1      -0.163  -1.530  -5.013  1.00  0.00     0.171 C 
BRANCH  18  19
ATOM     19  N   UNL     1      -0.031  -2.749  -4.218  1.00  0.00    -0.343 N 
ATOM     20  C   UNL     1      -0.870  -3.832  -4.400  1.00  0.00     0.242 CG0
ATOM     21  O   UNL     1      -1.847  -3.771  -5.142  1.00  0.00    -0.273 OA
ATOM     22  H   UNL     1       0.691  -2.805  -3.509  1.00  0.00     0.164 HD
ATOM     23  G   UNL     1      -0.527  -5.056  -3.526  1.00  0.00     0.000 G0
ENDBRANCH  18  19
BRANCH  18  24
ATOM     24  C   UNL     1      -0.606  -0.342  -4.149  1.00  0.00     0.038 C 
BRANCH  24  25
ATOM     25  C   UNL     1       0.542   0.384  -3.415  1.00  0.00    -0.015 C 
ATOM     26  C   UNL     1       0.615   0.014  -1.933  1.00  0.00     0.007 C 
ATOM     27  C   UNL     1       0.369   1.898  -3.560  1.00  0.00     0.007 C 
ENDBRANCH  24  25
ENDBRANCH  18  24
ENDBRANCH  15  18
ENDBRANCH  13  14
BRANCH  13  28
ATOM     28  C   UNL     1       1.990  -0.093  -8.769  1.00  0.00     0.327 C 
ATOM     29  O   UNL     1       1.074   0.441  -9.375  1.00  0.00    -0.250 OA
BRANCH  28  30
ATOM     30  O   UNL     1       2.684  -1.104  -9.331  1.00  0.00    -0.480 OA
ATOM     31  H   UNL     1       3.235  -0.667 -10.013  1.00  0.00     0.296 HD
ENDBRANCH  28  30
ENDBRANCH  13  28
ENDBRANCH  11  13
ENDBRANCH   8  11
ENDBRANCH   6   7
BRANCH   6  32
ATOM     32  C   UNL     1       5.320   3.888  -3.821  1.00  0.00     0.037 C 
BRANCH  32  33
ATOM     33  C   UNL     1       5.743   4.386  -5.210  1.00  0.00     0.026 C 
BRANCH  33  34
ATOM     34  C   UNL     1       7.227   4.749  -5.274  1.00  0.00     0.146 C 
BRANCH  34  35
ATOM     35  N   UNL     1       7.952   3.935  -4.309  1.00  0.00    -0.254 NA
ATOM     36  C   UNL     1       8.686   2.978  -4.741  1.00  0.00     0.185 C 
ATOM     37  N   UNL     1       9.363   2.224  -3.861  1.00  0.00    -0.370 N 
ATOM     38  N   UNL     1       8.901   2.584  -6.009  1.00  0.00    -0.370 N 
ATOM     39  H   UNL     1       9.261   2.465  -2.883  1.00  0.00     0.159 HD
ATOM     40  H   UNL     1      10.086   1.576  -4.123  1.00  0.00     0.159 HD
ATOM     41  H   UNL     1       9.391   1.728  -6.213  1.00  0.00     0.159 HD
ATOM     42  H   UNL     1       8.443   3.052  -6.776  1.00  0.00     0.159 HD
ENDBRANCH  34  35
ENDBRANCH  33  34
ENDBRANCH  32  33
ENDBRANCH   6  32
ENDBRANCH   4   6
ENDBRANCH   1   2
BRANCH   1  43
ATOM     43  C   UNL     1       3.254   6.293  -0.325  1.00  0.00     0.102 C 
ATOM     44  C   UNL     1       3.555   7.424  -1.323  1.00  0.00     0.020 C 
BRANCH  43  45
ATOM     45  C   UNL     1       4.505   5.630   0.259  1.00  0.00     0.225 C 
ATOM     46  O   UNL     1       4.590   5.273   1.430  1.00  0.00    -0.275 OA
ATOM     47  N   UNL     1       5.580   5.539  -0.595  1.00  0.00    -0.342 N 
ATOM     48  H   UNL     1       5.448   5.694  -1.584  1.00  0.00     0.164 HD
BRANCH  47  49
ATOM     49  C   UNL     1       6.832   4.896  -0.184  1.00  0.00     0.192 C 
BRANCH  49  50
ATOM     50  C   UNL     1       7.988   5.430  -1.034  1.00  0.00     0.047 C 
BRANCH  50  51
ATOM     51  C   UNL     1       8.048   6.964  -1.036  1.00  0.00     0.103 C 
BRANCH  51  52
ATOM     52  C   UNL     1       8.704   7.514   0.229  1.00  0.00     0.226 C 
ATOM     53  O   UNL     1       9.859   7.188   0.509  1.00  0.00    -0.275 OA
BRANCH  52  54
ATOM     54  N   UNL     1       7.951   8.443   0.972  1.00  0.00    -0.311 N 
ATOM     55  C   UNL     1       7.393   8.087   2.283  1.00  0.00     0.153 C 
BRANCH  54  56
ATOM     56  C   UNL     1       7.711   9.741   0.493  1.00  0.00     0.102 C 
ATOM     57  C   UNL     1       6.655  10.101  -0.255  1.00  0.00     0.043 C 
BRANCH  56  58
ATOM     58  C   UNL     1       8.641  10.880   0.839  1.00  0.00     0.268 C 
ATOM     59  O   UNL     1       9.797  10.712   1.206  1.00  0.00    -0.268 OA
ATOM     60  N   UNL     1       8.079  12.117   0.637  1.00  0.00    -0.339 N 
ATOM     61  H   UNL     1       7.112  12.171   0.342  1.00  0.00     0.164 HD
BRANCH  60  62
ATOM     62  C   UNL     1       8.826  13.356   0.850  1.00  0.00     0.168 CG0
ATOM     63  C   UNL     1       8.125  14.250   1.866  1.00  0.00     0.041 C 
ATOM     64  G   UNL     1       9.002  14.092  -0.494  1.00  0.00     0.000 G0
ENDBRANCH  60  62
ENDBRANCH  56  58
ENDBRANCH  54  56
ENDBRANCH  52  54
ENDBRANCH  51  52
ENDBRANCH  50  51
ENDBRANCH  49  50
BRANCH  49  65
ATOM     65  C   UNL     1       6.758   3.368  -0.328  1.00  0.00     0.326 C 
ATOM     66  O   UNL     1       6.248   2.602   0.476  1.00  0.00    -0.250 OA
BRANCH  65  67
ATOM     67  O   UNL     1       7.371   2.875  -1.427  1.00  0.00    -0.480 OA
ATOM     68  H   UNL     1       8.188   2.463  -1.071  1.00  0.00     0.296 HD
ENDBRANCH  65  67
ENDBRANCH  49  65
ENDBRANCH  47  49
ENDBRANCH  43  45
ENDBRANCH   1  43
BRANCH   1  69
ATOM     69  C   UNL     1       1.501   4.356   0.103  1.00  0.00    -0.001 C 
ATOM     70  C   UNL     1       0.205   4.455   0.449  1.00  0.00     0.001 C 
BRANCH  70  71
ATOM     71  C   UNL     1      -0.524   3.594   1.382  1.00  0.00    -0.055 C 
ATOM     72  C   UNL     1      -0.818   2.340   0.979  1.00  0.00    -0.018 C 
ATOM     73  C   UNL     1      -0.889   4.165   2.727  1.00  0.00     0.044 C 
BRANCH  72  74
ATOM     74  C   UNL     1      -1.554   1.236   1.725  1.00  0.00     0.038 C 
ATOM     75  C   UNL     1      -0.501   0.430   2.495  1.00  0.00     0.015 C 
BRANCH  74  76
ATOM     76  C   UNL     1      -2.388   0.410   0.702  1.00  0.00     0.128 C 
BRANCH  76  77
ATOM     77  O   UNL     1      -2.609   1.183  -0.490  1.00  0.00    -0.381 OA
ATOM     78  C   UNL     1      -3.191   0.441  -1.553  1.00  0.00     0.195 C 
ENDBRANCH  76  77
BRANCH  76  79
ATOM     79  C   UNL     1      -1.807  -0.996   0.405  1.00  0.00     0.068 C 
BRANCH  79  80
ATOM     80  C   UNL     1      -2.589  -2.198   0.875  1.00  0.00    -0.045 A 
ATOM     81  C   UNL     1      -3.896  -2.064   1.362  1.00  0.00     0.004 A 
ATOM     82  C   UNL     1      -2.004  -3.473   0.857  1.00  0.00     0.004 A 
ATOM     83  C   UNL     1      -4.608  -3.179   1.808  1.00  0.00     0.000 A 
ATOM     84  C   UNL     1      -2.717  -4.588   1.305  1.00  0.00     0.000 A 
ATOM     85  C   UNL     1      -4.019  -4.441   1.778  1.00  0.00     0.000 A 
ENDBRANCH  79  80
ENDBRANCH  76  79
ENDBRANCH  74  76
ENDBRANCH  72  74
ENDBRANCH  70  71
ENDBRANCH   1  69
TORSDOF 17
ENDMDL
MODEL 30
REMARK VINA RESULT:    -5.411      3.282      6.596
REMARK INTER + INTRA:         -25.315
REMARK INTER:                 -17.505
REMARK INTRA:                  -7.810
REMARK UNBOUND:                -9.148
REMARK SMILES C=C1C(=O)N[C@H](C)C(=O)N[C@@H](CC(C)C)C(=O)N[C@@H](C(=O)O)[C@H](C)C(=O)N[C@@H](CCCN=C(N)N)C(=O)N[C@@H](/C=C/C(C)=C/[C@H](C)[C@H](Cc2ccccc2)OC)[C@H](C)C(=O)N[C@@H](C(=O)O)CCC(=O)N1C
REMARK SMILES IDX 39 1 38 2 37 3 36 4 28 6 27 7 25 8 26 9 23 11 24 12 19 13
REMARK SMILES IDX 18 14 16 15 17 16 11 18 10 19 8 20 9 21 12 24 13 25 14 26
REMARK SMILES IDX 15 27 20 28 21 29 22 30 29 32 30 33 31 34 32 35 33 36 34 37
REMARK SMILES IDX 35 38 57 43 58 44 59 45 60 46 61 47 62 49 66 50 67 51 68 52
REMARK SMILES IDX 69 53 70 54 71 55 2 56 1 57 3 58 4 59 5 60 6 62 7 63 63 65
REMARK SMILES IDX 64 66 65 67 40 69 41 70 42 71 44 72 43 73 45 74 46 75 47 76
REMARK SMILES IDX 55 77 56 78 48 79 49 80 50 81 54 82 51 83 53 84 52 85
REMARK H PARENT 38 5 27 10 18 17 10 22 22 31 34 39 34 40 35 41 35 42 61 48
REMARK H PARENT 5 61 65 68
REMARK Flexibility Score:  369.900
ROOT
ATOM      1  C   UNL     1       6.227   7.621  -0.163  1.00  0.00     0.117 C 
ENDROOT
BRANCH   1   2
ATOM      2  N   UNL     1       4.806   7.295  -0.292  1.00  0.00    -0.347 N 
ATOM      3  O   UNL     1       4.871   5.221   0.689  1.00  0.00    -0.273 OA
ATOM      4  C   UNL     1       4.224   6.155   0.229  1.00  0.00     0.243 C 
ATOM      5  H   UNL     1       4.187   7.952  -0.742  1.00  0.00     0.164 HD
BRANCH   4   6
ATOM      6  C   UNL     1       2.688   6.093   0.029  1.00  0.00     0.171 C 
BRANCH   6   7
ATOM      7  N   UNL     1       2.364   5.509  -1.283  1.00  0.00    -0.344 N 
ATOM      8  C   UNL     1       2.159   6.317  -2.380  1.00  0.00     0.226 C 
ATOM      9  O   UNL     1       2.212   7.540  -2.319  1.00  0.00    -0.275 OA
ATOM     10  H   UNL     1       2.245   4.507  -1.358  1.00  0.00     0.164 HD
BRANCH   8  11
ATOM     11  C   UNL     1       1.888   5.563  -3.670  1.00  0.00     0.109 C 
ATOM     12  C   UNL     1       0.936   4.396  -3.407  1.00  0.00     0.021 C 
BRANCH  11  13
ATOM     13  C   UNL     1       1.420   6.547  -4.761  1.00  0.00     0.204 C 
BRANCH  13  14
ATOM     14  N   UNL     1       1.759   6.079  -6.109  1.00  0.00    -0.340 N 
ATOM     15  C   UNL     1       3.054   6.019  -6.577  1.00  0.00     0.243 C 
ATOM     16  O   UNL     1       4.023   6.298  -5.874  1.00  0.00    -0.273 OA
ATOM     17  H   UNL     1       0.999   5.978  -6.787  1.00  0.00     0.164 HD
BRANCH  15  18
ATOM     18  C   UNL     1       3.151   5.695  -8.088  1.00  0.00     0.171 C 
BRANCH  18  19
ATOM     19  N   UNL     1       2.839   6.931  -8.802  1.00  0.00    -0.343 N 
ATOM     20  C   UNL     1       1.945   6.960  -9.855  1.00  0.00     0.242 CG0
ATOM     21  O   UNL     1       1.472   5.928 -10.325  1.00  0.00    -0.273 OA
ATOM     22  H   UNL     1       3.294   7.794  -8.525  1.00  0.00     0.164 HD
ATOM     23  G   UNL     1       1.685   8.366 -10.432  1.00  0.00     0.000 G0
ENDBRANCH  18  19
BRANCH  18  24
ATOM     24  C   UNL     1       4.550   5.178  -8.442  1.00  0.00     0.038 C 
BRANCH  24  25
ATOM     25  C   UNL     1       4.672   3.641  -8.509  1.00  0.00    -0.015 C 
ATOM     26  C   UNL     1       6.082   3.182  -8.883  1.00  0.00     0.007 C 
ATOM     27  C   UNL     1       3.664   3.088  -9.520  1.00  0.00     0.007 C 
ENDBRANCH  24  25
ENDBRANCH  18  24
ENDBRANCH  15  18
ENDBRANCH  13  14
BRANCH  13  28
ATOM     28  C   UNL     1      -0.090   6.804  -4.736  1.00  0.00     0.327 C 
ATOM     29  O   UNL     1      -0.911   6.359  -5.523  1.00  0.00    -0.250 OA
BRANCH  28  30
ATOM     30  O   UNL     1      -0.458   7.698  -3.796  1.00  0.00    -0.480 OA
ATOM     31  H   UNL     1       0.378   7.928  -3.341  1.00  0.00     0.296 HD
ENDBRANCH  28  30
ENDBRANCH  13  28
ENDBRANCH  11  13
ENDBRANCH   8  11
ENDBRANCH   6   7
BRANCH   6  32
ATOM     32  C   UNL     1       2.066   5.270   1.163  1.00  0.00     0.037 C 
BRANCH  32  33
ATOM     33  C   UNL     1       0.838   4.477   0.696  1.00  0.00     0.026 C 
BRANCH  33  34
ATOM     34  C   UNL     1       0.098   3.808   1.855  1.00  0.00     0.146 C 
BRANCH  34  35
ATOM     35  N   UNL     1       0.795   4.114   3.096  1.00  0.00    -0.254 NA
ATOM     36  C   UNL     1       0.603   3.358   4.112  1.00  0.00     0.185 C 
ATOM     37  N   UNL     1       1.244   3.628   5.260  1.00  0.00    -0.370 N 
ATOM     38  N   UNL     1      -0.185   2.273   4.221  1.00  0.00    -0.370 N 
ATOM     39  H   UNL     1       1.866   4.427   5.255  1.00  0.00     0.159 HD
ATOM     40  H   UNL     1       1.282   2.993   6.038  1.00  0.00     0.159 HD
ATOM     41  H   UNL     1      -0.360   1.844   5.114  1.00  0.00     0.159 HD
ATOM     42  H   UNL     1      -0.740   1.962   3.439  1.00  0.00     0.159 HD
ENDBRANCH  34  35
ENDBRANCH  33  34
ENDBRANCH  32  33
ENDBRANCH   6  32
ENDBRANCH   4   6
ENDBRANCH   1   2
BRANCH   1  43
ATOM     43  C   UNL     1       6.360   9.139   0.151  1.00  0.00     0.102 C 
ATOM     44  C   UNL     1       7.756   9.707  -0.154  1.00  0.00     0.020 C 
BRANCH  43  45
ATOM     45  C   UNL     1       5.856   9.455   1.563  1.00  0.00     0.225 C 
ATOM     46  O   UNL     1       6.599   9.553   2.535  1.00  0.00    -0.275 OA
ATOM     47  N   UNL     1       4.488   9.532   1.700  1.00  0.00    -0.342 N 
ATOM     48  H   UNL     1       3.906   9.601   0.877  1.00  0.00     0.164 HD
BRANCH  47  49
ATOM     49  C   UNL     1       3.865   9.863   2.985  1.00  0.00     0.192 C 
BRANCH  49  50
ATOM     50  C   UNL     1       3.135   8.634   3.534  1.00  0.00     0.047 C 
BRANCH  50  51
ATOM     51  C   UNL     1       4.035   7.776   4.433  1.00  0.00     0.103 C 
BRANCH  51  52
ATOM     52  C   UNL     1       3.224   6.879   5.367  1.00  0.00     0.226 C 
ATOM     53  O   UNL     1       3.510   5.685   5.467  1.00  0.00    -0.275 OA
BRANCH  52  54
ATOM     54  N   UNL     1       2.225   7.511   6.131  1.00  0.00    -0.311 N 
ATOM     55  C   UNL     1       0.816   7.114   6.009  1.00  0.00     0.153 C 
BRANCH  54  56
ATOM     56  C   UNL     1       2.536   8.537   7.039  1.00  0.00     0.102 C 
ATOM     57  C   UNL     1       2.267   9.839   6.849  1.00  0.00     0.043 C 
BRANCH  56  58
ATOM     58  C   UNL     1       3.180   8.225   8.369  1.00  0.00     0.268 C 
ATOM     59  O   UNL     1       2.756   8.650   9.435  1.00  0.00    -0.268 OA
ATOM     60  N   UNL     1       4.247   7.365   8.264  1.00  0.00    -0.339 N 
ATOM     61  H   UNL     1       4.543   7.066   7.342  1.00  0.00     0.164 HD
BRANCH  60  62
ATOM     62  C   UNL     1       4.978   6.883   9.435  1.00  0.00     0.168 CG0
ATOM     63  C   UNL     1       4.360   5.599   9.975  1.00  0.00     0.041 C 
ATOM     64  G   UNL     1       4.995   7.979  10.521  1.00  0.00     0.000 G0
ENDBRANCH  60  62
ENDBRANCH  56  58
ENDBRANCH  54  56
ENDBRANCH  52  54
ENDBRANCH  51  52
ENDBRANCH  50  51
ENDBRANCH  49  50
BRANCH  49  65
ATOM     65  C   UNL     1       2.871  11.027   2.850  1.00  0.00     0.326 C 
ATOM     66  O   UNL     1       2.141  11.230   1.891  1.00  0.00    -0.250 OA
BRANCH  65  67
ATOM     67  O   UNL     1       2.883  11.901   3.880  1.00  0.00    -0.480 OA
ATOM     68  H   UNL     1       2.743  11.333   4.668  1.00  0.00     0.296 HD
ENDBRANCH  65  67
ENDBRANCH  49  65
ENDBRANCH  47  49
ENDBRANCH  43  45
ENDBRANCH   1  43
BRANCH   1  69
ATOM     69  C   UNL     1       6.903   7.067  -1.404  1.00  0.00    -0.001 C 
ATOM     70  C   UNL     1       7.942   6.215  -1.456  1.00  0.00     0.001 C 
BRANCH  70  71
ATOM     71  C   UNL     1       8.573   5.670  -2.660  1.00  0.00    -0.055 C 
ATOM     72  C   UNL     1       7.777   5.067  -3.567  1.00  0.00    -0.018 C 
ATOM     73  C   UNL     1      10.064   5.829  -2.805  1.00  0.00     0.044 C 
BRANCH  72  74
ATOM     74  C   UNL     1       8.147   4.420  -4.895  1.00  0.00     0.038 C 
ATOM     75  C   UNL     1       7.286   5.083  -5.977  1.00  0.00     0.015 C 
BRANCH  74  76
ATOM     76  C   UNL     1       7.965   2.879  -4.769  1.00  0.00     0.128 C 
BRANCH  76  77
ATOM     77  O   UNL     1       9.171   2.282  -4.264  1.00  0.00    -0.381 OA
ATOM     78  C   UNL     1      10.347   2.714  -4.935  1.00  0.00     0.195 C 
ENDBRANCH  76  77
BRANCH  76  79
ATOM     79  C   UNL     1       6.706   2.457  -3.970  1.00  0.00     0.068 C 
BRANCH  79  80
ATOM     80  C   UNL     1       5.483   2.037  -4.748  1.00  0.00    -0.045 A 
ATOM     81  C   UNL     1       5.492   0.881  -5.540  1.00  0.00     0.004 A 
ATOM     82  C   UNL     1       4.319   2.820  -4.712  1.00  0.00     0.004 A 
ATOM     83  C   UNL     1       4.360   0.508  -6.268  1.00  0.00     0.000 A 
ATOM     84  C   UNL     1       3.188   2.446  -5.440  1.00  0.00     0.000 A 
ATOM     85  C   UNL     1       3.208   1.289  -6.217  1.00  0.00     0.000 A 
ENDBRANCH  79  80
ENDBRANCH  76  79
ENDBRANCH  74  76
ENDBRANCH  72  74
ENDBRANCH  70  71
ENDBRANCH   1  69
TORSDOF 17
ENDMDL
MODEL 31
REMARK VINA RESULT:    -5.408      3.159     12.156
REMARK INTER + INTRA:         -25.306
REMARK INTER:                 -17.818
REMARK INTRA:                  -7.488
REMARK UNBOUND:                -9.148
REMARK SMILES C=C1C(=O)N[C@H](C)C(=O)N[C@@H](CC(C)C)C(=O)N[C@@H](C(=O)O)[C@H](C)C(=O)N[C@@H](CCCN=C(N)N)C(=O)N[C@@H](/C=C/C(C)=C/[C@H](C)[C@H](Cc2ccccc2)OC)[C@H](C)C(=O)N[C@@H](C(=O)O)CCC(=O)N1C
REMARK SMILES IDX 39 1 38 2 37 3 36 4 28 6 27 7 25 8 26 9 23 11 24 12 19 13
REMARK SMILES IDX 18 14 16 15 17 16 11 18 10 19 8 20 9 21 12 24 13 25 14 26
REMARK SMILES IDX 15 27 20 28 21 29 22 30 29 32 30 33 31 34 32 35 33 36 34 37
REMARK SMILES IDX 35 38 57 43 58 44 59 45 60 46 61 47 62 49 66 50 67 51 68 52
REMARK SMILES IDX 69 53 70 54 71 55 2 56 1 57 3 58 4 59 5 60 6 62 7 63 63 65
REMARK SMILES IDX 64 66 65 67 40 69 41 70 42 71 44 72 43 73 45 74 46 75 47 76
REMARK SMILES IDX 55 77 56 78 48 79 49 80 50 81 54 82 51 83 53 84 52 85
REMARK H PARENT 38 5 27 10 18 17 10 22 22 31 34 39 34 40 35 41 35 42 61 48
REMARK H PARENT 5 61 65 68
REMARK Flexibility Score:  369.900
ROOT
ATOM      1  C   UNL     1       3.486   7.093  -2.147  1.00  0.00     0.117 C 
ENDROOT
BRANCH   1   2
ATOM      2  N   UNL     1       2.484   6.069  -1.846  1.00  0.00    -0.347 N 
ATOM      3  O   UNL     1       0.623   7.265  -2.458  1.00  0.00    -0.273 OA
ATOM      4  C   UNL     1       1.135   6.206  -2.113  1.00  0.00     0.243 C 
ATOM      5  H   UNL     1       2.781   5.183  -1.466  1.00  0.00     0.164 HD
BRANCH   4   6
ATOM      6  C   UNL     1       0.303   4.943  -1.778  1.00  0.00     0.171 C 
BRANCH   6   7
ATOM      7  N   UNL     1      -0.177   4.996  -0.388  1.00  0.00    -0.344 N 
ATOM      8  C   UNL     1       0.622   4.565   0.649  1.00  0.00     0.226 C 
ATOM      9  O   UNL     1       1.742   4.102   0.470  1.00  0.00    -0.275 OA
ATOM     10  H   UNL     1      -1.123   5.309  -0.207  1.00  0.00     0.164 HD
BRANCH   8  11
ATOM     11  C   UNL     1       0.006   4.736   2.026  1.00  0.00     0.109 C 
ATOM     12  C   UNL     1      -1.519   4.686   1.931  1.00  0.00     0.021 C 
BRANCH  11  13
ATOM     13  C   UNL     1       0.628   3.720   3.005  1.00  0.00     0.204 C 
BRANCH  13  14
ATOM     14  N   UNL     1       0.873   4.306   4.326  1.00  0.00    -0.340 N 
ATOM     15  C   UNL     1       2.066   4.906   4.669  1.00  0.00     0.243 C 
ATOM     16  O   UNL     1       2.989   5.046   3.869  1.00  0.00    -0.273 OA
ATOM     17  H   UNL     1       0.213   4.090   5.078  1.00  0.00     0.164 HD
BRANCH  15  18
ATOM     18  C   UNL     1       2.169   5.263   6.172  1.00  0.00     0.171 C 
BRANCH  18  19
ATOM     19  N   UNL     1       1.146   4.478   6.860  1.00  0.00    -0.343 N 
ATOM     20  C   UNL     1       0.149   5.075   7.607  1.00  0.00     0.242 CG0
ATOM     21  O   UNL     1       0.153   6.282   7.837  1.00  0.00    -0.273 OA
ATOM     22  H   UNL     1       1.168   3.466   6.796  1.00  0.00     0.164 HD
ATOM     23  G   UNL     1      -0.885   4.090   8.192  1.00  0.00     0.000 G0
ENDBRANCH  18  19
BRANCH  18  24
ATOM     24  C   UNL     1       3.572   4.950   6.708  1.00  0.00     0.038 C 
BRANCH  24  25
ATOM     25  C   UNL     1       4.371   6.183   7.180  1.00  0.00    -0.015 C 
ATOM     26  C   UNL     1       3.468   7.361   7.546  1.00  0.00     0.007 C 
ATOM     27  C   UNL     1       5.355   6.608   6.087  1.00  0.00     0.007 C 
ENDBRANCH  24  25
ENDBRANCH  18  24
ENDBRANCH  15  18
ENDBRANCH  13  14
BRANCH  13  28
ATOM     28  C   UNL     1      -0.239   2.475   3.215  1.00  0.00     0.327 C 
ATOM     29  O   UNL     1      -0.528   1.644   2.367  1.00  0.00    -0.250 OA
BRANCH  28  30
ATOM     30  O   UNL     1      -0.788   2.414   4.445  1.00  0.00    -0.480 OA
ATOM     31  H   UNL     1      -0.023   2.473   5.054  1.00  0.00     0.296 HD
ENDBRANCH  28  30
ENDBRANCH  13  28
ENDBRANCH  11  13
ENDBRANCH   8  11
ENDBRANCH   6   7
BRANCH   6  32
ATOM     32  C   UNL     1      -0.871   4.839  -2.758  1.00  0.00     0.037 C 
BRANCH  32  33
ATOM     33  C   UNL     1      -0.941   3.462  -3.434  1.00  0.00     0.026 C 
BRANCH  33  34
ATOM     34  C   UNL     1       0.437   2.818  -3.594  1.00  0.00     0.146 C 
BRANCH  34  35
ATOM     35  N   UNL     1       0.311   1.382  -3.384  1.00  0.00    -0.254 NA
ATOM     36  C   UNL     1       0.587   0.903  -2.229  1.00  0.00     0.185 C 
ATOM     37  N   UNL     1       0.470  -0.418  -2.023  1.00  0.00    -0.370 N 
ATOM     38  N   UNL     1       0.999   1.549  -1.123  1.00  0.00    -0.370 N 
ATOM     39  H   UNL     1       0.154  -0.973  -2.807  1.00  0.00     0.159 HD
ATOM     40  H   UNL     1       0.498  -0.843  -1.112  1.00  0.00     0.159 HD
ATOM     41  H   UNL     1       1.318   1.043  -0.313  1.00  0.00     0.159 HD
ATOM     42  H   UNL     1       1.146   2.546  -1.137  1.00  0.00     0.159 HD
ENDBRANCH  34  35
ENDBRANCH  33  34
ENDBRANCH  32  33
ENDBRANCH   6  32
ENDBRANCH   4   6
ENDBRANCH   1   2
BRANCH   1  43
ATOM     43  C   UNL     1       4.501   6.506  -3.170  1.00  0.00     0.102 C 
ATOM     44  C   UNL     1       3.862   5.538  -4.180  1.00  0.00     0.020 C 
BRANCH  43  45
ATOM     45  C   UNL     1       5.733   5.937  -2.458  1.00  0.00     0.225 C 
ATOM     46  O   UNL     1       6.704   6.621  -2.148  1.00  0.00    -0.275 OA
ATOM     47  N   UNL     1       5.729   4.574  -2.267  1.00  0.00    -0.342 N 
ATOM     48  H   UNL     1       4.871   4.054  -2.386  1.00  0.00     0.164 HD
BRANCH  47  49
ATOM     49  C   UNL     1       6.825   3.896  -1.568  1.00  0.00     0.192 C 
BRANCH  49  50
ATOM     50  C   UNL     1       7.029   2.500  -2.163  1.00  0.00     0.047 C 
BRANCH  50  51
ATOM     51  C   UNL     1       6.438   2.377  -3.574  1.00  0.00     0.103 C 
BRANCH  51  52
ATOM     52  C   UNL     1       7.493   2.591  -4.658  1.00  0.00     0.226 C 
ATOM     53  O   UNL     1       8.656   2.238  -4.455  1.00  0.00    -0.275 OA
BRANCH  52  54
ATOM     54  N   UNL     1       7.038   3.123  -5.879  1.00  0.00    -0.311 N 
ATOM     55  C   UNL     1       6.951   4.575  -6.085  1.00  0.00     0.153 C 
BRANCH  54  56
ATOM     56  C   UNL     1       6.659   2.291  -6.945  1.00  0.00     0.102 C 
ATOM     57  C   UNL     1       5.746   1.308  -6.865  1.00  0.00     0.043 C 
BRANCH  56  58
ATOM     58  C   UNL     1       7.244   2.482  -8.324  1.00  0.00     0.268 C 
ATOM     59  O   UNL     1       6.632   3.007  -9.244  1.00  0.00    -0.268 OA
ATOM     60  N   UNL     1       8.551   2.068  -8.418  1.00  0.00    -0.339 N 
ATOM     61  H   UNL     1       8.984   1.633  -7.612  1.00  0.00     0.164 HD
BRANCH  60  62
ATOM     62  C   UNL     1       9.330   2.219  -9.647  1.00  0.00     0.168 CG0
ATOM     63  C   UNL     1      10.001   3.585  -9.704  1.00  0.00     0.041 C 
ATOM     64  G   UNL     1       8.412   2.009 -10.869  1.00  0.00     0.000 G0
ENDBRANCH  60  62
ENDBRANCH  56  58
ENDBRANCH  54  56
ENDBRANCH  52  54
ENDBRANCH  51  52
ENDBRANCH  50  51
ENDBRANCH  49  50
BRANCH  49  65
ATOM     65  C   UNL     1       6.545   3.771  -0.062  1.00  0.00     0.326 C 
ATOM     66  O   UNL     1       7.362   3.446   0.788  1.00  0.00    -0.250 OA
BRANCH  65  67
ATOM     67  O   UNL     1       5.261   3.996   0.294  1.00  0.00    -0.480 OA
ATOM     68  H   UNL     1       4.932   4.607  -0.401  1.00  0.00     0.296 HD
ENDBRANCH  65  67
ENDBRANCH  49  65
ENDBRANCH  47  49
ENDBRANCH  43  45
ENDBRANCH   1  43
BRANCH   1  69
ATOM     69  C   UNL     1       3.999   7.590  -0.807  1.00  0.00    -0.001 C 
ATOM     70  C   UNL     1       3.821   7.021   0.398  1.00  0.00     0.001 C 
BRANCH  70  71
ATOM     71  C   UNL     1       4.340   7.499   1.681  1.00  0.00    -0.055 C 
ATOM     72  C   UNL     1       3.558   8.328   2.404  1.00  0.00    -0.018 C 
ATOM     73  C   UNL     1       5.705   7.026   2.108  1.00  0.00     0.044 C 
BRANCH  72  74
ATOM     74  C   UNL     1       3.828   8.972   3.757  1.00  0.00     0.038 C 
ATOM     75  C   UNL     1       2.490   9.037   4.503  1.00  0.00     0.015 C 
BRANCH  74  76
ATOM     76  C   UNL     1       4.515  10.350   3.527  1.00  0.00     0.128 C 
BRANCH  76  77
ATOM     77  O   UNL     1       3.623  11.412   3.905  1.00  0.00    -0.381 OA
ATOM     78  C   UNL     1       3.172  12.196   2.808  1.00  0.00     0.195 C 
ENDBRANCH  76  77
BRANCH  76  79
ATOM     79  C   UNL     1       5.911  10.476   4.189  1.00  0.00     0.068 C 
BRANCH  79  80
ATOM     80  C   UNL     1       5.982  11.032   5.590  1.00  0.00    -0.045 A 
ATOM     81  C   UNL     1       6.561  12.283   5.842  1.00  0.00     0.004 A 
ATOM     82  C   UNL     1       5.489  10.287   6.672  1.00  0.00     0.004 A 
ATOM     83  C   UNL     1       6.635  12.784   7.143  1.00  0.00     0.000 A 
ATOM     84  C   UNL     1       5.565  10.789   7.973  1.00  0.00     0.000 A 
ATOM     85  C   UNL     1       6.136  12.038   8.208  1.00  0.00     0.000 A 
ENDBRANCH  79  80
ENDBRANCH  76  79
ENDBRANCH  74  76
ENDBRANCH  72  74
ENDBRANCH  70  71
ENDBRANCH   1  69
TORSDOF 17
ENDMDL
MODEL 32
REMARK VINA RESULT:    -5.404      2.568      3.841
REMARK INTER + INTRA:         -25.293
REMARK INTER:                 -17.987
REMARK INTRA:                  -7.306
REMARK UNBOUND:                -9.148
REMARK SMILES C=C1C(=O)N[C@H](C)C(=O)N[C@@H](CC(C)C)C(=O)N[C@@H](C(=O)O)[C@H](C)C(=O)N[C@@H](CCCN=C(N)N)C(=O)N[C@@H](/C=C/C(C)=C/[C@H](C)[C@H](Cc2ccccc2)OC)[C@H](C)C(=O)N[C@@H](C(=O)O)CCC(=O)N1C
REMARK SMILES IDX 39 1 38 2 37 3 36 4 28 6 27 7 25 8 26 9 23 11 24 12 19 13
REMARK SMILES IDX 18 14 16 15 17 16 11 18 10 19 8 20 9 21 12 24 13 25 14 26
REMARK SMILES IDX 15 27 20 28 21 29 22 30 29 32 30 33 31 34 32 35 33 36 34 37
REMARK SMILES IDX 35 38 57 43 58 44 59 45 60 46 61 47 62 49 66 50 67 51 68 52
REMARK SMILES IDX 69 53 70 54 71 55 2 56 1 57 3 58 4 59 5 60 6 62 7 63 63 65
REMARK SMILES IDX 64 66 65 67 40 69 41 70 42 71 44 72 43 73 45 74 46 75 47 76
REMARK SMILES IDX 55 77 56 78 48 79 49 80 50 81 54 82 51 83 53 84 52 85
REMARK H PARENT 38 5 27 10 18 17 10 22 22 31 34 39 34 40 35 41 35 42 61 48
REMARK H PARENT 5 61 65 68
REMARK Flexibility Score:  369.900
ROOT
ATOM      1  C   UNL     1       4.128   7.398  -1.270  1.00  0.00     0.117 C 
ENDROOT
BRANCH   1   2
ATOM      2  N   UNL     1       5.151   6.354  -1.347  1.00  0.00    -0.347 N 
ATOM      3  O   UNL     1       5.259   6.191  -3.634  1.00  0.00    -0.273 OA
ATOM      4  C   UNL     1       5.702   5.898  -2.529  1.00  0.00     0.243 C 
ATOM      5  H   UNL     1       5.526   5.966  -0.495  1.00  0.00     0.164 HD
BRANCH   4   6
ATOM      6  C   UNL     1       6.828   4.851  -2.328  1.00  0.00     0.171 C 
BRANCH   6   7
ATOM      7  N   UNL     1       7.659   4.752  -3.538  1.00  0.00    -0.344 N 
ATOM      8  C   UNL     1       8.169   3.537  -3.942  1.00  0.00     0.226 C 
ATOM      9  O   UNL     1       7.981   2.501  -3.316  1.00  0.00    -0.275 OA
ATOM     10  H   UNL     1       7.892   5.597  -4.045  1.00  0.00     0.164 HD
BRANCH   8  11
ATOM     11  C   UNL     1       8.960   3.590  -5.238  1.00  0.00     0.109 C 
ATOM     12  C   UNL     1      10.339   2.963  -5.038  1.00  0.00     0.021 C 
BRANCH  11  13
ATOM     13  C   UNL     1       8.128   2.976  -6.382  1.00  0.00     0.204 C 
BRANCH  13  14
ATOM     14  N   UNL     1       7.172   3.934  -6.945  1.00  0.00    -0.340 N 
ATOM     15  C   UNL     1       6.193   3.574  -7.845  1.00  0.00     0.243 C 
ATOM     16  O   UNL     1       6.014   2.409  -8.195  1.00  0.00    -0.273 OA
ATOM     17  H   UNL     1       7.359   4.932  -6.815  1.00  0.00     0.164 HD
BRANCH  15  18
ATOM     18  C   UNL     1       5.441   4.781  -8.458  1.00  0.00     0.171 C 
BRANCH  18  19
ATOM     19  N   UNL     1       5.849   4.862  -9.859  1.00  0.00    -0.343 N 
ATOM     20  C   UNL     1       7.061   5.409 -10.235  1.00  0.00     0.242 CG0
ATOM     21  O   UNL     1       7.792   5.972  -9.423  1.00  0.00    -0.273 OA
ATOM     22  H   UNL     1       5.227   4.513 -10.579  1.00  0.00     0.164 HD
ATOM     23  G   UNL     1       7.351   5.335 -11.748  1.00  0.00     0.000 G0
ENDBRANCH  18  19
BRANCH  18  24
ATOM     24  C   UNL     1       3.924   4.599  -8.324  1.00  0.00     0.038 C 
BRANCH  24  25
ATOM     25  C   UNL     1       3.202   5.737  -7.572  1.00  0.00    -0.015 C 
ATOM     26  C   UNL     1       1.680   5.602  -7.630  1.00  0.00     0.007 C 
ATOM     27  C   UNL     1       3.622   7.088  -8.157  1.00  0.00     0.007 C 
ENDBRANCH  24  25
ENDBRANCH  18  24
ENDBRANCH  15  18
ENDBRANCH  13  14
BRANCH  13  28
ATOM     28  C   UNL     1       8.985   2.457  -7.540  1.00  0.00     0.327 C 
ATOM     29  O   UNL     1       9.691   3.130  -8.276  1.00  0.00    -0.250 OA
BRANCH  28  30
ATOM     30  O   UNL     1       8.812   1.141  -7.778  1.00  0.00    -0.480 OA
ATOM     31  H   UNL     1       7.911   0.952  -7.443  1.00  0.00     0.296 HD
ENDBRANCH  28  30
ENDBRANCH  13  28
ENDBRANCH  11  13
ENDBRANCH   8  11
ENDBRANCH   6   7
BRANCH   6  32
ATOM     32  C   UNL     1       7.674   5.249  -1.114  1.00  0.00     0.037 C 
BRANCH  32  33
ATOM     33  C   UNL     1       8.873   6.125  -1.506  1.00  0.00     0.026 C 
BRANCH  33  34
ATOM     34  C   UNL     1       8.933   7.427  -0.706  1.00  0.00     0.146 C 
BRANCH  34  35
ATOM     35  N   UNL     1       9.548   7.158   0.586  1.00  0.00    -0.254 NA
ATOM     36  C   UNL     1       9.197   7.866   1.594  1.00  0.00     0.185 C 
ATOM     37  N   UNL     1       9.754   7.623   2.790  1.00  0.00    -0.370 N 
ATOM     38  N   UNL     1       8.307   8.873   1.649  1.00  0.00    -0.370 N 
ATOM     39  H   UNL     1      10.430   6.870   2.832  1.00  0.00     0.159 HD
ATOM     40  H   UNL     1       9.411   8.010   3.652  1.00  0.00     0.159 HD
ATOM     41  H   UNL     1       8.219   9.445   2.473  1.00  0.00     0.159 HD
ATOM     42  H   UNL     1       7.822   9.175   0.819  1.00  0.00     0.159 HD
ENDBRANCH  34  35
ENDBRANCH  33  34
ENDBRANCH  32  33
ENDBRANCH   6  32
ENDBRANCH   4   6
ENDBRANCH   1   2
BRANCH   1  43
ATOM     43  C   UNL     1       4.052   7.909   0.198  1.00  0.00     0.102 C 
ATOM     44  C   UNL     1       4.866   9.191   0.442  1.00  0.00     0.020 C 
BRANCH  43  45
ATOM     45  C   UNL     1       4.355   6.782   1.189  1.00  0.00     0.225 C 
ATOM     46  O   UNL     1       3.678   5.761   1.272  1.00  0.00    -0.275 OA
ATOM     47  N   UNL     1       5.392   7.023   2.062  1.00  0.00    -0.342 N 
ATOM     48  H   UNL     1       6.027   7.788   1.884  1.00  0.00     0.164 HD
BRANCH  47  49
ATOM     49  C   UNL     1       5.817   6.020   3.042  1.00  0.00     0.192 C 
BRANCH  49  50
ATOM     50  C   UNL     1       6.512   6.711   4.218  1.00  0.00     0.047 C 
BRANCH  50  51
ATOM     51  C   UNL     1       5.524   7.125   5.317  1.00  0.00     0.103 C 
BRANCH  51  52
ATOM     52  C   UNL     1       5.642   6.241   6.557  1.00  0.00     0.226 C 
ATOM     53  O   UNL     1       6.422   5.287   6.554  1.00  0.00    -0.275 OA
BRANCH  52  54
ATOM     54  N   UNL     1       4.886   6.630   7.678  1.00  0.00    -0.311 N 
ATOM     55  C   UNL     1       3.434   6.834   7.577  1.00  0.00     0.153 C 
BRANCH  54  56
ATOM     56  C   UNL     1       5.486   6.830   8.932  1.00  0.00     0.102 C 
ATOM     57  C   UNL     1       5.875   8.021   9.416  1.00  0.00     0.043 C 
BRANCH  56  58
ATOM     58  C   UNL     1       5.703   5.675   9.881  1.00  0.00     0.268 C 
ATOM     59  O   UNL     1       4.821   5.224  10.599  1.00  0.00    -0.268 OA
ATOM     60  N   UNL     1       6.969   5.145   9.806  1.00  0.00    -0.339 N 
ATOM     61  H   UNL     1       7.645   5.584   9.194  1.00  0.00     0.164 HD
BRANCH  60  62
ATOM     62  C   UNL     1       7.374   3.981  10.594  1.00  0.00     0.168 CG0
ATOM     63  C   UNL     1       8.810   4.124  11.081  1.00  0.00     0.041 C 
ATOM     64  G   UNL     1       7.209   2.702   9.748  1.00  0.00     0.000 G0
ENDBRANCH  60  62
ENDBRANCH  56  58
ENDBRANCH  54  56
ENDBRANCH  52  54
ENDBRANCH  51  52
ENDBRANCH  50  51
ENDBRANCH  49  50
BRANCH  49  65
ATOM     65  C   UNL     1       6.773   4.990   2.420  1.00  0.00     0.326 C 
ATOM     66  O   UNL     1       7.985   4.958   2.579  1.00  0.00    -0.250 OA
BRANCH  65  67
ATOM     67  O   UNL     1       6.183   4.099   1.593  1.00  0.00    -0.480 OA
ATOM     68  H   UNL     1       6.938   3.681   1.127  1.00  0.00     0.296 HD
ENDBRANCH  65  67
ENDBRANCH  49  65
ENDBRANCH  47  49
ENDBRANCH  43  45
ENDBRANCH   1  43
BRANCH   1  69
ATOM     69  C   UNL     1       2.880   6.816  -1.909  1.00  0.00    -0.001 C 
ATOM     70  C   UNL     1       1.763   7.474  -2.267  1.00  0.00     0.001 C 
BRANCH  70  71
ATOM     71  C   UNL     1       0.573   6.905  -2.903  1.00  0.00    -0.055 C 
ATOM     72  C   UNL     1       0.179   5.675  -2.512  1.00  0.00    -0.018 C 
ATOM     73  C   UNL     1      -0.132   7.736  -3.943  1.00  0.00     0.044 C 
BRANCH  72  74
ATOM     74  C   UNL     1      -1.004   4.846  -2.989  1.00  0.00     0.038 C 
ATOM     75  C   UNL     1      -1.970   4.713  -1.805  1.00  0.00     0.015 C 
BRANCH  74  76
ATOM     76  C   UNL     1      -0.474   3.495  -3.554  1.00  0.00     0.128 C 
BRANCH  76  77
ATOM     77  O   UNL     1      -0.347   3.577  -4.983  1.00  0.00    -0.381 OA
ATOM     78  C   UNL     1      -1.251   4.493  -5.586  1.00  0.00     0.195 C 
ENDBRANCH  76  77
BRANCH  76  79
ATOM     79  C   UNL     1       0.818   2.988  -2.865  1.00  0.00     0.068 C 
BRANCH  79  80
ATOM     80  C   UNL     1       1.980   2.594  -3.744  1.00  0.00    -0.045 A 
ATOM     81  C   UNL     1       3.064   3.461  -3.938  1.00  0.00     0.004 A 
ATOM     82  C   UNL     1       1.979   1.358  -4.407  1.00  0.00     0.004 A 
ATOM     83  C   UNL     1       4.129   3.095  -4.764  1.00  0.00     0.000 A 
ATOM     84  C   UNL     1       3.044   0.994  -5.234  1.00  0.00     0.000 A 
ATOM     85  C   UNL     1       4.119   1.861  -5.410  1.00  0.00     0.000 A 
ENDBRANCH  79  80
ENDBRANCH  76  79
ENDBRANCH  74  76
ENDBRANCH  72  74
ENDBRANCH  70  71
ENDBRANCH   1  69
TORSDOF 17
ENDMDL
MODEL 33
REMARK VINA RESULT:    -5.381      2.518     10.534
REMARK INTER + INTRA:         -25.224
REMARK INTER:                 -17.450
REMARK INTRA:                  -7.775
REMARK UNBOUND:                -9.148
REMARK SMILES C=C1C(=O)N[C@H](C)C(=O)N[C@@H](CC(C)C)C(=O)N[C@@H](C(=O)O)[C@H](C)C(=O)N[C@@H](CCCN=C(N)N)C(=O)N[C@@H](/C=C/C(C)=C/[C@H](C)[C@H](Cc2ccccc2)OC)[C@H](C)C(=O)N[C@@H](C(=O)O)CCC(=O)N1C
REMARK SMILES IDX 39 1 38 2 37 3 36 4 28 6 27 7 25 8 26 9 23 11 24 12 19 13
REMARK SMILES IDX 18 14 16 15 17 16 11 18 10 19 8 20 9 21 12 24 13 25 14 26
REMARK SMILES IDX 15 27 20 28 21 29 22 30 29 32 30 33 31 34 32 35 33 36 34 37
REMARK SMILES IDX 35 38 57 43 58 44 59 45 60 46 61 47 62 49 66 50 67 51 68 52
REMARK SMILES IDX 69 53 70 54 71 55 2 56 1 57 3 58 4 59 5 60 6 62 7 63 63 65
REMARK SMILES IDX 64 66 65 67 40 69 41 70 42 71 44 72 43 73 45 74 46 75 47 76
REMARK SMILES IDX 55 77 56 78 48 79 49 80 50 81 54 82 51 83 53 84 52 85
REMARK H PARENT 38 5 27 10 18 17 10 22 22 31 34 39 34 40 35 41 35 42 61 48
REMARK H PARENT 5 61 65 68
REMARK Flexibility Score:  369.900
ROOT
ATOM      1  C   UNL     1       5.371   5.375   0.021  1.00  0.00     0.117 C 
ENDROOT
BRANCH   1   2
ATOM      2  N   UNL     1       5.195   6.322   1.123  1.00  0.00    -0.347 N 
ATOM      3  O   UNL     1       5.710   4.895   2.846  1.00  0.00    -0.273 OA
ATOM      4  C   UNL     1       5.469   6.029   2.445  1.00  0.00     0.243 C 
ATOM      5  H   UNL     1       4.904   7.266   0.921  1.00  0.00     0.164 HD
BRANCH   4   6
ATOM      6  C   UNL     1       5.281   7.234   3.402  1.00  0.00     0.171 C 
BRANCH   6   7
ATOM      7  N   UNL     1       4.949   6.767   4.757  1.00  0.00    -0.344 N 
ATOM      8  C   UNL     1       3.771   7.148   5.363  1.00  0.00     0.226 C 
ATOM      9  O   UNL     1       2.965   7.899   4.825  1.00  0.00    -0.275 OA
ATOM     10  H   UNL     1       5.620   6.200   5.260  1.00  0.00     0.164 HD
BRANCH   8  11
ATOM     11  C   UNL     1       3.548   6.540   6.736  1.00  0.00     0.109 C 
ATOM     12  C   UNL     1       2.779   7.517   7.626  1.00  0.00     0.021 C 
BRANCH  11  13
ATOM     13  C   UNL     1       2.902   5.148   6.592  1.00  0.00     0.204 C 
BRANCH  13  14
ATOM     14  N   UNL     1       1.512   5.230   6.131  1.00  0.00    -0.340 N 
ATOM     15  C   UNL     1       0.461   4.664   6.819  1.00  0.00     0.243 C 
ATOM     16  O   UNL     1       0.608   4.100   7.902  1.00  0.00    -0.273 OA
ATOM     17  H   UNL     1       1.342   5.548   5.173  1.00  0.00     0.164 HD
BRANCH  15  18
ATOM     18  C   UNL     1      -0.877   4.697   6.041  1.00  0.00     0.171 C 
BRANCH  18  19
ATOM     19  N   UNL     1      -1.933   4.414   7.011  1.00  0.00    -0.343 N 
ATOM     20  C   UNL     1      -2.804   3.353   6.851  1.00  0.00     0.242 CG0
ATOM     21  O   UNL     1      -2.817   2.680   5.823  1.00  0.00    -0.273 OA
ATOM     22  H   UNL     1      -2.037   5.013   7.822  1.00  0.00     0.164 HD
ATOM     23  G   UNL     1      -3.798   3.165   8.015  1.00  0.00     0.000 G0
ENDBRANCH  18  19
BRANCH  18  24
ATOM     24  C   UNL     1      -1.080   6.062   5.371  1.00  0.00     0.038 C 
BRANCH  24  25
ATOM     25  C   UNL     1      -1.346   6.001   3.852  1.00  0.00    -0.015 C 
ATOM     26  C   UNL     1      -2.691   5.356   3.519  1.00  0.00     0.007 C 
ATOM     27  C   UNL     1      -0.219   5.229   3.163  1.00  0.00     0.007 C 
ENDBRANCH  24  25
ENDBRANCH  18  24
ENDBRANCH  15  18
ENDBRANCH  13  14
BRANCH  13  28
ATOM     28  C   UNL     1       3.650   4.233   5.618  1.00  0.00     0.327 C 
ATOM     29  O   UNL     1       4.748   3.730   5.797  1.00  0.00    -0.250 OA
BRANCH  28  30
ATOM     30  O   UNL     1       3.025   4.103   4.429  1.00  0.00    -0.480 OA
ATOM     31  H   UNL     1       3.750   4.136   3.771  1.00  0.00     0.296 HD
ENDBRANCH  28  30
ENDBRANCH  13  28
ENDBRANCH  11  13
ENDBRANCH   8  11
ENDBRANCH   6   7
BRANCH   6  32
ATOM     32  C   UNL     1       6.563   8.074   3.411  1.00  0.00     0.037 C 
BRANCH  32  33
ATOM     33  C   UNL     1       6.344   9.470   2.812  1.00  0.00     0.026 C 
BRANCH  33  34
ATOM     34  C   UNL     1       4.873   9.885   2.817  1.00  0.00     0.146 C 
BRANCH  34  35
ATOM     35  N   UNL     1       4.634  10.756   3.960  1.00  0.00    -0.254 NA
ATOM     36  C   UNL     1       3.850  11.759   3.816  1.00  0.00     0.185 C 
ATOM     37  N   UNL     1       3.619  12.565   4.864  1.00  0.00    -0.370 N 
ATOM     38  N   UNL     1       3.181  12.157   2.719  1.00  0.00    -0.370 N 
ATOM     39  H   UNL     1       4.080  12.324   5.732  1.00  0.00     0.159 HD
ATOM     40  H   UNL     1       2.893  13.260   4.881  1.00  0.00     0.159 HD
ATOM     41  H   UNL     1       2.705  13.044   2.693  1.00  0.00     0.159 HD
ATOM     42  H   UNL     1       3.274  11.653   1.851  1.00  0.00     0.159 HD
ENDBRANCH  34  35
ENDBRANCH  33  34
ENDBRANCH  32  33
ENDBRANCH   6  32
ENDBRANCH   4   6
ENDBRANCH   1   2
BRANCH   1  43
ATOM     43  C   UNL     1       6.498   5.905  -0.912  1.00  0.00     0.102 C 
ATOM     44  C   UNL     1       6.691   7.429  -0.834  1.00  0.00     0.020 C 
BRANCH  43  45
ATOM     45  C   UNL     1       6.326   5.374  -2.339  1.00  0.00     0.225 C 
ATOM     46  O   UNL     1       5.596   5.906  -3.170  1.00  0.00    -0.275 OA
ATOM     47  N   UNL     1       6.977   4.192  -2.612  1.00  0.00    -0.342 N 
ATOM     48  H   UNL     1       7.686   3.853  -1.978  1.00  0.00     0.164 HD
BRANCH  47  49
ATOM     49  C   UNL     1       6.932   3.584  -3.945  1.00  0.00     0.192 C 
BRANCH  49  50
ATOM     50  C   UNL     1       6.592   2.096  -3.821  1.00  0.00     0.047 C 
BRANCH  50  51
ATOM     51  C   UNL     1       5.261   1.745  -4.500  1.00  0.00     0.103 C 
BRANCH  51  52
ATOM     52  C   UNL     1       5.468   1.112  -5.874  1.00  0.00     0.226 C 
ATOM     53  O   UNL     1       5.550  -0.114  -5.976  1.00  0.00    -0.275 OA
BRANCH  52  54
ATOM     54  N   UNL     1       5.477   1.991  -6.974  1.00  0.00    -0.311 N 
ATOM     55  C   UNL     1       4.703   3.239  -6.950  1.00  0.00     0.153 C 
BRANCH  54  56
ATOM     56  C   UNL     1       6.227   1.712  -8.128  1.00  0.00     0.102 C 
ATOM     57  C   UNL     1       5.707   1.470  -9.343  1.00  0.00     0.043 C 
BRANCH  56  58
ATOM     58  C   UNL     1       7.737   1.709  -8.089  1.00  0.00     0.268 C 
ATOM     59  O   UNL     1       8.397   0.726  -7.779  1.00  0.00    -0.268 OA
ATOM     60  N   UNL     1       8.290   2.898  -8.500  1.00  0.00    -0.339 N 
ATOM     61  H   UNL     1       7.674   3.668  -8.731  1.00  0.00     0.164 HD
BRANCH  60  62
ATOM     62  C   UNL     1       9.736   3.092  -8.598  1.00  0.00     0.168 CG0
ATOM     63  C   UNL     1      10.136   4.482  -8.120  1.00  0.00     0.041 C 
ATOM     64  G   UNL     1      10.191   2.864 -10.055  1.00  0.00     0.000 G0
ENDBRANCH  60  62
ENDBRANCH  56  58
ENDBRANCH  54  56
ENDBRANCH  52  54
ENDBRANCH  51  52
ENDBRANCH  50  51
ENDBRANCH  49  50
BRANCH  49  65
ATOM     65  C   UNL     1       8.270   3.740  -4.685  1.00  0.00     0.326 C 
ATOM     66  O   UNL     1       8.879   4.789  -4.838  1.00  0.00    -0.250 OA
BRANCH  65  67
ATOM     67  O   UNL     1       8.742   2.604  -5.242  1.00  0.00    -0.480 OA
ATOM     68  H   UNL     1       9.691   2.800  -5.399  1.00  0.00     0.296 HD
ENDBRANCH  65  67
ENDBRANCH  49  65
ENDBRANCH  47  49
ENDBRANCH  43  45
ENDBRANCH   1  43
BRANCH   1  69
ATOM     69  C   UNL     1       3.989   5.138  -0.559  1.00  0.00    -0.001 C 
ATOM     70  C   UNL     1       2.881   5.874  -0.359  1.00  0.00     0.001 C 
BRANCH  70  71
ATOM     71  C   UNL     1       1.557   5.648  -0.942  1.00  0.00    -0.055 C 
ATOM     72  C   UNL     1       0.913   4.509  -0.611  1.00  0.00    -0.018 C 
ATOM     73  C   UNL     1       1.005   6.705  -1.862  1.00  0.00     0.044 C 
BRANCH  72  74
ATOM     74  C   UNL     1      -0.457   4.014  -1.054  1.00  0.00     0.038 C 
ATOM     75  C   UNL     1      -1.308   3.845   0.210  1.00  0.00     0.015 C 
BRANCH  74  76
ATOM     76  C   UNL     1      -0.273   2.717  -1.896  1.00  0.00     0.128 C 
BRANCH  76  77
ATOM     77  O   UNL     1      -0.938   1.617  -1.254  1.00  0.00    -0.381 OA
ATOM     78  C   UNL     1      -1.629   0.763  -2.155  1.00  0.00     0.195 C 
ENDBRANCH  76  77
BRANCH  76  79
ATOM     79  C   UNL     1      -0.671   2.872  -3.386  1.00  0.00     0.068 C 
BRANCH  79  80
ATOM     80  C   UNL     1      -0.004   3.965  -4.186  1.00  0.00    -0.045 A 
ATOM     81  C   UNL     1      -0.758   4.977  -4.794  1.00  0.00     0.004 A 
ATOM     82  C   UNL     1       1.388   3.966  -4.357  1.00  0.00     0.004 A 
ATOM     83  C   UNL     1      -0.135   5.976  -5.544  1.00  0.00     0.000 A 
ATOM     84  C   UNL     1       2.011   4.966  -5.109  1.00  0.00     0.000 A 
ATOM     85  C   UNL     1       1.249   5.971  -5.700  1.00  0.00     0.000 A 
ENDBRANCH  79  80
ENDBRANCH  76  79
ENDBRANCH  74  76
ENDBRANCH  72  74
ENDBRANCH  70  71
ENDBRANCH   1  69
TORSDOF 17
ENDMDL
MODEL 34
REMARK VINA RESULT:    -5.367      3.034      5.211
REMARK INTER + INTRA:         -25.183
REMARK INTER:                 -16.914
REMARK INTRA:                  -8.269
REMARK UNBOUND:                -9.148
REMARK SMILES C=C1C(=O)N[C@H](C)C(=O)N[C@@H](CC(C)C)C(=O)N[C@@H](C(=O)O)[C@H](C)C(=O)N[C@@H](CCCN=C(N)N)C(=O)N[C@@H](/C=C/C(C)=C/[C@H](C)[C@H](Cc2ccccc2)OC)[C@H](C)C(=O)N[C@@H](C(=O)O)CCC(=O)N1C
REMARK SMILES IDX 39 1 38 2 37 3 36 4 28 6 27 7 25 8 26 9 23 11 24 12 19 13
REMARK SMILES IDX 18 14 16 15 17 16 11 18 10 19 8 20 9 21 12 24 13 25 14 26
REMARK SMILES IDX 15 27 20 28 21 29 22 30 29 32 30 33 31 34 32 35 33 36 34 37
REMARK SMILES IDX 35 38 57 43 58 44 59 45 60 46 61 47 62 49 66 50 67 51 68 52
REMARK SMILES IDX 69 53 70 54 71 55 2 56 1 57 3 58 4 59 5 60 6 62 7 63 63 65
REMARK SMILES IDX 64 66 65 67 40 69 41 70 42 71 44 72 43 73 45 74 46 75 47 76
REMARK SMILES IDX 55 77 56 78 48 79 49 80 50 81 54 82 51 83 53 84 52 85
REMARK H PARENT 38 5 27 10 18 17 10 22 22 31 34 39 34 40 35 41 35 42 61 48
REMARK H PARENT 5 61 65 68
REMARK Flexibility Score:  369.900
ROOT
ATOM      1  C   UNL     1       3.308   7.113  -1.469  1.00  0.00     0.117 C 
ENDROOT
BRANCH   1   2
ATOM      2  N   UNL     1       3.868   5.767  -1.591  1.00  0.00    -0.347 N 
ATOM      3  O   UNL     1       5.117   6.117  -3.484  1.00  0.00    -0.273 OA
ATOM      4  C   UNL     1       4.803   5.401  -2.540  1.00  0.00     0.243 C 
ATOM      5  H   UNL     1       3.606   5.060  -0.920  1.00  0.00     0.164 HD
BRANCH   4   6
ATOM      6  C   UNL     1       5.297   3.939  -2.397  1.00  0.00     0.171 C 
BRANCH   6   7
ATOM      7  N   UNL     1       5.381   3.293  -3.717  1.00  0.00    -0.344 N 
ATOM      8  C   UNL     1       4.238   2.928  -4.394  1.00  0.00     0.226 C 
ATOM      9  O   UNL     1       3.115   3.096  -3.934  1.00  0.00    -0.275 OA
ATOM     10  H   UNL     1       6.292   3.076  -4.100  1.00  0.00     0.164 HD
BRANCH   8  11
ATOM     11  C   UNL     1       4.489   2.324  -5.765  1.00  0.00     0.109 C 
ATOM     12  C   UNL     1       3.419   1.280  -6.084  1.00  0.00     0.021 C 
BRANCH  11  13
ATOM     13  C   UNL     1       4.633   3.447  -6.811  1.00  0.00     0.204 C 
BRANCH  13  14
ATOM     14  N   UNL     1       3.450   4.312  -6.858  1.00  0.00    -0.340 N 
ATOM     15  C   UNL     1       2.593   4.351  -7.936  1.00  0.00     0.243 C 
ATOM     16  O   UNL     1       2.727   3.616  -8.913  1.00  0.00    -0.273 OA
ATOM     17  H   UNL     1       3.366   5.050  -6.153  1.00  0.00     0.164 HD
BRANCH  15  18
ATOM     18  C   UNL     1       1.540   5.483  -7.849  1.00  0.00     0.171 C 
BRANCH  18  19
ATOM     19  N   UNL     1       1.767   6.355  -8.999  1.00  0.00    -0.343 N 
ATOM     20  C   UNL     1       2.919   7.108  -9.126  1.00  0.00     0.242 CG0
ATOM     21  O   UNL     1       3.743   7.182  -8.218  1.00  0.00    -0.273 OA
ATOM     22  H   UNL     1       1.061   6.418  -9.724  1.00  0.00     0.164 HD
ATOM     23  G   UNL     1       3.016   7.906 -10.443  1.00  0.00     0.000 G0
ENDBRANCH  18  19
BRANCH  18  24
ATOM     24  C   UNL     1       0.120   4.903  -7.856  1.00  0.00     0.038 C 
BRANCH  24  25
ATOM     25  C   UNL     1      -0.482   4.657  -6.456  1.00  0.00    -0.015 C 
ATOM     26  C   UNL     1      -0.154   3.265  -5.915  1.00  0.00     0.007 C 
ATOM     27  C   UNL     1      -2.000   4.845  -6.509  1.00  0.00     0.007 C 
ENDBRANCH  24  25
ENDBRANCH  18  24
ENDBRANCH  15  18
ENDBRANCH  13  14
BRANCH  13  28
ATOM     28  C   UNL     1       5.846   4.349  -6.566  1.00  0.00     0.327 C 
ATOM     29  O   UNL     1       6.996   3.981  -6.384  1.00  0.00    -0.250 OA
BRANCH  28  30
ATOM     30  O   UNL     1       5.519   5.652  -6.445  1.00  0.00    -0.480 OA
ATOM     31  H   UNL     1       5.824   5.895  -5.546  1.00  0.00     0.296 HD
ENDBRANCH  28  30
ENDBRANCH  13  28
ENDBRANCH  11  13
ENDBRANCH   8  11
ENDBRANCH   6   7
BRANCH   6  32
ATOM     32  C   UNL     1       6.661   3.935  -1.698  1.00  0.00     0.037 C 
BRANCH  32  33
ATOM     33  C   UNL     1       7.825   3.952  -2.698  1.00  0.00     0.026 C 
BRANCH  33  34
ATOM     34  C   UNL     1       8.712   5.187  -2.542  1.00  0.00     0.146 C 
BRANCH  34  35
ATOM     35  N   UNL     1       8.704   5.598  -1.145  1.00  0.00    -0.254 NA
ATOM     36  C   UNL     1       8.424   6.816  -0.864  1.00  0.00     0.185 C 
ATOM     37  N   UNL     1       8.409   7.204   0.420  1.00  0.00    -0.370 N 
ATOM     38  N   UNL     1       8.124   7.827  -1.698  1.00  0.00    -0.370 N 
ATOM     39  H   UNL     1       8.615   6.494   1.112  1.00  0.00     0.159 HD
ATOM     40  H   UNL     1       8.034   8.084   0.731  1.00  0.00     0.159 HD
ATOM     41  H   UNL     1       8.059   8.775  -1.365  1.00  0.00     0.159 HD
ATOM     42  H   UNL     1       8.114   7.684  -2.696  1.00  0.00     0.159 HD
ENDBRANCH  34  35
ENDBRANCH  33  34
ENDBRANCH  32  33
ENDBRANCH   6  32
ENDBRANCH   4   6
ENDBRANCH   1   2
BRANCH   1  43
ATOM     43  C   UNL     1       3.711   7.694  -0.083  1.00  0.00     0.102 C 
ATOM     44  C   UNL     1       4.887   8.684  -0.153  1.00  0.00     0.020 C 
BRANCH  43  45
ATOM     45  C   UNL     1       3.900   6.577   0.948  1.00  0.00     0.225 C 
ATOM     46  O   UNL     1       3.093   5.666   1.105  1.00  0.00    -0.275 OA
ATOM     47  N   UNL     1       5.000   6.705   1.766  1.00  0.00    -0.342 N 
ATOM     48  H   UNL     1       5.726   7.365   1.527  1.00  0.00     0.164 HD
BRANCH  47  49
ATOM     49  C   UNL     1       5.327   5.693   2.774  1.00  0.00     0.192 C 
BRANCH  49  50
ATOM     50  C   UNL     1       5.617   6.376   4.113  1.00  0.00     0.047 C 
BRANCH  50  51
ATOM     51  C   UNL     1       4.419   6.313   5.071  1.00  0.00     0.103 C 
BRANCH  51  52
ATOM     52  C   UNL     1       4.791   5.688   6.414  1.00  0.00     0.226 C 
ATOM     53  O   UNL     1       5.125   4.503   6.464  1.00  0.00    -0.275 OA
BRANCH  52  54
ATOM     54  N   UNL     1       4.799   6.551   7.526  1.00  0.00    -0.311 N 
ATOM     55  C   UNL     1       4.695   8.006   7.354  1.00  0.00     0.153 C 
BRANCH  54  56
ATOM     56  C   UNL     1       4.902   6.055   8.836  1.00  0.00     0.102 C 
ATOM     57  C   UNL     1       3.872   5.603   9.569  1.00  0.00     0.043 C 
BRANCH  56  58
ATOM     58  C   UNL     1       6.243   5.952   9.523  1.00  0.00     0.268 C 
ATOM     59  O   UNL     1       6.649   6.779  10.328  1.00  0.00    -0.268 OA
ATOM     60  N   UNL     1       6.928   4.804   9.201  1.00  0.00    -0.339 N 
ATOM     61  H   UNL     1       6.528   4.174   8.516  1.00  0.00     0.164 HD
BRANCH  60  62
ATOM     62  C   UNL     1       8.220   4.474   9.801  1.00  0.00     0.168 CG0
ATOM     63  C   UNL     1       8.136   3.182  10.603  1.00  0.00     0.041 C 
ATOM     64  G   UNL     1       8.689   5.642  10.693  1.00  0.00     0.000 G0
ENDBRANCH  60  62
ENDBRANCH  56  58
ENDBRANCH  54  56
ENDBRANCH  52  54
ENDBRANCH  51  52
ENDBRANCH  50  51
ENDBRANCH  49  50
BRANCH  49  65
ATOM     65  C   UNL     1       6.542   4.850   2.358  1.00  0.00     0.326 C 
ATOM     66  O   UNL     1       7.709   5.109   2.617  1.00  0.00    -0.250 OA
BRANCH  65  67
ATOM     67  O   UNL     1       6.248   3.773   1.597  1.00  0.00    -0.480 OA
ATOM     68  H   UNL     1       6.930   3.795   0.892  1.00  0.00     0.296 HD
ENDBRANCH  65  67
ENDBRANCH  49  65
ENDBRANCH  47  49
ENDBRANCH  43  45
ENDBRANCH   1  43
BRANCH   1  69
ATOM     69  C   UNL     1       1.834   6.992  -1.812  1.00  0.00    -0.001 C 
ATOM     70  C   UNL     1       1.285   6.292  -2.821  1.00  0.00     0.001 C 
BRANCH  70  71
ATOM     71  C   UNL     1      -0.140   6.166  -3.130  1.00  0.00    -0.055 C 
ATOM     72  C   UNL     1      -0.778   5.054  -2.705  1.00  0.00    -0.018 C 
ATOM     73  C   UNL     1      -0.797   7.287  -3.891  1.00  0.00     0.044 C 
BRANCH  72  74
ATOM     74  C   UNL     1      -2.238   4.657  -2.875  1.00  0.00     0.038 C 
ATOM     75  C   UNL     1      -3.079   5.691  -2.117  1.00  0.00     0.015 C 
BRANCH  74  76
ATOM     76  C   UNL     1      -2.416   3.188  -2.391  1.00  0.00     0.128 C 
BRANCH  76  77
ATOM     77  O   UNL     1      -1.197   2.453  -2.591  1.00  0.00    -0.381 OA
ATOM     78  C   UNL     1      -1.400   1.122  -3.045  1.00  0.00     0.195 C 
ENDBRANCH  76  77
BRANCH  76  79
ATOM     79  C   UNL     1      -2.962   3.063  -0.946  1.00  0.00     0.068 C 
BRANCH  79  80
ATOM     80  C   UNL     1      -1.962   2.948   0.179  1.00  0.00    -0.045 A 
ATOM     81  C   UNL     1      -1.631   1.702   0.727  1.00  0.00     0.004 A 
ATOM     82  C   UNL     1      -1.367   4.100   0.716  1.00  0.00     0.004 A 
ATOM     83  C   UNL     1      -0.716   1.606   1.777  1.00  0.00     0.000 A 
ATOM     84  C   UNL     1      -0.452   4.003   1.767  1.00  0.00     0.000 A 
ATOM     85  C   UNL     1      -0.126   2.756   2.296  1.00  0.00     0.000 A 
ENDBRANCH  79  80
ENDBRANCH  76  79
ENDBRANCH  74  76
ENDBRANCH  72  74
ENDBRANCH  70  71
ENDBRANCH   1  69
TORSDOF 17
ENDMDL
MODEL 35
REMARK VINA RESULT:    -5.359      3.592      7.433
REMARK INTER + INTRA:         -25.160
REMARK INTER:                 -18.081
REMARK INTRA:                  -7.079
REMARK UNBOUND:                -9.148
REMARK SMILES C=C1C(=O)N[C@H](C)C(=O)N[C@@H](CC(C)C)C(=O)N[C@@H](C(=O)O)[C@H](C)C(=O)N[C@@H](CCCN=C(N)N)C(=O)N[C@@H](/C=C/C(C)=C/[C@H](C)[C@H](Cc2ccccc2)OC)[C@H](C)C(=O)N[C@@H](C(=O)O)CCC(=O)N1C
REMARK SMILES IDX 39 1 38 2 37 3 36 4 28 6 27 7 25 8 26 9 23 11 24 12 19 13
REMARK SMILES IDX 18 14 16 15 17 16 11 18 10 19 8 20 9 21 12 24 13 25 14 26
REMARK SMILES IDX 15 27 20 28 21 29 22 30 29 32 30 33 31 34 32 35 33 36 34 37
REMARK SMILES IDX 35 38 57 43 58 44 59 45 60 46 61 47 62 49 66 50 67 51 68 52
REMARK SMILES IDX 69 53 70 54 71 55 2 56 1 57 3 58 4 59 5 60 6 62 7 63 63 65
REMARK SMILES IDX 64 66 65 67 40 69 41 70 42 71 44 72 43 73 45 74 46 75 47 76
REMARK SMILES IDX 55 77 56 78 48 79 49 80 50 81 54 82 51 83 53 84 52 85
REMARK H PARENT 38 5 27 10 18 17 10 22 22 31 34 39 34 40 35 41 35 42 61 48
REMARK H PARENT 5 61 65 68
REMARK Flexibility Score:  369.900
ROOT
ATOM      1  C   UNL     1       6.891   5.573  -2.517  1.00  0.00     0.117 C 
ENDROOT
BRANCH   1   2
ATOM      2  N   UNL     1       7.304   4.535  -3.463  1.00  0.00    -0.347 N 
ATOM      3  O   UNL     1       9.536   4.494  -2.928  1.00  0.00    -0.273 OA
ATOM      4  C   UNL     1       8.582   4.013  -3.529  1.00  0.00     0.243 C 
ATOM      5  H   UNL     1       6.619   4.128  -4.081  1.00  0.00     0.164 HD
BRANCH   4   6
ATOM      6  C   UNL     1       8.733   2.864  -4.559  1.00  0.00     0.171 C 
BRANCH   6   7
ATOM      7  N   UNL     1       7.513   2.739  -5.372  1.00  0.00    -0.344 N 
ATOM      8  C   UNL     1       6.381   2.147  -4.856  1.00  0.00     0.226 C 
ATOM      9  O   UNL     1       6.338   1.682  -3.723  1.00  0.00    -0.275 OA
ATOM     10  H   UNL     1       7.532   3.051  -6.335  1.00  0.00     0.164 HD
BRANCH   8  11
ATOM     11  C   UNL     1       5.191   2.143  -5.799  1.00  0.00     0.109 C 
ATOM     12  C   UNL     1       5.522   2.932  -7.066  1.00  0.00     0.021 C 
BRANCH  11  13
ATOM     13  C   UNL     1       4.723   0.694  -6.041  1.00  0.00     0.204 C 
BRANCH  13  14
ATOM     14  N   UNL     1       3.401   0.641  -6.674  1.00  0.00    -0.340 N 
ATOM     15  C   UNL     1       2.471  -0.333  -6.382  1.00  0.00     0.243 C 
ATOM     16  O   UNL     1       2.661  -1.193  -5.524  1.00  0.00    -0.273 OA
ATOM     17  H   UNL     1       3.238   1.227  -7.497  1.00  0.00     0.164 HD
BRANCH  15  18
ATOM     18  C   UNL     1       1.238  -0.311  -7.319  1.00  0.00     0.171 C 
BRANCH  18  19
ATOM     19  N   UNL     1       0.635  -1.641  -7.249  1.00  0.00    -0.343 N 
ATOM     20  C   UNL     1       1.001  -2.653  -8.116  1.00  0.00     0.242 CG0
ATOM     21  O   UNL     1       1.749  -2.446  -9.068  1.00  0.00    -0.273 OA
ATOM     22  H   UNL     1      -0.075  -1.829  -6.551  1.00  0.00     0.164 HD
ATOM     23  G   UNL     1       0.315  -4.007  -7.839  1.00  0.00     0.000 G0
ENDBRANCH  18  19
BRANCH  18  24
ATOM     24  C   UNL     1       0.248   0.777  -6.886  1.00  0.00     0.038 C 
BRANCH  24  25
ATOM     25  C   UNL     1       0.220   2.022  -7.798  1.00  0.00    -0.015 C 
ATOM     26  C   UNL     1       0.932   1.788  -9.130  1.00  0.00     0.007 C 
ATOM     27  C   UNL     1       0.862   3.207  -7.072  1.00  0.00     0.007 C 
ENDBRANCH  24  25
ENDBRANCH  18  24
ENDBRANCH  15  18
ENDBRANCH  13  14
BRANCH  13  28
ATOM     28  C   UNL     1       5.681  -0.111  -6.924  1.00  0.00     0.327 C 
ATOM     29  O   UNL     1       5.875   0.054  -8.119  1.00  0.00    -0.250 OA
BRANCH  28  30
ATOM     30  O   UNL     1       6.249  -1.150  -6.278  1.00  0.00    -0.480 OA
ATOM     31  H   UNL     1       7.146  -0.830  -6.048  1.00  0.00     0.296 HD
ENDBRANCH  28  30
ENDBRANCH  13  28
ENDBRANCH  11  13
ENDBRANCH   8  11
ENDBRANCH   6   7
BRANCH   6  32
ATOM     32  C   UNL     1       9.955   3.139  -5.442  1.00  0.00     0.037 C 
BRANCH  32  33
ATOM     33  C   UNL     1       9.632   4.098  -6.596  1.00  0.00     0.026 C 
BRANCH  33  34
ATOM     34  C   UNL     1       9.848   3.457  -7.968  1.00  0.00     0.146 C 
BRANCH  34  35
ATOM     35  N   UNL     1       8.587   2.893  -8.428  1.00  0.00    -0.254 NA
ATOM     36  C   UNL     1       8.535   2.376  -9.599  1.00  0.00     0.185 C 
ATOM     37  N   UNL     1       7.379   1.849 -10.031  1.00  0.00    -0.370 N 
ATOM     38  N   UNL     1       9.510   2.270 -10.519  1.00  0.00    -0.370 N 
ATOM     39  H   UNL     1       6.597   1.882  -9.389  1.00  0.00     0.159 HD
ATOM     40  H   UNL     1       7.302   1.278 -10.854  1.00  0.00     0.159 HD
ATOM     41  H   UNL     1       9.309   1.968 -11.458  1.00  0.00     0.159 HD
ATOM     42  H   UNL     1      10.430   2.639 -10.336  1.00  0.00     0.159 HD
ENDBRANCH  34  35
ENDBRANCH  33  34
ENDBRANCH  32  33
ENDBRANCH   6  32
ENDBRANCH   4   6
ENDBRANCH   1   2
BRANCH   1  43
ATOM     43  C   UNL     1       7.226   5.091  -1.076  1.00  0.00     0.102 C 
ATOM     44  C   UNL     1       6.106   4.252  -0.436  1.00  0.00     0.020 C 
BRANCH  43  45
ATOM     45  C   UNL     1       7.706   6.255  -0.205  1.00  0.00     0.225 C 
ATOM     46  O   UNL     1       8.876   6.395   0.142  1.00  0.00    -0.275 OA
ATOM     47  N   UNL     1       6.720   7.098   0.254  1.00  0.00    -0.342 N 
ATOM     48  H   UNL     1       5.798   7.059  -0.157  1.00  0.00     0.164 HD
BRANCH  47  49
ATOM     49  C   UNL     1       7.036   8.275   1.069  1.00  0.00     0.192 C 
BRANCH  49  50
ATOM     50  C   UNL     1       6.291   8.191   2.404  1.00  0.00     0.047 C 
BRANCH  50  51
ATOM     51  C   UNL     1       6.995   8.984   3.514  1.00  0.00     0.103 C 
BRANCH  51  52
ATOM     52  C   UNL     1       6.011   9.499   4.563  1.00  0.00     0.226 C 
ATOM     53  O   UNL     1       5.449   8.701   5.316  1.00  0.00    -0.275 OA
BRANCH  52  54
ATOM     54  N   UNL     1       5.864  10.895   4.652  1.00  0.00    -0.311 N 
ATOM     55  C   UNL     1       6.066  11.597   5.926  1.00  0.00     0.153 C 
BRANCH  54  56
ATOM     56  C   UNL     1       5.526  11.669   3.529  1.00  0.00     0.102 C 
ATOM     57  C   UNL     1       4.451  11.465   2.750  1.00  0.00     0.043 C 
BRANCH  56  58
ATOM     58  C   UNL     1       6.361  12.864   3.131  1.00  0.00     0.268 C 
ATOM     59  O   UNL     1       5.972  14.019   3.240  1.00  0.00    -0.268 OA
ATOM     60  N   UNL     1       7.620  12.523   2.700  1.00  0.00    -0.339 N 
ATOM     61  H   UNL     1       7.862  11.542   2.629  1.00  0.00     0.164 HD
BRANCH  60  62
ATOM     62  C   UNL     1       8.614  13.528   2.325  1.00  0.00     0.168 CG0
ATOM     63  C   UNL     1       8.501  13.885   0.848  1.00  0.00     0.041 C 
ATOM     64  G   UNL     1      10.028  13.005   2.653  1.00  0.00     0.000 G0
ENDBRANCH  60  62
ENDBRANCH  56  58
ENDBRANCH  54  56
ENDBRANCH  52  54
ENDBRANCH  51  52
ENDBRANCH  50  51
ENDBRANCH  49  50
BRANCH  49  65
ATOM     65  C   UNL     1       6.653   9.579   0.353  1.00  0.00     0.326 C 
ATOM     66  O   UNL     1       7.308  10.611   0.358  1.00  0.00    -0.250 OA
BRANCH  65  67
ATOM     67  O   UNL     1       5.456   9.548  -0.274  1.00  0.00    -0.480 OA
ATOM     68  H   UNL     1       4.979  10.320   0.099  1.00  0.00     0.296 HD
ENDBRANCH  65  67
ENDBRANCH  49  65
ENDBRANCH  47  49
ENDBRANCH  43  45
ENDBRANCH   1  43
BRANCH   1  69
ATOM     69  C   UNL     1       5.453   5.912  -2.862  1.00  0.00    -0.001 C 
ATOM     70  C   UNL     1       4.795   5.623  -3.998  1.00  0.00     0.001 C 
BRANCH  70  71
ATOM     71  C   UNL     1       3.399   5.937  -4.311  1.00  0.00    -0.055 C 
ATOM     72  C   UNL     1       2.532   6.036  -3.281  1.00  0.00    -0.018 C 
ATOM     73  C   UNL     1       3.031   6.135  -5.758  1.00  0.00     0.044 C 
BRANCH  72  74
ATOM     74  C   UNL     1       1.043   6.350  -3.303  1.00  0.00     0.038 C 
ATOM     75  C   UNL     1       0.901   7.875  -3.227  1.00  0.00     0.015 C 
BRANCH  74  76
ATOM     76  C   UNL     1       0.350   5.571  -2.146  1.00  0.00     0.128 C 
BRANCH  76  77
ATOM     77  O   UNL     1      -0.796   4.863  -2.647  1.00  0.00    -0.381 OA
ATOM     78  C   UNL     1      -1.715   4.475  -1.636  1.00  0.00     0.195 C 
ENDBRANCH  76  77
BRANCH  76  79
ATOM     79  C   UNL     1       1.309   4.662  -1.336  1.00  0.00     0.068 C 
BRANCH  79  80
ATOM     80  C   UNL     1       1.721   5.120   0.042  1.00  0.00    -0.045 A 
ATOM     81  C   UNL     1       0.961   4.786   1.171  1.00  0.00     0.004 A 
ATOM     82  C   UNL     1       2.865   5.915   0.211  1.00  0.00     0.004 A 
ATOM     83  C   UNL     1       1.341   5.225   2.441  1.00  0.00     0.000 A 
ATOM     84  C   UNL     1       3.244   6.353   1.482  1.00  0.00     0.000 A 
ATOM     85  C   UNL     1       2.483   6.007   2.596  1.00  0.00     0.000 A 
ENDBRANCH  79  80
ENDBRANCH  76  79
ENDBRANCH  74  76
ENDBRANCH  72  74
ENDBRANCH  70  71
ENDBRANCH   1  69
TORSDOF 17
ENDMDL
MODEL 36
REMARK VINA RESULT:    -5.339      2.720     10.433
REMARK INTER + INTRA:         -25.100
REMARK INTER:                 -16.882
REMARK INTRA:                  -8.218
REMARK UNBOUND:                -9.148
REMARK SMILES C=C1C(=O)N[C@H](C)C(=O)N[C@@H](CC(C)C)C(=O)N[C@@H](C(=O)O)[C@H](C)C(=O)N[C@@H](CCCN=C(N)N)C(=O)N[C@@H](/C=C/C(C)=C/[C@H](C)[C@H](Cc2ccccc2)OC)[C@H](C)C(=O)N[C@@H](C(=O)O)CCC(=O)N1C
REMARK SMILES IDX 39 1 38 2 37 3 36 4 28 6 27 7 25 8 26 9 23 11 24 12 19 13
REMARK SMILES IDX 18 14 16 15 17 16 11 18 10 19 8 20 9 21 12 24 13 25 14 26
REMARK SMILES IDX 15 27 20 28 21 29 22 30 29 32 30 33 31 34 32 35 33 36 34 37
REMARK SMILES IDX 35 38 57 43 58 44 59 45 60 46 61 47 62 49 66 50 67 51 68 52
REMARK SMILES IDX 69 53 70 54 71 55 2 56 1 57 3 58 4 59 5 60 6 62 7 63 63 65
REMARK SMILES IDX 64 66 65 67 40 69 41 70 42 71 44 72 43 73 45 74 46 75 47 76
REMARK SMILES IDX 55 77 56 78 48 79 49 80 50 81 54 82 51 83 53 84 52 85
REMARK H PARENT 38 5 27 10 18 17 10 22 22 31 34 39 34 40 35 41 35 42 61 48
REMARK H PARENT 5 61 65 68
REMARK Flexibility Score:  369.900
ROOT
ATOM      1  C   UNL     1       4.672   5.124  -0.802  1.00  0.00     0.117 C 
ENDROOT
BRANCH   1   2
ATOM      2  N   UNL     1       4.227   6.122   0.172  1.00  0.00    -0.347 N 
ATOM      3  O   UNL     1       5.293   5.258   2.012  1.00  0.00    -0.273 OA
ATOM      4  C   UNL     1       4.650   6.160   1.487  1.00  0.00     0.243 C 
ATOM      5  H   UNL     1       3.614   6.865  -0.126  1.00  0.00     0.164 HD
BRANCH   4   6
ATOM      6  C   UNL     1       4.097   7.369   2.284  1.00  0.00     0.171 C 
BRANCH   6   7
ATOM      7  N   UNL     1       4.236   7.138   3.731  1.00  0.00    -0.344 N 
ATOM      8  C   UNL     1       3.175   7.356   4.583  1.00  0.00     0.226 C 
ATOM      9  O   UNL     1       2.089   7.768   4.192  1.00  0.00    -0.275 OA
ATOM     10  H   UNL     1       5.138   6.862   4.099  1.00  0.00     0.164 HD
BRANCH   8  11
ATOM     11  C   UNL     1       3.461   7.021   6.036  1.00  0.00     0.109 C 
ATOM     12  C   UNL     1       2.612   7.899   6.955  1.00  0.00     0.021 C 
BRANCH  11  13
ATOM     13  C   UNL     1       3.302   5.504   6.261  1.00  0.00     0.204 C 
BRANCH  13  14
ATOM     14  N   UNL     1       2.066   4.984   5.669  1.00  0.00    -0.340 N 
ATOM     15  C   UNL     1       1.032   4.474   6.424  1.00  0.00     0.243 C 
ATOM     16  O   UNL     1       1.048   4.475   7.653  1.00  0.00    -0.273 OA
ATOM     17  H   UNL     1       2.051   4.815   4.660  1.00  0.00     0.164 HD
BRANCH  15  18
ATOM     18  C   UNL     1      -0.075   3.796   5.579  1.00  0.00     0.171 C 
BRANCH  18  19
ATOM     19  N   UNL     1      -1.140   4.783   5.415  1.00  0.00    -0.343 N 
ATOM     20  C   UNL     1      -2.384   4.616   5.992  1.00  0.00     0.242 CG0
ATOM     21  O   UNL     1      -2.695   3.570   6.558  1.00  0.00    -0.273 OA
ATOM     22  H   UNL     1      -0.969   5.613   4.858  1.00  0.00     0.164 HD
ATOM     23  G   UNL     1      -3.352   5.797   5.775  1.00  0.00     0.000 G0
ENDBRANCH  18  19
BRANCH  18  24
ATOM     24  C   UNL     1       0.482   3.340   4.224  1.00  0.00     0.038 C 
BRANCH  24  25
ATOM     25  C   UNL     1      -0.222   3.958   2.997  1.00  0.00    -0.015 C 
ATOM     26  C   UNL     1      -0.663   2.903   1.983  1.00  0.00     0.007 C 
ATOM     27  C   UNL     1       0.713   4.964   2.321  1.00  0.00     0.007 C 
ENDBRANCH  24  25
ENDBRANCH  18  24
ENDBRANCH  15  18
ENDBRANCH  13  14
BRANCH  13  28
ATOM     28  C   UNL     1       4.461   4.684   5.686  1.00  0.00     0.327 C 
ATOM     29  O   UNL     1       4.374   3.596   5.137  1.00  0.00    -0.250 OA
BRANCH  28  30
ATOM     30  O   UNL     1       5.670   5.225   5.940  1.00  0.00    -0.480 OA
ATOM     31  H   UNL     1       5.945   5.614   5.084  1.00  0.00     0.296 HD
ENDBRANCH  28  30
ENDBRANCH  13  28
ENDBRANCH  11  13
ENDBRANCH   8  11
ENDBRANCH   6   7
BRANCH   6  32
ATOM     32  C   UNL     1       4.844   8.637   1.858  1.00  0.00     0.037 C 
BRANCH  32  33
ATOM     33  C   UNL     1       3.956   9.585   1.039  1.00  0.00     0.026 C 
BRANCH  33  34
ATOM     34  C   UNL     1       2.920  10.306   1.901  1.00  0.00     0.146 C 
BRANCH  34  35
ATOM     35  N   UNL     1       3.521  11.516   2.445  1.00  0.00    -0.254 NA
ATOM     36  C   UNL     1       3.628  11.631   3.717  1.00  0.00     0.185 C 
ATOM     37  N   UNL     1       4.185  12.740   4.228  1.00  0.00    -0.370 N 
ATOM     38  N   UNL     1       3.249  10.770   4.678  1.00  0.00    -0.370 N 
ATOM     39  H   UNL     1       4.506  13.434   3.566  1.00  0.00     0.159 HD
ATOM     40  H   UNL     1       4.461  12.830   5.191  1.00  0.00     0.159 HD
ATOM     41  H   UNL     1       3.259  11.036   5.649  1.00  0.00     0.159 HD
ATOM     42  H   UNL     1       2.801   9.900   4.438  1.00  0.00     0.159 HD
ENDBRANCH  34  35
ENDBRANCH  33  34
ENDBRANCH  32  33
ENDBRANCH   6  32
ENDBRANCH   4   6
ENDBRANCH   1   2
BRANCH   1  43
ATOM     43  C   UNL     1       5.695   5.794  -1.765  1.00  0.00     0.102 C 
ATOM     44  C   UNL     1       5.160   5.975  -3.196  1.00  0.00     0.020 C 
BRANCH  43  45
ATOM     45  C   UNL     1       7.056   5.095  -1.694  1.00  0.00     0.225 C 
ATOM     46  O   UNL     1       7.787   5.149  -0.709  1.00  0.00    -0.275 OA
ATOM     47  N   UNL     1       7.461   4.468  -2.850  1.00  0.00    -0.342 N 
ATOM     48  H   UNL     1       6.793   4.303  -3.590  1.00  0.00     0.164 HD
BRANCH  47  49
ATOM     49  C   UNL     1       8.725   3.728  -2.918  1.00  0.00     0.192 C 
BRANCH  49  50
ATOM     50  C   UNL     1       9.640   4.369  -3.965  1.00  0.00     0.047 C 
BRANCH  50  51
ATOM     51  C   UNL     1       8.863   4.871  -5.189  1.00  0.00     0.103 C 
BRANCH  51  52
ATOM     52  C   UNL     1       8.825   3.833  -6.309  1.00  0.00     0.226 C 
ATOM     53  O   UNL     1       9.844   3.200  -6.589  1.00  0.00    -0.275 OA
BRANCH  52  54
ATOM     54  N   UNL     1       7.574   3.609  -6.914  1.00  0.00    -0.311 N 
ATOM     55  C   UNL     1       7.024   2.252  -7.032  1.00  0.00     0.153 C 
BRANCH  54  56
ATOM     56  C   UNL     1       6.804   4.669  -7.419  1.00  0.00     0.102 C 
ATOM     57  C   UNL     1       5.617   5.060  -6.927  1.00  0.00     0.043 C 
BRANCH  56  58
ATOM     58  C   UNL     1       7.302   5.507  -8.573  1.00  0.00     0.268 C 
ATOM     59  O   UNL     1       7.391   6.727  -8.526  1.00  0.00    -0.268 OA
ATOM     60  N   UNL     1       7.705   4.756  -9.652  1.00  0.00    -0.339 N 
ATOM     61  H   UNL     1       7.588   3.751  -9.616  1.00  0.00     0.164 HD
BRANCH  60  62
ATOM     62  C   UNL     1       8.279   5.363 -10.852  1.00  0.00     0.168 CG0
ATOM     63  C   UNL     1       7.999   4.509 -12.083  1.00  0.00     0.041 C 
ATOM     64  G   UNL     1       9.796   5.559 -10.657  1.00  0.00     0.000 G0
ENDBRANCH  60  62
ENDBRANCH  56  58
ENDBRANCH  54  56
ENDBRANCH  52  54
ENDBRANCH  51  52
ENDBRANCH  50  51
ENDBRANCH  49  50
BRANCH  49  65
ATOM     65  C   UNL     1       8.498   2.251  -3.276  1.00  0.00     0.326 C 
ATOM     66  O   UNL     1       7.423   1.748  -3.568  1.00  0.00    -0.250 OA
BRANCH  65  67
ATOM     67  O   UNL     1       9.601   1.475  -3.194  1.00  0.00    -0.480 OA
ATOM     68  H   UNL     1      10.247   2.041  -2.719  1.00  0.00     0.296 HD
ENDBRANCH  65  67
ENDBRANCH  49  65
ENDBRANCH  47  49
ENDBRANCH  43  45
ENDBRANCH   1  43
BRANCH   1  69
ATOM     69  C   UNL     1       3.412   4.509  -1.384  1.00  0.00    -0.001 C 
ATOM     70  C   UNL     1       2.271   4.217  -0.735  1.00  0.00     0.001 C 
BRANCH  70  71
ATOM     71  C   UNL     1       1.054   3.642  -1.311  1.00  0.00    -0.055 C 
ATOM     72  C   UNL     1       1.121   2.384  -1.794  1.00  0.00    -0.018 C 
ATOM     73  C   UNL     1      -0.190   4.493  -1.317  1.00  0.00     0.044 C 
BRANCH  72  74
ATOM     74  C   UNL     1       0.030   1.540  -2.438  1.00  0.00     0.038 C 
ATOM     75  C   UNL     1       0.160   0.122  -1.868  1.00  0.00     0.015 C 
BRANCH  74  76
ATOM     76  C   UNL     1       0.170   1.637  -3.986  1.00  0.00     0.128 C 
BRANCH  76  77
ATOM     77  O   UNL     1      -0.872   2.469  -4.522  1.00  0.00    -0.381 OA
ATOM     78  C   UNL     1      -1.735   1.792  -5.425  1.00  0.00     0.195 C 
ENDBRANCH  76  77
BRANCH  76  79
ATOM     79  C   UNL     1       1.582   2.061  -4.465  1.00  0.00     0.068 C 
BRANCH  79  80
ATOM     80  C   UNL     1       1.696   3.301  -5.319  1.00  0.00    -0.045 A 
ATOM     81  C   UNL     1       1.829   4.568  -4.737  1.00  0.00     0.004 A 
ATOM     82  C   UNL     1       1.642   3.203  -6.717  1.00  0.00     0.004 A 
ATOM     83  C   UNL     1       1.919   5.711  -5.534  1.00  0.00     0.000 A 
ATOM     84  C   UNL     1       1.732   4.347  -7.513  1.00  0.00     0.000 A 
ATOM     85  C   UNL     1       1.872   5.600  -6.922  1.00  0.00     0.000 A 
ENDBRANCH  79  80
ENDBRANCH  76  79
ENDBRANCH  74  76
ENDBRANCH  72  74
ENDBRANCH  70  71
ENDBRANCH   1  69
TORSDOF 17
ENDMDL
MODEL 37
REMARK VINA RESULT:    -5.337      4.288     10.541
REMARK INTER + INTRA:         -25.093
REMARK INTER:                 -16.736
REMARK INTRA:                  -8.356
REMARK UNBOUND:                -9.148
REMARK SMILES C=C1C(=O)N[C@H](C)C(=O)N[C@@H](CC(C)C)C(=O)N[C@@H](C(=O)O)[C@H](C)C(=O)N[C@@H](CCCN=C(N)N)C(=O)N[C@@H](/C=C/C(C)=C/[C@H](C)[C@H](Cc2ccccc2)OC)[C@H](C)C(=O)N[C@@H](C(=O)O)CCC(=O)N1C
REMARK SMILES IDX 39 1 38 2 37 3 36 4 28 6 27 7 25 8 26 9 23 11 24 12 19 13
REMARK SMILES IDX 18 14 16 15 17 16 11 18 10 19 8 20 9 21 12 24 13 25 14 26
REMARK SMILES IDX 15 27 20 28 21 29 22 30 29 32 30 33 31 34 32 35 33 36 34 37
REMARK SMILES IDX 35 38 57 43 58 44 59 45 60 46 61 47 62 49 66 50 67 51 68 52
REMARK SMILES IDX 69 53 70 54 71 55 2 56 1 57 3 58 4 59 5 60 6 62 7 63 63 65
REMARK SMILES IDX 64 66 65 67 40 69 41 70 42 71 44 72 43 73 45 74 46 75 47 76
REMARK SMILES IDX 55 77 56 78 48 79 49 80 50 81 54 82 51 83 53 84 52 85
REMARK H PARENT 38 5 27 10 18 17 10 22 22 31 34 39 34 40 35 41 35 42 61 48
REMARK H PARENT 5 61 65 68
REMARK Flexibility Score:  369.900
ROOT
ATOM      1  C   UNL     1       1.858   4.582   0.138  1.00  0.00     0.117 C 
ENDROOT
BRANCH   1   2
ATOM      2  N   UNL     1       0.564   4.578   0.823  1.00  0.00    -0.347 N 
ATOM      3  O   UNL     1       1.347   4.343   2.968  1.00  0.00    -0.273 OA
ATOM      4  C   UNL     1       0.416   4.551   2.196  1.00  0.00     0.243 C 
ATOM      5  H   UNL     1      -0.283   4.649   0.280  1.00  0.00     0.164 HD
BRANCH   4   6
ATOM      6  C   UNL     1      -1.058   4.642   2.666  1.00  0.00     0.171 C 
BRANCH   6   7
ATOM      7  N   UNL     1      -1.792   3.421   2.297  1.00  0.00    -0.344 N 
ATOM      8  C   UNL     1      -2.453   3.337   1.091  1.00  0.00     0.226 C 
ATOM      9  O   UNL     1      -2.484   4.262   0.288  1.00  0.00    -0.275 OA
ATOM     10  H   UNL     1      -1.846   2.661   2.963  1.00  0.00     0.164 HD
BRANCH   8  11
ATOM     11  C   UNL     1      -3.116   1.995   0.834  1.00  0.00     0.109 C 
ATOM     12  C   UNL     1      -3.137   1.698  -0.666  1.00  0.00     0.021 C 
BRANCH  11  13
ATOM     13  C   UNL     1      -2.449   0.909   1.701  1.00  0.00     0.204 C 
BRANCH  13  14
ATOM     14  N   UNL     1      -3.268  -0.304   1.792  1.00  0.00    -0.340 N 
ATOM     15  C   UNL     1      -3.943  -0.667   2.937  1.00  0.00     0.243 C 
ATOM     16  O   UNL     1      -3.955   0.034   3.947  1.00  0.00    -0.273 OA
ATOM     17  H   UNL     1      -3.178  -1.001   1.048  1.00  0.00     0.164 HD
BRANCH  15  18
ATOM     18  C   UNL     1      -4.565  -2.083   2.866  1.00  0.00     0.171 C 
BRANCH  18  19
ATOM     19  N   UNL     1      -6.006  -1.917   3.050  1.00  0.00    -0.343 N 
ATOM     20  C   UNL     1      -6.629  -2.233   4.242  1.00  0.00     0.242 CG0
ATOM     21  O   UNL     1      -6.026  -2.792   5.155  1.00  0.00    -0.273 OA
ATOM     22  H   UNL     1      -6.568  -1.566   2.283  1.00  0.00     0.164 HD
ATOM     23  G   UNL     1      -8.139  -1.916   4.274  1.00  0.00     0.000 G0
ENDBRANCH  18  19
BRANCH  18  24
ATOM     24  C   UNL     1      -4.244  -2.749   1.522  1.00  0.00     0.038 C 
BRANCH  24  25
ATOM     25  C   UNL     1      -3.190  -3.873   1.595  1.00  0.00    -0.015 C 
ATOM     26  C   UNL     1      -2.380  -4.002   0.305  1.00  0.00     0.007 C 
ATOM     27  C   UNL     1      -3.878  -5.205   1.907  1.00  0.00     0.007 C 
ENDBRANCH  24  25
ENDBRANCH  18  24
ENDBRANCH  15  18
ENDBRANCH  13  14
BRANCH  13  28
ATOM     28  C   UNL     1      -1.070   0.488   1.186  1.00  0.00     0.327 C 
ATOM     29  O   UNL     1      -0.122   1.228   0.970  1.00  0.00    -0.250 OA
BRANCH  28  30
ATOM     30  O   UNL     1      -1.002  -0.819   0.862  1.00  0.00    -0.480 OA
ATOM     31  H   UNL     1      -1.128  -0.834  -0.109  1.00  0.00     0.296 HD
ENDBRANCH  28  30
ENDBRANCH  13  28
ENDBRANCH  11  13
ENDBRANCH   8  11
ENDBRANCH   6   7
BRANCH   6  32
ATOM     32  C   UNL     1      -1.090   4.862   4.183  1.00  0.00     0.037 C 
BRANCH  32  33
ATOM     33  C   UNL     1      -1.141   6.352   4.551  1.00  0.00     0.026 C 
BRANCH  33  34
ATOM     34  C   UNL     1      -0.110   6.728   5.615  1.00  0.00     0.146 C 
BRANCH  34  35
ATOM     35  N   UNL     1       0.752   7.775   5.084  1.00  0.00    -0.254 NA
ATOM     36  C   UNL     1       1.950   7.472   4.745  1.00  0.00     0.185 C 
ATOM     37  N   UNL     1       2.751   8.429   4.250  1.00  0.00    -0.370 N 
ATOM     38  N   UNL     1       2.569   6.280   4.807  1.00  0.00    -0.370 N 
ATOM     39  H   UNL     1       2.352   9.355   4.162  1.00  0.00     0.159 HD
ATOM     40  H   UNL     1       3.632   8.240   3.804  1.00  0.00     0.159 HD
ATOM     41  H   UNL     1       3.559   6.199   4.640  1.00  0.00     0.159 HD
ATOM     42  H   UNL     1       2.091   5.472   5.174  1.00  0.00     0.159 HD
ENDBRANCH  34  35
ENDBRANCH  33  34
ENDBRANCH  32  33
ENDBRANCH   6  32
ENDBRANCH   4   6
ENDBRANCH   1   2
BRANCH   1  43
ATOM     43  C   UNL     1       2.377   6.047   0.069  1.00  0.00     0.102 C 
ATOM     44  C   UNL     1       2.413   6.616  -1.360  1.00  0.00     0.020 C 
BRANCH  43  45
ATOM     45  C   UNL     1       3.696   6.199   0.832  1.00  0.00     0.225 C 
ATOM     46  O   UNL     1       3.761   6.635   1.978  1.00  0.00    -0.275 OA
ATOM     47  N   UNL     1       4.833   5.903   0.116  1.00  0.00    -0.342 N 
ATOM     48  H   UNL     1       4.757   5.408  -0.761  1.00  0.00     0.164 HD
BRANCH  47  49
ATOM     49  C   UNL     1       6.163   5.970   0.728  1.00  0.00     0.192 C 
BRANCH  49  50
ATOM     50  C   UNL     1       7.204   6.315  -0.340  1.00  0.00     0.047 C 
BRANCH  50  51
ATOM     51  C   UNL     1       6.663   6.125  -1.763  1.00  0.00     0.103 C 
BRANCH  51  52
ATOM     52  C   UNL     1       7.196   4.850  -2.415  1.00  0.00     0.226 C 
ATOM     53  O   UNL     1       8.332   4.457  -2.144  1.00  0.00    -0.275 OA
BRANCH  52  54
ATOM     54  N   UNL     1       6.302   4.150  -3.246  1.00  0.00    -0.311 N 
ATOM     55  C   UNL     1       4.863   4.445  -3.227  1.00  0.00     0.153 C 
BRANCH  54  56
ATOM     56  C   UNL     1       6.751   3.151  -4.126  1.00  0.00     0.102 C 
ATOM     57  C   UNL     1       6.476   1.842  -4.007  1.00  0.00     0.043 C 
BRANCH  56  58
ATOM     58  C   UNL     1       7.571   3.503  -5.345  1.00  0.00     0.268 C 
ATOM     59  O   UNL     1       7.394   4.522  -6.000  1.00  0.00    -0.268 OA
ATOM     60  N   UNL     1       8.574   2.599  -5.601  1.00  0.00    -0.339 N 
ATOM     61  H   UNL     1       8.647   1.775  -5.017  1.00  0.00     0.164 HD
BRANCH  60  62
ATOM     62  C   UNL     1       9.526   2.780  -6.696  1.00  0.00     0.168 CG0
ATOM     63  C   UNL     1       9.126   1.951  -7.911  1.00  0.00     0.041 C 
ATOM     64  G   UNL     1      10.942   2.400  -6.219  1.00  0.00     0.000 G0
ENDBRANCH  60  62
ENDBRANCH  56  58
ENDBRANCH  54  56
ENDBRANCH  52  54
ENDBRANCH  51  52
ENDBRANCH  50  51
ENDBRANCH  49  50
BRANCH  49  65
ATOM     65  C   UNL     1       6.545   4.642   1.401  1.00  0.00     0.326 C 
ATOM     66  O   UNL     1       7.200   3.748   0.887  1.00  0.00    -0.250 OA
BRANCH  65  67
ATOM     67  O   UNL     1       6.042   4.475   2.644  1.00  0.00    -0.480 OA
ATOM     68  H   UNL     1       6.458   3.641   2.952  1.00  0.00     0.296 HD
ENDBRANCH  65  67
ENDBRANCH  49  65
ENDBRANCH  47  49
ENDBRANCH  43  45
ENDBRANCH   1  43
BRANCH   1  69
ATOM     69  C   UNL     1       1.655   3.813  -1.155  1.00  0.00    -0.001 C 
ATOM     70  C   UNL     1       0.498   3.340  -1.651  1.00  0.00     0.001 C 
BRANCH  70  71
ATOM     71  C   UNL     1       0.312   2.618  -2.912  1.00  0.00    -0.055 C 
ATOM     72  C   UNL     1       0.415   1.272  -2.885  1.00  0.00    -0.018 C 
ATOM     73  C   UNL     1       0.010   3.427  -4.146  1.00  0.00     0.044 C 
BRANCH  72  74
ATOM     74  C   UNL     1       0.268   0.273  -4.024  1.00  0.00     0.038 C 
ATOM     75  C   UNL     1      -1.023  -0.514  -3.772  1.00  0.00     0.015 C 
BRANCH  74  76
ATOM     76  C   UNL     1       1.559  -0.595  -4.097  1.00  0.00     0.128 C 
BRANCH  76  77
ATOM     77  O   UNL     1       1.243  -1.969  -3.813  1.00  0.00    -0.381 OA
ATOM     78  C   UNL     1       1.749  -2.882  -4.777  1.00  0.00     0.195 C 
ENDBRANCH  76  77
BRANCH  76  79
ATOM     79  C   UNL     1       2.359  -0.424  -5.412  1.00  0.00     0.068 C 
BRANCH  79  80
ATOM     80  C   UNL     1       2.366   0.938  -6.064  1.00  0.00    -0.045 A 
ATOM     81  C   UNL     1       3.143   1.982  -5.546  1.00  0.00     0.004 A 
ATOM     82  C   UNL     1       1.565   1.187  -7.189  1.00  0.00     0.004 A 
ATOM     83  C   UNL     1       3.133   3.243  -6.147  1.00  0.00     0.000 A 
ATOM     84  C   UNL     1       1.555   2.449  -7.788  1.00  0.00     0.000 A 
ATOM     85  C   UNL     1       2.339   3.475  -7.268  1.00  0.00     0.000 A 
ENDBRANCH  79  80
ENDBRANCH  76  79
ENDBRANCH  74  76
ENDBRANCH  72  74
ENDBRANCH  70  71
ENDBRANCH   1  69
TORSDOF 17
ENDMDL
MODEL 38
REMARK VINA RESULT:    -5.303      4.486      9.525
REMARK INTER + INTRA:         -24.992
REMARK INTER:                 -17.176
REMARK INTRA:                  -7.816
REMARK UNBOUND:                -9.148
REMARK SMILES C=C1C(=O)N[C@H](C)C(=O)N[C@@H](CC(C)C)C(=O)N[C@@H](C(=O)O)[C@H](C)C(=O)N[C@@H](CCCN=C(N)N)C(=O)N[C@@H](/C=C/C(C)=C/[C@H](C)[C@H](Cc2ccccc2)OC)[C@H](C)C(=O)N[C@@H](C(=O)O)CCC(=O)N1C
REMARK SMILES IDX 39 1 38 2 37 3 36 4 28 6 27 7 25 8 26 9 23 11 24 12 19 13
REMARK SMILES IDX 18 14 16 15 17 16 11 18 10 19 8 20 9 21 12 24 13 25 14 26
REMARK SMILES IDX 15 27 20 28 21 29 22 30 29 32 30 33 31 34 32 35 33 36 34 37
REMARK SMILES IDX 35 38 57 43 58 44 59 45 60 46 61 47 62 49 66 50 67 51 68 52
REMARK SMILES IDX 69 53 70 54 71 55 2 56 1 57 3 58 4 59 5 60 6 62 7 63 63 65
REMARK SMILES IDX 64 66 65 67 40 69 41 70 42 71 44 72 43 73 45 74 46 75 47 76
REMARK SMILES IDX 55 77 56 78 48 79 49 80 50 81 54 82 51 83 53 84 52 85
REMARK H PARENT 38 5 27 10 18 17 10 22 22 31 34 39 34 40 35 41 35 42 61 48
REMARK H PARENT 5 61 65 68
REMARK Flexibility Score:  369.900
ROOT
ATOM      1  C   UNL     1       0.609   4.632   2.070  1.00  0.00     0.117 C 
ENDROOT
BRANCH   1   2
ATOM      2  N   UNL     1       1.217   5.235   0.884  1.00  0.00    -0.347 N 
ATOM      3  O   UNL     1       1.330   3.340  -0.407  1.00  0.00    -0.273 OA
ATOM      4  C   UNL     1       1.446   4.556  -0.298  1.00  0.00     0.243 C 
ATOM      5  H   UNL     1       1.446   6.217   0.890  1.00  0.00     0.164 HD
BRANCH   4   6
ATOM      6  C   UNL     1       2.020   5.448  -1.428  1.00  0.00     0.171 C 
BRANCH   6   7
ATOM      7  N   UNL     1       3.381   5.015  -1.782  1.00  0.00    -0.344 N 
ATOM      8  C   UNL     1       4.419   5.153  -0.885  1.00  0.00     0.226 C 
ATOM      9  O   UNL     1       4.271   5.653   0.223  1.00  0.00    -0.275 OA
ATOM     10  H   UNL     1       3.556   4.659  -2.714  1.00  0.00     0.164 HD
BRANCH   8  11
ATOM     11  C   UNL     1       5.748   4.610  -1.379  1.00  0.00     0.109 C 
ATOM     12  C   UNL     1       5.517   3.443  -2.338  1.00  0.00     0.021 C 
BRANCH  11  13
ATOM     13  C   UNL     1       6.601   5.761  -1.951  1.00  0.00     0.204 C 
BRANCH  13  14
ATOM     14  N   UNL     1       7.027   6.702  -0.911  1.00  0.00    -0.340 N 
ATOM     15  C   UNL     1       7.500   6.295   0.318  1.00  0.00     0.243 C 
ATOM     16  O   UNL     1       7.656   5.110   0.606  1.00  0.00    -0.273 OA
ATOM     17  H   UNL     1       6.783   7.689  -1.027  1.00  0.00     0.164 HD
BRANCH  15  18
ATOM     18  C   UNL     1       7.690   7.458   1.323  1.00  0.00     0.171 C 
BRANCH  18  19
ATOM     19  N   UNL     1       9.032   7.990   1.098  1.00  0.00    -0.343 N 
ATOM     20  C   UNL     1      10.130   7.518   1.792  1.00  0.00     0.242 CG0
ATOM     21  O   UNL     1      10.010   6.725   2.723  1.00  0.00    -0.273 OA
ATOM     22  H   UNL     1       9.166   8.731   0.419  1.00  0.00     0.164 HD
ATOM     23  G   UNL     1      11.472   8.145   1.364  1.00  0.00     0.000 G0
ENDBRANCH  18  19
BRANCH  18  24
ATOM     24  C   UNL     1       6.617   8.533   1.116  1.00  0.00     0.038 C 
BRANCH  24  25
ATOM     25  C   UNL     1       5.464   8.499   2.142  1.00  0.00    -0.015 C 
ATOM     26  C   UNL     1       4.121   8.894   1.527  1.00  0.00     0.007 C 
ATOM     27  C   UNL     1       5.789   9.430   3.313  1.00  0.00     0.007 C 
ENDBRANCH  24  25
ENDBRANCH  18  24
ENDBRANCH  15  18
ENDBRANCH  13  14
BRANCH  13  28
ATOM     28  C   UNL     1       7.864   5.276  -2.670  1.00  0.00     0.327 C 
ATOM     29  O   UNL     1       8.831   4.742  -2.150  1.00  0.00    -0.250 OA
BRANCH  28  30
ATOM     30  O   UNL     1       7.884   5.600  -3.979  1.00  0.00    -0.480 OA
ATOM     31  H   UNL     1       8.688   6.151  -4.078  1.00  0.00     0.296 HD
ENDBRANCH  28  30
ENDBRANCH  13  28
ENDBRANCH  11  13
ENDBRANCH   8  11
ENDBRANCH   6   7
BRANCH   6  32
ATOM     32  C   UNL     1       1.090   5.380  -2.644  1.00  0.00     0.037 C 
BRANCH  32  33
ATOM     33  C   UNL     1       0.433   6.734  -2.946  1.00  0.00     0.026 C 
BRANCH  33  34
ATOM     34  C   UNL     1       0.961   7.366  -4.235  1.00  0.00     0.146 C 
BRANCH  34  35
ATOM     35  N   UNL     1       1.326   6.305  -5.163  1.00  0.00    -0.254 NA
ATOM     36  C   UNL     1       2.382   6.447  -5.874  1.00  0.00     0.185 C 
ATOM     37  N   UNL     1       2.730   5.473  -6.729  1.00  0.00    -0.370 N 
ATOM     38  N   UNL     1       3.249   7.475  -5.903  1.00  0.00    -0.370 N 
ATOM     39  H   UNL     1       2.131   4.658  -6.758  1.00  0.00     0.159 HD
ATOM     40  H   UNL     1       3.624   5.429  -7.188  1.00  0.00     0.159 HD
ATOM     41  H   UNL     1       3.966   7.531  -6.607  1.00  0.00     0.159 HD
ATOM     42  H   UNL     1       3.103   8.285  -5.322  1.00  0.00     0.159 HD
ENDBRANCH  34  35
ENDBRANCH  33  34
ENDBRANCH  32  33
ENDBRANCH   6  32
ENDBRANCH   4   6
ENDBRANCH   1   2
BRANCH   1  43
ATOM     43  C   UNL     1      -0.938   4.761   1.954  1.00  0.00     0.102 C 
ATOM     44  C   UNL     1      -1.572   5.570   3.098  1.00  0.00     0.020 C 
BRANCH  43  45
ATOM     45  C   UNL     1      -1.588   3.394   1.725  1.00  0.00     0.225 C 
ATOM     46  O   UNL     1      -2.804   3.231   1.665  1.00  0.00    -0.275 OA
ATOM     47  N   UNL     1      -0.722   2.325   1.682  1.00  0.00    -0.342 N 
ATOM     48  H   UNL     1       0.270   2.489   1.580  1.00  0.00     0.164 HD
BRANCH  47  49
ATOM     49  C   UNL     1      -1.199   0.962   1.434  1.00  0.00     0.192 C 
BRANCH  49  50
ATOM     50  C   UNL     1      -0.944   0.095   2.670  1.00  0.00     0.047 C 
BRANCH  50  51
ATOM     51  C   UNL     1      -2.191  -0.037   3.555  1.00  0.00     0.103 C 
BRANCH  51  52
ATOM     52  C   UNL     1      -2.274   1.076   4.598  1.00  0.00     0.226 C 
ATOM     53  O   UNL     1      -1.373   1.914   4.668  1.00  0.00    -0.275 OA
BRANCH  52  54
ATOM     54  N   UNL     1      -3.442   1.115   5.381  1.00  0.00    -0.311 N 
ATOM     55  C   UNL     1      -4.015   2.394   5.822  1.00  0.00     0.153 C 
BRANCH  54  56
ATOM     56  C   UNL     1      -4.107  -0.062   5.765  1.00  0.00     0.102 C 
ATOM     57  C   UNL     1      -3.830  -0.775   6.869  1.00  0.00     0.043 C 
BRANCH  56  58
ATOM     58  C   UNL     1      -5.257  -0.604   4.949  1.00  0.00     0.268 C 
ATOM     59  O   UNL     1      -5.776   0.015   4.031  1.00  0.00    -0.268 OA
ATOM     60  N   UNL     1      -5.612  -1.884   5.301  1.00  0.00    -0.339 N 
ATOM     61  H   UNL     1      -5.139  -2.324   6.081  1.00  0.00     0.164 HD
BRANCH  60  62
ATOM     62  C   UNL     1      -6.661  -2.622   4.598  1.00  0.00     0.168 CG0
ATOM     63  C   UNL     1      -6.086  -3.400   3.421  1.00  0.00     0.041 C 
ATOM     64  G   UNL     1      -7.754  -1.642   4.124  1.00  0.00     0.000 G0
ENDBRANCH  60  62
ENDBRANCH  56  58
ENDBRANCH  54  56
ENDBRANCH  52  54
ENDBRANCH  51  52
ENDBRANCH  50  51
ENDBRANCH  49  50
BRANCH  49  65
ATOM     65  C   UNL     1      -0.504   0.331   0.217  1.00  0.00     0.326 C 
ATOM     66  O   UNL     1       0.017  -0.775   0.191  1.00  0.00    -0.250 OA
BRANCH  65  67
ATOM     67  O   UNL     1      -0.441   1.127  -0.872  1.00  0.00    -0.480 OA
ATOM     68  H   UNL     1       0.522   1.231  -1.029  1.00  0.00     0.296 HD
ENDBRANCH  65  67
ENDBRANCH  49  65
ENDBRANCH  47  49
ENDBRANCH  43  45
ENDBRANCH   1  43
BRANCH   1  69
ATOM     69  C   UNL     1       1.308   5.251   3.266  1.00  0.00    -0.001 C 
ATOM     70  C   UNL     1       2.295   6.165   3.253  1.00  0.00     0.001 C 
BRANCH  70  71
ATOM     71  C   UNL     1       2.948   6.771   4.415  1.00  0.00    -0.055 C 
ATOM     72  C   UNL     1       4.039   6.153   4.915  1.00  0.00    -0.018 C 
ATOM     73  C   UNL     1       2.363   8.046   4.964  1.00  0.00     0.044 C 
BRANCH  72  74
ATOM     74  C   UNL     1       4.912   6.548   6.097  1.00  0.00     0.038 C 
ATOM     75  C   UNL     1       6.345   6.699   5.571  1.00  0.00     0.015 C 
BRANCH  74  76
ATOM     76  C   UNL     1       4.739   5.488   7.225  1.00  0.00     0.128 C 
BRANCH  76  77
ATOM     77  O   UNL     1       6.007   5.225   7.850  1.00  0.00    -0.381 OA
ATOM     78  C   UNL     1       6.087   5.683   9.193  1.00  0.00     0.195 C 
ENDBRANCH  76  77
BRANCH  76  79
ATOM     79  C   UNL     1       3.626   5.831   8.247  1.00  0.00     0.068 C 
BRANCH  79  80
ATOM     80  C   UNL     1       2.192   5.615   7.829  1.00  0.00    -0.045 A 
ATOM     81  C   UNL     1       1.827   4.515   7.042  1.00  0.00     0.004 A 
ATOM     82  C   UNL     1       1.201   6.536   8.201  1.00  0.00     0.004 A 
ATOM     83  C   UNL     1       0.500   4.330   6.648  1.00  0.00     0.000 A 
ATOM     84  C   UNL     1      -0.126   6.350   7.806  1.00  0.00     0.000 A 
ATOM     85  C   UNL     1      -0.476   5.247   7.031  1.00  0.00     0.000 A 
ENDBRANCH  79  80
ENDBRANCH  76  79
ENDBRANCH  74  76
ENDBRANCH  72  74
ENDBRANCH  70  71
ENDBRANCH   1  69
TORSDOF 17
ENDMDL
MODEL 39
REMARK VINA RESULT:    -5.298     12.692     20.360
REMARK INTER + INTRA:         -24.976
REMARK INTER:                 -18.977
REMARK INTRA:                  -5.999
REMARK UNBOUND:                -9.148
REMARK SMILES C=C1C(=O)N[C@H](C)C(=O)N[C@@H](CC(C)C)C(=O)N[C@@H](C(=O)O)[C@H](C)C(=O)N[C@@H](CCCN=C(N)N)C(=O)N[C@@H](/C=C/C(C)=C/[C@H](C)[C@H](Cc2ccccc2)OC)[C@H](C)C(=O)N[C@@H](C(=O)O)CCC(=O)N1C
REMARK SMILES IDX 39 1 38 2 37 3 36 4 28 6 27 7 25 8 26 9 23 11 24 12 19 13
REMARK SMILES IDX 18 14 16 15 17 16 11 18 10 19 8 20 9 21 12 24 13 25 14 26
REMARK SMILES IDX 15 27 20 28 21 29 22 30 29 32 30 33 31 34 32 35 33 36 34 37
REMARK SMILES IDX 35 38 57 43 58 44 59 45 60 46 61 47 62 49 66 50 67 51 68 52
REMARK SMILES IDX 69 53 70 54 71 55 2 56 1 57 3 58 4 59 5 60 6 62 7 63 63 65
REMARK SMILES IDX 64 66 65 67 40 69 41 70 42 71 44 72 43 73 45 74 46 75 47 76
REMARK SMILES IDX 55 77 56 78 48 79 49 80 50 81 54 82 51 83 53 84 52 85
REMARK H PARENT 38 5 27 10 18 17 10 22 22 31 34 39 34 40 35 41 35 42 61 48
REMARK H PARENT 5 61 65 68
REMARK Flexibility Score:  369.900
ROOT
ATOM      1  C   UNL     1      -7.359   1.001   9.687  1.00  0.00     0.117 C 
ENDROOT
BRANCH   1   2
ATOM      2  N   UNL     1      -7.654   0.270  10.920  1.00  0.00    -0.347 N 
ATOM      3  O   UNL     1      -6.582  -1.689  10.385  1.00  0.00    -0.273 OA
ATOM      4  C   UNL     1      -7.162  -0.988  11.209  1.00  0.00     0.243 C 
ATOM      5  H   UNL     1      -8.207   0.713  11.637  1.00  0.00     0.164 HD
BRANCH   4   6
ATOM      6  C   UNL     1      -7.553  -1.502  12.617  1.00  0.00     0.171 C 
BRANCH   6   7
ATOM      7  N   UNL     1      -8.978  -1.244  12.882  1.00  0.00    -0.344 N 
ATOM      8  C   UNL     1      -9.946  -1.684  12.006  1.00  0.00     0.226 C 
ATOM      9  O   UNL     1      -9.677  -2.282  10.970  1.00  0.00    -0.275 OA
ATOM     10  H   UNL     1      -9.235  -0.695  13.692  1.00  0.00     0.164 HD
BRANCH   8  11
ATOM     11  C   UNL     1     -11.369  -1.388  12.445  1.00  0.00     0.109 C 
ATOM     12  C   UNL     1     -11.809  -0.022  11.918  1.00  0.00     0.021 C 
BRANCH  11  13
ATOM     13  C   UNL     1     -12.290  -2.561  12.056  1.00  0.00     0.204 C 
BRANCH  13  14
ATOM     14  N   UNL     1     -11.766  -3.851  12.516  1.00  0.00    -0.340 N 
ATOM     15  C   UNL     1     -11.751  -4.978  11.724  1.00  0.00     0.243 C 
ATOM     16  O   UNL     1     -12.122  -4.967  10.552  1.00  0.00    -0.273 OA
ATOM     17  H   UNL     1     -11.585  -3.966  13.517  1.00  0.00     0.164 HD
BRANCH  15  18
ATOM     18  C   UNL     1     -11.348  -6.265  12.486  1.00  0.00     0.171 C 
BRANCH  18  19
ATOM     19  N   UNL     1     -12.591  -6.937  12.860  1.00  0.00    -0.343 N 
ATOM     20  C   UNL     1     -13.261  -6.630  14.028  1.00  0.00     0.242 CG0
ATOM     21  O   UNL     1     -12.777  -5.877  14.870  1.00  0.00    -0.273 OA
ATOM     22  H   UNL     1     -12.972  -7.652  12.252  1.00  0.00     0.164 HD
ATOM     23  G   UNL     1     -14.594  -7.385  14.214  1.00  0.00     0.000 G0
ENDBRANCH  18  19
BRANCH  18  24
ATOM     24  C   UNL     1     -10.467  -7.161  11.607  1.00  0.00     0.038 C 
BRANCH  24  25
ATOM     25  C   UNL     1      -9.809  -8.344  12.348  1.00  0.00    -0.015 C 
ATOM     26  C   UNL     1      -9.037  -7.899  13.591  1.00  0.00     0.007 C 
ATOM     27  C   UNL     1      -8.869  -9.089  11.397  1.00  0.00     0.007 C 
ENDBRANCH  24  25
ENDBRANCH  18  24
ENDBRANCH  15  18
ENDBRANCH  13  14
BRANCH  13  28
ATOM     28  C   UNL     1     -13.711  -2.424  12.613  1.00  0.00     0.327 C 
ATOM     29  O   UNL     1     -14.125  -2.898  13.660  1.00  0.00    -0.250 OA
BRANCH  28  30
ATOM     30  O   UNL     1     -14.554  -1.802  11.764  1.00  0.00    -0.480 OA
ATOM     31  H   UNL     1     -15.329  -2.399  11.714  1.00  0.00     0.296 HD
ENDBRANCH  28  30
ENDBRANCH  13  28
ENDBRANCH  11  13
ENDBRANCH   8  11
ENDBRANCH   6   7
BRANCH   6  32
ATOM     32  C   UNL     1      -7.242  -3.000  12.712  1.00  0.00     0.037 C 
BRANCH  32  33
ATOM     33  C   UNL     1      -6.721  -3.397  14.100  1.00  0.00     0.026 C 
BRANCH  33  34
ATOM     34  C   UNL     1      -5.230  -3.102  14.271  1.00  0.00     0.146 C 
BRANCH  34  35
ATOM     35  N   UNL     1      -4.662  -4.072  15.197  1.00  0.00    -0.254 NA
ATOM     36  C   UNL     1      -3.466  -4.485  14.998  1.00  0.00     0.185 C 
ATOM     37  N   UNL     1      -2.932  -5.376  15.847  1.00  0.00    -0.370 N 
ATOM     38  N   UNL     1      -2.610  -4.150  14.017  1.00  0.00    -0.370 N 
ATOM     39  H   UNL     1      -3.513  -5.670  16.622  1.00  0.00     0.159 HD
ATOM     40  H   UNL     1      -1.955  -5.614  15.862  1.00  0.00     0.159 HD
ATOM     41  H   UNL     1      -1.745  -4.649  13.887  1.00  0.00     0.159 HD
ATOM     42  H   UNL     1      -2.884  -3.501  13.296  1.00  0.00     0.159 HD
ENDBRANCH  34  35
ENDBRANCH  33  34
ENDBRANCH  32  33
ENDBRANCH   6  32
ENDBRANCH   4   6
ENDBRANCH   1   2
BRANCH   1  43
ATOM     43  C   UNL     1      -5.954   1.655   9.823  1.00  0.00     0.102 C 
ATOM     44  C   UNL     1      -5.983   3.191   9.748  1.00  0.00     0.020 C 
BRANCH  43  45
ATOM     45  C   UNL     1      -4.950   1.006   8.864  1.00  0.00     0.225 C 
ATOM     46  O   UNL     1      -3.746   1.245   8.891  1.00  0.00    -0.275 OA
ATOM     47  N   UNL     1      -5.496   0.196   7.895  1.00  0.00    -0.342 N 
ATOM     48  H   UNL     1      -6.456  -0.108   7.979  1.00  0.00     0.164 HD
BRANCH  47  49
ATOM     49  C   UNL     1      -4.654  -0.519   6.931  1.00  0.00     0.192 C 
BRANCH  49  50
ATOM     50  C   UNL     1      -4.664   0.220   5.591  1.00  0.00     0.047 C 
BRANCH  50  51
ATOM     51  C   UNL     1      -3.370   1.010   5.352  1.00  0.00     0.103 C 
BRANCH  51  52
ATOM     52  C   UNL     1      -3.643   2.404   4.792  1.00  0.00     0.226 C 
ATOM     53  O   UNL     1      -4.626   2.590   4.071  1.00  0.00    -0.275 OA
BRANCH  52  54
ATOM     54  N   UNL     1      -2.773   3.429   5.208  1.00  0.00    -0.311 N 
ATOM     55  C   UNL     1      -2.554   3.702   6.634  1.00  0.00     0.153 C 
BRANCH  54  56
ATOM     56  C   UNL     1      -2.080   4.222   4.279  1.00  0.00     0.102 C 
ATOM     57  C   UNL     1      -2.356   5.509   4.010  1.00  0.00     0.043 C 
BRANCH  56  58
ATOM     58  C   UNL     1      -0.895   3.671   3.520  1.00  0.00     0.268 C 
ATOM     59  O   UNL     1      -0.144   2.820   3.977  1.00  0.00    -0.268 OA
ATOM     60  N   UNL     1      -0.789   4.174   2.245  1.00  0.00    -0.339 N 
ATOM     61  H   UNL     1      -1.446   4.885   1.946  1.00  0.00     0.164 HD
BRANCH  60  62
ATOM     62  C   UNL     1       0.249   3.729   1.316  1.00  0.00     0.168 CG0
ATOM     63  C   UNL     1      -0.261   2.602   0.426  1.00  0.00     0.041 C 
ATOM     64  G   UNL     1       1.493   3.279   2.109  1.00  0.00     0.000 G0
ENDBRANCH  60  62
ENDBRANCH  56  58
ENDBRANCH  54  56
ENDBRANCH  52  54
ENDBRANCH  51  52
ENDBRANCH  50  51
ENDBRANCH  49  50
BRANCH  49  65
ATOM     65  C   UNL     1      -5.136  -1.963   6.719  1.00  0.00     0.326 C 
ATOM     66  O   UNL     1      -5.355  -2.488   5.637  1.00  0.00    -0.250 OA
BRANCH  65  67
ATOM     67  O   UNL     1      -5.376  -2.650   7.858  1.00  0.00    -0.480 OA
ATOM     68  H   UNL     1      -5.115  -3.569   7.633  1.00  0.00     0.296 HD
ENDBRANCH  65  67
ENDBRANCH  49  65
ENDBRANCH  47  49
ENDBRANCH  43  45
ENDBRANCH   1  43
BRANCH   1  69
ATOM     69  C   UNL     1      -8.560   1.892   9.425  1.00  0.00    -0.001 C 
ATOM     70  C   UNL     1      -9.303   1.953   8.306  1.00  0.00     0.001 C 
BRANCH  70  71
ATOM     71  C   UNL     1     -10.473   2.802   8.073  1.00  0.00    -0.055 C 
ATOM     72  C   UNL     1     -10.257   4.088   7.724  1.00  0.00    -0.018 C 
ATOM     73  C   UNL     1     -11.836   2.178   8.230  1.00  0.00     0.044 C 
BRANCH  72  74
ATOM     74  C   UNL     1     -11.265   5.186   7.420  1.00  0.00     0.038 C 
ATOM     75  C   UNL     1     -10.882   5.790   6.063  1.00  0.00     0.015 C 
BRANCH  74  76
ATOM     76  C   UNL     1     -11.277   6.197   8.604  1.00  0.00     0.128 C 
BRANCH  76  77
ATOM     77  O   UNL     1     -12.616   6.350   9.105  1.00  0.00    -0.381 OA
ATOM     78  C   UNL     1     -13.552   5.459   8.515  1.00  0.00     0.195 C 
ENDBRANCH  76  77
BRANCH  76  79
ATOM     79  C   UNL     1     -10.253   5.871   9.720  1.00  0.00     0.068 C 
BRANCH  79  80
ATOM     80  C   UNL     1     -10.787   5.477  11.076  1.00  0.00    -0.045 A 
ATOM     81  C   UNL     1     -10.929   6.424  12.099  1.00  0.00     0.004 A 
ATOM     82  C   UNL     1     -11.125   4.141  11.343  1.00  0.00     0.004 A 
ATOM     83  C   UNL     1     -11.410   6.049  13.355  1.00  0.00     0.000 A 
ATOM     84  C   UNL     1     -11.606   3.767  12.600  1.00  0.00     0.000 A 
ATOM     85  C   UNL     1     -11.750   4.721  13.605  1.00  0.00     0.000 A 
ENDBRANCH  79  80
ENDBRANCH  76  79
ENDBRANCH  74  76
ENDBRANCH  72  74
ENDBRANCH  70  71
ENDBRANCH   1  69
TORSDOF 17
ENDMDL
MODEL 40
REMARK VINA RESULT:    -5.268      3.870     11.662
REMARK INTER + INTRA:         -24.887
REMARK INTER:                 -17.558
REMARK INTRA:                  -7.329
REMARK UNBOUND:                -9.148
REMARK SMILES C=C1C(=O)N[C@H](C)C(=O)N[C@@H](CC(C)C)C(=O)N[C@@H](C(=O)O)[C@H](C)C(=O)N[C@@H](CCCN=C(N)N)C(=O)N[C@@H](/C=C/C(C)=C/[C@H](C)[C@H](Cc2ccccc2)OC)[C@H](C)C(=O)N[C@@H](C(=O)O)CCC(=O)N1C
REMARK SMILES IDX 39 1 38 2 37 3 36 4 28 6 27 7 25 8 26 9 23 11 24 12 19 13
REMARK SMILES IDX 18 14 16 15 17 16 11 18 10 19 8 20 9 21 12 24 13 25 14 26
REMARK SMILES IDX 15 27 20 28 21 29 22 30 29 32 30 33 31 34 32 35 33 36 34 37
REMARK SMILES IDX 35 38 57 43 58 44 59 45 60 46 61 47 62 49 66 50 67 51 68 52
REMARK SMILES IDX 69 53 70 54 71 55 2 56 1 57 3 58 4 59 5 60 6 62 7 63 63 65
REMARK SMILES IDX 64 66 65 67 40 69 41 70 42 71 44 72 43 73 45 74 46 75 47 76
REMARK SMILES IDX 55 77 56 78 48 79 49 80 50 81 54 82 51 83 53 84 52 85
REMARK H PARENT 38 5 27 10 18 17 10 22 22 31 34 39 34 40 35 41 35 42 61 48
REMARK H PARENT 5 61 65 68
REMARK Flexibility Score:  369.900
ROOT
ATOM      1  C   UNL     1       1.033   4.581   0.053  1.00  0.00     0.117 C 
ENDROOT
BRANCH   1   2
ATOM      2  N   UNL     1       1.747   5.830   0.318  1.00  0.00    -0.347 N 
ATOM      3  O   UNL     1       3.844   4.938   0.598  1.00  0.00    -0.273 OA
ATOM      4  C   UNL     1       3.116   5.919   0.480  1.00  0.00     0.243 C 
ATOM      5  H   UNL     1       1.234   6.698   0.340  1.00  0.00     0.164 HD
BRANCH   4   6
ATOM      6  C   UNL     1       3.630   7.370   0.664  1.00  0.00     0.171 C 
BRANCH   6   7
ATOM      7  N   UNL     1       4.673   7.419   1.700  1.00  0.00    -0.344 N 
ATOM      8  C   UNL     1       4.357   7.752   3.000  1.00  0.00     0.226 C 
ATOM      9  O   UNL     1       3.219   8.041   3.349  1.00  0.00    -0.275 OA
ATOM     10  H   UNL     1       5.636   7.252   1.436  1.00  0.00     0.164 HD
BRANCH   8  11
ATOM     11  C   UNL     1       5.532   7.705   3.961  1.00  0.00     0.109 C 
ATOM     12  C   UNL     1       5.518   8.934   4.870  1.00  0.00     0.021 C 
BRANCH  11  13
ATOM     13  C   UNL     1       5.547   6.352   4.700  1.00  0.00     0.204 C 
BRANCH  13  14
ATOM     14  N   UNL     1       4.664   6.353   5.870  1.00  0.00    -0.340 N 
ATOM     15  C   UNL     1       4.889   5.566   6.979  1.00  0.00     0.243 C 
ATOM     16  O   UNL     1       5.884   4.851   7.090  1.00  0.00    -0.273 OA
ATOM     17  H   UNL     1       3.749   6.804   5.781  1.00  0.00     0.164 HD
BRANCH  15  18
ATOM     18  C   UNL     1       3.720   5.578   7.994  1.00  0.00     0.171 C 
BRANCH  18  19
ATOM     19  N   UNL     1       3.831   6.826   8.746  1.00  0.00    -0.343 N 
ATOM     20  C   UNL     1       4.417   6.873   9.997  1.00  0.00     0.242 CG0
ATOM     21  O   UNL     1       4.751   5.851  10.590  1.00  0.00    -0.273 OA
ATOM     22  H   UNL     1       3.464   7.682   8.346  1.00  0.00     0.164 HD
ATOM     23  G   UNL     1       4.514   8.289  10.601  1.00  0.00     0.000 G0
ENDBRANCH  18  19
BRANCH  18  24
ATOM     24  C   UNL     1       2.373   5.476   7.269  1.00  0.00     0.038 C 
BRANCH  24  25
ATOM     25  C   UNL     1       1.445   6.695   7.458  1.00  0.00    -0.015 C 
ATOM     26  C   UNL     1       0.218   6.370   8.311  1.00  0.00     0.007 C 
ATOM     27  C   UNL     1       0.999   7.220   6.091  1.00  0.00     0.007 C 
ENDBRANCH  24  25
ENDBRANCH  18  24
ENDBRANCH  15  18
ENDBRANCH  13  14
BRANCH  13  28
ATOM     28  C   UNL     1       5.126   5.176   3.814  1.00  0.00     0.327 C 
ATOM     29  O   UNL     1       5.859   4.515   3.094  1.00  0.00    -0.250 OA
BRANCH  28  30
ATOM     30  O   UNL     1       3.793   4.977   3.797  1.00  0.00    -0.480 OA
ATOM     31  H   UNL     1       3.632   4.493   2.961  1.00  0.00     0.296 HD
ENDBRANCH  28  30
ENDBRANCH  13  28
ENDBRANCH  11  13
ENDBRANCH   8  11
ENDBRANCH   6   7
BRANCH   6  32
ATOM     32  C   UNL     1       4.164   7.888  -0.676  1.00  0.00     0.037 C 
BRANCH  32  33
ATOM     33  C   UNL     1       5.592   8.438  -0.556  1.00  0.00     0.026 C 
BRANCH  33  34
ATOM     34  C   UNL     1       6.636   7.495  -1.157  1.00  0.00     0.146 C 
BRANCH  34  35
ATOM     35  N   UNL     1       7.117   6.601  -0.113  1.00  0.00    -0.254 NA
ATOM     36  C   UNL     1       6.940   5.340  -0.255  1.00  0.00     0.185 C 
ATOM     37  N   UNL     1       7.384   4.506   0.698  1.00  0.00    -0.370 N 
ATOM     38  N   UNL     1       6.346   4.678  -1.264  1.00  0.00    -0.370 N 
ATOM     39  H   UNL     1       7.854   4.929   1.489  1.00  0.00     0.159 HD
ATOM     40  H   UNL     1       7.440   3.509   0.583  1.00  0.00     0.159 HD
ATOM     41  H   UNL     1       6.144   3.695  -1.194  1.00  0.00     0.159 HD
ATOM     42  H   UNL     1       5.950   5.180  -2.043  1.00  0.00     0.159 HD
ENDBRANCH  34  35
ENDBRANCH  33  34
ENDBRANCH  32  33
ENDBRANCH   6  32
ENDBRANCH   4   6
ENDBRANCH   1   2
BRANCH   1  43
ATOM     43  C   UNL     1       0.178   4.763  -1.234  1.00  0.00     0.102 C 
ATOM     44  C   UNL     1      -0.825   3.622  -1.470  1.00  0.00     0.020 C 
BRANCH  43  45
ATOM     45  C   UNL     1       1.064   5.071  -2.445  1.00  0.00     0.225 C 
ATOM     46  O   UNL     1       2.233   4.705  -2.531  1.00  0.00    -0.275 OA
ATOM     47  N   UNL     1       0.495   5.874  -3.407  1.00  0.00    -0.342 N 
ATOM     48  H   UNL     1      -0.501   6.037  -3.397  1.00  0.00     0.164 HD
BRANCH  47  49
ATOM     49  C   UNL     1       1.213   6.221  -4.637  1.00  0.00     0.192 C 
BRANCH  49  50
ATOM     50  C   UNL     1       1.889   4.972  -5.209  1.00  0.00     0.047 C 
BRANCH  50  51
ATOM     51  C   UNL     1       1.246   4.514  -6.525  1.00  0.00     0.103 C 
BRANCH  51  52
ATOM     52  C   UNL     1       1.754   5.316  -7.722  1.00  0.00     0.226 C 
ATOM     53  O   UNL     1       2.756   6.024  -7.600  1.00  0.00    -0.275 OA
BRANCH  52  54
ATOM     54  N   UNL     1       1.070   5.131  -8.937  1.00  0.00    -0.311 N 
ATOM     55  C   UNL     1      -0.395   5.220  -9.001  1.00  0.00     0.153 C 
BRANCH  54  56
ATOM     56  C   UNL     1       1.758   4.862 -10.132  1.00  0.00     0.102 C 
ATOM     57  C   UNL     1       2.116   3.638 -10.553  1.00  0.00     0.043 C 
BRANCH  56  58
ATOM     58  C   UNL     1       2.118   5.975 -11.087  1.00  0.00     0.268 C 
ATOM     59  O   UNL     1       1.377   6.354 -11.984  1.00  0.00    -0.268 OA
ATOM     60  N   UNL     1       3.330   6.560 -10.803  1.00  0.00    -0.339 N 
ATOM     61  H   UNL     1       3.889   6.180 -10.048  1.00  0.00     0.164 HD
BRANCH  60  62
ATOM     62  C   UNL     1       3.843   7.698 -11.564  1.00  0.00     0.168 CG0
ATOM     63  C   UNL     1       3.472   9.016 -10.895  1.00  0.00     0.041 C 
ATOM     64  G   UNL     1       3.296   7.645 -13.006  1.00  0.00     0.000 G0
ENDBRANCH  60  62
ENDBRANCH  56  58
ENDBRANCH  54  56
ENDBRANCH  52  54
ENDBRANCH  51  52
ENDBRANCH  50  51
ENDBRANCH  49  50
BRANCH  49  65
ATOM     65  C   UNL     1       2.275   7.304  -4.387  1.00  0.00     0.326 C 
ATOM     66  O   UNL     1       3.462   7.101  -4.179  1.00  0.00    -0.250 OA
BRANCH  65  67
ATOM     67  O   UNL     1       1.794   8.567  -4.349  1.00  0.00    -0.480 OA
ATOM     68  H   UNL     1       2.120   8.913  -3.491  1.00  0.00     0.296 HD
ENDBRANCH  65  67
ENDBRANCH  49  65
ENDBRANCH  47  49
ENDBRANCH  43  45
ENDBRANCH   1  43
BRANCH   1  69
ATOM     69  C   UNL     1       0.337   4.206   1.349  1.00  0.00    -0.001 C 
ATOM     70  C   UNL     1       0.157   4.982   2.433  1.00  0.00     0.001 C 
BRANCH  70  71
ATOM     71  C   UNL     1      -0.535   4.616   3.670  1.00  0.00    -0.055 C 
ATOM     72  C   UNL     1      -1.814   5.021   3.817  1.00  0.00    -0.018 C 
ATOM     73  C   UNL     1       0.226   3.807   4.688  1.00  0.00     0.044 C 
BRANCH  72  74
ATOM     74  C   UNL     1      -2.771   4.789   4.978  1.00  0.00     0.038 C 
ATOM     75  C   UNL     1      -2.346   5.733   6.110  1.00  0.00     0.015 C 
BRANCH  74  76
ATOM     76  C   UNL     1      -2.753   3.277   5.347  1.00  0.00     0.128 C 
BRANCH  76  77
ATOM     77  O   UNL     1      -3.336   3.082   6.647  1.00  0.00    -0.381 OA
ATOM     78  C   UNL     1      -4.616   2.465   6.612  1.00  0.00     0.195 C 
ENDBRANCH  76  77
BRANCH  76  79
ATOM     79  C   UNL     1      -3.376   2.358   4.267  1.00  0.00     0.068 C 
BRANCH  79  80
ATOM     80  C   UNL     1      -2.449   1.466   3.477  1.00  0.00    -0.045 A 
ATOM     81  C   UNL     1      -1.743   0.428   4.098  1.00  0.00     0.004 A 
ATOM     82  C   UNL     1      -2.259   1.684   2.104  1.00  0.00     0.004 A 
ATOM     83  C   UNL     1      -0.876  -0.384   3.362  1.00  0.00     0.000 A 
ATOM     84  C   UNL     1      -1.392   0.872   1.369  1.00  0.00     0.000 A 
ATOM     85  C   UNL     1      -0.702  -0.162   1.998  1.00  0.00     0.000 A 
ENDBRANCH  79  80
ENDBRANCH  76  79
ENDBRANCH  74  76
ENDBRANCH  72  74
ENDBRANCH  70  71
ENDBRANCH   1  69
TORSDOF 17
ENDMDL
MODEL 41
REMARK VINA RESULT:    -5.244      4.989     10.377
REMARK INTER + INTRA:         -24.816
REMARK INTER:                 -17.791
REMARK INTRA:                  -7.026
REMARK UNBOUND:                -9.148
REMARK SMILES C=C1C(=O)N[C@H](C)C(=O)N[C@@H](CC(C)C)C(=O)N[C@@H](C(=O)O)[C@H](C)C(=O)N[C@@H](CCCN=C(N)N)C(=O)N[C@@H](/C=C/C(C)=C/[C@H](C)[C@H](Cc2ccccc2)OC)[C@H](C)C(=O)N[C@@H](C(=O)O)CCC(=O)N1C
REMARK SMILES IDX 39 1 38 2 37 3 36 4 28 6 27 7 25 8 26 9 23 11 24 12 19 13
REMARK SMILES IDX 18 14 16 15 17 16 11 18 10 19 8 20 9 21 12 24 13 25 14 26
REMARK SMILES IDX 15 27 20 28 21 29 22 30 29 32 30 33 31 34 32 35 33 36 34 37
REMARK SMILES IDX 35 38 57 43 58 44 59 45 60 46 61 47 62 49 66 50 67 51 68 52
REMARK SMILES IDX 69 53 70 54 71 55 2 56 1 57 3 58 4 59 5 60 6 62 7 63 63 65
REMARK SMILES IDX 64 66 65 67 40 69 41 70 42 71 44 72 43 73 45 74 46 75 47 76
REMARK SMILES IDX 55 77 56 78 48 79 49 80 50 81 54 82 51 83 53 84 52 85
REMARK H PARENT 38 5 27 10 18 17 10 22 22 31 34 39 34 40 35 41 35 42 61 48
REMARK H PARENT 5 61 65 68
REMARK Flexibility Score:  369.900
ROOT
ATOM      1  C   UNL     1       0.146   4.092  -1.214  1.00  0.00     0.117 C 
ENDROOT
BRANCH   1   2
ATOM      2  N   UNL     1       1.157   5.081  -0.841  1.00  0.00    -0.347 N 
ATOM      3  O   UNL     1       2.947   3.653  -0.679  1.00  0.00    -0.273 OA
ATOM      4  C   UNL     1       2.500   4.795  -0.692  1.00  0.00     0.243 C 
ATOM      5  H   UNL     1       0.887   6.046  -0.729  1.00  0.00     0.164 HD
BRANCH   4   6
ATOM      6  C   UNL     1       3.371   6.038  -0.378  1.00  0.00     0.171 C 
BRANCH   6   7
ATOM      7  N   UNL     1       4.800   5.686  -0.407  1.00  0.00    -0.344 N 
ATOM      8  C   UNL     1       5.490   5.453   0.763  1.00  0.00     0.226 C 
ATOM      9  O   UNL     1       4.968   5.547   1.867  1.00  0.00    -0.275 OA
ATOM     10  H   UNL     1       5.282   5.665  -1.297  1.00  0.00     0.164 HD
BRANCH   8  11
ATOM     11  C   UNL     1       6.940   5.047   0.563  1.00  0.00     0.109 C 
ATOM     12  C   UNL     1       7.155   4.548  -0.865  1.00  0.00     0.021 C 
BRANCH  11  13
ATOM     13  C   UNL     1       7.868   6.201   0.993  1.00  0.00     0.204 C 
BRANCH  13  14
ATOM     14  N   UNL     1       7.166   7.488   1.034  1.00  0.00    -0.340 N 
ATOM     15  C   UNL     1       7.711   8.654   0.544  1.00  0.00     0.243 C 
ATOM     16  O   UNL     1       8.804   8.686  -0.020  1.00  0.00    -0.273 OA
ATOM     17  H   UNL     1       6.329   7.559   1.620  1.00  0.00     0.164 HD
BRANCH  15  18
ATOM     18  C   UNL     1       6.881   9.916   0.884  1.00  0.00     0.171 C 
BRANCH  18  19
ATOM     19  N   UNL     1       7.506  11.031   0.175  1.00  0.00    -0.343 N 
ATOM     20  C   UNL     1       8.117  12.072   0.848  1.00  0.00     0.242 CG0
ATOM     21  O   UNL     1       8.048  12.176   2.071  1.00  0.00    -0.273 OA
ATOM     22  H   UNL     1       7.488  11.050  -0.838  1.00  0.00     0.164 HD
ATOM     23  G   UNL     1       8.789  13.115  -0.067  1.00  0.00     0.000 G0
ENDBRANCH  18  19
BRANCH  18  24
ATOM     24  C   UNL     1       5.418   9.731   0.462  1.00  0.00     0.038 C 
BRANCH  24  25
ATOM     25  C   UNL     1       4.385  10.041   1.566  1.00  0.00    -0.015 C 
ATOM     26  C   UNL     1       4.469   9.061   2.737  1.00  0.00     0.007 C 
ATOM     27  C   UNL     1       2.974  10.015   0.973  1.00  0.00     0.007 C 
ENDBRANCH  24  25
ENDBRANCH  18  24
ENDBRANCH  15  18
ENDBRANCH  13  14
BRANCH  13  28
ATOM     28  C   UNL     1       8.501   5.985   2.371  1.00  0.00     0.327 C 
ATOM     29  O   UNL     1       9.615   6.347   2.719  1.00  0.00    -0.250 OA
BRANCH  28  30
ATOM     30  O   UNL     1       7.744   5.224   3.187  1.00  0.00    -0.480 OA
ATOM     31  H   UNL     1       7.999   5.511   4.089  1.00  0.00     0.296 HD
ENDBRANCH  28  30
ENDBRANCH  13  28
ENDBRANCH  11  13
ENDBRANCH   8  11
ENDBRANCH   6   7
BRANCH   6  32
ATOM     32  C   UNL     1       3.059   7.141  -1.395  1.00  0.00     0.037 C 
BRANCH  32  33
ATOM     33  C   UNL     1       3.744   6.894  -2.747  1.00  0.00     0.026 C 
BRANCH  33  34
ATOM     34  C   UNL     1       2.809   6.242  -3.766  1.00  0.00     0.146 C 
BRANCH  34  35
ATOM     35  N   UNL     1       3.612   5.643  -4.823  1.00  0.00    -0.254 NA
ATOM     36  C   UNL     1       3.752   6.281  -5.925  1.00  0.00     0.185 C 
ATOM     37  N   UNL     1       4.494   5.740  -6.904  1.00  0.00    -0.370 N 
ATOM     38  N   UNL     1       3.247   7.476  -6.279  1.00  0.00    -0.370 N 
ATOM     39  H   UNL     1       4.918   4.842  -6.709  1.00  0.00     0.159 HD
ATOM     40  H   UNL     1       4.793   6.246  -7.720  1.00  0.00     0.159 HD
ATOM     41  H   UNL     1       3.314   7.809  -7.227  1.00  0.00     0.159 HD
ATOM     42  H   UNL     1       2.656   7.991  -5.646  1.00  0.00     0.159 HD
ENDBRANCH  34  35
ENDBRANCH  33  34
ENDBRANCH  32  33
ENDBRANCH   6  32
ENDBRANCH   4   6
ENDBRANCH   1   2
BRANCH   1  43
ATOM     43  C   UNL     1      -0.314   4.379  -2.673  1.00  0.00     0.102 C 
ATOM     44  C   UNL     1      -1.730   4.972  -2.762  1.00  0.00     0.020 C 
BRANCH  43  45
ATOM     45  C   UNL     1      -0.094   3.157  -3.570  1.00  0.00     0.225 C 
ATOM     46  O   UNL     1       0.242   3.242  -4.748  1.00  0.00    -0.275 OA
ATOM     47  N   UNL     1      -0.389   1.941  -2.997  1.00  0.00    -0.342 N 
ATOM     48  H   UNL     1      -0.515   1.877  -1.997  1.00  0.00     0.164 HD
BRANCH  47  49
ATOM     49  C   UNL     1      -0.193   0.684  -3.725  1.00  0.00     0.192 C 
BRANCH  49  50
ATOM     50  C   UNL     1      -1.546   0.145  -4.196  1.00  0.00     0.047 C 
BRANCH  50  51
ATOM     51  C   UNL     1      -1.519  -0.293  -5.667  1.00  0.00     0.103 C 
BRANCH  51  52
ATOM     52  C   UNL     1      -1.066  -1.743  -5.826  1.00  0.00     0.226 C 
ATOM     53  O   UNL     1       0.048  -1.986  -6.293  1.00  0.00    -0.275 OA
BRANCH  52  54
ATOM     54  N   UNL     1      -1.946  -2.730  -5.345  1.00  0.00    -0.311 N 
ATOM     55  C   UNL     1      -3.291  -2.886  -5.914  1.00  0.00     0.153 C 
BRANCH  54  56
ATOM     56  C   UNL     1      -1.571  -3.605  -4.312  1.00  0.00     0.102 C 
ATOM     57  C   UNL     1      -0.603  -4.532  -4.403  1.00  0.00     0.043 C 
BRANCH  56  58
ATOM     58  C   UNL     1      -2.231  -3.530  -2.955  1.00  0.00     0.268 C 
ATOM     59  O   UNL     1      -2.003  -2.638  -2.149  1.00  0.00    -0.268 OA
ATOM     60  N   UNL     1      -3.157  -4.524  -2.749  1.00  0.00    -0.339 N 
ATOM     61  H   UNL     1      -3.280  -5.231  -3.463  1.00  0.00     0.164 HD
BRANCH  60  62
ATOM     62  C   UNL     1      -3.957  -4.601  -1.527  1.00  0.00     0.168 CG0
ATOM     63  C   UNL     1      -4.562  -5.989  -1.356  1.00  0.00     0.041 C 
ATOM     64  G   UNL     1      -5.061  -3.525  -1.563  1.00  0.00     0.000 G0
ENDBRANCH  60  62
ENDBRANCH  56  58
ENDBRANCH  54  56
ENDBRANCH  52  54
ENDBRANCH  51  52
ENDBRANCH  50  51
ENDBRANCH  49  50
BRANCH  49  65
ATOM     65  C   UNL     1       0.501  -0.373  -2.853  1.00  0.00     0.326 C 
ATOM     66  O   UNL     1       1.368  -1.149  -3.230  1.00  0.00    -0.250 OA
BRANCH  65  67
ATOM     67  O   UNL     1       0.040  -0.449  -1.585  1.00  0.00    -0.480 OA
ATOM     68  H   UNL     1       0.672  -1.057  -1.144  1.00  0.00     0.296 HD
ENDBRANCH  65  67
ENDBRANCH  49  65
ENDBRANCH  47  49
ENDBRANCH  43  45
ENDBRANCH   1  43
BRANCH   1  69
ATOM     69  C   UNL     1      -0.889   4.103  -0.104  1.00  0.00    -0.001 C 
ATOM     70  C   UNL     1      -1.643   3.074   0.321  1.00  0.00     0.001 C 
BRANCH  70  71
ATOM     71  C   UNL     1      -2.623   3.092   1.409  1.00  0.00    -0.055 C 
ATOM     72  C   UNL     1      -2.177   3.372   2.651  1.00  0.00    -0.018 C 
ATOM     73  C   UNL     1      -4.061   2.806   1.063  1.00  0.00     0.044 C 
BRANCH  72  74
ATOM     74  C   UNL     1      -2.955   3.462   3.957  1.00  0.00     0.038 C 
ATOM     75  C   UNL     1      -3.010   4.943   4.349  1.00  0.00     0.015 C 
BRANCH  74  76
ATOM     76  C   UNL     1      -2.279   2.533   5.008  1.00  0.00     0.128 C 
BRANCH  76  77
ATOM     77  O   UNL     1      -2.391   3.112   6.319  1.00  0.00    -0.381 OA
ATOM     78  C   UNL     1      -3.497   2.622   7.066  1.00  0.00     0.195 C 
ENDBRANCH  76  77
BRANCH  76  79
ATOM     79  C   UNL     1      -2.769   1.064   4.957  1.00  0.00     0.068 C 
BRANCH  79  80
ATOM     80  C   UNL     1      -2.384   0.231   3.758  1.00  0.00    -0.045 A 
ATOM     81  C   UNL     1      -1.039  -0.031   3.464  1.00  0.00     0.004 A 
ATOM     82  C   UNL     1      -3.373  -0.273   2.900  1.00  0.00     0.004 A 
ATOM     83  C   UNL     1      -0.691  -0.791   2.345  1.00  0.00     0.000 A 
ATOM     84  C   UNL     1      -3.023  -1.032   1.781  1.00  0.00     0.000 A 
ATOM     85  C   UNL     1      -1.683  -1.292   1.505  1.00  0.00     0.000 A 
ENDBRANCH  79  80
ENDBRANCH  76  79
ENDBRANCH  74  76
ENDBRANCH  72  74
ENDBRANCH  70  71
ENDBRANCH   1  69
TORSDOF 17
ENDMDL
MODEL 42
REMARK VINA RESULT:    -5.243      6.058     12.525
REMARK INTER + INTRA:         -24.813
REMARK INTER:                 -18.412
REMARK INTRA:                  -6.401
REMARK UNBOUND:                -9.148
REMARK SMILES C=C1C(=O)N[C@H](C)C(=O)N[C@@H](CC(C)C)C(=O)N[C@@H](C(=O)O)[C@H](C)C(=O)N[C@@H](CCCN=C(N)N)C(=O)N[C@@H](/C=C/C(C)=C/[C@H](C)[C@H](Cc2ccccc2)OC)[C@H](C)C(=O)N[C@@H](C(=O)O)CCC(=O)N1C
REMARK SMILES IDX 39 1 38 2 37 3 36 4 28 6 27 7 25 8 26 9 23 11 24 12 19 13
REMARK SMILES IDX 18 14 16 15 17 16 11 18 10 19 8 20 9 21 12 24 13 25 14 26
REMARK SMILES IDX 15 27 20 28 21 29 22 30 29 32 30 33 31 34 32 35 33 36 34 37
REMARK SMILES IDX 35 38 57 43 58 44 59 45 60 46 61 47 62 49 66 50 67 51 68 52
REMARK SMILES IDX 69 53 70 54 71 55 2 56 1 57 3 58 4 59 5 60 6 62 7 63 63 65
REMARK SMILES IDX 64 66 65 67 40 69 41 70 42 71 44 72 43 73 45 74 46 75 47 76
REMARK SMILES IDX 55 77 56 78 48 79 49 80 50 81 54 82 51 83 53 84 52 85
REMARK H PARENT 38 5 27 10 18 17 10 22 22 31 34 39 34 40 35 41 35 42 61 48
REMARK H PARENT 5 61 65 68
REMARK Flexibility Score:  369.900
ROOT
ATOM      1  C   UNL     1      -0.888   1.853  -0.360  1.00  0.00     0.117 C 
ENDROOT
BRANCH   1   2
ATOM      2  N   UNL     1      -0.651   1.520   1.045  1.00  0.00    -0.347 N 
ATOM      3  O   UNL     1      -2.833   1.585   1.755  1.00  0.00    -0.273 OA
ATOM      4  C   UNL     1      -1.655   1.322   1.973  1.00  0.00     0.243 C 
ATOM      5  H   UNL     1       0.295   1.372   1.365  1.00  0.00     0.164 HD
BRANCH   4   6
ATOM      6  C   UNL     1      -1.137   0.894   3.370  1.00  0.00     0.171 C 
BRANCH   6   7
ATOM      7  N   UNL     1      -1.200   2.023   4.311  1.00  0.00    -0.344 N 
ATOM      8  C   UNL     1      -0.285   3.051   4.237  1.00  0.00     0.226 C 
ATOM      9  O   UNL     1       0.625   3.068   3.416  1.00  0.00    -0.275 OA
ATOM     10  H   UNL     1      -1.895   2.012   5.046  1.00  0.00     0.164 HD
BRANCH   8  11
ATOM     11  C   UNL     1      -0.516   4.168   5.240  1.00  0.00     0.109 C 
ATOM     12  C   UNL     1      -1.832   3.942   5.984  1.00  0.00     0.021 C 
BRANCH  11  13
ATOM     13  C   UNL     1       0.723   4.321   6.144  1.00  0.00     0.204 C 
BRANCH  13  14
ATOM     14  N   UNL     1       1.693   5.274   5.595  1.00  0.00    -0.340 N 
ATOM     15  C   UNL     1       2.908   4.888   5.072  1.00  0.00     0.243 C 
ATOM     16  O   UNL     1       3.239   3.707   4.973  1.00  0.00    -0.273 OA
ATOM     17  H   UNL     1       1.547   6.269   5.784  1.00  0.00     0.164 HD
BRANCH  15  18
ATOM     18  C   UNL     1       3.847   6.075   4.747  1.00  0.00     0.171 C 
BRANCH  18  19
ATOM     19  N   UNL     1       4.251   6.652   6.027  1.00  0.00    -0.343 N 
ATOM     20  C   UNL     1       5.126   6.002   6.876  1.00  0.00     0.242 CG0
ATOM     21  O   UNL     1       5.501   4.853   6.656  1.00  0.00    -0.273 OA
ATOM     22  H   UNL     1       3.877   7.552   6.307  1.00  0.00     0.164 HD
ATOM     23  G   UNL     1       5.496   6.801   8.142  1.00  0.00     0.000 G0
ENDBRANCH  18  19
BRANCH  18  24
ATOM     24  C   UNL     1       5.059   5.600   3.936  1.00  0.00     0.038 C 
BRANCH  24  25
ATOM     25  C   UNL     1       5.666   6.666   2.999  1.00  0.00    -0.015 C 
ATOM     26  C   UNL     1       6.919   7.316   3.586  1.00  0.00     0.007 C 
ATOM     27  C   UNL     1       4.619   7.742   2.698  1.00  0.00     0.007 C 
ENDBRANCH  24  25
ENDBRANCH  18  24
ENDBRANCH  15  18
ENDBRANCH  13  14
BRANCH  13  28
ATOM     28  C   UNL     1       0.381   4.788   7.562  1.00  0.00     0.327 C 
ATOM     29  O   UNL     1       0.293   4.081   8.555  1.00  0.00    -0.250 OA
BRANCH  28  30
ATOM     30  O   UNL     1       0.054   6.095   7.624  1.00  0.00    -0.480 OA
ATOM     31  H   UNL     1      -0.926   6.099   7.608  1.00  0.00     0.296 HD
ENDBRANCH  28  30
ENDBRANCH  13  28
ENDBRANCH  11  13
ENDBRANCH   8  11
ENDBRANCH   6   7
BRANCH   6  32
ATOM     32  C   UNL     1      -1.972  -0.287   3.876  1.00  0.00     0.037 C 
BRANCH  32  33
ATOM     33  C   UNL     1      -2.737   0.053   5.163  1.00  0.00     0.026 C 
BRANCH  33  34
ATOM     34  C   UNL     1      -4.252  -0.048   4.987  1.00  0.00     0.146 C 
BRANCH  34  35
ATOM     35  N   UNL     1      -4.879  -0.044   6.302  1.00  0.00    -0.254 NA
ATOM     36  C   UNL     1      -5.433   1.034   6.716  1.00  0.00     0.185 C 
ATOM     37  N   UNL     1      -6.018   1.047   7.923  1.00  0.00    -0.370 N 
ATOM     38  N   UNL     1      -5.530   2.225   6.098  1.00  0.00    -0.370 N 
ATOM     39  H   UNL     1      -5.996   0.182   8.448  1.00  0.00     0.159 HD
ATOM     40  H   UNL     1      -6.617   1.789   8.243  1.00  0.00     0.159 HD
ATOM     41  H   UNL     1      -5.868   3.038   6.585  1.00  0.00     0.159 HD
ATOM     42  H   UNL     1      -5.120   2.365   5.187  1.00  0.00     0.159 HD
ENDBRANCH  34  35
ENDBRANCH  33  34
ENDBRANCH  32  33
ENDBRANCH   6  32
ENDBRANCH   4   6
ENDBRANCH   1   2
BRANCH   1  43
ATOM     43  C   UNL     1      -0.417   0.658  -1.239  1.00  0.00     0.102 C 
ATOM     44  C   UNL     1       0.605   1.057  -2.317  1.00  0.00     0.020 C 
BRANCH  43  45
ATOM     45  C   UNL     1      -1.613  -0.133  -1.778  1.00  0.00     0.225 C 
ATOM     46  O   UNL     1      -2.647   0.400  -2.172  1.00  0.00    -0.275 OA
ATOM     47  N   UNL     1      -1.497  -1.502  -1.709  1.00  0.00    -0.342 N 
ATOM     48  H   UNL     1      -0.594  -1.919  -1.529  1.00  0.00     0.164 HD
BRANCH  47  49
ATOM     49  C   UNL     1      -2.547  -2.387  -2.221  1.00  0.00     0.192 C 
BRANCH  49  50
ATOM     50  C   UNL     1      -2.761  -3.549  -1.247  1.00  0.00     0.047 C 
BRANCH  50  51
ATOM     51  C   UNL     1      -3.112  -3.066   0.167  1.00  0.00     0.103 C 
BRANCH  51  52
ATOM     52  C   UNL     1      -3.453  -4.226   1.100  1.00  0.00     0.226 C 
ATOM     53  O   UNL     1      -2.546  -4.896   1.598  1.00  0.00    -0.275 OA
BRANCH  52  54
ATOM     54  N   UNL     1      -4.816  -4.412   1.397  1.00  0.00    -0.311 N 
ATOM     55  C   UNL     1      -5.332  -4.182   2.753  1.00  0.00     0.153 C 
BRANCH  54  56
ATOM     56  C   UNL     1      -5.731  -4.817   0.412  1.00  0.00     0.102 C 
ATOM     57  C   UNL     1      -6.527  -3.989  -0.285  1.00  0.00     0.043 C 
BRANCH  56  58
ATOM     58  C   UNL     1      -5.857  -6.271   0.021  1.00  0.00     0.268 C 
ATOM     59  O   UNL     1      -5.135  -7.150   0.472  1.00  0.00    -0.268 OA
ATOM     60  N   UNL     1      -6.902  -6.511  -0.838  1.00  0.00    -0.339 N 
ATOM     61  H   UNL     1      -7.447  -5.725  -1.174  1.00  0.00     0.164 HD
BRANCH  60  62
ATOM     62  C   UNL     1      -7.242  -7.858  -1.295  1.00  0.00     0.168 CG0
ATOM     63  C   UNL     1      -8.607  -8.285  -0.770  1.00  0.00     0.041 C 
ATOM     64  G   UNL     1      -6.149  -8.848  -0.842  1.00  0.00     0.000 G0
ENDBRANCH  60  62
ENDBRANCH  56  58
ENDBRANCH  54  56
ENDBRANCH  52  54
ENDBRANCH  51  52
ENDBRANCH  50  51
ENDBRANCH  49  50
BRANCH  49  65
ATOM     65  C   UNL     1      -2.193  -2.944  -3.608  1.00  0.00     0.326 C 
ATOM     66  O   UNL     1      -2.010  -2.277  -4.616  1.00  0.00    -0.250 OA
BRANCH  65  67
ATOM     67  O   UNL     1      -2.145  -4.293  -3.679  1.00  0.00    -0.480 OA
ATOM     68  H   UNL     1      -1.634  -4.548  -2.881  1.00  0.00     0.296 HD
ENDBRANCH  65  67
ENDBRANCH  49  65
ENDBRANCH  47  49
ENDBRANCH  43  45
ENDBRANCH   1  43
BRANCH   1  69
ATOM     69  C   UNL     1      -0.264   3.218  -0.583  1.00  0.00    -0.001 C 
ATOM     70  C   UNL     1       0.661   3.828   0.179  1.00  0.00     0.001 C 
BRANCH  70  71
ATOM     71  C   UNL     1       1.272   5.138  -0.058  1.00  0.00    -0.055 C 
ATOM     72  C   UNL     1       1.141   5.678  -1.288  1.00  0.00    -0.018 C 
ATOM     73  C   UNL     1       1.996   5.793   1.089  1.00  0.00     0.044 C 
BRANCH  72  74
ATOM     74  C   UNL     1       1.660   7.008  -1.817  1.00  0.00     0.038 C 
ATOM     75  C   UNL     1       0.685   7.474  -2.904  1.00  0.00     0.015 C 
BRANCH  74  76
ATOM     76  C   UNL     1       3.129   6.817  -2.295  1.00  0.00     0.128 C 
BRANCH  76  77
ATOM     77  O   UNL     1       3.249   7.198  -3.676  1.00  0.00    -0.381 OA
ATOM     78  C   UNL     1       3.748   6.164  -4.513  1.00  0.00     0.195 C 
ENDBRANCH  76  77
BRANCH  76  79
ATOM     79  C   UNL     1       4.181   7.506  -1.389  1.00  0.00     0.068 C 
BRANCH  79  80
ATOM     80  C   UNL     1       5.298   6.658  -0.831  1.00  0.00    -0.045 A 
ATOM     81  C   UNL     1       6.577   7.192  -0.628  1.00  0.00     0.004 A 
ATOM     82  C   UNL     1       5.077   5.305  -0.532  1.00  0.00     0.004 A 
ATOM     83  C   UNL     1       7.609   6.397  -0.125  1.00  0.00     0.000 A 
ATOM     84  C   UNL     1       6.110   4.510  -0.030  1.00  0.00     0.000 A 
ATOM     85  C   UNL     1       7.374   5.057   0.175  1.00  0.00     0.000 A 
ENDBRANCH  79  80
ENDBRANCH  76  79
ENDBRANCH  74  76
ENDBRANCH  72  74
ENDBRANCH  70  71
ENDBRANCH   1  69
TORSDOF 17
ENDMDL
MODEL 43
REMARK VINA RESULT:    -5.228      6.189     12.127
REMARK INTER + INTRA:         -24.768
REMARK INTER:                 -16.784
REMARK INTRA:                  -7.984
REMARK UNBOUND:                -9.148
REMARK SMILES C=C1C(=O)N[C@H](C)C(=O)N[C@@H](CC(C)C)C(=O)N[C@@H](C(=O)O)[C@H](C)C(=O)N[C@@H](CCCN=C(N)N)C(=O)N[C@@H](/C=C/C(C)=C/[C@H](C)[C@H](Cc2ccccc2)OC)[C@H](C)C(=O)N[C@@H](C(=O)O)CCC(=O)N1C
REMARK SMILES IDX 39 1 38 2 37 3 36 4 28 6 27 7 25 8 26 9 23 11 24 12 19 13
REMARK SMILES IDX 18 14 16 15 17 16 11 18 10 19 8 20 9 21 12 24 13 25 14 26
REMARK SMILES IDX 15 27 20 28 21 29 22 30 29 32 30 33 31 34 32 35 33 36 34 37
REMARK SMILES IDX 35 38 57 43 58 44 59 45 60 46 61 47 62 49 66 50 67 51 68 52
REMARK SMILES IDX 69 53 70 54 71 55 2 56 1 57 3 58 4 59 5 60 6 62 7 63 63 65
REMARK SMILES IDX 64 66 65 67 40 69 41 70 42 71 44 72 43 73 45 74 46 75 47 76
REMARK SMILES IDX 55 77 56 78 48 79 49 80 50 81 54 82 51 83 53 84 52 85
REMARK H PARENT 38 5 27 10 18 17 10 22 22 31 34 39 34 40 35 41 35 42 61 48
REMARK H PARENT 5 61 65 68
REMARK Flexibility Score:  369.900
ROOT
ATOM      1  C   UNL     1       0.328   2.796  -2.461  1.00  0.00     0.117 C 
ENDROOT
BRANCH   1   2
ATOM      2  N   UNL     1       0.186   1.467  -3.056  1.00  0.00    -0.347 N 
ATOM      3  O   UNL     1      -0.656   2.123  -5.088  1.00  0.00    -0.273 OA
ATOM      4  C   UNL     1      -0.210   1.242  -4.360  1.00  0.00     0.243 C 
ATOM      5  H   UNL     1       0.435   0.653  -2.514  1.00  0.00     0.164 HD
BRANCH   4   6
ATOM      6  C   UNL     1      -0.195  -0.253  -4.767  1.00  0.00     0.171 C 
BRANCH   6   7
ATOM      7  N   UNL     1      -1.166  -0.503  -5.845  1.00  0.00    -0.344 N 
ATOM      8  C   UNL     1      -2.247  -1.332  -5.638  1.00  0.00     0.226 C 
ATOM      9  O   UNL     1      -2.441  -1.912  -4.576  1.00  0.00    -0.275 OA
ATOM     10  H   UNL     1      -1.003  -0.095  -6.757  1.00  0.00     0.164 HD
BRANCH   8  11
ATOM     11  C   UNL     1      -3.185  -1.444  -6.827  1.00  0.00     0.109 C 
ATOM     12  C   UNL     1      -3.494  -2.913  -7.117  1.00  0.00     0.021 C 
BRANCH  11  13
ATOM     13  C   UNL     1      -4.424  -0.554  -6.600  1.00  0.00     0.204 C 
BRANCH  13  14
ATOM     14  N   UNL     1      -5.072  -0.829  -5.313  1.00  0.00    -0.340 N 
ATOM     15  C   UNL     1      -6.282  -1.481  -5.209  1.00  0.00     0.243 C 
ATOM     16  O   UNL     1      -6.875  -1.932  -6.187  1.00  0.00    -0.273 OA
ATOM     17  H   UNL     1      -4.712  -0.353  -4.482  1.00  0.00     0.164 HD
BRANCH  15  18
ATOM     18  C   UNL     1      -6.868  -1.472  -3.776  1.00  0.00     0.171 C 
BRANCH  18  19
ATOM     19  N   UNL     1      -8.307  -1.688  -3.911  1.00  0.00    -0.343 N 
ATOM     20  C   UNL     1      -9.228  -0.894  -3.255  1.00  0.00     0.242 CG0
ATOM     21  O   UNL     1      -8.880  -0.056  -2.426  1.00  0.00    -0.273 OA
ATOM     22  H   UNL     1      -8.644  -2.444  -4.496  1.00  0.00     0.164 HD
ATOM     23  G   UNL     1     -10.699  -1.222  -3.581  1.00  0.00     0.000 G0
ENDBRANCH  18  19
BRANCH  18  24
ATOM     24  C   UNL     1      -6.214  -2.562  -2.917  1.00  0.00     0.038 C 
BRANCH  24  25
ATOM     25  C   UNL     1      -5.732  -2.086  -1.530  1.00  0.00    -0.015 C 
ATOM     26  C   UNL     1      -6.774  -2.321  -0.437  1.00  0.00     0.007 C 
ATOM     27  C   UNL     1      -5.374  -0.599  -1.592  1.00  0.00     0.007 C 
ENDBRANCH  24  25
ENDBRANCH  18  24
ENDBRANCH  15  18
ENDBRANCH  13  14
BRANCH  13  28
ATOM     28  C   UNL     1      -4.106   0.943  -6.636  1.00  0.00     0.327 C 
ATOM     29  O   UNL     1      -3.157   1.467  -7.200  1.00  0.00    -0.250 OA
BRANCH  28  30
ATOM     30  O   UNL     1      -4.932   1.679  -5.865  1.00  0.00    -0.480 OA
ATOM     31  H   UNL     1      -4.590   2.593  -5.948  1.00  0.00     0.296 HD
ENDBRANCH  28  30
ENDBRANCH  13  28
ENDBRANCH  11  13
ENDBRANCH   8  11
ENDBRANCH   6   7
BRANCH   6  32
ATOM     32  C   UNL     1       1.221  -0.641  -5.206  1.00  0.00     0.037 C 
BRANCH  32  33
ATOM     33  C   UNL     1       1.756  -1.854  -4.433  1.00  0.00     0.026 C 
BRANCH  33  34
ATOM     34  C   UNL     1       1.223  -3.179  -4.982  1.00  0.00     0.146 C 
BRANCH  34  35
ATOM     35  N   UNL     1       1.523  -4.237  -4.027  1.00  0.00    -0.254 NA
ATOM     36  C   UNL     1       1.749  -5.418  -4.470  1.00  0.00     0.185 C 
ATOM     37  N   UNL     1       2.031  -6.400  -3.600  1.00  0.00    -0.370 N 
ATOM     38  N   UNL     1       1.749  -5.858  -5.741  1.00  0.00    -0.370 N 
ATOM     39  H   UNL     1       2.060  -6.145  -2.621  1.00  0.00     0.159 HD
ATOM     40  H   UNL     1       2.387  -7.300  -3.873  1.00  0.00     0.159 HD
ATOM     41  H   UNL     1       1.804  -6.841  -5.952  1.00  0.00     0.159 HD
ATOM     42  H   UNL     1       1.537  -5.230  -6.501  1.00  0.00     0.159 HD
ENDBRANCH  34  35
ENDBRANCH  33  34
ENDBRANCH  32  33
ENDBRANCH   6  32
ENDBRANCH   4   6
ENDBRANCH   1   2
BRANCH   1  43
ATOM     43  C   UNL     1       1.837   3.056  -2.183  1.00  0.00     0.102 C 
ATOM     44  C   UNL     1       2.091   3.912  -0.930  1.00  0.00     0.020 C 
BRANCH  43  45
ATOM     45  C   UNL     1       2.547   3.569  -3.440  1.00  0.00     0.225 C 
ATOM     46  O   UNL     1       2.892   2.835  -4.362  1.00  0.00    -0.275 OA
ATOM     47  N   UNL     1       2.866   4.907  -3.436  1.00  0.00    -0.342 N 
ATOM     48  H   UNL     1       2.447   5.519  -2.750  1.00  0.00     0.164 HD
BRANCH  47  49
ATOM     49  C   UNL     1       3.515   5.544  -4.586  1.00  0.00     0.192 C 
BRANCH  49  50
ATOM     50  C   UNL     1       5.028   5.591  -4.362  1.00  0.00     0.047 C 
BRANCH  50  51
ATOM     51  C   UNL     1       5.391   5.827  -2.889  1.00  0.00     0.103 C 
BRANCH  51  52
ATOM     52  C   UNL     1       6.223   4.683  -2.313  1.00  0.00     0.226 C 
ATOM     53  O   UNL     1       6.007   3.527  -2.681  1.00  0.00    -0.275 OA
BRANCH  52  54
ATOM     54  N   UNL     1       7.259   5.043  -1.431  1.00  0.00    -0.311 N 
ATOM     55  C   UNL     1       7.145   4.793   0.012  1.00  0.00     0.153 C 
BRANCH  54  56
ATOM     56  C   UNL     1       8.438   5.649  -1.896  1.00  0.00     0.102 C 
ATOM     57  C   UNL     1       9.177   5.203  -2.925  1.00  0.00     0.043 C 
BRANCH  56  58
ATOM     58  C   UNL     1       8.954   6.923  -1.270  1.00  0.00     0.268 C 
ATOM     59  O   UNL     1      10.009   6.986  -0.652  1.00  0.00    -0.268 OA
ATOM     60  N   UNL     1       8.153   8.011  -1.522  1.00  0.00    -0.339 N 
ATOM     61  H   UNL     1       7.290   7.873  -2.033  1.00  0.00     0.164 HD
BRANCH  60  62
ATOM     62  C   UNL     1       8.498   9.356  -1.062  1.00  0.00     0.168 CG0
ATOM     63  C   UNL     1       7.350   9.977  -0.276  1.00  0.00     0.041 C 
ATOM     64  G   UNL     1       8.871  10.236  -2.272  1.00  0.00     0.000 G0
ENDBRANCH  60  62
ENDBRANCH  56  58
ENDBRANCH  54  56
ENDBRANCH  52  54
ENDBRANCH  51  52
ENDBRANCH  50  51
ENDBRANCH  49  50
BRANCH  49  65
ATOM     65  C   UNL     1       2.989   6.970  -4.816  1.00  0.00     0.326 C 
ATOM     66  O   UNL     1       2.338   7.625  -4.015  1.00  0.00    -0.250 OA
BRANCH  65  67
ATOM     67  O   UNL     1       3.249   7.476  -6.041  1.00  0.00    -0.480 OA
ATOM     68  H   UNL     1       2.400   7.893  -6.304  1.00  0.00     0.296 HD
ENDBRANCH  65  67
ENDBRANCH  49  65
ENDBRANCH  47  49
ENDBRANCH  43  45
ENDBRANCH   1  43
BRANCH   1  69
ATOM     69  C   UNL     1      -0.650   2.848  -1.301  1.00  0.00    -0.001 C 
ATOM     70  C   UNL     1      -1.121   1.814  -0.583  1.00  0.00     0.001 C 
BRANCH  70  71
ATOM     71  C   UNL     1      -2.049   1.878   0.548  1.00  0.00    -0.055 C 
ATOM     72  C   UNL     1      -1.592   1.491   1.757  1.00  0.00    -0.018 C 
ATOM     73  C   UNL     1      -3.445   2.379   0.283  1.00  0.00     0.044 C 
BRANCH  72  74
ATOM     74  C   UNL     1      -2.318   1.454   3.094  1.00  0.00     0.038 C 
ATOM     75  C   UNL     1      -1.378   2.069   4.138  1.00  0.00     0.015 C 
BRANCH  74  76
ATOM     76  C   UNL     1      -2.751  -0.013   3.389  1.00  0.00     0.128 C 
BRANCH  76  77
ATOM     77  O   UNL     1      -3.110  -0.150   4.774  1.00  0.00    -0.381 OA
ATOM     78  C   UNL     1      -4.483   0.106   5.036  1.00  0.00     0.195 C 
ENDBRANCH  76  77
BRANCH  76  79
ATOM     79  C   UNL     1      -3.842  -0.552   2.430  1.00  0.00     0.068 C 
BRANCH  79  80
ATOM     80  C   UNL     1      -3.550  -1.824   1.671  1.00  0.00    -0.045 A 
ATOM     81  C   UNL     1      -2.630  -1.839   0.615  1.00  0.00     0.004 A 
ATOM     82  C   UNL     1      -4.223  -3.012   1.996  1.00  0.00     0.004 A 
ATOM     83  C   UNL     1      -2.376  -3.017  -0.092  1.00  0.00     0.000 A 
ATOM     84  C   UNL     1      -3.969  -4.189   1.288  1.00  0.00     0.000 A 
ATOM     85  C   UNL     1      -3.045  -4.191   0.246  1.00  0.00     0.000 A 
ENDBRANCH  79  80
ENDBRANCH  76  79
ENDBRANCH  74  76
ENDBRANCH  72  74
ENDBRANCH  70  71
ENDBRANCH   1  69
TORSDOF 17
ENDMDL
MODEL 44
REMARK VINA RESULT:    -5.222      3.630     11.085
REMARK INTER + INTRA:         -24.751
REMARK INTER:                 -16.461
REMARK INTRA:                  -8.290
REMARK UNBOUND:                -9.148
REMARK SMILES C=C1C(=O)N[C@H](C)C(=O)N[C@@H](CC(C)C)C(=O)N[C@@H](C(=O)O)[C@H](C)C(=O)N[C@@H](CCCN=C(N)N)C(=O)N[C@@H](/C=C/C(C)=C/[C@H](C)[C@H](Cc2ccccc2)OC)[C@H](C)C(=O)N[C@@H](C(=O)O)CCC(=O)N1C
REMARK SMILES IDX 39 1 38 2 37 3 36 4 28 6 27 7 25 8 26 9 23 11 24 12 19 13
REMARK SMILES IDX 18 14 16 15 17 16 11 18 10 19 8 20 9 21 12 24 13 25 14 26
REMARK SMILES IDX 15 27 20 28 21 29 22 30 29 32 30 33 31 34 32 35 33 36 34 37
REMARK SMILES IDX 35 38 57 43 58 44 59 45 60 46 61 47 62 49 66 50 67 51 68 52
REMARK SMILES IDX 69 53 70 54 71 55 2 56 1 57 3 58 4 59 5 60 6 62 7 63 63 65
REMARK SMILES IDX 64 66 65 67 40 69 41 70 42 71 44 72 43 73 45 74 46 75 47 76
REMARK SMILES IDX 55 77 56 78 48 79 49 80 50 81 54 82 51 83 53 84 52 85
REMARK H PARENT 38 5 27 10 18 17 10 22 22 31 34 39 34 40 35 41 35 42 61 48
REMARK H PARENT 5 61 65 68
REMARK Flexibility Score:  369.900
ROOT
ATOM      1  C   UNL     1       1.994   5.361  -1.261  1.00  0.00     0.117 C 
ENDROOT
BRANCH   1   2
ATOM      2  N   UNL     1       2.979   5.678  -0.226  1.00  0.00    -0.347 N 
ATOM      3  O   UNL     1       4.740   4.491  -1.098  1.00  0.00    -0.273 OA
ATOM      4  C   UNL     1       4.304   5.291  -0.276  1.00  0.00     0.243 C 
ATOM      5  H   UNL     1       2.707   6.255   0.555  1.00  0.00     0.164 HD
BRANCH   4   6
ATOM      6  C   UNL     1       5.156   5.830   0.901  1.00  0.00     0.171 C 
BRANCH   6   7
ATOM      7  N   UNL     1       4.329   5.975   2.110  1.00  0.00    -0.344 N 
ATOM      8  C   UNL     1       4.476   7.069   2.934  1.00  0.00     0.226 C 
ATOM      9  O   UNL     1       5.300   7.950   2.722  1.00  0.00    -0.275 OA
ATOM     10  H   UNL     1       3.684   5.234   2.355  1.00  0.00     0.164 HD
BRANCH   8  11
ATOM     11  C   UNL     1       3.514   7.101   4.109  1.00  0.00     0.109 C 
ATOM     12  C   UNL     1       2.174   6.484   3.708  1.00  0.00     0.021 C 
BRANCH  11  13
ATOM     13  C   UNL     1       4.178   6.461   5.344  1.00  0.00     0.204 C 
BRANCH  13  14
ATOM     14  N   UNL     1       3.570   6.919   6.597  1.00  0.00    -0.340 N 
ATOM     15  C   UNL     1       4.301   7.479   7.623  1.00  0.00     0.243 C 
ATOM     16  O   UNL     1       5.510   7.689   7.534  1.00  0.00    -0.273 OA
ATOM     17  H   UNL     1       2.606   6.638   6.795  1.00  0.00     0.164 HD
BRANCH  15  18
ATOM     18  C   UNL     1       3.484   7.693   8.920  1.00  0.00     0.171 C 
BRANCH  18  19
ATOM     19  N   UNL     1       4.370   8.367   9.867  1.00  0.00    -0.343 N 
ATOM     20  C   UNL     1       4.815   7.745  11.018  1.00  0.00     0.242 CG0
ATOM     21  O   UNL     1       4.383   6.649  11.365  1.00  0.00    -0.273 OA
ATOM     22  H   UNL     1       4.663   9.319   9.682  1.00  0.00     0.164 HD
ATOM     23  G   UNL     1       5.805   8.584  11.852  1.00  0.00     0.000 G0
ENDBRANCH  18  19
BRANCH  18  24
ATOM     24  C   UNL     1       2.227   8.524   8.637  1.00  0.00     0.038 C 
BRANCH  24  25
ATOM     25  C   UNL     1       2.428  10.051   8.737  1.00  0.00    -0.015 C 
ATOM     26  C   UNL     1       1.365  10.726   9.604  1.00  0.00     0.007 C 
ATOM     27  C   UNL     1       2.414  10.665   7.334  1.00  0.00     0.007 C 
ENDBRANCH  24  25
ENDBRANCH  18  24
ENDBRANCH  15  18
ENDBRANCH  13  14
BRANCH  13  28
ATOM     28  C   UNL     1       4.112   4.931   5.341  1.00  0.00     0.327 C 
ATOM     29  O   UNL     1       4.724   4.182   4.595  1.00  0.00    -0.250 OA
BRANCH  28  30
ATOM     30  O   UNL     1       3.191   4.440   6.195  1.00  0.00    -0.480 OA
ATOM     31  H   UNL     1       3.422   4.843   7.057  1.00  0.00     0.296 HD
ENDBRANCH  28  30
ENDBRANCH  13  28
ENDBRANCH  11  13
ENDBRANCH   8  11
ENDBRANCH   6   7
BRANCH   6  32
ATOM     32  C   UNL     1       6.330   4.877   1.151  1.00  0.00     0.037 C 
BRANCH  32  33
ATOM     33  C   UNL     1       7.663   5.624   1.294  1.00  0.00     0.026 C 
BRANCH  33  34
ATOM     34  C   UNL     1       7.993   6.472   0.066  1.00  0.00     0.146 C 
BRANCH  34  35
ATOM     35  N   UNL     1       8.524   5.604  -0.976  1.00  0.00    -0.254 NA
ATOM     36  C   UNL     1       7.943   5.588  -2.118  1.00  0.00     0.185 C 
ATOM     37  N   UNL     1       8.427   4.795  -3.087  1.00  0.00    -0.370 N 
ATOM     38  N   UNL     1       6.864   6.279  -2.526  1.00  0.00    -0.370 N 
ATOM     39  H   UNL     1       9.248   4.249  -2.859  1.00  0.00     0.159 HD
ATOM     40  H   UNL     1       8.140   4.855  -4.049  1.00  0.00     0.159 HD
ATOM     41  H   UNL     1       6.417   6.075  -3.406  1.00  0.00     0.159 HD
ATOM     42  H   UNL     1       6.386   6.903  -1.896  1.00  0.00     0.159 HD
ENDBRANCH  34  35
ENDBRANCH  33  34
ENDBRANCH  32  33
ENDBRANCH   6  32
ENDBRANCH   4   6
ENDBRANCH   1   2
BRANCH   1  43
ATOM     43  C   UNL     1       2.015   6.492  -2.329  1.00  0.00     0.102 C 
ATOM     44  C   UNL     1       0.625   7.079  -2.626  1.00  0.00     0.020 C 
BRANCH  43  45
ATOM     45  C   UNL     1       2.785   6.055  -3.578  1.00  0.00     0.225 C 
ATOM     46  O   UNL     1       3.140   6.837  -4.455  1.00  0.00    -0.275 OA
ATOM     47  N   UNL     1       2.980   4.699  -3.710  1.00  0.00    -0.342 N 
ATOM     48  H   UNL     1       2.820   4.092  -2.918  1.00  0.00     0.164 HD
BRANCH  47  49
ATOM     49  C   UNL     1       3.731   4.139  -4.837  1.00  0.00     0.192 C 
BRANCH  49  50
ATOM     50  C   UNL     1       3.260   2.708  -5.109  1.00  0.00     0.047 C 
BRANCH  50  51
ATOM     51  C   UNL     1       2.133   2.276  -4.160  1.00  0.00     0.103 C 
BRANCH  51  52
ATOM     52  C   UNL     1       1.786   0.797  -4.319  1.00  0.00     0.226 C 
ATOM     53  O   UNL     1       2.479   0.082  -5.045  1.00  0.00    -0.275 OA
BRANCH  52  54
ATOM     54  N   UNL     1       0.712   0.319  -3.545  1.00  0.00    -0.311 N 
ATOM     55  C   UNL     1       0.744   0.396  -2.078  1.00  0.00     0.153 C 
BRANCH  54  56
ATOM     56  C   UNL     1      -0.429  -0.242  -4.142  1.00  0.00     0.102 C 
ATOM     57  C   UNL     1      -1.680   0.226  -4.001  1.00  0.00     0.043 C 
BRANCH  56  58
ATOM     58  C   UNL     1      -0.315  -1.436  -5.061  1.00  0.00     0.268 C 
ATOM     59  O   UNL     1      -0.519  -1.376  -6.266  1.00  0.00    -0.268 OA
ATOM     60  N   UNL     1       0.104  -2.575  -4.416  1.00  0.00    -0.339 N 
ATOM     61  H   UNL     1       0.241  -2.545  -3.413  1.00  0.00     0.164 HD
BRANCH  60  62
ATOM     62  C   UNL     1       0.341  -3.831  -5.128  1.00  0.00     0.168 CG0
ATOM     63  C   UNL     1       1.374  -4.684  -4.403  1.00  0.00     0.041 C 
ATOM     64  G   UNL     1       0.797  -3.529  -6.570  1.00  0.00     0.000 G0
ENDBRANCH  60  62
ENDBRANCH  56  58
ENDBRANCH  54  56
ENDBRANCH  52  54
ENDBRANCH  51  52
ENDBRANCH  50  51
ENDBRANCH  49  50
BRANCH  49  65
ATOM     65  C   UNL     1       5.243   4.133  -4.563  1.00  0.00     0.326 C 
ATOM     66  O   UNL     1       6.085   4.738  -5.210  1.00  0.00    -0.250 OA
BRANCH  65  67
ATOM     67  O   UNL     1       5.629   3.333  -3.544  1.00  0.00    -0.480 OA
ATOM     68  H   UNL     1       5.051   2.545  -3.638  1.00  0.00     0.296 HD
ENDBRANCH  65  67
ENDBRANCH  49  65
ENDBRANCH  47  49
ENDBRANCH  43  45
ENDBRANCH   1  43
BRANCH   1  69
ATOM     69  C   UNL     1       0.695   5.064  -0.532  1.00  0.00    -0.001 C 
ATOM     70  C   UNL     1       0.548   4.481   0.670  1.00  0.00     0.001 C 
BRANCH  70  71
ATOM     71  C   UNL     1      -0.709   4.219   1.373  1.00  0.00    -0.055 C 
ATOM     72  C   UNL     1      -0.871   4.766   2.596  1.00  0.00    -0.018 C 
ATOM     73  C   UNL     1      -1.737   3.364   0.678  1.00  0.00     0.044 C 
BRANCH  72  74
ATOM     74  C   UNL     1      -2.057   4.670   3.545  1.00  0.00     0.038 C 
ATOM     75  C   UNL     1      -2.444   6.102   3.933  1.00  0.00     0.015 C 
BRANCH  74  76
ATOM     76  C   UNL     1      -1.667   3.753   4.742  1.00  0.00     0.128 C 
BRANCH  76  77
ATOM     77  O   UNL     1      -1.701   4.504   5.968  1.00  0.00    -0.381 OA
ATOM     78  C   UNL     1      -0.476   4.476   6.688  1.00  0.00     0.195 C 
ENDBRANCH  76  77
BRANCH  76  79
ATOM     79  C   UNL     1      -2.486   2.439   4.821  1.00  0.00     0.068 C 
BRANCH  79  80
ATOM     80  C   UNL     1      -2.139   1.331   3.856  1.00  0.00    -0.045 A 
ATOM     81  C   UNL     1      -0.812   1.096   3.474  1.00  0.00     0.004 A 
ATOM     82  C   UNL     1      -3.151   0.533   3.303  1.00  0.00     0.004 A 
ATOM     83  C   UNL     1      -0.501   0.078   2.570  1.00  0.00     0.000 A 
ATOM     84  C   UNL     1      -2.839  -0.485   2.399  1.00  0.00     0.000 A 
ATOM     85  C   UNL     1      -1.515  -0.713   2.034  1.00  0.00     0.000 A 
ENDBRANCH  79  80
ENDBRANCH  76  79
ENDBRANCH  74  76
ENDBRANCH  72  74
ENDBRANCH  70  71
ENDBRANCH   1  69
TORSDOF 17
ENDMDL
MODEL 45
REMARK VINA RESULT:    -5.204      4.912     10.503
REMARK INTER + INTRA:         -24.696
REMARK INTER:                 -16.481
REMARK INTRA:                  -8.215
REMARK UNBOUND:                -9.148
REMARK SMILES C=C1C(=O)N[C@H](C)C(=O)N[C@@H](CC(C)C)C(=O)N[C@@H](C(=O)O)[C@H](C)C(=O)N[C@@H](CCCN=C(N)N)C(=O)N[C@@H](/C=C/C(C)=C/[C@H](C)[C@H](Cc2ccccc2)OC)[C@H](C)C(=O)N[C@@H](C(=O)O)CCC(=O)N1C
REMARK SMILES IDX 39 1 38 2 37 3 36 4 28 6 27 7 25 8 26 9 23 11 24 12 19 13
REMARK SMILES IDX 18 14 16 15 17 16 11 18 10 19 8 20 9 21 12 24 13 25 14 26
REMARK SMILES IDX 15 27 20 28 21 29 22 30 29 32 30 33 31 34 32 35 33 36 34 37
REMARK SMILES IDX 35 38 57 43 58 44 59 45 60 46 61 47 62 49 66 50 67 51 68 52
REMARK SMILES IDX 69 53 70 54 71 55 2 56 1 57 3 58 4 59 5 60 6 62 7 63 63 65
REMARK SMILES IDX 64 66 65 67 40 69 41 70 42 71 44 72 43 73 45 74 46 75 47 76
REMARK SMILES IDX 55 77 56 78 48 79 49 80 50 81 54 82 51 83 53 84 52 85
REMARK H PARENT 38 5 27 10 18 17 10 22 22 31 34 39 34 40 35 41 35 42 61 48
REMARK H PARENT 5 61 65 68
REMARK Flexibility Score:  369.900
ROOT
ATOM      1  C   UNL     1       3.166   6.923  -2.340  1.00  0.00     0.117 C 
ENDROOT
BRANCH   1   2
ATOM      2  N   UNL     1       2.223   5.825  -2.124  1.00  0.00    -0.347 N 
ATOM      3  O   UNL     1       0.303   6.943  -2.704  1.00  0.00    -0.273 OA
ATOM      4  C   UNL     1       0.873   5.897  -2.412  1.00  0.00     0.243 C 
ATOM      5  H   UNL     1       2.566   4.937  -1.792  1.00  0.00     0.164 HD
BRANCH   4   6
ATOM      6  C   UNL     1       0.114   4.567  -2.173  1.00  0.00     0.171 C 
BRANCH   6   7
ATOM      7  N   UNL     1      -0.824   4.305  -3.277  1.00  0.00    -0.344 N 
ATOM      8  C   UNL     1      -2.184   4.418  -3.085  1.00  0.00     0.226 C 
ATOM      9  O   UNL     1      -2.676   4.714  -2.002  1.00  0.00    -0.275 OA
ATOM     10  H   UNL     1      -0.459   3.993  -4.168  1.00  0.00     0.164 HD
BRANCH   8  11
ATOM     11  C   UNL     1      -3.015   4.170  -4.332  1.00  0.00     0.109 C 
ATOM     12  C   UNL     1      -2.107   3.785  -5.500  1.00  0.00     0.021 C 
BRANCH  11  13
ATOM     13  C   UNL     1      -4.134   3.157  -4.019  1.00  0.00     0.204 C 
BRANCH  13  14
ATOM     14  N   UNL     1      -5.304   3.797  -3.411  1.00  0.00    -0.340 N 
ATOM     15  C   UNL     1      -5.880   3.349  -2.242  1.00  0.00     0.243 C 
ATOM     16  O   UNL     1      -5.414   2.415  -1.592  1.00  0.00    -0.273 OA
ATOM     17  H   UNL     1      -5.827   4.475  -3.973  1.00  0.00     0.164 HD
BRANCH  15  18
ATOM     18  C   UNL     1      -7.221   4.047  -1.905  1.00  0.00     0.171 C 
BRANCH  18  19
ATOM     19  N   UNL     1      -8.228   2.993  -1.808  1.00  0.00    -0.343 N 
ATOM     20  C   UNL     1      -8.582   2.220  -2.898  1.00  0.00     0.242 CG0
ATOM     21  O   UNL     1      -8.165   2.470  -4.026  1.00  0.00    -0.273 OA
ATOM     22  H   UNL     1      -8.687   2.824  -0.921  1.00  0.00     0.164 HD
ATOM     23  G   UNL     1      -9.603   1.107  -2.585  1.00  0.00     0.000 G0
ENDBRANCH  18  19
BRANCH  18  24
ATOM     24  C   UNL     1      -7.106   4.837  -0.596  1.00  0.00     0.038 C 
BRANCH  24  25
ATOM     25  C   UNL     1      -5.664   5.209  -0.192  1.00  0.00    -0.015 C 
ATOM     26  C   UNL     1      -5.307   4.725   1.214  1.00  0.00     0.007 C 
ATOM     27  C   UNL     1      -5.480   6.726  -0.277  1.00  0.00     0.007 C 
ENDBRANCH  24  25
ENDBRANCH  18  24
ENDBRANCH  15  18
ENDBRANCH  13  14
BRANCH  13  28
ATOM     28  C   UNL     1      -4.624   2.398  -5.256  1.00  0.00     0.327 C 
ATOM     29  O   UNL     1      -4.088   1.426  -5.767  1.00  0.00    -0.250 OA
BRANCH  28  30
ATOM     30  O   UNL     1      -5.689   2.978  -5.845  1.00  0.00    -0.480 OA
ATOM     31  H   UNL     1      -6.427   2.357  -5.674  1.00  0.00     0.296 HD
ENDBRANCH  28  30
ENDBRANCH  13  28
ENDBRANCH  11  13
ENDBRANCH   8  11
ENDBRANCH   6   7
BRANCH   6  32
ATOM     32  C   UNL     1       1.128   3.426  -2.034  1.00  0.00     0.037 C 
BRANCH  32  33
ATOM     33  C   UNL     1       1.162   2.527  -3.278  1.00  0.00     0.026 C 
BRANCH  33  34
ATOM     34  C   UNL     1       0.707   1.098  -2.980  1.00  0.00     0.146 C 
BRANCH  34  35
ATOM     35  N   UNL     1      -0.479   1.149  -2.136  1.00  0.00    -0.254 NA
ATOM     36  C   UNL     1      -1.600   0.775  -2.629  1.00  0.00     0.185 C 
ATOM     37  N   UNL     1      -2.699   0.813  -1.859  1.00  0.00    -0.370 N 
ATOM     38  N   UNL     1      -1.870   0.323  -3.867  1.00  0.00    -0.370 N 
ATOM     39  H   UNL     1      -2.575   1.133  -0.907  1.00  0.00     0.159 HD
ATOM     40  H   UNL     1      -3.570   0.379  -2.111  1.00  0.00     0.159 HD
ATOM     41  H   UNL     1      -2.819   0.192  -4.178  1.00  0.00     0.159 HD
ATOM     42  H   UNL     1      -1.140   0.257  -4.559  1.00  0.00     0.159 HD
ENDBRANCH  34  35
ENDBRANCH  33  34
ENDBRANCH  32  33
ENDBRANCH   6  32
ENDBRANCH   4   6
ENDBRANCH   1   2
BRANCH   1  43
ATOM     43  C   UNL     1       4.320   6.413  -3.249  1.00  0.00     0.102 C 
ATOM     44  C   UNL     1       3.832   5.600  -4.460  1.00  0.00     0.020 C 
BRANCH  43  45
ATOM     45  C   UNL     1       5.401   5.709  -2.423  1.00  0.00     0.225 C 
ATOM     46  O   UNL     1       5.211   4.649  -1.834  1.00  0.00    -0.275 OA
ATOM     47  N   UNL     1       6.590   6.391  -2.299  1.00  0.00    -0.342 N 
ATOM     48  H   UNL     1       6.782   7.176  -2.906  1.00  0.00     0.164 HD
BRANCH  47  49
ATOM     49  C   UNL     1       7.727   5.823  -1.568  1.00  0.00     0.192 C 
BRANCH  49  50
ATOM     50  C   UNL     1       8.192   6.810  -0.494  1.00  0.00     0.047 C 
BRANCH  50  51
ATOM     51  C   UNL     1       8.310   8.243  -1.032  1.00  0.00     0.103 C 
BRANCH  51  52
ATOM     52  C   UNL     1       7.611   9.255  -0.126  1.00  0.00     0.226 C 
ATOM     53  O   UNL     1       6.504   9.695  -0.443  1.00  0.00    -0.275 OA
BRANCH  52  54
ATOM     54  N   UNL     1       8.263   9.571   1.080  1.00  0.00    -0.311 N 
ATOM     55  C   UNL     1       9.690   9.918   1.101  1.00  0.00     0.153 C 
BRANCH  54  56
ATOM     56  C   UNL     1       7.575   9.571   2.305  1.00  0.00     0.102 C 
ATOM     57  C   UNL     1       7.321   8.479   3.045  1.00  0.00     0.043 C 
BRANCH  56  58
ATOM     58  C   UNL     1       7.094  10.863   2.923  1.00  0.00     0.268 C 
ATOM     59  O   UNL     1       6.227  11.564   2.418  1.00  0.00    -0.268 OA
ATOM     60  N   UNL     1       7.680  11.133   4.137  1.00  0.00    -0.339 N 
ATOM     61  H   UNL     1       8.398  10.507   4.481  1.00  0.00     0.164 HD
BRANCH  60  62
ATOM     62  C   UNL     1       7.313  12.301   4.936  1.00  0.00     0.168 CG0
ATOM     63  C   UNL     1       6.240  11.949   5.959  1.00  0.00     0.041 C 
ATOM     64  G   UNL     1       6.830  13.433   4.006  1.00  0.00     0.000 G0
ENDBRANCH  60  62
ENDBRANCH  56  58
ENDBRANCH  54  56
ENDBRANCH  52  54
ENDBRANCH  51  52
ENDBRANCH  50  51
ENDBRANCH  49  50
BRANCH  49  65
ATOM     65  C   UNL     1       8.900   5.500  -2.506  1.00  0.00     0.326 C 
ATOM     66  O   UNL     1      10.038   5.225  -2.152  1.00  0.00    -0.250 OA
BRANCH  65  67
ATOM     67  O   UNL     1       8.613   5.596  -3.822  1.00  0.00    -0.480 OA
ATOM     68  H   UNL     1       8.443   6.554  -3.953  1.00  0.00     0.296 HD
ENDBRANCH  65  67
ENDBRANCH  49  65
ENDBRANCH  47  49
ENDBRANCH  43  45
ENDBRANCH   1  43
BRANCH   1  69
ATOM     69  C   UNL     1       3.502   7.470  -0.964  1.00  0.00    -0.001 C 
ATOM     70  C   UNL     1       3.248   6.898   0.226  1.00  0.00     0.001 C 
BRANCH  70  71
ATOM     71  C   UNL     1       3.596   7.425   1.547  1.00  0.00    -0.055 C 
ATOM     72  C   UNL     1       3.656   6.553   2.575  1.00  0.00    -0.018 C 
ATOM     73  C   UNL     1       3.871   8.902   1.664  1.00  0.00     0.044 C 
BRANCH  72  74
ATOM     74  C   UNL     1       3.992   6.809   4.038  1.00  0.00     0.038 C 
ATOM     75  C   UNL     1       5.112   5.834   4.423  1.00  0.00     0.015 C 
BRANCH  74  76
ATOM     76  C   UNL     1       2.690   6.673   4.881  1.00  0.00     0.128 C 
BRANCH  76  77
ATOM     77  O   UNL     1       1.822   7.791   4.628  1.00  0.00    -0.381 OA
ATOM     78  C   UNL     1       2.349   9.035   5.069  1.00  0.00     0.195 C 
ENDBRANCH  76  77
BRANCH  76  79
ATOM     79  C   UNL     1       1.974   5.309   4.719  1.00  0.00     0.068 C 
BRANCH  79  80
ATOM     80  C   UNL     1       0.632   5.293   4.027  1.00  0.00    -0.045 A 
ATOM     81  C   UNL     1      -0.536   5.664   4.707  1.00  0.00     0.004 A 
ATOM     82  C   UNL     1       0.530   4.876   2.691  1.00  0.00     0.004 A 
ATOM     83  C   UNL     1      -1.775   5.633   4.064  1.00  0.00     0.000 A 
ATOM     84  C   UNL     1      -0.710   4.844   2.049  1.00  0.00     0.000 A 
ATOM     85  C   UNL     1      -1.861   5.224   2.735  1.00  0.00     0.000 A 
ENDBRANCH  79  80
ENDBRANCH  76  79
ENDBRANCH  74  76
ENDBRANCH  72  74
ENDBRANCH  70  71
ENDBRANCH   1  69
TORSDOF 17
ENDMDL
MODEL 46
REMARK VINA RESULT:    -5.202      4.587     10.369
REMARK INTER + INTRA:         -24.690
REMARK INTER:                 -17.203
REMARK INTRA:                  -7.487
REMARK UNBOUND:                -9.148
REMARK SMILES C=C1C(=O)N[C@H](C)C(=O)N[C@@H](CC(C)C)C(=O)N[C@@H](C(=O)O)[C@H](C)C(=O)N[C@@H](CCCN=C(N)N)C(=O)N[C@@H](/C=C/C(C)=C/[C@H](C)[C@H](Cc2ccccc2)OC)[C@H](C)C(=O)N[C@@H](C(=O)O)CCC(=O)N1C
REMARK SMILES IDX 39 1 38 2 37 3 36 4 28 6 27 7 25 8 26 9 23 11 24 12 19 13
REMARK SMILES IDX 18 14 16 15 17 16 11 18 10 19 8 20 9 21 12 24 13 25 14 26
REMARK SMILES IDX 15 27 20 28 21 29 22 30 29 32 30 33 31 34 32 35 33 36 34 37
REMARK SMILES IDX 35 38 57 43 58 44 59 45 60 46 61 47 62 49 66 50 67 51 68 52
REMARK SMILES IDX 69 53 70 54 71 55 2 56 1 57 3 58 4 59 5 60 6 62 7 63 63 65
REMARK SMILES IDX 64 66 65 67 40 69 41 70 42 71 44 72 43 73 45 74 46 75 47 76
REMARK SMILES IDX 55 77 56 78 48 79 49 80 50 81 54 82 51 83 53 84 52 85
REMARK H PARENT 38 5 27 10 18 17 10 22 22 31 34 39 34 40 35 41 35 42 61 48
REMARK H PARENT 5 61 65 68
REMARK Flexibility Score:  369.900
ROOT
ATOM      1  C   UNL     1       3.641   7.013  -2.242  1.00  0.00     0.117 C 
ENDROOT
BRANCH   1   2
ATOM      2  N   UNL     1       2.763   5.961  -1.730  1.00  0.00    -0.347 N 
ATOM      3  O   UNL     1       0.756   6.957  -2.230  1.00  0.00    -0.273 OA
ATOM      4  C   UNL     1       1.386   5.976  -1.849  1.00  0.00     0.243 C 
ATOM      5  H   UNL     1       3.169   5.141  -1.305  1.00  0.00     0.164 HD
BRANCH   4   6
ATOM      6  C   UNL     1       0.699   4.700  -1.300  1.00  0.00     0.171 C 
BRANCH   6   7
ATOM      7  N   UNL     1       0.754   3.618  -2.296  1.00  0.00    -0.344 N 
ATOM      8  C   UNL     1      -0.336   2.801  -2.506  1.00  0.00     0.226 C 
ATOM      9  O   UNL     1      -1.379   2.915  -1.873  1.00  0.00    -0.275 OA
ATOM     10  H   UNL     1       1.621   3.450  -2.791  1.00  0.00     0.164 HD
BRANCH   8  11
ATOM     11  C   UNL     1      -0.141   1.769  -3.603  1.00  0.00     0.109 C 
ATOM     12  C   UNL     1       0.982   2.206  -4.543  1.00  0.00     0.021 C 
BRANCH  11  13
ATOM     13  C   UNL     1       0.044   0.372  -2.978  1.00  0.00     0.204 C 
BRANCH  13  14
ATOM     14  N   UNL     1      -1.170  -0.094  -2.300  1.00  0.00    -0.340 N 
ATOM     15  C   UNL     1      -1.171  -0.562  -1.004  1.00  0.00     0.243 C 
ATOM     16  O   UNL     1      -0.161  -0.565  -0.302  1.00  0.00    -0.273 OA
ATOM     17  H   UNL     1      -2.005  -0.259  -2.869  1.00  0.00     0.164 HD
BRANCH  15  18
ATOM     18  C   UNL     1      -2.519  -1.191  -0.574  1.00  0.00     0.171 C 
BRANCH  18  19
ATOM     19  N   UNL     1      -3.487  -0.858  -1.617  1.00  0.00    -0.343 N 
ATOM     20  C   UNL     1      -4.758  -0.409  -1.314  1.00  0.00     0.242 CG0
ATOM     21  O   UNL     1      -5.178  -0.394  -0.160  1.00  0.00    -0.273 OA
ATOM     22  H   UNL     1      -3.226  -0.965  -2.590  1.00  0.00     0.164 HD
ATOM     23  G   UNL     1      -5.610  -0.034  -2.545  1.00  0.00     0.000 G0
ENDBRANCH  18  19
BRANCH  18  24
ATOM     24  C   UNL     1      -2.378  -2.708  -0.400  1.00  0.00     0.038 C 
BRANCH  24  25
ATOM     25  C   UNL     1      -2.342  -3.188   1.066  1.00  0.00    -0.015 C 
ATOM     26  C   UNL     1      -3.059  -4.525   1.262  1.00  0.00     0.007 C 
ATOM     27  C   UNL     1      -2.975  -2.128   1.971  1.00  0.00     0.007 C 
ENDBRANCH  24  25
ENDBRANCH  18  24
ENDBRANCH  15  18
ENDBRANCH  13  14
BRANCH  13  28
ATOM     28  C   UNL     1       0.432  -0.701  -4.000  1.00  0.00     0.327 C 
ATOM     29  O   UNL     1      -0.112  -0.906  -5.074  1.00  0.00    -0.250 OA
BRANCH  28  30
ATOM     30  O   UNL     1       1.404  -1.525  -3.558  1.00  0.00    -0.480 OA
ATOM     31  H   UNL     1       2.235  -1.043  -3.750  1.00  0.00     0.296 HD
ENDBRANCH  28  30
ENDBRANCH  13  28
ENDBRANCH  11  13
ENDBRANCH   8  11
ENDBRANCH   6   7
BRANCH   6  32
ATOM     32  C   UNL     1       1.385   4.280   0.004  1.00  0.00     0.037 C 
BRANCH  32  33
ATOM     33  C   UNL     1       0.822   5.025   1.222  1.00  0.00     0.026 C 
BRANCH  33  34
ATOM     34  C   UNL     1       0.217   4.077   2.259  1.00  0.00     0.146 C 
BRANCH  34  35
ATOM     35  N   UNL     1      -0.525   3.034   1.566  1.00  0.00    -0.254 NA
ATOM     36  C   UNL     1      -1.805   3.068   1.594  1.00  0.00     0.185 C 
ATOM     37  N   UNL     1      -2.499   2.114   0.954  1.00  0.00    -0.370 N 
ATOM     38  N   UNL     1      -2.613   3.959   2.195  1.00  0.00    -0.370 N 
ATOM     39  H   UNL     1      -1.960   1.410   0.466  1.00  0.00     0.159 HD
ATOM     40  H   UNL     1      -3.489   2.166   0.783  1.00  0.00     0.159 HD
ATOM     41  H   UNL     1      -3.605   3.800   2.263  1.00  0.00     0.159 HD
ATOM     42  H   UNL     1      -2.228   4.723   2.728  1.00  0.00     0.159 HD
ENDBRANCH  34  35
ENDBRANCH  33  34
ENDBRANCH  32  33
ENDBRANCH   6  32
ENDBRANCH   4   6
ENDBRANCH   1   2
BRANCH   1  43
ATOM     43  C   UNL     1       4.772   6.350  -3.080  1.00  0.00     0.102 C 
ATOM     44  C   UNL     1       4.259   5.298  -4.078  1.00  0.00     0.020 C 
BRANCH  43  45
ATOM     45  C   UNL     1       5.904   5.850  -2.177  1.00  0.00     0.225 C 
ATOM     46  O   UNL     1       5.799   4.863  -1.453  1.00  0.00    -0.275 OA
ATOM     47  N   UNL     1       7.033   6.636  -2.152  1.00  0.00    -0.342 N 
ATOM     48  H   UNL     1       7.163   7.348  -2.857  1.00  0.00     0.164 HD
BRANCH  47  49
ATOM     49  C   UNL     1       8.210   6.262  -1.360  1.00  0.00     0.192 C 
BRANCH  49  50
ATOM     50  C   UNL     1       8.528   7.372  -0.356  1.00  0.00     0.047 C 
BRANCH  50  51
ATOM     51  C   UNL     1       8.665   8.744  -1.029  1.00  0.00     0.103 C 
BRANCH  51  52
ATOM     52  C   UNL     1       7.941   9.840  -0.249  1.00  0.00     0.226 C 
ATOM     53  O   UNL     1       6.758  10.083  -0.494  1.00  0.00    -0.275 OA
BRANCH  52  54
ATOM     54  N   UNL     1       8.672  10.467   0.777  1.00  0.00    -0.311 N 
ATOM     55  C   UNL     1       9.963   9.925   1.225  1.00  0.00     0.153 C 
BRANCH  54  56
ATOM     56  C   UNL     1       8.202  11.631   1.406  1.00  0.00     0.102 C 
ATOM     57  C   UNL     1       7.166  11.679   2.260  1.00  0.00     0.043 C 
BRANCH  56  58
ATOM     58  C   UNL     1       8.887  12.960   1.189  1.00  0.00     0.268 C 
ATOM     59  O   UNL     1      10.029  13.194   1.564  1.00  0.00    -0.268 OA
ATOM     60  N   UNL     1       8.124  13.851   0.474  1.00  0.00    -0.339 N 
ATOM     61  H   UNL     1       7.184  13.585   0.209  1.00  0.00     0.164 HD
BRANCH  60  62
ATOM     62  C   UNL     1       8.620  15.175   0.098  1.00  0.00     0.168 CG0
ATOM     63  C   UNL     1       7.897  16.270   0.873  1.00  0.00     0.041 C 
ATOM     64  G   UNL     1       8.449  15.378  -1.422  1.00  0.00     0.000 G0
ENDBRANCH  60  62
ENDBRANCH  56  58
ENDBRANCH  54  56
ENDBRANCH  52  54
ENDBRANCH  51  52
ENDBRANCH  50  51
ENDBRANCH  49  50
BRANCH  49  65
ATOM     65  C   UNL     1       9.437   6.015  -2.252  1.00  0.00     0.326 C 
ATOM     66  O   UNL     1      10.374   5.278  -1.982  1.00  0.00    -0.250 OA
BRANCH  65  67
ATOM     67  O   UNL     1       9.460   6.738  -3.392  1.00  0.00    -0.480 OA
ATOM     68  H   UNL     1      10.364   7.120  -3.406  1.00  0.00     0.296 HD
ENDBRANCH  65  67
ENDBRANCH  49  65
ENDBRANCH  47  49
ENDBRANCH  43  45
ENDBRANCH   1  43
BRANCH   1  69
ATOM     69  C   UNL     1       4.018   7.869  -1.047  1.00  0.00    -0.001 C 
ATOM     70  C   UNL     1       3.849   7.575   0.255  1.00  0.00     0.001 C 
BRANCH  70  71
ATOM     71  C   UNL     1       4.237   8.400   1.400  1.00  0.00    -0.055 C 
ATOM     72  C   UNL     1       5.189   7.918   2.226  1.00  0.00    -0.018 C 
ATOM     73  C   UNL     1       3.552   9.731   1.572  1.00  0.00     0.044 C 
BRANCH  72  74
ATOM     74  C   UNL     1       5.787   8.547   3.477  1.00  0.00     0.038 C 
ATOM     75  C   UNL     1       7.281   8.198   3.489  1.00  0.00     0.015 C 
BRANCH  74  76
ATOM     76  C   UNL     1       4.990   8.048   4.718  1.00  0.00     0.128 C 
BRANCH  76  77
ATOM     77  O   UNL     1       5.870   7.359   5.623  1.00  0.00    -0.381 OA
ATOM     78  C   UNL     1       5.421   6.057   5.975  1.00  0.00     0.195 C 
ENDBRANCH  76  77
BRANCH  76  79
ATOM     79  C   UNL     1       4.157   9.153   5.417  1.00  0.00     0.068 C 
BRANCH  79  80
ATOM     80  C   UNL     1       4.699  10.562   5.402  1.00  0.00    -0.045 A 
ATOM     81  C   UNL     1       4.060  11.573   4.672  1.00  0.00     0.004 A 
ATOM     82  C   UNL     1       5.874  10.875   6.102  1.00  0.00     0.004 A 
ATOM     83  C   UNL     1       4.575  12.871   4.652  1.00  0.00     0.000 A 
ATOM     84  C   UNL     1       6.388  12.173   6.081  1.00  0.00     0.000 A 
ATOM     85  C   UNL     1       5.738  13.171   5.358  1.00  0.00     0.000 A 
ENDBRANCH  79  80
ENDBRANCH  76  79
ENDBRANCH  74  76
ENDBRANCH  72  74
ENDBRANCH  70  71
ENDBRANCH   1  69
TORSDOF 17
ENDMDL
MODEL 47
REMARK VINA RESULT:    -5.198      3.272     11.546
REMARK INTER + INTRA:         -24.678
REMARK INTER:                 -16.794
REMARK INTRA:                  -7.885
REMARK UNBOUND:                -9.148
REMARK SMILES C=C1C(=O)N[C@H](C)C(=O)N[C@@H](CC(C)C)C(=O)N[C@@H](C(=O)O)[C@H](C)C(=O)N[C@@H](CCCN=C(N)N)C(=O)N[C@@H](/C=C/C(C)=C/[C@H](C)[C@H](Cc2ccccc2)OC)[C@H](C)C(=O)N[C@@H](C(=O)O)CCC(=O)N1C
REMARK SMILES IDX 39 1 38 2 37 3 36 4 28 6 27 7 25 8 26 9 23 11 24 12 19 13
REMARK SMILES IDX 18 14 16 15 17 16 11 18 10 19 8 20 9 21 12 24 13 25 14 26
REMARK SMILES IDX 15 27 20 28 21 29 22 30 29 32 30 33 31 34 32 35 33 36 34 37
REMARK SMILES IDX 35 38 57 43 58 44 59 45 60 46 61 47 62 49 66 50 67 51 68 52
REMARK SMILES IDX 69 53 70 54 71 55 2 56 1 57 3 58 4 59 5 60 6 62 7 63 63 65
REMARK SMILES IDX 64 66 65 67 40 69 41 70 42 71 44 72 43 73 45 74 46 75 47 76
REMARK SMILES IDX 55 77 56 78 48 79 49 80 50 81 54 82 51 83 53 84 52 85
REMARK H PARENT 38 5 27 10 18 17 10 22 22 31 34 39 34 40 35 41 35 42 61 48
REMARK H PARENT 5 61 65 68
REMARK Flexibility Score:  369.900
ROOT
ATOM      1  C   UNL     1       1.400   4.659  -1.255  1.00  0.00     0.117 C 
ENDROOT
BRANCH   1   2
ATOM      2  N   UNL     1       2.581   5.372  -1.744  1.00  0.00    -0.347 N 
ATOM      3  O   UNL     1       4.158   3.819  -1.137  1.00  0.00    -0.273 OA
ATOM      4  C   UNL     1       3.860   4.851  -1.728  1.00  0.00     0.243 C 
ATOM      5  H   UNL     1       2.469   6.280  -2.168  1.00  0.00     0.164 HD
BRANCH   4   6
ATOM      6  C   UNL     1       4.917   5.776  -2.384  1.00  0.00     0.171 C 
BRANCH   6   7
ATOM      7  N   UNL     1       6.219   5.624  -1.715  1.00  0.00    -0.344 N 
ATOM      8  C   UNL     1       6.860   6.716  -1.170  1.00  0.00     0.226 C 
ATOM      9  O   UNL     1       6.401   7.850  -1.232  1.00  0.00    -0.275 OA
ATOM     10  H   UNL     1       6.662   4.714  -1.703  1.00  0.00     0.164 HD
BRANCH   8  11
ATOM     11  C   UNL     1       8.166   6.388  -0.467  1.00  0.00     0.109 C 
ATOM     12  C   UNL     1       9.244   7.396  -0.865  1.00  0.00     0.021 C 
BRANCH  11  13
ATOM     13  C   UNL     1       7.924   6.262   1.050  1.00  0.00     0.204 C 
BRANCH  13  14
ATOM     14  N   UNL     1       6.949   7.242   1.537  1.00  0.00    -0.340 N 
ATOM     15  C   UNL     1       7.294   8.306   2.342  1.00  0.00     0.243 C 
ATOM     16  O   UNL     1       8.458   8.542   2.661  1.00  0.00    -0.273 OA
ATOM     17  H   UNL     1       5.954   7.021   1.437  1.00  0.00     0.164 HD
BRANCH  15  18
ATOM     18  C   UNL     1       6.075   9.081   2.899  1.00  0.00     0.171 C 
BRANCH  18  19
ATOM     19  N   UNL     1       6.606  10.104   3.800  1.00  0.00    -0.343 N 
ATOM     20  C   UNL     1       5.964  10.443   4.975  1.00  0.00     0.242 CG0
ATOM     21  O   UNL     1       4.853   9.998   5.254  1.00  0.00    -0.273 OA
ATOM     22  H   UNL     1       7.464  10.584   3.556  1.00  0.00     0.164 HD
ATOM     23  G   UNL     1       6.714  11.484   5.832  1.00  0.00     0.000 G0
ENDBRANCH  18  19
BRANCH  18  24
ATOM     24  C   UNL     1       5.262   9.705   1.758  1.00  0.00     0.038 C 
BRANCH  24  25
ATOM     25  C   UNL     1       3.786   9.258   1.700  1.00  0.00    -0.015 C 
ATOM     26  C   UNL     1       3.476   8.423   0.457  1.00  0.00     0.007 C 
ATOM     27  C   UNL     1       2.875  10.488   1.735  1.00  0.00     0.007 C 
ENDBRANCH  24  25
ENDBRANCH  18  24
ENDBRANCH  15  18
ENDBRANCH  13  14
BRANCH  13  28
ATOM     28  C   UNL     1       7.423   4.876   1.469  1.00  0.00     0.327 C 
ATOM     29  O   UNL     1       7.355   3.887   0.756  1.00  0.00    -0.250 OA
BRANCH  28  30
ATOM     30  O   UNL     1       6.926   4.850   2.722  1.00  0.00    -0.480 OA
ATOM     31  H   UNL     1       6.635   5.771   2.885  1.00  0.00     0.296 HD
ENDBRANCH  28  30
ENDBRANCH  13  28
ENDBRANCH  11  13
ENDBRANCH   8  11
ENDBRANCH   6   7
BRANCH   6  32
ATOM     32  C   UNL     1       5.026   5.437  -3.875  1.00  0.00     0.037 C 
BRANCH  32  33
ATOM     33  C   UNL     1       6.200   4.494  -4.171  1.00  0.00     0.026 C 
BRANCH  33  34
ATOM     34  C   UNL     1       5.772   3.027  -4.232  1.00  0.00     0.146 C 
BRANCH  34  35
ATOM     35  N   UNL     1       6.959   2.187  -4.148  1.00  0.00    -0.254 NA
ATOM     36  C   UNL     1       7.412   1.877  -2.991  1.00  0.00     0.185 C 
ATOM     37  N   UNL     1       8.502   1.100  -2.902  1.00  0.00    -0.370 N 
ATOM     38  N   UNL     1       6.943   2.225  -1.779  1.00  0.00    -0.370 N 
ATOM     39  H   UNL     1       8.909   0.787  -3.774  1.00  0.00     0.159 HD
ATOM     40  H   UNL     1       8.813   0.674  -2.046  1.00  0.00     0.159 HD
ATOM     41  H   UNL     1       7.469   2.033  -0.942  1.00  0.00     0.159 HD
ATOM     42  H   UNL     1       6.135   2.822  -1.694  1.00  0.00     0.159 HD
ENDBRANCH  34  35
ENDBRANCH  33  34
ENDBRANCH  32  33
ENDBRANCH   6  32
ENDBRANCH   4   6
ENDBRANCH   1   2
BRANCH   1  43
ATOM     43  C   UNL     1       0.303   4.703  -2.357  1.00  0.00     0.102 C 
ATOM     44  C   UNL     1      -1.128   4.742  -1.795  1.00  0.00     0.020 C 
BRANCH  43  45
ATOM     45  C   UNL     1       0.530   3.607  -3.403  1.00  0.00     0.225 C 
ATOM     46  O   UNL     1       1.601   3.023  -3.541  1.00  0.00    -0.275 OA
ATOM     47  N   UNL     1      -0.525   3.373  -4.255  1.00  0.00    -0.342 N 
ATOM     48  H   UNL     1      -1.438   3.746  -4.035  1.00  0.00     0.164 HD
BRANCH  47  49
ATOM     49  C   UNL     1      -0.464   2.329  -5.282  1.00  0.00     0.192 C 
BRANCH  49  50
ATOM     50  C   UNL     1      -0.403   2.975  -6.669  1.00  0.00     0.047 C 
BRANCH  50  51
ATOM     51  C   UNL     1       0.560   2.239  -7.611  1.00  0.00     0.103 C 
BRANCH  51  52
ATOM     52  C   UNL     1       1.947   2.067  -6.994  1.00  0.00     0.226 C 
ATOM     53  O   UNL     1       2.656   3.057  -6.801  1.00  0.00    -0.275 OA
BRANCH  52  54
ATOM     54  N   UNL     1       2.303   0.762  -6.608  1.00  0.00    -0.311 N 
ATOM     55  C   UNL     1       3.271   0.531  -5.527  1.00  0.00     0.153 C 
BRANCH  54  56
ATOM     56  C   UNL     1       1.746  -0.366  -7.234  1.00  0.00     0.102 C 
ATOM     57  C   UNL     1       0.773  -1.131  -6.714  1.00  0.00     0.043 C 
BRANCH  56  58
ATOM     58  C   UNL     1       2.191  -0.784  -8.615  1.00  0.00     0.268 C 
ATOM     59  O   UNL     1       3.246  -0.420  -9.118  1.00  0.00    -0.268 OA
ATOM     60  N   UNL     1       1.325  -1.665  -9.219  1.00  0.00    -0.339 N 
ATOM     61  H   UNL     1       0.467  -1.909  -8.740  1.00  0.00     0.164 HD
BRANCH  60  62
ATOM     62  C   UNL     1       1.595  -2.245 -10.533  1.00  0.00     0.168 CG0
ATOM     63  C   UNL     1       2.200  -3.638 -10.403  1.00  0.00     0.041 C 
ATOM     64  G   UNL     1       2.535  -1.314 -11.327  1.00  0.00     0.000 G0
ENDBRANCH  60  62
ENDBRANCH  56  58
ENDBRANCH  54  56
ENDBRANCH  52  54
ENDBRANCH  51  52
ENDBRANCH  50  51
ENDBRANCH  49  50
BRANCH  49  65
ATOM     65  C   UNL     1      -1.680   1.392  -5.211  1.00  0.00     0.326 C 
ATOM     66  O   UNL     1      -1.699   0.292  -4.677  1.00  0.00    -0.250 OA
BRANCH  65  67
ATOM     67  O   UNL     1      -2.779   1.844  -5.854  1.00  0.00    -0.480 OA
ATOM     68  H   UNL     1      -3.289   2.299  -5.149  1.00  0.00     0.296 HD
ENDBRANCH  65  67
ENDBRANCH  49  65
ENDBRANCH  47  49
ENDBRANCH  43  45
ENDBRANCH   1  43
BRANCH   1  69
ATOM     69  C   UNL     1       1.090   5.240   0.112  1.00  0.00    -0.001 C 
ATOM     70  C   UNL     1       0.998   4.579   1.280  1.00  0.00     0.001 C 
BRANCH  70  71
ATOM     71  C   UNL     1       0.719   5.155   2.597  1.00  0.00    -0.055 C 
ATOM     72  C   UNL     1       1.767   5.600   3.322  1.00  0.00    -0.018 C 
ATOM     73  C   UNL     1      -0.717   5.217   3.046  1.00  0.00     0.044 C 
BRANCH  72  74
ATOM     74  C   UNL     1       1.780   6.240   4.703  1.00  0.00     0.038 C 
ATOM     75  C   UNL     1       1.901   7.755   4.500  1.00  0.00     0.015 C 
BRANCH  74  76
ATOM     76  C   UNL     1       2.926   5.599   5.541  1.00  0.00     0.128 C 
BRANCH  76  77
ATOM     77  O   UNL     1       4.138   5.564   4.768  1.00  0.00    -0.381 OA
ATOM     78  C   UNL     1       5.201   6.315   5.338  1.00  0.00     0.195 C 
ENDBRANCH  76  77
BRANCH  76  79
ATOM     79  C   UNL     1       3.123   6.246   6.935  1.00  0.00     0.068 C 
BRANCH  79  80
ATOM     80  C   UNL     1       1.983   6.162   7.921  1.00  0.00    -0.045 A 
ATOM     81  C   UNL     1       1.799   7.150   8.898  1.00  0.00     0.004 A 
ATOM     82  C   UNL     1       1.100   5.072   7.891  1.00  0.00     0.004 A 
ATOM     83  C   UNL     1       0.750   7.058   9.815  1.00  0.00     0.000 A 
ATOM     84  C   UNL     1       0.052   4.981   8.809  1.00  0.00     0.000 A 
ATOM     85  C   UNL     1      -0.124   5.974   9.769  1.00  0.00     0.000 A 
ENDBRANCH  79  80
ENDBRANCH  76  79
ENDBRANCH  74  76
ENDBRANCH  72  74
ENDBRANCH  70  71
ENDBRANCH   1  69
TORSDOF 17
ENDMDL
MODEL 48
REMARK VINA RESULT:    -5.191      3.670     10.813
REMARK INTER + INTRA:         -24.659
REMARK INTER:                 -16.198
REMARK INTRA:                  -8.460
REMARK UNBOUND:                -9.148
REMARK SMILES C=C1C(=O)N[C@H](C)C(=O)N[C@@H](CC(C)C)C(=O)N[C@@H](C(=O)O)[C@H](C)C(=O)N[C@@H](CCCN=C(N)N)C(=O)N[C@@H](/C=C/C(C)=C/[C@H](C)[C@H](Cc2ccccc2)OC)[C@H](C)C(=O)N[C@@H](C(=O)O)CCC(=O)N1C
REMARK SMILES IDX 39 1 38 2 37 3 36 4 28 6 27 7 25 8 26 9 23 11 24 12 19 13
REMARK SMILES IDX 18 14 16 15 17 16 11 18 10 19 8 20 9 21 12 24 13 25 14 26
REMARK SMILES IDX 15 27 20 28 21 29 22 30 29 32 30 33 31 34 32 35 33 36 34 37
REMARK SMILES IDX 35 38 57 43 58 44 59 45 60 46 61 47 62 49 66 50 67 51 68 52
REMARK SMILES IDX 69 53 70 54 71 55 2 56 1 57 3 58 4 59 5 60 6 62 7 63 63 65
REMARK SMILES IDX 64 66 65 67 40 69 41 70 42 71 44 72 43 73 45 74 46 75 47 76
REMARK SMILES IDX 55 77 56 78 48 79 49 80 50 81 54 82 51 83 53 84 52 85
REMARK H PARENT 38 5 27 10 18 17 10 22 22 31 34 39 34 40 35 41 35 42 61 48
REMARK H PARENT 5 61 65 68
REMARK Flexibility Score:  369.900
ROOT
ATOM      1  C   UNL     1       2.730   4.002  -2.363  1.00  0.00     0.117 C 
ENDROOT
BRANCH   1   2
ATOM      2  N   UNL     1       3.594   4.719  -1.425  1.00  0.00    -0.347 N 
ATOM      3  O   UNL     1       5.589   3.767  -2.045  1.00  0.00    -0.273 OA
ATOM      4  C   UNL     1       4.971   4.611  -1.404  1.00  0.00     0.243 C 
ATOM      5  H   UNL     1       3.183   5.376  -0.778  1.00  0.00     0.164 HD
BRANCH   4   6
ATOM      6  C   UNL     1       5.653   5.543  -0.370  1.00  0.00     0.171 C 
BRANCH   6   7
ATOM      7  N   UNL     1       4.782   5.741   0.799  1.00  0.00    -0.344 N 
ATOM      8  C   UNL     1       4.739   6.956   1.446  1.00  0.00     0.226 C 
ATOM      9  O   UNL     1       5.427   7.911   1.104  1.00  0.00    -0.275 OA
ATOM     10  H   UNL     1       4.249   4.956   1.152  1.00  0.00     0.164 HD
BRANCH   8  11
ATOM     11  C   UNL     1       3.752   7.017   2.598  1.00  0.00     0.109 C 
ATOM     12  C   UNL     1       2.633   5.997   2.387  1.00  0.00     0.021 C 
BRANCH  11  13
ATOM     13  C   UNL     1       4.504   6.887   3.937  1.00  0.00     0.204 C 
BRANCH  13  14
ATOM     14  N   UNL     1       3.600   6.586   5.051  1.00  0.00    -0.340 N 
ATOM     15  C   UNL     1       3.702   7.194   6.284  1.00  0.00     0.243 C 
ATOM     16  O   UNL     1       4.523   8.079   6.517  1.00  0.00    -0.273 OA
ATOM     17  H   UNL     1       3.000   5.760   4.973  1.00  0.00     0.164 HD
BRANCH  15  18
ATOM     18  C   UNL     1       2.780   6.571   7.360  1.00  0.00     0.171 C 
BRANCH  18  19
ATOM     19  N   UNL     1       3.259   7.055   8.653  1.00  0.00    -0.343 N 
ATOM     20  C   UNL     1       4.187   6.352   9.397  1.00  0.00     0.242 CG0
ATOM     21  O   UNL     1       4.553   5.225   9.070  1.00  0.00    -0.273 OA
ATOM     22  H   UNL     1       2.898   7.928   9.022  1.00  0.00     0.164 HD
ATOM     23  G   UNL     1       4.630   7.058  10.695  1.00  0.00     0.000 G0
ENDBRANCH  18  19
BRANCH  18  24
ATOM     24  C   UNL     1       1.319   6.968   7.117  1.00  0.00     0.038 C 
BRANCH  24  25
ATOM     25  C   UNL     1       0.373   5.788   6.807  1.00  0.00    -0.015 C 
ATOM     26  C   UNL     1       1.127   4.476   6.587  1.00  0.00     0.007 C 
ATOM     27  C   UNL     1      -0.466   6.113   5.568  1.00  0.00     0.007 C 
ENDBRANCH  24  25
ENDBRANCH  18  24
ENDBRANCH  15  18
ENDBRANCH  13  14
BRANCH  13  28
ATOM     28  C   UNL     1       5.582   5.798   3.921  1.00  0.00     0.327 C 
ATOM     29  O   UNL     1       6.789   5.977   3.869  1.00  0.00    -0.250 OA
BRANCH  28  30
ATOM     30  O   UNL     1       5.073   4.552   3.850  1.00  0.00    -0.480 OA
ATOM     31  H   UNL     1       4.858   4.432   2.901  1.00  0.00     0.296 HD
ENDBRANCH  28  30
ENDBRANCH  13  28
ENDBRANCH  11  13
ENDBRANCH   8  11
ENDBRANCH   6   7
BRANCH   6  32
ATOM     32  C   UNL     1       6.997   4.934   0.046  1.00  0.00     0.037 C 
BRANCH  32  33
ATOM     33  C   UNL     1       8.124   5.976   0.063  1.00  0.00     0.026 C 
BRANCH  33  34
ATOM     34  C   UNL     1       8.578   6.371  -1.343  1.00  0.00     0.146 C 
BRANCH  34  35
ATOM     35  N   UNL     1       9.219   5.224  -1.970  1.00  0.00    -0.254 NA
ATOM     36  C   UNL     1       8.750   4.788  -3.079  1.00  0.00     0.185 C 
ATOM     37  N   UNL     1       9.336   3.734  -3.668  1.00  0.00    -0.370 N 
ATOM     38  N   UNL     1       7.704   5.243  -3.791  1.00  0.00    -0.370 N 
ATOM     39  H   UNL     1      10.140   3.340  -3.196  1.00  0.00     0.159 HD
ATOM     40  H   UNL     1       9.142   3.444  -4.611  1.00  0.00     0.159 HD
ATOM     41  H   UNL     1       7.346   4.728  -4.579  1.00  0.00     0.159 HD
ATOM     42  H   UNL     1       7.158   6.023  -3.459  1.00  0.00     0.159 HD
ENDBRANCH  34  35
ENDBRANCH  33  34
ENDBRANCH  32  33
ENDBRANCH   6  32
ENDBRANCH   4   6
ENDBRANCH   1   2
BRANCH   1  43
ATOM     43  C   UNL     1       2.645   4.821  -3.683  1.00  0.00     0.102 C 
ATOM     44  C   UNL     1       1.217   5.277  -4.029  1.00  0.00     0.020 C 
BRANCH  43  45
ATOM     45  C   UNL     1       3.360   4.096  -4.828  1.00  0.00     0.225 C 
ATOM     46  O   UNL     1       3.298   4.465  -5.997  1.00  0.00    -0.275 OA
ATOM     47  N   UNL     1       4.011   2.935  -4.478  1.00  0.00    -0.342 N 
ATOM     48  H   UNL     1       4.180   2.730  -3.504  1.00  0.00     0.164 HD
BRANCH  47  49
ATOM     49  C   UNL     1       4.768   2.156  -5.462  1.00  0.00     0.192 C 
BRANCH  49  50
ATOM     50  C   UNL     1       4.213   0.731  -5.527  1.00  0.00     0.047 C 
BRANCH  50  51
ATOM     51  C   UNL     1       2.681   0.699  -5.455  1.00  0.00     0.103 C 
BRANCH  51  52
ATOM     52  C   UNL     1       2.101  -0.546  -6.122  1.00  0.00     0.226 C 
ATOM     53  O   UNL     1       2.350  -0.775  -7.307  1.00  0.00    -0.275 OA
BRANCH  52  54
ATOM     54  N   UNL     1       1.361  -1.413  -5.296  1.00  0.00    -0.311 N 
ATOM     55  C   UNL     1       1.955  -2.650  -4.774  1.00  0.00     0.153 C 
BRANCH  54  56
ATOM     56  C   UNL     1       0.033  -1.126  -4.937  1.00  0.00     0.102 C 
ATOM     57  C   UNL     1      -0.370  -0.769  -3.706  1.00  0.00     0.043 C 
BRANCH  56  58
ATOM     58  C   UNL     1      -1.073  -1.158  -5.966  1.00  0.00     0.268 C 
ATOM     59  O   UNL     1      -1.412  -0.178  -6.614  1.00  0.00    -0.268 OA
ATOM     60  N   UNL     1      -1.609  -2.411  -6.143  1.00  0.00    -0.339 N 
ATOM     61  H   UNL     1      -1.279  -3.170  -5.558  1.00  0.00     0.164 HD
BRANCH  60  62
ATOM     62  C   UNL     1      -2.649  -2.680  -7.135  1.00  0.00     0.168 CG0
ATOM     63  C   UNL     1      -3.592  -3.777  -6.656  1.00  0.00     0.041 C 
ATOM     64  G   UNL     1      -1.995  -3.070  -8.477  1.00  0.00     0.000 G0
ENDBRANCH  60  62
ENDBRANCH  56  58
ENDBRANCH  54  56
ENDBRANCH  52  54
ENDBRANCH  51  52
ENDBRANCH  50  51
ENDBRANCH  49  50
BRANCH  49  65
ATOM     65  C   UNL     1       6.264   2.104  -5.115  1.00  0.00     0.326 C 
ATOM     66  O   UNL     1       7.124   2.848  -5.564  1.00  0.00    -0.250 OA
BRANCH  65  67
ATOM     67  O   UNL     1       6.615   1.101  -4.281  1.00  0.00    -0.480 OA
ATOM     68  H   UNL     1       5.841   0.497  -4.306  1.00  0.00     0.296 HD
ENDBRANCH  65  67
ENDBRANCH  49  65
ENDBRANCH  47  49
ENDBRANCH  43  45
ENDBRANCH   1  43
BRANCH   1  69
ATOM     69  C   UNL     1       1.450   3.691  -1.609  1.00  0.00    -0.001 C 
ATOM     70  C   UNL     1       0.774   2.529  -1.591  1.00  0.00     0.001 C 
BRANCH  70  71
ATOM     71  C   UNL     1      -0.449   2.234  -0.842  1.00  0.00    -0.055 C 
ATOM     72  C   UNL     1      -1.535   2.998  -1.087  1.00  0.00    -0.018 C 
ATOM     73  C   UNL     1      -0.412   1.095   0.143  1.00  0.00     0.044 C 
BRANCH  72  74
ATOM     74  C   UNL     1      -2.924   2.923  -0.470  1.00  0.00     0.038 C 
ATOM     75  C   UNL     1      -3.848   2.284  -1.514  1.00  0.00     0.015 C 
BRANCH  74  76
ATOM     76  C   UNL     1      -3.346   4.350  -0.011  1.00  0.00     0.128 C 
BRANCH  76  77
ATOM     77  O   UNL     1      -4.631   4.683  -0.563  1.00  0.00    -0.381 OA
ATOM     78  C   UNL     1      -4.636   5.895  -1.305  1.00  0.00     0.195 C 
ENDBRANCH  76  77
BRANCH  76  79
ATOM     79  C   UNL     1      -3.279   4.563   1.522  1.00  0.00     0.068 C 
BRANCH  79  80
ATOM     80  C   UNL     1      -2.179   3.866   2.285  1.00  0.00    -0.045 A 
ATOM     81  C   UNL     1      -2.456   2.769   3.111  1.00  0.00     0.004 A 
ATOM     82  C   UNL     1      -0.856   4.327   2.200  1.00  0.00     0.004 A 
ATOM     83  C   UNL     1      -1.435   2.138   3.825  1.00  0.00     0.000 A 
ATOM     84  C   UNL     1       0.164   3.696   2.915  1.00  0.00     0.000 A 
ATOM     85  C   UNL     1      -0.125   2.601   3.725  1.00  0.00     0.000 A 
ENDBRANCH  79  80
ENDBRANCH  76  79
ENDBRANCH  74  76
ENDBRANCH  72  74
ENDBRANCH  70  71
ENDBRANCH   1  69
TORSDOF 17
ENDMDL
MODEL 49
REMARK VINA RESULT:    -5.181      4.139     12.066
REMARK INTER + INTRA:         -24.628
REMARK INTER:                 -17.637
REMARK INTRA:                  -6.991
REMARK UNBOUND:                -9.148
REMARK SMILES C=C1C(=O)N[C@H](C)C(=O)N[C@@H](CC(C)C)C(=O)N[C@@H](C(=O)O)[C@H](C)C(=O)N[C@@H](CCCN=C(N)N)C(=O)N[C@@H](/C=C/C(C)=C/[C@H](C)[C@H](Cc2ccccc2)OC)[C@H](C)C(=O)N[C@@H](C(=O)O)CCC(=O)N1C
REMARK SMILES IDX 39 1 38 2 37 3 36 4 28 6 27 7 25 8 26 9 23 11 24 12 19 13
REMARK SMILES IDX 18 14 16 15 17 16 11 18 10 19 8 20 9 21 12 24 13 25 14 26
REMARK SMILES IDX 15 27 20 28 21 29 22 30 29 32 30 33 31 34 32 35 33 36 34 37
REMARK SMILES IDX 35 38 57 43 58 44 59 45 60 46 61 47 62 49 66 50 67 51 68 52
REMARK SMILES IDX 69 53 70 54 71 55 2 56 1 57 3 58 4 59 5 60 6 62 7 63 63 65
REMARK SMILES IDX 64 66 65 67 40 69 41 70 42 71 44 72 43 73 45 74 46 75 47 76
REMARK SMILES IDX 55 77 56 78 48 79 49 80 50 81 54 82 51 83 53 84 52 85
REMARK H PARENT 38 5 27 10 18 17 10 22 22 31 34 39 34 40 35 41 35 42 61 48
REMARK H PARENT 5 61 65 68
REMARK Flexibility Score:  369.900
ROOT
ATOM      1  C   UNL     1       6.355   7.305   3.263  1.00  0.00     0.117 C 
ENDROOT
BRANCH   1   2
ATOM      2  N   UNL     1       5.752   6.564   4.372  1.00  0.00    -0.347 N 
ATOM      3  O   UNL     1       4.359   5.225   3.132  1.00  0.00    -0.273 OA
ATOM      4  C   UNL     1       4.866   5.516   4.210  1.00  0.00     0.243 C 
ATOM      5  H   UNL     1       6.023   6.782   5.318  1.00  0.00     0.164 HD
BRANCH   4   6
ATOM      6  C   UNL     1       4.443   4.846   5.542  1.00  0.00     0.171 C 
BRANCH   6   7
ATOM      7  N   UNL     1       4.357   5.848   6.617  1.00  0.00    -0.344 N 
ATOM      8  C   UNL     1       5.465   6.168   7.370  1.00  0.00     0.226 C 
ATOM      9  O   UNL     1       6.554   5.631   7.204  1.00  0.00    -0.275 OA
ATOM     10  H   UNL     1       3.459   6.265   6.829  1.00  0.00     0.164 HD
BRANCH   8  11
ATOM     11  C   UNL     1       5.228   7.257   8.402  1.00  0.00     0.109 C 
ATOM     12  C   UNL     1       3.877   7.929   8.155  1.00  0.00     0.021 C 
BRANCH  11  13
ATOM     13  C   UNL     1       5.417   6.683   9.820  1.00  0.00     0.204 C 
BRANCH  13  14
ATOM     14  N   UNL     1       6.725   6.042   9.985  1.00  0.00    -0.340 N 
ATOM     15  C   UNL     1       6.881   4.793  10.546  1.00  0.00     0.243 C 
ATOM     16  O   UNL     1       5.926   4.101  10.893  1.00  0.00    -0.273 OA
ATOM     17  H   UNL     1       7.562   6.618   9.860  1.00  0.00     0.164 HD
BRANCH  15  18
ATOM     18  C   UNL     1       8.359   4.413  10.808  1.00  0.00     0.171 C 
BRANCH  18  19
ATOM     19  N   UNL     1       8.872   5.372  11.785  1.00  0.00    -0.343 N 
ATOM     20  C   UNL     1       8.557   5.282  13.128  1.00  0.00     0.242 CG0
ATOM     21  O   UNL     1       7.729   4.475  13.542  1.00  0.00    -0.273 OA
ATOM     22  H   UNL     1       9.469   6.128  11.473  1.00  0.00     0.164 HD
ATOM     23  G   UNL     1       9.254   6.334  14.016  1.00  0.00     0.000 G0
ENDBRANCH  18  19
BRANCH  18  24
ATOM     24  C   UNL     1       8.465   2.973  11.326  1.00  0.00     0.038 C 
BRANCH  24  25
ATOM     25  C   UNL     1       8.524   1.895  10.223  1.00  0.00    -0.015 C 
ATOM     26  C   UNL     1       7.748   0.631  10.597  1.00  0.00     0.007 C 
ATOM     27  C   UNL     1       9.983   1.536   9.932  1.00  0.00     0.007 C 
ENDBRANCH  24  25
ENDBRANCH  18  24
ENDBRANCH  15  18
ENDBRANCH  13  14
BRANCH  13  28
ATOM     28  C   UNL     1       5.286   7.739  10.921  1.00  0.00     0.327 C 
ATOM     29  O   UNL     1       5.667   8.898  10.860  1.00  0.00    -0.250 OA
BRANCH  28  30
ATOM     30  O   UNL     1       4.793   7.243  12.074  1.00  0.00    -0.480 OA
ATOM     31  H   UNL     1       5.543   6.748  12.464  1.00  0.00     0.296 HD
ENDBRANCH  28  30
ENDBRANCH  13  28
ENDBRANCH  11  13
ENDBRANCH   8  11
ENDBRANCH   6   7
BRANCH   6  32
ATOM     32  C   UNL     1       3.098   4.138   5.345  1.00  0.00     0.037 C 
BRANCH  32  33
ATOM     33  C   UNL     1       1.960   4.834   6.104  1.00  0.00     0.026 C 
BRANCH  33  34
ATOM     34  C   UNL     1       1.146   5.770   5.209  1.00  0.00     0.146 C 
BRANCH  34  35
ATOM     35  N   UNL     1       1.324   7.138   5.676  1.00  0.00    -0.254 NA
ATOM     36  C   UNL     1       1.960   7.963   4.931  1.00  0.00     0.185 C 
ATOM     37  N   UNL     1       2.125   9.228   5.348  1.00  0.00    -0.370 N 
ATOM     38  N   UNL     1       2.521   7.755   3.726  1.00  0.00    -0.370 N 
ATOM     39  H   UNL     1       1.720   9.467   6.245  1.00  0.00     0.159 HD
ATOM     40  H   UNL     1       2.453   9.971   4.756  1.00  0.00     0.159 HD
ATOM     41  H   UNL     1       3.115   8.448   3.302  1.00  0.00     0.159 HD
ATOM     42  H   UNL     1       2.488   6.844   3.296  1.00  0.00     0.159 HD
ENDBRANCH  34  35
ENDBRANCH  33  34
ENDBRANCH  32  33
ENDBRANCH   6  32
ENDBRANCH   4   6
ENDBRANCH   1   2
BRANCH   1  43
ATOM     43  C   UNL     1       7.798   6.768   3.036  1.00  0.00     0.102 C 
ATOM     44  C   UNL     1       8.894   7.753   3.476  1.00  0.00     0.020 C 
BRANCH  43  45
ATOM     45  C   UNL     1       7.971   6.243   1.607  1.00  0.00     0.225 C 
ATOM     46  O   UNL     1       8.872   6.614   0.861  1.00  0.00    -0.275 OA
ATOM     47  N   UNL     1       6.987   5.387   1.167  1.00  0.00    -0.342 N 
ATOM     48  H   UNL     1       6.346   4.977   1.833  1.00  0.00     0.164 HD
BRANCH  47  49
ATOM     49  C   UNL     1       7.041   4.779  -0.165  1.00  0.00     0.192 C 
BRANCH  49  50
ATOM     50  C   UNL     1       6.057   5.492  -1.096  1.00  0.00     0.047 C 
BRANCH  50  51
ATOM     51  C   UNL     1       4.768   5.906  -0.374  1.00  0.00     0.103 C 
BRANCH  51  52
ATOM     52  C   UNL     1       3.535   5.226  -0.965  1.00  0.00     0.226 C 
ATOM     53  O   UNL     1       3.220   4.097  -0.586  1.00  0.00    -0.275 OA
BRANCH  52  54
ATOM     54  N   UNL     1       2.776   5.986  -1.875  1.00  0.00    -0.311 N 
ATOM     55  C   UNL     1       1.884   7.055  -1.407  1.00  0.00     0.153 C 
BRANCH  54  56
ATOM     56  C   UNL     1       2.846   5.755  -3.259  1.00  0.00     0.102 C 
ATOM     57  C   UNL     1       3.739   4.952  -3.860  1.00  0.00     0.043 C 
BRANCH  56  58
ATOM     58  C   UNL     1       1.849   6.387  -4.201  1.00  0.00     0.268 C 
ATOM     59  O   UNL     1       2.023   7.479  -4.727  1.00  0.00    -0.268 OA
ATOM     60  N   UNL     1       0.763   5.585  -4.457  1.00  0.00    -0.339 N 
ATOM     61  H   UNL     1       0.688   4.698  -3.973  1.00  0.00     0.164 HD
BRANCH  60  62
ATOM     62  C   UNL     1      -0.292   5.976  -5.391  1.00  0.00     0.168 CG0
ATOM     63  C   UNL     1      -1.260   4.825  -5.637  1.00  0.00     0.041 C 
ATOM     64  G   UNL     1       0.340   6.451  -6.716  1.00  0.00     0.000 G0
ENDBRANCH  60  62
ENDBRANCH  56  58
ENDBRANCH  54  56
ENDBRANCH  52  54
ENDBRANCH  51  52
ENDBRANCH  50  51
ENDBRANCH  49  50
BRANCH  49  65
ATOM     65  C   UNL     1       6.702   3.281  -0.119  1.00  0.00     0.326 C 
ATOM     66  O   UNL     1       6.249   2.684   0.848  1.00  0.00    -0.250 OA
BRANCH  65  67
ATOM     67  O   UNL     1       6.999   2.600  -1.247  1.00  0.00    -0.480 OA
ATOM     68  H   UNL     1       6.907   1.659  -0.981  1.00  0.00     0.296 HD
ENDBRANCH  65  67
ENDBRANCH  49  65
ENDBRANCH  47  49
ENDBRANCH  43  45
ENDBRANCH   1  43
BRANCH   1  69
ATOM     69  C   UNL     1       6.162   8.776   3.582  1.00  0.00    -0.001 C 
ATOM     70  C   UNL     1       5.717   9.311   4.732  1.00  0.00     0.001 C 
BRANCH  70  71
ATOM     71  C   UNL     1       5.555  10.735   5.035  1.00  0.00    -0.055 C 
ATOM     72  C   UNL     1       5.122  11.542   4.044  1.00  0.00    -0.018 C 
ATOM     73  C   UNL     1       5.874  11.196   6.434  1.00  0.00     0.044 C 
BRANCH  72  74
ATOM     74  C   UNL     1       4.862  13.041   4.068  1.00  0.00     0.038 C 
ATOM     75  C   UNL     1       3.460  13.267   3.488  1.00  0.00     0.015 C 
BRANCH  74  76
ATOM     76  C   UNL     1       6.010  13.761   3.300  1.00  0.00     0.128 C 
BRANCH  76  77
ATOM     77  O   UNL     1       5.735  15.170   3.216  1.00  0.00    -0.381 OA
ATOM     78  C   UNL     1       6.621  15.874   2.355  1.00  0.00     0.195 C 
ENDBRANCH  76  77
BRANCH  76  79
ATOM     79  C   UNL     1       7.425  13.458   3.854  1.00  0.00     0.068 C 
BRANCH  79  80
ATOM     80  C   UNL     1       8.310  12.529   3.059  1.00  0.00    -0.045 A 
ATOM     81  C   UNL     1       7.979  12.160   1.749  1.00  0.00     0.004 A 
ATOM     82  C   UNL     1       9.473  11.996   3.636  1.00  0.00     0.004 A 
ATOM     83  C   UNL     1       8.796  11.289   1.026  1.00  0.00     0.000 A 
ATOM     84  C   UNL     1      10.290  11.124   2.912  1.00  0.00     0.000 A 
ATOM     85  C   UNL     1       9.952  10.772   1.607  1.00  0.00     0.000 A 
ENDBRANCH  79  80
ENDBRANCH  76  79
ENDBRANCH  74  76
ENDBRANCH  72  74
ENDBRANCH  70  71
ENDBRANCH   1  69
TORSDOF 17
ENDMDL
MODEL 50
REMARK VINA RESULT:    -5.174      2.215      4.365
REMARK INTER + INTRA:         -24.606
REMARK INTER:                 -17.478
REMARK INTRA:                  -7.129
REMARK UNBOUND:                -9.148
REMARK SMILES C=C1C(=O)N[C@H](C)C(=O)N[C@@H](CC(C)C)C(=O)N[C@@H](C(=O)O)[C@H](C)C(=O)N[C@@H](CCCN=C(N)N)C(=O)N[C@@H](/C=C/C(C)=C/[C@H](C)[C@H](Cc2ccccc2)OC)[C@H](C)C(=O)N[C@@H](C(=O)O)CCC(=O)N1C
REMARK SMILES IDX 39 1 38 2 37 3 36 4 28 6 27 7 25 8 26 9 23 11 24 12 19 13
REMARK SMILES IDX 18 14 16 15 17 16 11 18 10 19 8 20 9 21 12 24 13 25 14 26
REMARK SMILES IDX 15 27 20 28 21 29 22 30 29 32 30 33 31 34 32 35 33 36 34 37
REMARK SMILES IDX 35 38 57 43 58 44 59 45 60 46 61 47 62 49 66 50 67 51 68 52
REMARK SMILES IDX 69 53 70 54 71 55 2 56 1 57 3 58 4 59 5 60 6 62 7 63 63 65
REMARK SMILES IDX 64 66 65 67 40 69 41 70 42 71 44 72 43 73 45 74 46 75 47 76
REMARK SMILES IDX 55 77 56 78 48 79 49 80 50 81 54 82 51 83 53 84 52 85
REMARK H PARENT 38 5 27 10 18 17 10 22 22 31 34 39 34 40 35 41 35 42 61 48
REMARK H PARENT 5 61 65 68
REMARK Flexibility Score:  369.900
ROOT
ATOM      1  C   UNL     1       3.819   6.640  -1.500  1.00  0.00     0.117 C 
ENDROOT
BRANCH   1   2
ATOM      2  N   UNL     1       4.977   5.750  -1.595  1.00  0.00    -0.347 N 
ATOM      3  O   UNL     1       5.286   5.881  -3.866  1.00  0.00    -0.273 OA
ATOM      4  C   UNL     1       5.676   5.514  -2.762  1.00  0.00     0.243 C 
ATOM      5  H   UNL     1       5.333   5.311  -0.759  1.00  0.00     0.164 HD
BRANCH   4   6
ATOM      6  C   UNL     1       6.913   4.600  -2.573  1.00  0.00     0.171 C 
BRANCH   6   7
ATOM      7  N   UNL     1       7.663   4.481  -3.834  1.00  0.00    -0.344 N 
ATOM      8  C   UNL     1       8.115   3.255  -4.270  1.00  0.00     0.226 C 
ATOM      9  O   UNL     1       7.940   2.222  -3.634  1.00  0.00    -0.275 OA
ATOM     10  H   UNL     1       7.885   5.321  -4.354  1.00  0.00     0.164 HD
BRANCH   8  11
ATOM     11  C   UNL     1       8.822   3.290  -5.614  1.00  0.00     0.109 C 
ATOM     12  C   UNL     1      10.322   3.062  -5.425  1.00  0.00     0.021 C 
BRANCH  11  13
ATOM     13  C   UNL     1       8.136   2.314  -6.590  1.00  0.00     0.204 C 
BRANCH  13  14
ATOM     14  N   UNL     1       6.676   2.440  -6.561  1.00  0.00    -0.340 N 
ATOM     15  C   UNL     1       5.832   1.354  -6.470  1.00  0.00     0.243 C 
ATOM     16  O   UNL     1       6.248   0.203  -6.346  1.00  0.00    -0.273 OA
ATOM     17  H   UNL     1       6.266   3.344  -6.812  1.00  0.00     0.164 HD
BRANCH  15  18
ATOM     18  C   UNL     1       4.339   1.712  -6.667  1.00  0.00     0.171 C 
BRANCH  18  19
ATOM     19  N   UNL     1       3.959   1.212  -7.987  1.00  0.00    -0.343 N 
ATOM     20  C   UNL     1       4.268   1.901  -9.144  1.00  0.00     0.242 CG0
ATOM     21  O   UNL     1       4.758   3.027  -9.111  1.00  0.00    -0.273 OA
ATOM     22  H   UNL     1       3.448   0.339  -8.060  1.00  0.00     0.164 HD
ATOM     23  G   UNL     1       3.856   1.179 -10.444  1.00  0.00     0.000 G0
ENDBRANCH  18  19
BRANCH  18  24
ATOM     24  C   UNL     1       3.481   1.085  -5.560  1.00  0.00     0.038 C 
BRANCH  24  25
ATOM     25  C   UNL     1       2.518   2.066  -4.858  1.00  0.00    -0.015 C 
ATOM     26  C   UNL     1       1.698   2.892  -5.850  1.00  0.00     0.007 C 
ATOM     27  C   UNL     1       3.313   3.001  -3.943  1.00  0.00     0.007 C 
ENDBRANCH  24  25
ENDBRANCH  18  24
ENDBRANCH  15  18
ENDBRANCH  13  14
BRANCH  13  28
ATOM     28  C   UNL     1       8.579   2.503  -8.044  1.00  0.00     0.327 C 
ATOM     29  O   UNL     1       8.261   3.423  -8.783  1.00  0.00    -0.250 OA
BRANCH  28  30
ATOM     30  O   UNL     1       9.297   1.465  -8.518  1.00  0.00    -0.480 OA
ATOM     31  H   UNL     1      10.224   1.689  -8.291  1.00  0.00     0.296 HD
ENDBRANCH  28  30
ENDBRANCH  13  28
ENDBRANCH  11  13
ENDBRANCH   8  11
ENDBRANCH   6   7
BRANCH   6  32
ATOM     32  C   UNL     1       7.799   5.175  -1.462  1.00  0.00     0.037 C 
BRANCH  32  33
ATOM     33  C   UNL     1       8.856   6.146  -2.008  1.00  0.00     0.026 C 
BRANCH  33  34
ATOM     34  C   UNL     1       8.961   7.424  -1.176  1.00  0.00     0.146 C 
BRANCH  34  35
ATOM     35  N   UNL     1       9.560   7.099   0.111  1.00  0.00    -0.254 NA
ATOM     36  C   UNL     1       9.219   7.785   1.138  1.00  0.00     0.185 C 
ATOM     37  N   UNL     1       9.761   7.491   2.330  1.00  0.00    -0.370 N 
ATOM     38  N   UNL     1       8.355   8.812   1.219  1.00  0.00    -0.370 N 
ATOM     39  H   UNL     1      10.416   6.720   2.353  1.00  0.00     0.159 HD
ATOM     40  H   UNL     1       9.421   7.860   3.201  1.00  0.00     0.159 HD
ATOM     41  H   UNL     1       8.276   9.362   2.059  1.00  0.00     0.159 HD
ATOM     42  H   UNL     1       7.884   9.153   0.395  1.00  0.00     0.159 HD
ENDBRANCH  34  35
ENDBRANCH  33  34
ENDBRANCH  32  33
ENDBRANCH   6  32
ENDBRANCH   4   6
ENDBRANCH   1   2
BRANCH   1  43
ATOM     43  C   UNL     1       3.920   7.444  -0.171  1.00  0.00     0.102 C 
ATOM     44  C   UNL     1       4.821   8.687  -0.275  1.00  0.00     0.020 C 
BRANCH  43  45
ATOM     45  C   UNL     1       4.263   6.524   1.004  1.00  0.00     0.225 C 
ATOM     46  O   UNL     1       3.538   5.604   1.369  1.00  0.00    -0.275 OA
ATOM     47  N   UNL     1       5.406   6.850   1.698  1.00  0.00    -0.342 N 
ATOM     48  H   UNL     1       6.064   7.505   1.298  1.00  0.00     0.164 HD
BRANCH  47  49
ATOM     49  C   UNL     1       5.878   6.038   2.823  1.00  0.00     0.192 C 
BRANCH  49  50
ATOM     50  C   UNL     1       6.595   6.932   3.838  1.00  0.00     0.047 C 
BRANCH  50  51
ATOM     51  C   UNL     1       5.638   7.493   4.898  1.00  0.00     0.103 C 
BRANCH  51  52
ATOM     52  C   UNL     1       5.438   6.523   6.061  1.00  0.00     0.226 C 
ATOM     53  O   UNL     1       6.237   5.600   6.230  1.00  0.00    -0.275 OA
BRANCH  52  54
ATOM     54  N   UNL     1       4.368   6.800   6.931  1.00  0.00    -0.311 N 
ATOM     55  C   UNL     1       2.977   6.580   6.512  1.00  0.00     0.153 C 
BRANCH  54  56
ATOM     56  C   UNL     1       4.587   7.290   8.229  1.00  0.00     0.102 C 
ATOM     57  C   UNL     1       5.499   8.219   8.556  1.00  0.00     0.043 C 
BRANCH  56  58
ATOM     58  C   UNL     1       3.743   6.815   9.389  1.00  0.00     0.268 C 
ATOM     59  O   UNL     1       3.716   5.652   9.766  1.00  0.00    -0.268 OA
ATOM     60  N   UNL     1       3.063   7.833  10.014  1.00  0.00    -0.339 N 
ATOM     61  H   UNL     1       3.130   8.770   9.633  1.00  0.00     0.164 HD
BRANCH  60  62
ATOM     62  C   UNL     1       2.236   7.606  11.199  1.00  0.00     0.168 CG0
ATOM     63  C   UNL     1       3.030   7.849  12.476  1.00  0.00     0.041 C 
ATOM     64  G   UNL     1       1.676   6.169  11.169  1.00  0.00     0.000 G0
ENDBRANCH  60  62
ENDBRANCH  56  58
ENDBRANCH  54  56
ENDBRANCH  52  54
ENDBRANCH  51  52
ENDBRANCH  50  51
ENDBRANCH  49  50
BRANCH  49  65
ATOM     65  C   UNL     1       6.832   4.926   2.359  1.00  0.00     0.326 C 
ATOM     66  O   UNL     1       8.020   4.848   2.637  1.00  0.00    -0.250 OA
BRANCH  65  67
ATOM     67  O   UNL     1       6.276   4.015   1.532  1.00  0.00    -0.480 OA
ATOM     68  H   UNL     1       6.464   4.370   0.636  1.00  0.00     0.296 HD
ENDBRANCH  65  67
ENDBRANCH  49  65
ENDBRANCH  47  49
ENDBRANCH  43  45
ENDBRANCH   1  43
BRANCH   1  69
ATOM     69  C   UNL     1       2.597   5.773  -1.741  1.00  0.00    -0.001 C 
ATOM     70  C   UNL     1       1.383   6.171  -2.162  1.00  0.00     0.001 C 
BRANCH  70  71
ATOM     71  C   UNL     1       0.217   5.321  -2.412  1.00  0.00    -0.055 C 
ATOM     72  C   UNL     1      -0.278   4.614  -1.374  1.00  0.00    -0.018 C 
ATOM     73  C   UNL     1      -0.353   5.303  -3.806  1.00  0.00     0.044 C 
BRANCH  72  74
ATOM     74  C   UNL     1      -1.467   3.664  -1.336  1.00  0.00     0.038 C 
ATOM     75  C   UNL     1      -2.734   4.526  -1.277  1.00  0.00     0.015 C 
BRANCH  74  76
ATOM     76  C   UNL     1      -1.287   2.685  -0.139  1.00  0.00     0.128 C 
BRANCH  76  77
ATOM     77  O   UNL     1      -1.261   1.328  -0.614  1.00  0.00    -0.381 OA
ATOM     78  C   UNL     1      -1.684   1.188  -1.963  1.00  0.00     0.195 C 
ENDBRANCH  76  77
BRANCH  76  79
ATOM     79  C   UNL     1      -0.083   3.024   0.776  1.00  0.00     0.068 C 
BRANCH  79  80
ATOM     80  C   UNL     1      -0.369   3.654   2.117  1.00  0.00    -0.045 A 
ATOM     81  C   UNL     1       0.247   3.182   3.283  1.00  0.00     0.004 A 
ATOM     82  C   UNL     1      -1.286   4.712   2.220  1.00  0.00     0.004 A 
ATOM     83  C   UNL     1      -0.034   3.762   4.522  1.00  0.00     0.000 A 
ATOM     84  C   UNL     1      -1.567   5.291   3.460  1.00  0.00     0.000 A 
ATOM     85  C   UNL     1      -0.940   4.817   4.610  1.00  0.00     0.000 A 
ENDBRANCH  79  80
ENDBRANCH  76  79
ENDBRANCH  74  76
ENDBRANCH  72  74
ENDBRANCH  70  71
ENDBRANCH   1  69
TORSDOF 17
ENDMDL
