MODEL 1
REMARK VINA RESULT:    -7.698      0.000      0.000
REMARK INTER + INTRA:         -19.064
REMARK INTER:                 -15.573
REMARK INTRA:                  -3.491
REMARK UNBOUND:                -3.491
REMARK SMILES CC[C@@H](C)[C@@H](NC(=O)[C@@H](O)Cc1ccc(O)c(Cl)c1)C(=O)N1[C@H](C(=O)NCCCCN=C(N)N)C[C@H]2CC[C@H](OS(=O)(=O)O)C[C@@H]21
REMARK SMILES IDX 22 1 36 2 46 3 35 4 23 5 45 6 37 7 39 8 38 9 20 10 21 11
REMARK SMILES IDX 5 12 6 13 7 14 8 15 9 17 11 18 12 19 17 20 19 21 15 22 14 23
REMARK SMILES IDX 13 24 18 25 16 26 10 28 3 30 4 31 2 32 1 33 24 34 25 35
REMARK SMILES IDX 26 36 27 38 28 39 29 40 30 41 31 42 32 43 33 44 34 45 40 50
REMARK SMILES IDX 41 51 42 52 43 53 44 54
REMARK H PARENT 6 16 16 27 10 29 26 37 33 46 33 47 34 48 34 49 44 55
ROOT
ATOM      1  N   UNL     1       3.103  -2.724  -1.690  1.00  0.00    -0.326 N 
ATOM      2  C   UNL     1       5.039  -4.038  -1.951  1.00  0.00     0.014 C 
ATOM      3  C   UNL     1       3.525  -4.127  -1.740  1.00  0.00     0.091 C 
ATOM      4  C   UNL     1       5.415  -2.795  -1.160  1.00  0.00     0.041 C 
ATOM      5  C   UNL     1       4.292  -1.839  -1.605  1.00  0.00     0.175 C 
ATOM      6  C   UNL     1       2.937  -5.021  -2.830  1.00  0.00     0.059 C 
ATOM      7  C   UNL     1       5.710  -5.358  -1.623  1.00  0.00     0.008 C 
ATOM      8  C   UNL     1       3.892  -6.141  -3.298  1.00  0.00     0.143 C 
ATOM      9  C   UNL     1       4.899  -6.538  -2.200  1.00  0.00     0.034 C 
ENDROOT
BRANCH   1  10
ATOM     10  C   UNL     1       1.844  -2.182  -1.499  1.00  0.00     0.246 C 
ATOM     11  O   UNL     1       1.521  -1.172  -2.135  1.00  0.00    -0.272 OA
BRANCH  10  12
ATOM     12  C   UNL     1       0.849  -2.877  -0.525  1.00  0.00     0.174 C 
BRANCH  12  13
ATOM     13  N   UNL     1      -0.234  -3.503  -1.282  1.00  0.00    -0.342 N 
ATOM     14  C   UNL     1      -0.578  -4.835  -1.215  1.00  0.00     0.249 C 
ATOM     15  O   UNL     1      -0.023  -5.646  -0.484  1.00  0.00    -0.272 OA
ATOM     16  H   UNL     1      -0.679  -2.993  -2.042  1.00  0.00     0.164 HD
BRANCH  14  17
ATOM     17  C   UNL     1      -1.754  -5.194  -2.148  1.00  0.00     0.207 C 
BRANCH  17  18
ATOM     18  C   UNL     1      -1.232  -5.728  -3.486  1.00  0.00     0.077 C 
BRANCH  18  19
ATOM     19  C   UNL     1      -2.275  -6.553  -4.207  1.00  0.00    -0.043 A 
ATOM     20  C   UNL     1      -3.753  -6.884  -6.101  1.00  0.00     0.083 A 
ATOM     21  C   UNL     1      -2.756  -6.147  -5.461  1.00  0.00     0.028 A 
ATOM     22  C   UNL     1      -4.276  -8.026  -5.494  1.00  0.00     0.134 A 
ATOM     23  C   UNL     1      -3.809  -8.439  -4.252  1.00  0.00     0.048 A 
ATOM     24  C   UNL     1      -2.812  -7.703  -3.608  1.00  0.00     0.008 A 
ATOM     25  Cl  UNL     1      -4.332  -6.369  -7.642  1.00  0.00    -0.080 Cl
BRANCH  22  26
ATOM     26  O   UNL     1      -5.263  -8.774  -6.077  1.00  0.00    -0.506 OA
ATOM     27  H   UNL     1      -5.952  -8.906  -5.400  1.00  0.00     0.293 HD
ENDBRANCH  22  26
ENDBRANCH  18  19
ENDBRANCH  17  18
BRANCH  17  28
ATOM     28  O   UNL     1      -2.593  -4.053  -2.385  1.00  0.00    -0.383 OA
ATOM     29  H   UNL     1      -3.368  -4.156  -1.787  1.00  0.00     0.211 HD
ENDBRANCH  17  28
ENDBRANCH  14  17
ENDBRANCH  12  13
BRANCH  12  30
ATOM     30  C   UNL     1       0.324  -1.920   0.579  1.00  0.00     0.018 C 
ATOM     31  C   UNL     1       0.493  -2.548   1.972  1.00  0.00     0.010 C 
BRANCH  30  32
ATOM     32  C   UNL     1      -1.145  -1.477   0.371  1.00  0.00     0.002 C 
ATOM     33  C   UNL     1      -1.487  -0.089   0.897  1.00  0.00     0.004 C 
ENDBRANCH  30  32
ENDBRANCH  12  30
ENDBRANCH  10  12
ENDBRANCH   1  10
BRANCH   5  34
ATOM     34  C   UNL     1       4.599  -1.198  -2.984  1.00  0.00     0.242 C 
ATOM     35  O   UNL     1       4.142  -1.646  -4.035  1.00  0.00    -0.273 OA
ATOM     36  N   UNL     1       5.463  -0.126  -2.952  1.00  0.00    -0.354 N 
ATOM     37  H   UNL     1       5.904   0.123  -2.066  1.00  0.00     0.163 HD
BRANCH  36  38
ATOM     38  C   UNL     1       5.689   0.720  -4.106  1.00  0.00     0.116 C 
BRANCH  38  39
ATOM     39  C   UNL     1       7.167   0.689  -4.490  1.00  0.00     0.023 C 
BRANCH  39  40
ATOM     40  C   UNL     1       7.422  -0.110  -5.763  1.00  0.00     0.026 C 
BRANCH  40  41
ATOM     41  C   UNL     1       7.170  -1.599  -5.528  1.00  0.00     0.146 C 
BRANCH  41  42
ATOM     42  N   UNL     1       7.044  -2.285  -6.808  1.00  0.00    -0.254 NA
ATOM     43  C   UNL     1       6.002  -2.988  -7.049  1.00  0.00     0.185 C 
ATOM     44  N   UNL     1       4.922  -3.227  -6.282  1.00  0.00    -0.370 N 
ATOM     45  N   UNL     1       5.906  -3.616  -8.232  1.00  0.00    -0.370 N 
ATOM     46  H   UNL     1       4.299  -3.987  -6.495  1.00  0.00     0.159 HD
ATOM     47  H   UNL     1       4.824  -2.818  -5.358  1.00  0.00     0.159 HD
ATOM     48  H   UNL     1       6.675  -3.481  -8.874  1.00  0.00     0.159 HD
ATOM     49  H   UNL     1       5.040  -3.981  -8.586  1.00  0.00     0.159 HD
ENDBRANCH  41  42
ENDBRANCH  40  41
ENDBRANCH  39  40
ENDBRANCH  38  39
ENDBRANCH  36  38
ENDBRANCH   5  34
BRANCH   8  50
ATOM     50  O   UNL     1       4.620  -5.714  -4.449  1.00  0.00    -0.245 OA
BRANCH  50  51
ATOM     51  S   UNL     1       4.943  -6.780  -5.635  1.00  0.00     0.397 S 
ATOM     52  O   UNL     1       6.256  -7.334  -5.393  1.00  0.00    -0.169 OA
ATOM     53  O   UNL     1       4.586  -6.205  -6.916  1.00  0.00    -0.169 OA
BRANCH  51  54
ATOM     54  O   UNL     1       3.903  -7.963  -5.315  1.00  0.00    -0.264 OA
ATOM     55  H   UNL     1       3.005  -7.640  -5.536  1.00  0.00     0.236 HD
ENDBRANCH  51  54
ENDBRANCH  50  51
ENDBRANCH   8  50
TORSDOF 19
ENDMDL
MODEL 2
REMARK VINA RESULT:    -7.489      3.955      9.480
REMARK INTER + INTRA:         -18.641
REMARK INTER:                 -16.236
REMARK INTRA:                  -2.404
REMARK UNBOUND:                -3.491
REMARK SMILES CC[C@@H](C)[C@@H](NC(=O)[C@@H](O)Cc1ccc(O)c(Cl)c1)C(=O)N1[C@H](C(=O)NCCCCN=C(N)N)C[C@H]2CC[C@H](OS(=O)(=O)O)C[C@@H]21
REMARK SMILES IDX 22 1 36 2 46 3 35 4 23 5 45 6 37 7 39 8 38 9 20 10 21 11
REMARK SMILES IDX 5 12 6 13 7 14 8 15 9 17 11 18 12 19 17 20 19 21 15 22 14 23
REMARK SMILES IDX 13 24 18 25 16 26 10 28 3 30 4 31 2 32 1 33 24 34 25 35
REMARK SMILES IDX 26 36 27 38 28 39 29 40 30 41 31 42 32 43 33 44 34 45 40 50
REMARK SMILES IDX 41 51 42 52 43 53 44 54
REMARK H PARENT 6 16 16 27 10 29 26 37 33 46 33 47 34 48 34 49 44 55
ROOT
ATOM      1  N   UNL     1       0.892  -5.480  -1.899  1.00  0.00    -0.326 N 
ATOM      2  C   UNL     1      -0.100  -4.475  -0.015  1.00  0.00     0.014 C 
ATOM      3  C   UNL     1       1.194  -4.520  -0.833  1.00  0.00     0.091 C 
ATOM      4  C   UNL     1      -0.606  -5.906  -0.109  1.00  0.00     0.041 C 
ATOM      5  C   UNL     1      -0.387  -6.174  -1.610  1.00  0.00     0.175 C 
ATOM      6  C   UNL     1       1.565  -3.092  -1.228  1.00  0.00     0.059 C 
ATOM      7  C   UNL     1       0.142  -3.860   1.349  1.00  0.00     0.008 C 
ATOM      8  C   UNL     1       1.140  -2.029  -0.191  1.00  0.00     0.143 C 
ATOM      9  C   UNL     1       1.046  -2.615   1.233  1.00  0.00     0.034 C 
ENDROOT
BRANCH   1  10
ATOM     10  C   UNL     1       1.691  -5.940  -2.932  1.00  0.00     0.246 C 
ATOM     11  O   UNL     1       1.252  -5.920  -4.086  1.00  0.00    -0.272 OA
BRANCH  10  12
ATOM     12  C   UNL     1       3.136  -6.430  -2.623  1.00  0.00     0.174 C 
BRANCH  12  13
ATOM     13  N   UNL     1       4.068  -5.305  -2.687  1.00  0.00    -0.342 N 
ATOM     14  C   UNL     1       4.890  -4.900  -1.659  1.00  0.00     0.249 C 
ATOM     15  O   UNL     1       4.950  -5.462  -0.573  1.00  0.00    -0.272 OA
ATOM     16  H   UNL     1       4.017  -4.652  -3.465  1.00  0.00     0.164 HD
BRANCH  14  17
ATOM     17  C   UNL     1       5.745  -3.670  -2.030  1.00  0.00     0.207 C 
BRANCH  17  18
ATOM     18  C   UNL     1       5.483  -3.253  -3.480  1.00  0.00     0.077 C 
BRANCH  18  19
ATOM     19  C   UNL     1       5.403  -1.750  -3.627  1.00  0.00    -0.043 A 
ATOM     20  C   UNL     1       4.365   0.366  -3.054  1.00  0.00     0.083 A 
ATOM     21  C   UNL     1       4.470  -1.014  -2.879  1.00  0.00     0.028 A 
ATOM     22  C   UNL     1       5.186   1.019  -3.974  1.00  0.00     0.134 A 
ATOM     23  C   UNL     1       6.114   0.302  -4.720  1.00  0.00     0.048 A 
ATOM     24  C   UNL     1       6.221  -1.080  -4.550  1.00  0.00     0.008 A 
ATOM     25  Cl  UNL     1       3.212   1.253  -2.126  1.00  0.00    -0.080 Cl
BRANCH  22  26
ATOM     26  O   UNL     1       5.112   2.369  -4.186  1.00  0.00    -0.506 OA
ATOM     27  H   UNL     1       6.004   2.660  -4.452  1.00  0.00     0.293 HD
ENDBRANCH  22  26
ENDBRANCH  18  19
ENDBRANCH  17  18
BRANCH  17  28
ATOM     28  O   UNL     1       7.145  -3.943  -1.858  1.00  0.00    -0.383 OA
ATOM     29  H   UNL     1       7.593  -3.581  -2.656  1.00  0.00     0.211 HD
ENDBRANCH  17  28
ENDBRANCH  14  17
ENDBRANCH  12  13
BRANCH  12  30
ATOM     30  C   UNL     1       3.573  -7.614  -3.527  1.00  0.00     0.018 C 
ATOM     31  C   UNL     1       2.525  -8.738  -3.500  1.00  0.00     0.010 C 
BRANCH  30  32
ATOM     32  C   UNL     1       4.970  -8.181  -3.176  1.00  0.00     0.002 C 
ATOM     33  C   UNL     1       5.003  -9.663  -2.827  1.00  0.00     0.004 C 
ENDBRANCH  30  32
ENDBRANCH  12  30
ENDBRANCH  10  12
ENDBRANCH   1  10
BRANCH   5  34
ATOM     34  C   UNL     1      -1.538  -5.588  -2.469  1.00  0.00     0.242 C 
ATOM     35  O   UNL     1      -2.251  -4.665  -2.074  1.00  0.00    -0.273 OA
ATOM     36  N   UNL     1      -1.739  -6.210  -3.681  1.00  0.00    -0.354 N 
ATOM     37  H   UNL     1      -1.196  -7.045  -3.901  1.00  0.00     0.163 HD
BRANCH  36  38
ATOM     38  C   UNL     1      -2.618  -5.663  -4.695  1.00  0.00     0.116 C 
BRANCH  38  39
ATOM     39  C   UNL     1      -4.002  -6.297  -4.577  1.00  0.00     0.023 C 
BRANCH  39  40
ATOM     40  C   UNL     1      -3.954  -7.819  -4.657  1.00  0.00     0.026 C 
BRANCH  40  41
ATOM     41  C   UNL     1      -3.630  -8.278  -6.079  1.00  0.00     0.146 C 
BRANCH  41  42
ATOM     42  N   UNL     1      -4.861  -8.621  -6.778  1.00  0.00    -0.254 NA
ATOM     43  C   UNL     1      -5.312  -7.840  -7.687  1.00  0.00     0.185 C 
ATOM     44  N   UNL     1      -4.821  -6.676  -8.149  1.00  0.00    -0.370 N 
ATOM     45  N   UNL     1      -6.451  -8.173  -8.317  1.00  0.00    -0.370 N 
ATOM     46  H   UNL     1      -5.399  -6.052  -8.685  1.00  0.00     0.159 HD
ATOM     47  H   UNL     1      -3.956  -6.283  -7.791  1.00  0.00     0.159 HD
ATOM     48  H   UNL     1      -6.882  -9.042  -8.034  1.00  0.00     0.159 HD
ATOM     49  H   UNL     1      -6.736  -7.751  -9.183  1.00  0.00     0.159 HD
ENDBRANCH  41  42
ENDBRANCH  40  41
ENDBRANCH  39  40
ENDBRANCH  38  39
ENDBRANCH  36  38
ENDBRANCH   5  34
BRANCH   8  50
ATOM     50  O   UNL     1      -0.131  -1.483  -0.542  1.00  0.00    -0.245 OA
BRANCH  50  51
ATOM     51  S   UNL     1      -0.508   0.032  -0.086  1.00  0.00     0.397 S 
ATOM     52  O   UNL     1      -1.502  -0.051   0.961  1.00  0.00    -0.169 OA
ATOM     53  O   UNL     1      -0.707   0.858  -1.259  1.00  0.00    -0.169 OA
BRANCH  51  54
ATOM     54  O   UNL     1       0.847   0.512   0.635  1.00  0.00    -0.264 OA
ATOM     55  H   UNL     1       1.399  -0.281   0.791  1.00  0.00     0.236 HD
ENDBRANCH  51  54
ENDBRANCH  50  51
ENDBRANCH   8  50
TORSDOF 19
ENDMDL
MODEL 3
REMARK VINA RESULT:    -7.466      5.548      9.107
REMARK INTER + INTRA:         -18.595
REMARK INTER:                 -16.118
REMARK INTRA:                  -2.477
REMARK UNBOUND:                -3.491
REMARK SMILES CC[C@@H](C)[C@@H](NC(=O)[C@@H](O)Cc1ccc(O)c(Cl)c1)C(=O)N1[C@H](C(=O)NCCCCN=C(N)N)C[C@H]2CC[C@H](OS(=O)(=O)O)C[C@@H]21
REMARK SMILES IDX 22 1 36 2 46 3 35 4 23 5 45 6 37 7 39 8 38 9 20 10 21 11
REMARK SMILES IDX 5 12 6 13 7 14 8 15 9 17 11 18 12 19 17 20 19 21 15 22 14 23
REMARK SMILES IDX 13 24 18 25 16 26 10 28 3 30 4 31 2 32 1 33 24 34 25 35
REMARK SMILES IDX 26 36 27 38 28 39 29 40 30 41 31 42 32 43 33 44 34 45 40 50
REMARK SMILES IDX 41 51 42 52 43 53 44 54
REMARK H PARENT 6 16 16 27 10 29 26 37 33 46 33 47 34 48 34 49 44 55
ROOT
ATOM      1  N   UNL     1      -1.960  -7.349  -0.531  1.00  0.00    -0.326 N 
ATOM      2  C   UNL     1      -0.476  -6.029   0.733  1.00  0.00     0.014 C 
ATOM      3  C   UNL     1      -0.987  -6.265  -0.692  1.00  0.00     0.091 C 
ATOM      4  C   UNL     1      -0.491  -7.427   1.330  1.00  0.00     0.041 C 
ATOM      5  C   UNL     1      -1.863  -7.920   0.835  1.00  0.00     0.175 C 
ATOM      6  C   UNL     1      -1.474  -4.932  -1.257  1.00  0.00     0.059 C 
ATOM      7  C   UNL     1       0.818  -5.239   0.721  1.00  0.00     0.008 C 
ATOM      8  C   UNL     1      -0.696  -3.709  -0.724  1.00  0.00     0.143 C 
ATOM      9  C   UNL     1       0.738  -4.078  -0.292  1.00  0.00     0.034 C 
ENDROOT
BRANCH   1  10
ATOM     10  C   UNL     1      -2.731  -7.998  -1.481  1.00  0.00     0.246 C 
ATOM     11  O   UNL     1      -3.821  -7.513  -1.804  1.00  0.00    -0.272 OA
BRANCH  10  12
ATOM     12  C   UNL     1      -2.191  -9.295  -2.151  1.00  0.00     0.174 C 
BRANCH  12  13
ATOM     13  N   UNL     1      -1.871  -9.035  -3.554  1.00  0.00    -0.342 N 
ATOM     14  C   UNL     1      -0.638  -8.644  -4.024  1.00  0.00     0.249 C 
ATOM     15  O   UNL     1       0.348  -8.496  -3.312  1.00  0.00    -0.272 OA
ATOM     16  H   UNL     1      -2.622  -8.966  -4.237  1.00  0.00     0.164 HD
BRANCH  14  17
ATOM     17  C   UNL     1      -0.623  -8.433  -5.553  1.00  0.00     0.207 C 
BRANCH  17  18
ATOM     18  C   UNL     1      -1.583  -9.410  -6.238  1.00  0.00     0.077 C 
BRANCH  18  19
ATOM     19  C   UNL     1      -2.761  -8.696  -6.863  1.00  0.00    -0.043 A 
ATOM     20  C   UNL     1      -4.947  -8.765  -7.912  1.00  0.00     0.083 A 
ATOM     21  C   UNL     1      -3.883  -9.422  -7.291  1.00  0.00     0.028 A 
ATOM     22  C   UNL     1      -4.896  -7.385  -8.109  1.00  0.00     0.134 A 
ATOM     23  C   UNL     1      -3.791  -6.654  -7.689  1.00  0.00     0.048 A 
ATOM     24  C   UNL     1      -2.724  -7.308  -7.069  1.00  0.00     0.008 A 
ATOM     25  Cl  UNL     1      -6.317  -9.674  -8.432  1.00  0.00    -0.080 Cl
BRANCH  22  26
ATOM     26  O   UNL     1      -5.910  -6.699  -8.722  1.00  0.00    -0.506 OA
ATOM     27  H   UNL     1      -6.744  -7.042  -8.350  1.00  0.00     0.293 HD
ENDBRANCH  22  26
ENDBRANCH  18  19
ENDBRANCH  17  18
BRANCH  17  28
ATOM     28  O   UNL     1       0.699  -8.610  -6.087  1.00  0.00    -0.383 OA
ATOM     29  H   UNL     1       1.239  -7.870  -5.728  1.00  0.00     0.211 HD
ENDBRANCH  17  28
ENDBRANCH  14  17
ENDBRANCH  12  13
BRANCH  12  30
ATOM     30  C   UNL     1      -3.149 -10.504  -1.975  1.00  0.00     0.018 C 
ATOM     31  C   UNL     1      -2.676 -11.415  -0.832  1.00  0.00     0.010 C 
BRANCH  30  32
ATOM     32  C   UNL     1      -3.348 -11.332  -3.268  1.00  0.00     0.002 C 
ATOM     33  C   UNL     1      -4.797 -11.566  -3.675  1.00  0.00     0.004 C 
ENDBRANCH  30  32
ENDBRANCH  12  30
ENDBRANCH  10  12
ENDBRANCH   1  10
BRANCH   5  34
ATOM     34  C   UNL     1      -3.017  -7.399   1.733  1.00  0.00     0.242 C 
ATOM     35  O   UNL     1      -4.189  -7.732   1.558  1.00  0.00    -0.273 OA
ATOM     36  N   UNL     1      -2.641  -6.496   2.702  1.00  0.00    -0.354 N 
ATOM     37  H   UNL     1      -1.675  -6.168   2.721  1.00  0.00     0.163 HD
BRANCH  36  38
ATOM     38  C   UNL     1      -3.541  -6.076   3.757  1.00  0.00     0.116 C 
BRANCH  38  39
ATOM     39  C   UNL     1      -2.847  -6.203   5.111  1.00  0.00     0.023 C 
BRANCH  39  40
ATOM     40  C   UNL     1      -1.404  -5.712   5.075  1.00  0.00     0.026 C 
BRANCH  40  41
ATOM     41  C   UNL     1      -1.324  -4.306   4.478  1.00  0.00     0.146 C 
BRANCH  41  42
ATOM     42  N   UNL     1      -0.802  -3.378   5.473  1.00  0.00    -0.254 NA
ATOM     43  C   UNL     1      -0.054  -2.408   5.101  1.00  0.00     0.185 C 
ATOM     44  N   UNL     1       0.368  -2.062   3.871  1.00  0.00    -0.370 N 
ATOM     45  N   UNL     1       0.421  -1.566   6.034  1.00  0.00    -0.370 N 
ATOM     46  H   UNL     1       1.141  -1.430   3.753  1.00  0.00     0.159 HD
ATOM     47  H   UNL     1       0.090  -2.584   3.046  1.00  0.00     0.159 HD
ATOM     48  H   UNL     1       0.143  -1.750   6.988  1.00  0.00     0.159 HD
ATOM     49  H   UNL     1       0.805  -0.665   5.808  1.00  0.00     0.159 HD
ENDBRANCH  41  42
ENDBRANCH  40  41
ENDBRANCH  39  40
ENDBRANCH  38  39
ENDBRANCH  36  38
ENDBRANCH   5  34
BRANCH   8  50
ATOM     50  O   UNL     1      -1.377  -3.147   0.399  1.00  0.00    -0.245 OA
BRANCH  50  51
ATOM     51  S   UNL     1      -1.646  -1.544   0.454  1.00  0.00     0.397 S 
ATOM     52  O   UNL     1      -1.389  -1.095   1.804  1.00  0.00    -0.169 OA
ATOM     53  O   UNL     1      -2.886  -1.235  -0.227  1.00  0.00    -0.169 OA
BRANCH  51  54
ATOM     54  O   UNL     1      -0.435  -0.970  -0.435  1.00  0.00    -0.264 OA
ATOM     55  H   UNL     1      -0.795  -0.261  -1.007  1.00  0.00     0.236 HD
ENDBRANCH  51  54
ENDBRANCH  50  51
ENDBRANCH   8  50
TORSDOF 19
ENDMDL
MODEL 4
REMARK VINA RESULT:    -7.365      3.627      9.261
REMARK INTER + INTRA:         -18.391
REMARK INTER:                 -14.921
REMARK INTRA:                  -3.470
REMARK UNBOUND:                -3.491
REMARK SMILES CC[C@@H](C)[C@@H](NC(=O)[C@@H](O)Cc1ccc(O)c(Cl)c1)C(=O)N1[C@H](C(=O)NCCCCN=C(N)N)C[C@H]2CC[C@H](OS(=O)(=O)O)C[C@@H]21
REMARK SMILES IDX 22 1 36 2 46 3 35 4 23 5 45 6 37 7 39 8 38 9 20 10 21 11
REMARK SMILES IDX 5 12 6 13 7 14 8 15 9 17 11 18 12 19 17 20 19 21 15 22 14 23
REMARK SMILES IDX 13 24 18 25 16 26 10 28 3 30 4 31 2 32 1 33 24 34 25 35
REMARK SMILES IDX 26 36 27 38 28 39 29 40 30 41 31 42 32 43 33 44 34 45 40 50
REMARK SMILES IDX 41 51 42 52 43 53 44 54
REMARK H PARENT 6 16 16 27 10 29 26 37 33 46 33 47 34 48 34 49 44 55
ROOT
ATOM      1  N   UNL     1      -0.068  -6.393  -4.522  1.00  0.00    -0.326 N 
ATOM      2  C   UNL     1      -2.412  -6.370  -4.741  1.00  0.00     0.014 C 
ATOM      3  C   UNL     1      -1.113  -6.461  -5.547  1.00  0.00     0.091 C 
ATOM      4  C   UNL     1      -2.034  -5.436  -3.602  1.00  0.00     0.041 C 
ATOM      5  C   UNL     1      -0.663  -6.019  -3.215  1.00  0.00     0.175 C 
ATOM      6  C   UNL     1      -1.180  -7.704  -6.432  1.00  0.00     0.059 C 
ATOM      7  C   UNL     1      -3.582  -6.014  -5.637  1.00  0.00     0.008 C 
ATOM      8  C   UNL     1      -2.608  -8.058  -6.901  1.00  0.00     0.143 C 
ATOM      9  C   UNL     1      -3.524  -6.818  -6.954  1.00  0.00     0.034 C 
ENDROOT
BRANCH   1  10
ATOM     10  C   UNL     1       1.310  -6.410  -4.656  1.00  0.00     0.246 C 
ATOM     11  O   UNL     1       1.804  -6.349  -5.786  1.00  0.00    -0.272 OA
BRANCH  10  12
ATOM     12  C   UNL     1       2.204  -6.462  -3.383  1.00  0.00     0.174 C 
BRANCH  12  13
ATOM     13  N   UNL     1       2.503  -5.105  -2.928  1.00  0.00    -0.342 N 
ATOM     14  C   UNL     1       2.223  -4.612  -1.673  1.00  0.00     0.249 C 
ATOM     15  O   UNL     1       1.711  -5.275  -0.779  1.00  0.00    -0.272 OA
ATOM     16  H   UNL     1       2.782  -4.397  -3.603  1.00  0.00     0.164 HD
BRANCH  14  17
ATOM     17  C   UNL     1       2.644  -3.137  -1.504  1.00  0.00     0.207 C 
BRANCH  17  18
ATOM     18  C   UNL     1       4.128  -2.961  -1.842  1.00  0.00     0.077 C 
BRANCH  18  19
ATOM     19  C   UNL     1       4.394  -1.646  -2.540  1.00  0.00    -0.043 A 
ATOM     20  C   UNL     1       5.678  -0.326  -4.118  1.00  0.00     0.083 A 
ATOM     21  C   UNL     1       5.403  -1.552  -3.511  1.00  0.00     0.028 A 
ATOM     22  C   UNL     1       4.952   0.810  -3.759  1.00  0.00     0.134 A 
ATOM     23  C   UNL     1       3.950   0.730  -2.799  1.00  0.00     0.048 A 
ATOM     24  C   UNL     1       3.673  -0.495  -2.188  1.00  0.00     0.008 A 
ATOM     25  Cl  UNL     1       6.922  -0.229  -5.308  1.00  0.00    -0.080 Cl
BRANCH  22  26
ATOM     26  O   UNL     1       5.193   2.036  -4.318  1.00  0.00    -0.506 OA
ATOM     27  H   UNL     1       5.963   2.410  -3.851  1.00  0.00     0.293 HD
ENDBRANCH  22  26
ENDBRANCH  18  19
ENDBRANCH  17  18
BRANCH  17  28
ATOM     28  O   UNL     1       2.403  -2.680  -0.164  1.00  0.00    -0.383 OA
ATOM     29  H   UNL     1       1.493  -2.978   0.066  1.00  0.00     0.211 HD
ENDBRANCH  17  28
ENDBRANCH  14  17
ENDBRANCH  12  13
BRANCH  12  30
ATOM     30  C   UNL     1       3.485  -7.315  -3.584  1.00  0.00     0.018 C 
ATOM     31  C   UNL     1       3.147  -8.814  -3.596  1.00  0.00     0.010 C 
BRANCH  30  32
ATOM     32  C   UNL     1       4.593  -7.028  -2.541  1.00  0.00     0.002 C 
ATOM     33  C   UNL     1       5.715  -8.056  -2.484  1.00  0.00     0.004 C 
ENDBRANCH  30  32
ENDBRANCH  12  30
ENDBRANCH  10  12
ENDBRANCH   1  10
BRANCH   5  34
ATOM     34  C   UNL     1      -0.809  -7.265  -2.300  1.00  0.00     0.242 C 
ATOM     35  O   UNL     1      -0.699  -8.413  -2.730  1.00  0.00    -0.273 OA
ATOM     36  N   UNL     1      -1.123  -6.994  -0.987  1.00  0.00    -0.354 N 
ATOM     37  H   UNL     1      -1.319  -6.029  -0.718  1.00  0.00     0.163 HD
BRANCH  36  38
ATOM     38  C   UNL     1      -1.084  -8.012   0.043  1.00  0.00     0.116 C 
BRANCH  38  39
ATOM     39  C   UNL     1      -1.909  -7.562   1.247  1.00  0.00     0.023 C 
BRANCH  39  40
ATOM     40  C   UNL     1      -1.165  -6.558   2.120  1.00  0.00     0.026 C 
BRANCH  40  41
ATOM     41  C   UNL     1      -1.916  -5.228   2.177  1.00  0.00     0.146 C 
BRANCH  41  42
ATOM     42  N   UNL     1      -1.826  -4.555   0.888  1.00  0.00    -0.254 NA
ATOM     43  C   UNL     1      -0.846  -3.766   0.653  1.00  0.00     0.185 C 
ATOM     44  N   UNL     1       0.193  -3.420   1.434  1.00  0.00    -0.370 N 
ATOM     45  N   UNL     1      -0.783  -3.153  -0.541  1.00  0.00    -0.370 N 
ATOM     46  H   UNL     1       0.751  -2.611   1.218  1.00  0.00     0.159 HD
ATOM     47  H   UNL     1       0.309  -3.803   2.367  1.00  0.00     0.159 HD
ATOM     48  H   UNL     1      -1.525  -3.366  -1.194  1.00  0.00     0.159 HD
ATOM     49  H   UNL     1       0.055  -2.719  -0.886  1.00  0.00     0.159 HD
ENDBRANCH  41  42
ENDBRANCH  40  41
ENDBRANCH  39  40
ENDBRANCH  38  39
ENDBRANCH  36  38
ENDBRANCH   5  34
BRANCH   8  50
ATOM     50  O   UNL     1      -3.191  -9.015  -6.016  1.00  0.00    -0.245 OA
BRANCH  50  51
ATOM     51  S   UNL     1      -3.287 -10.574  -6.470  1.00  0.00     0.397 S 
ATOM     52  O   UNL     1      -4.576 -11.081  -6.055  1.00  0.00    -0.169 OA
ATOM     53  O   UNL     1      -2.056 -11.256  -6.129  1.00  0.00    -0.169 OA
BRANCH  51  54
ATOM     54  O   UNL     1      -3.359 -10.453  -8.072  1.00  0.00    -0.264 OA
ATOM     55  H   UNL     1      -3.567 -11.340  -8.429  1.00  0.00     0.236 HD
ENDBRANCH  51  54
ENDBRANCH  50  51
ENDBRANCH   8  50
TORSDOF 19
ENDMDL
MODEL 5
REMARK VINA RESULT:    -7.310      3.249      6.440
REMARK INTER + INTRA:         -18.280
REMARK INTER:                 -15.250
REMARK INTRA:                  -3.030
REMARK UNBOUND:                -3.491
REMARK SMILES CC[C@@H](C)[C@@H](NC(=O)[C@@H](O)Cc1ccc(O)c(Cl)c1)C(=O)N1[C@H](C(=O)NCCCCN=C(N)N)C[C@H]2CC[C@H](OS(=O)(=O)O)C[C@@H]21
REMARK SMILES IDX 22 1 36 2 46 3 35 4 23 5 45 6 37 7 39 8 38 9 20 10 21 11
REMARK SMILES IDX 5 12 6 13 7 14 8 15 9 17 11 18 12 19 17 20 19 21 15 22 14 23
REMARK SMILES IDX 13 24 18 25 16 26 10 28 3 30 4 31 2 32 1 33 24 34 25 35
REMARK SMILES IDX 26 36 27 38 28 39 29 40 30 41 31 42 32 43 33 44 34 45 40 50
REMARK SMILES IDX 41 51 42 52 43 53 44 54
REMARK H PARENT 6 16 16 27 10 29 26 37 33 46 33 47 34 48 34 49 44 55
ROOT
ATOM      1  N   UNL     1       1.508  -5.158  -1.045  1.00  0.00    -0.326 N 
ATOM      2  C   UNL     1      -0.667  -4.864  -0.193  1.00  0.00     0.014 C 
ATOM      3  C   UNL     1       0.498  -5.857  -0.246  1.00  0.00     0.091 C 
ATOM      4  C   UNL     1      -0.599  -4.196  -1.558  1.00  0.00     0.041 C 
ATOM      5  C   UNL     1       0.917  -3.946  -1.664  1.00  0.00     0.175 C 
ATOM      6  C   UNL     1       0.856  -6.257   1.185  1.00  0.00     0.059 C 
ATOM      7  C   UNL     1      -1.948  -5.553   0.234  1.00  0.00     0.008 C 
ATOM      8  C   UNL     1      -0.351  -6.267   2.148  1.00  0.00     0.143 C 
ATOM      9  C   UNL     1      -1.680  -6.519   1.407  1.00  0.00     0.034 C 
ENDROOT
BRANCH   1  10
ATOM     10  C   UNL     1       2.768  -5.572  -1.443  1.00  0.00     0.246 C 
ATOM     11  O   UNL     1       3.705  -5.501  -0.641  1.00  0.00    -0.272 OA
BRANCH  10  12
ATOM     12  C   UNL     1       2.968  -6.157  -2.871  1.00  0.00     0.174 C 
BRANCH  12  13
ATOM     13  N   UNL     1       2.041  -7.267  -3.090  1.00  0.00    -0.342 N 
ATOM     14  C   UNL     1       1.316  -7.476  -4.242  1.00  0.00     0.249 C 
ATOM     15  O   UNL     1       1.390  -6.761  -5.234  1.00  0.00    -0.272 OA
ATOM     16  H   UNL     1       1.759  -7.849  -2.306  1.00  0.00     0.164 HD
BRANCH  14  17
ATOM     17  C   UNL     1       0.412  -8.725  -4.159  1.00  0.00     0.207 C 
BRANCH  17  18
ATOM     18  C   UNL     1      -0.880  -8.401  -3.402  1.00  0.00     0.077 C 
BRANCH  18  19
ATOM     19  C   UNL     1      -1.795  -7.508  -4.210  1.00  0.00    -0.043 A 
ATOM     20  C   UNL     1      -3.251  -5.574  -4.360  1.00  0.00     0.083 A 
ATOM     21  C   UNL     1      -2.368  -6.368  -3.627  1.00  0.00     0.028 A 
ATOM     22  C   UNL     1      -3.567  -5.914  -5.676  1.00  0.00     0.134 A 
ATOM     23  C   UNL     1      -3.007  -7.040  -6.266  1.00  0.00     0.048 A 
ATOM     24  C   UNL     1      -2.125  -7.838  -5.534  1.00  0.00     0.008 A 
ATOM     25  Cl  UNL     1      -3.945  -4.176  -3.626  1.00  0.00    -0.080 Cl
BRANCH  22  26
ATOM     26  O   UNL     1      -4.436  -5.172  -6.430  1.00  0.00    -0.506 OA
ATOM     27  H   UNL     1      -4.935  -4.609  -5.810  1.00  0.00     0.293 HD
ENDBRANCH  22  26
ENDBRANCH  18  19
ENDBRANCH  17  18
BRANCH  17  28
ATOM     28  O   UNL     1       1.089  -9.810  -3.504  1.00  0.00    -0.383 OA
ATOM     29  H   UNL     1       0.439 -10.194  -2.872  1.00  0.00     0.211 HD
ENDBRANCH  17  28
ENDBRANCH  14  17
ENDBRANCH  12  13
BRANCH  12  30
ATOM     30  C   UNL     1       4.442  -6.551  -3.158  1.00  0.00     0.018 C 
ATOM     31  C   UNL     1       4.882  -6.050  -4.543  1.00  0.00     0.010 C 
BRANCH  30  32
ATOM     32  C   UNL     1       4.716  -8.069  -3.029  1.00  0.00     0.002 C 
ATOM     33  C   UNL     1       5.956  -8.571  -3.757  1.00  0.00     0.004 C 
ENDBRANCH  30  32
ENDBRANCH  12  30
ENDBRANCH  10  12
ENDBRANCH   1  10
BRANCH   5  34
ATOM     34  C   UNL     1       1.341  -2.670  -0.889  1.00  0.00     0.242 C 
ATOM     35  O   UNL     1       2.029  -2.717   0.130  1.00  0.00    -0.273 OA
ATOM     36  N   UNL     1       0.848  -1.487  -1.393  1.00  0.00    -0.354 N 
ATOM     37  H   UNL     1       0.185  -1.522  -2.169  1.00  0.00     0.163 HD
BRANCH  36  38
ATOM     38  C   UNL     1       1.313  -0.196  -0.931  1.00  0.00     0.116 C 
BRANCH  38  39
ATOM     39  C   UNL     1       2.124   0.487  -2.030  1.00  0.00     0.023 C 
BRANCH  39  40
ATOM     40  C   UNL     1       3.603   0.120  -1.975  1.00  0.00     0.026 C 
BRANCH  40  41
ATOM     41  C   UNL     1       4.222   0.152  -3.373  1.00  0.00     0.146 C 
BRANCH  41  42
ATOM     42  N   UNL     1       5.405   1.003  -3.368  1.00  0.00    -0.254 NA
ATOM     43  C   UNL     1       6.502   0.564  -3.859  1.00  0.00     0.185 C 
ATOM     44  N   UNL     1       6.784  -0.626  -4.421  1.00  0.00    -0.370 N 
ATOM     45  N   UNL     1       7.582   1.362  -3.842  1.00  0.00    -0.370 N 
ATOM     46  H   UNL     1       7.737  -0.924  -4.539  1.00  0.00     0.159 HD
ATOM     47  H   UNL     1       6.076  -1.346  -4.528  1.00  0.00     0.159 HD
ATOM     48  H   UNL     1       7.454   2.282  -3.443  1.00  0.00     0.159 HD
ATOM     49  H   UNL     1       8.395   1.190  -4.407  1.00  0.00     0.159 HD
ENDBRANCH  41  42
ENDBRANCH  40  41
ENDBRANCH  39  40
ENDBRANCH  38  39
ENDBRANCH  36  38
ENDBRANCH   5  34
BRANCH   8  50
ATOM     50  O   UNL     1      -0.443  -5.018   2.832  1.00  0.00    -0.245 OA
BRANCH  50  51
ATOM     51  S   UNL     1      -1.115  -4.960   4.312  1.00  0.00     0.397 S 
ATOM     52  O   UNL     1      -0.372  -5.851   5.175  1.00  0.00    -0.169 OA
ATOM     53  O   UNL     1      -2.556  -5.043   4.195  1.00  0.00    -0.169 OA
BRANCH  51  54
ATOM     54  O   UNL     1      -0.742  -3.472   4.793  1.00  0.00    -0.264 OA
ATOM     55  H   UNL     1      -1.298  -3.261   5.571  1.00  0.00     0.236 HD
ENDBRANCH  51  54
ENDBRANCH  50  51
ENDBRANCH   8  50
TORSDOF 19
ENDMDL
MODEL 6
REMARK VINA RESULT:    -7.222      4.433      9.792
REMARK INTER + INTRA:         -18.101
REMARK INTER:                 -16.033
REMARK INTRA:                  -2.068
REMARK UNBOUND:                -3.491
REMARK SMILES CC[C@@H](C)[C@@H](NC(=O)[C@@H](O)Cc1ccc(O)c(Cl)c1)C(=O)N1[C@H](C(=O)NCCCCN=C(N)N)C[C@H]2CC[C@H](OS(=O)(=O)O)C[C@@H]21
REMARK SMILES IDX 22 1 36 2 46 3 35 4 23 5 45 6 37 7 39 8 38 9 20 10 21 11
REMARK SMILES IDX 5 12 6 13 7 14 8 15 9 17 11 18 12 19 17 20 19 21 15 22 14 23
REMARK SMILES IDX 13 24 18 25 16 26 10 28 3 30 4 31 2 32 1 33 24 34 25 35
REMARK SMILES IDX 26 36 27 38 28 39 29 40 30 41 31 42 32 43 33 44 34 45 40 50
REMARK SMILES IDX 41 51 42 52 43 53 44 54
REMARK H PARENT 6 16 16 27 10 29 26 37 33 46 33 47 34 48 34 49 44 55
ROOT
ATOM      1  N   UNL     1      -0.197  -5.252   0.569  1.00  0.00    -0.326 N 
ATOM      2  C   UNL     1      -0.564  -6.149   2.714  1.00  0.00     0.014 C 
ATOM      3  C   UNL     1      -0.413  -4.828   1.955  1.00  0.00     0.091 C 
ATOM      4  C   UNL     1       0.390  -7.072   1.972  1.00  0.00     0.041 C 
ATOM      5  C   UNL     1       0.036  -6.717   0.517  1.00  0.00     0.175 C 
ATOM      6  C   UNL     1      -1.626  -3.952   2.264  1.00  0.00     0.059 C 
ATOM      7  C   UNL     1      -0.387  -5.940   4.206  1.00  0.00     0.008 C 
ATOM      8  C   UNL     1      -2.203  -4.166   3.680  1.00  0.00     0.143 C 
ATOM      9  C   UNL     1      -1.135  -4.672   4.670  1.00  0.00     0.034 C 
ENDROOT
BRANCH   1  10
ATOM     10  C   UNL     1       0.022  -4.493  -0.568  1.00  0.00     0.246 C 
ATOM     11  O   UNL     1      -0.947  -4.111  -1.232  1.00  0.00    -0.272 OA
BRANCH  10  12
ATOM     12  C   UNL     1       1.476  -4.102  -0.960  1.00  0.00     0.174 C 
BRANCH  12  13
ATOM     13  N   UNL     1       1.485  -2.783  -1.593  1.00  0.00    -0.342 N 
ATOM     14  C   UNL     1       1.490  -1.583  -0.919  1.00  0.00     0.249 C 
ATOM     15  O   UNL     1       1.518  -1.486   0.301  1.00  0.00    -0.272 OA
ATOM     16  H   UNL     1       1.306  -2.703  -2.591  1.00  0.00     0.164 HD
BRANCH  14  17
ATOM     17  C   UNL     1       1.480  -0.366  -1.869  1.00  0.00     0.207 C 
BRANCH  17  18
ATOM     18  C   UNL     1       2.762   0.455  -1.701  1.00  0.00     0.077 C 
BRANCH  18  19
ATOM     19  C   UNL     1       3.897  -0.098  -2.533  1.00  0.00    -0.043 A 
ATOM     20  C   UNL     1       5.794  -1.591  -2.774  1.00  0.00     0.083 A 
ATOM     21  C   UNL     1       4.717  -1.117  -2.024  1.00  0.00     0.028 A 
ATOM     22  C   UNL     1       6.059  -1.051  -4.033  1.00  0.00     0.134 A 
ATOM     23  C   UNL     1       5.255  -0.041  -4.550  1.00  0.00     0.048 A 
ATOM     24  C   UNL     1       4.177   0.436  -3.800  1.00  0.00     0.008 A 
ATOM     25  Cl  UNL     1       6.790  -2.843  -2.132  1.00  0.00    -0.080 Cl
BRANCH  22  26
ATOM     26  O   UNL     1       7.109  -1.476  -4.801  1.00  0.00    -0.506 OA
ATOM     27  H   UNL     1       7.921  -1.287  -4.295  1.00  0.00     0.293 HD
ENDBRANCH  22  26
ENDBRANCH  18  19
ENDBRANCH  17  18
BRANCH  17  28
ATOM     28  O   UNL     1       0.340   0.473  -1.622  1.00  0.00    -0.383 OA
ATOM     29  H   UNL     1      -0.205   0.001  -0.953  1.00  0.00     0.211 HD
ENDBRANCH  17  28
ENDBRANCH  14  17
ENDBRANCH  12  13
BRANCH  12  30
ATOM     30  C   UNL     1       2.174  -5.181  -1.831  1.00  0.00     0.018 C 
ATOM     31  C   UNL     1       3.463  -4.628  -2.459  1.00  0.00     0.010 C 
BRANCH  30  32
ATOM     32  C   UNL     1       1.261  -5.779  -2.929  1.00  0.00     0.002 C 
ATOM     33  C   UNL     1       1.107  -7.294  -2.894  1.00  0.00     0.004 C 
ENDBRANCH  30  32
ENDBRANCH  12  30
ENDBRANCH  10  12
ENDBRANCH   1  10
BRANCH   5  34
ATOM     34  C   UNL     1      -1.240  -7.460   0.040  1.00  0.00     0.242 C 
ATOM     35  O   UNL     1      -2.358  -6.949   0.094  1.00  0.00    -0.273 OA
ATOM     36  N   UNL     1      -1.037  -8.750  -0.396  1.00  0.00    -0.354 N 
ATOM     37  H   UNL     1      -0.107  -9.160  -0.305  1.00  0.00     0.163 HD
BRANCH  36  38
ATOM     38  C   UNL     1      -2.070  -9.509  -1.072  1.00  0.00     0.116 C 
BRANCH  38  39
ATOM     39  C   UNL     1      -2.200  -9.034  -2.517  1.00  0.00     0.023 C 
BRANCH  39  40
ATOM     40  C   UNL     1      -3.611  -8.562  -2.851  1.00  0.00     0.026 C 
BRANCH  40  41
ATOM     41  C   UNL     1      -3.885  -8.688  -4.349  1.00  0.00     0.146 C 
BRANCH  41  42
ATOM     42  N   UNL     1      -4.366  -7.415  -4.870  1.00  0.00    -0.254 NA
ATOM     43  C   UNL     1      -3.550  -6.622  -5.457  1.00  0.00     0.185 C 
ATOM     44  N   UNL     1      -2.234  -6.758  -5.699  1.00  0.00    -0.370 N 
ATOM     45  N   UNL     1      -4.013  -5.451  -5.926  1.00  0.00    -0.370 N 
ATOM     46  H   UNL     1      -1.673  -5.961  -5.946  1.00  0.00     0.159 HD
ATOM     47  H   UNL     1      -1.725  -7.592  -5.422  1.00  0.00     0.159 HD
ATOM     48  H   UNL     1      -4.999  -5.273  -5.793  1.00  0.00     0.159 HD
ATOM     49  H   UNL     1      -3.507  -4.894  -6.592  1.00  0.00     0.159 HD
ENDBRANCH  41  42
ENDBRANCH  40  41
ENDBRANCH  39  40
ENDBRANCH  38  39
ENDBRANCH  36  38
ENDBRANCH   5  34
BRANCH   8  50
ATOM     50  O   UNL     1      -3.268  -5.116   3.637  1.00  0.00    -0.245 OA
BRANCH  50  51
ATOM     51  S   UNL     1      -4.191  -5.348   4.956  1.00  0.00     0.397 S 
ATOM     52  O   UNL     1      -5.290  -4.411   4.901  1.00  0.00    -0.169 OA
ATOM     53  O   UNL     1      -3.346  -5.461   6.127  1.00  0.00    -0.169 OA
BRANCH  51  54
ATOM     54  O   UNL     1      -4.833  -6.794   4.666  1.00  0.00    -0.264 OA
ATOM     55  H   UNL     1      -4.885  -6.908   3.695  1.00  0.00     0.236 HD
ENDBRANCH  51  54
ENDBRANCH  50  51
ENDBRANCH   8  50
TORSDOF 19
ENDMDL
MODEL 7
REMARK VINA RESULT:    -7.204     17.401     21.736
REMARK INTER + INTRA:         -18.064
REMARK INTER:                 -14.516
REMARK INTRA:                  -3.548
REMARK UNBOUND:                -3.491
REMARK SMILES CC[C@@H](C)[C@@H](NC(=O)[C@@H](O)Cc1ccc(O)c(Cl)c1)C(=O)N1[C@H](C(=O)NCCCCN=C(N)N)C[C@H]2CC[C@H](OS(=O)(=O)O)C[C@@H]21
REMARK SMILES IDX 22 1 36 2 46 3 35 4 23 5 45 6 37 7 39 8 38 9 20 10 21 11
REMARK SMILES IDX 5 12 6 13 7 14 8 15 9 17 11 18 12 19 17 20 19 21 15 22 14 23
REMARK SMILES IDX 13 24 18 25 16 26 10 28 3 30 4 31 2 32 1 33 24 34 25 35
REMARK SMILES IDX 26 36 27 38 28 39 29 40 30 41 31 42 32 43 33 44 34 45 40 50
REMARK SMILES IDX 41 51 42 52 43 53 44 54
REMARK H PARENT 6 16 16 27 10 29 26 37 33 46 33 47 34 48 34 49 44 55
ROOT
ATOM      1  N   UNL     1     -15.843  -7.599   2.967  1.00  0.00    -0.326 N 
ATOM      2  C   UNL     1     -16.096  -9.523   4.299  1.00  0.00     0.014 C 
ATOM      3  C   UNL     1     -15.920  -8.003   4.373  1.00  0.00     0.091 C 
ATOM      4  C   UNL     1     -15.267  -9.897   3.080  1.00  0.00     0.041 C 
ATOM      5  C   UNL     1     -15.711  -8.796   2.100  1.00  0.00     0.175 C 
ATOM      6  C   UNL     1     -17.045  -7.428   5.232  1.00  0.00     0.059 C 
ATOM      7  C   UNL     1     -15.788 -10.170   5.635  1.00  0.00     0.008 C 
ATOM      8  C   UNL     1     -17.520  -8.379   6.352  1.00  0.00     0.143 C 
ATOM      9  C   UNL     1     -16.412  -9.358   6.790  1.00  0.00     0.034 C 
ENDROOT
BRANCH   1  10
ATOM     10  C   UNL     1     -15.666  -6.342   2.413  1.00  0.00     0.246 C 
ATOM     11  O   UNL     1     -16.344  -6.016   1.433  1.00  0.00    -0.272 OA
BRANCH  10  12
ATOM     12  C   UNL     1     -14.651  -5.355   3.060  1.00  0.00     0.174 C 
BRANCH  12  13
ATOM     13  N   UNL     1     -15.191  -3.996   3.033  1.00  0.00    -0.342 N 
ATOM     14  C   UNL     1     -15.303  -3.168   4.127  1.00  0.00     0.249 C 
ATOM     15  O   UNL     1     -14.932  -3.472   5.253  1.00  0.00    -0.272 OA
ATOM     16  H   UNL     1     -15.679  -3.665   2.204  1.00  0.00     0.164 HD
BRANCH  14  17
ATOM     17  C   UNL     1     -15.928  -1.800   3.777  1.00  0.00     0.207 C 
BRANCH  17  18
ATOM     18  C   UNL     1     -14.881  -0.879   3.143  1.00  0.00     0.077 C 
BRANCH  18  19
ATOM     19  C   UNL     1     -15.364  -0.296   1.834  1.00  0.00    -0.043 A 
ATOM     20  C   UNL     1     -15.551  -0.420  -0.581  1.00  0.00     0.083 A 
ATOM     21  C   UNL     1     -15.148  -0.984   0.630  1.00  0.00     0.028 A 
ATOM     22  C   UNL     1     -16.169   0.830  -0.598  1.00  0.00     0.134 A 
ATOM     23  C   UNL     1     -16.390   1.522   0.587  1.00  0.00     0.048 A 
ATOM     24  C   UNL     1     -15.986   0.962   1.801  1.00  0.00     0.008 A 
ATOM     25  Cl  UNL     1     -15.276  -1.280  -2.050  1.00  0.00    -0.080 Cl
BRANCH  22  26
ATOM     26  O   UNL     1     -16.572   1.428  -1.761  1.00  0.00    -0.506 OA
ATOM     27  H   UNL     1     -16.394   2.382  -1.663  1.00  0.00     0.293 HD
ENDBRANCH  22  26
ENDBRANCH  18  19
ENDBRANCH  17  18
BRANCH  17  28
ATOM     28  O   UNL     1     -16.475  -1.168   4.945  1.00  0.00    -0.383 OA
ATOM     29  H   UNL     1     -16.930  -0.355   4.627  1.00  0.00     0.211 HD
ENDBRANCH  17  28
ENDBRANCH  14  17
ENDBRANCH  12  13
BRANCH  12  30
ATOM     30  C   UNL     1     -13.238  -5.444   2.424  1.00  0.00     0.018 C 
ATOM     31  C   UNL     1     -12.484  -6.680   2.941  1.00  0.00     0.010 C 
BRANCH  30  32
ATOM     32  C   UNL     1     -12.381  -4.172   2.633  1.00  0.00     0.002 C 
ATOM     33  C   UNL     1     -12.065  -3.385   1.367  1.00  0.00     0.004 C 
ENDBRANCH  30  32
ENDBRANCH  12  30
ENDBRANCH  10  12
ENDBRANCH   1  10
BRANCH   5  34
ATOM     34  C   UNL     1     -17.067  -9.141   1.428  1.00  0.00     0.242 C 
ATOM     35  O   UNL     1     -17.187 -10.065   0.625  1.00  0.00    -0.273 OA
ATOM     36  N   UNL     1     -18.112  -8.306   1.755  1.00  0.00    -0.354 N 
ATOM     37  H   UNL     1     -17.923  -7.485   2.333  1.00  0.00     0.163 HD
BRANCH  36  38
ATOM     38  C   UNL     1     -19.483  -8.605   1.395  1.00  0.00     0.116 C 
BRANCH  38  39
ATOM     39  C   UNL     1     -20.262  -9.036   2.635  1.00  0.00     0.023 C 
BRANCH  39  40
ATOM     40  C   UNL     1     -21.202  -7.946   3.141  1.00  0.00     0.026 C 
BRANCH  40  41
ATOM     41  C   UNL     1     -20.422  -6.858   3.879  1.00  0.00     0.146 C 
BRANCH  41  42
ATOM     42  N   UNL     1     -21.002  -5.553   3.589  1.00  0.00    -0.254 NA
ATOM     43  C   UNL     1     -20.380  -4.742   2.819  1.00  0.00     0.185 C 
ATOM     44  N   UNL     1     -19.204  -4.883   2.181  1.00  0.00    -0.370 N 
ATOM     45  N   UNL     1     -20.929  -3.542   2.567  1.00  0.00    -0.370 N 
ATOM     46  H   UNL     1     -18.721  -4.081   1.812  1.00  0.00     0.159 HD
ATOM     47  H   UNL     1     -18.659  -5.737   2.251  1.00  0.00     0.159 HD
ATOM     48  H   UNL     1     -21.823  -3.358   3.003  1.00  0.00     0.159 HD
ATOM     49  H   UNL     1     -20.634  -2.957   1.805  1.00  0.00     0.159 HD
ENDBRANCH  41  42
ENDBRANCH  40  41
ENDBRANCH  39  40
ENDBRANCH  38  39
ENDBRANCH  36  38
ENDBRANCH   5  34
BRANCH   8  50
ATOM     50  O   UNL     1     -18.645  -9.137   5.907  1.00  0.00    -0.245 OA
BRANCH  50  51
ATOM     51  S   UNL     1     -19.931  -9.317   6.886  1.00  0.00     0.397 S 
ATOM     52  O   UNL     1     -21.070  -9.665   6.068  1.00  0.00    -0.169 OA
ATOM     53  O   UNL     1     -19.981  -8.219   7.829  1.00  0.00    -0.169 OA
BRANCH  51  54
ATOM     54  O   UNL     1     -19.550 -10.651   7.699  1.00  0.00    -0.264 OA
ATOM     55  H   UNL     1     -18.713 -10.997   7.329  1.00  0.00     0.236 HD
ENDBRANCH  51  54
ENDBRANCH  50  51
ENDBRANCH   8  50
TORSDOF 19
ENDMDL
MODEL 8
REMARK VINA RESULT:    -7.177     17.476     20.659
REMARK INTER + INTRA:         -18.010
REMARK INTER:                 -16.282
REMARK INTRA:                  -1.728
REMARK UNBOUND:                -3.491
REMARK SMILES CC[C@@H](C)[C@@H](NC(=O)[C@@H](O)Cc1ccc(O)c(Cl)c1)C(=O)N1[C@H](C(=O)NCCCCN=C(N)N)C[C@H]2CC[C@H](OS(=O)(=O)O)C[C@@H]21
REMARK SMILES IDX 22 1 36 2 46 3 35 4 23 5 45 6 37 7 39 8 38 9 20 10 21 11
REMARK SMILES IDX 5 12 6 13 7 14 8 15 9 17 11 18 12 19 17 20 19 21 15 22 14 23
REMARK SMILES IDX 13 24 18 25 16 26 10 28 3 30 4 31 2 32 1 33 24 34 25 35
REMARK SMILES IDX 26 36 27 38 28 39 29 40 30 41 31 42 32 43 33 44 34 45 40 50
REMARK SMILES IDX 41 51 42 52 43 53 44 54
REMARK H PARENT 6 16 16 27 10 29 26 37 33 46 33 47 34 48 34 49 44 55
ROOT
ATOM      1  N   UNL     1     -17.925   1.860  -3.702  1.00  0.00    -0.326 N 
ATOM      2  C   UNL     1     -18.548   3.771  -4.929  1.00  0.00     0.014 C 
ATOM      3  C   UNL     1     -18.845   3.000  -3.640  1.00  0.00     0.091 C 
ATOM      4  C   UNL     1     -18.221   2.660  -5.916  1.00  0.00     0.041 C 
ATOM      5  C   UNL     1     -17.300   1.785  -5.046  1.00  0.00     0.175 C 
ATOM      6  C   UNL     1     -18.725   3.964  -2.462  1.00  0.00     0.059 C 
ATOM      7  C   UNL     1     -19.665   4.744  -5.249  1.00  0.00     0.008 C 
ATOM      8  C   UNL     1     -19.120   5.417  -2.805  1.00  0.00     0.143 C 
ATOM      9  C   UNL     1     -20.124   5.484  -3.974  1.00  0.00     0.034 C 
ENDROOT
BRANCH   1  10
ATOM     10  C   UNL     1     -17.753   0.809  -2.818  1.00  0.00     0.246 C 
ATOM     11  O   UNL     1     -18.338  -0.258  -3.032  1.00  0.00    -0.272 OA
BRANCH  10  12
ATOM     12  C   UNL     1     -16.797   0.978  -1.602  1.00  0.00     0.174 C 
BRANCH  12  13
ATOM     13  N   UNL     1     -16.209  -0.313  -1.247  1.00  0.00    -0.342 N 
ATOM     14  C   UNL     1     -14.955  -0.488  -0.706  1.00  0.00     0.249 C 
ATOM     15  O   UNL     1     -14.195   0.433  -0.433  1.00  0.00    -0.272 OA
ATOM     16  H   UNL     1     -16.654  -1.172  -1.559  1.00  0.00     0.164 HD
BRANCH  14  17
ATOM     17  C   UNL     1     -14.614  -1.973  -0.459  1.00  0.00     0.207 C 
BRANCH  17  18
ATOM     18  C   UNL     1     -13.451  -2.099   0.530  1.00  0.00     0.077 C 
BRANCH  18  19
ATOM     19  C   UNL     1     -13.907  -2.630   1.870  1.00  0.00    -0.043 A 
ATOM     20  C   UNL     1     -14.893  -2.256   4.055  1.00  0.00     0.083 A 
ATOM     21  C   UNL     1     -14.518  -1.774   2.800  1.00  0.00     0.028 A 
ATOM     22  C   UNL     1     -14.659  -3.590   4.389  1.00  0.00     0.134 A 
ATOM     23  C   UNL     1     -14.055  -4.448   3.477  1.00  0.00     0.048 A 
ATOM     24  C   UNL     1     -13.677  -3.969   2.221  1.00  0.00     0.008 A 
ATOM     25  Cl  UNL     1     -15.642  -1.189   5.184  1.00  0.00    -0.080 Cl
BRANCH  22  26
ATOM     26  O   UNL     1     -14.999  -4.105   5.610  1.00  0.00    -0.506 OA
ATOM     27  H   UNL     1     -15.651  -4.812   5.445  1.00  0.00     0.293 HD
ENDBRANCH  22  26
ENDBRANCH  18  19
ENDBRANCH  17  18
BRANCH  17  28
ATOM     28  O   UNL     1     -14.271  -2.636  -1.686  1.00  0.00    -0.383 OA
ATOM     29  H   UNL     1     -13.568  -3.286  -1.457  1.00  0.00     0.211 HD
ENDBRANCH  17  28
ENDBRANCH  14  17
ENDBRANCH  12  13
BRANCH  12  30
ATOM     30  C   UNL     1     -17.482   1.669  -0.392  1.00  0.00     0.018 C 
ATOM     31  C   UNL     1     -16.589   2.782   0.179  1.00  0.00     0.010 C 
BRANCH  30  32
ATOM     32  C   UNL     1     -17.894   0.688   0.733  1.00  0.00     0.002 C 
ATOM     33  C   UNL     1     -16.993   0.690   1.960  1.00  0.00     0.004 C 
ENDBRANCH  30  32
ENDBRANCH  12  30
ENDBRANCH  10  12
ENDBRANCH   1  10
BRANCH   5  34
ATOM     34  C   UNL     1     -15.851   2.339  -5.011  1.00  0.00     0.242 C 
ATOM     35  O   UNL     1     -14.884   1.634  -4.722  1.00  0.00    -0.273 OA
ATOM     36  N   UNL     1     -15.732   3.685  -5.274  1.00  0.00    -0.354 N 
ATOM     37  H   UNL     1     -16.581   4.240  -5.388  1.00  0.00     0.163 HD
BRANCH  36  38
ATOM     38  C   UNL     1     -14.449   4.319  -5.494  1.00  0.00     0.116 C 
BRANCH  38  39
ATOM     39  C   UNL     1     -14.548   5.811  -5.184  1.00  0.00     0.023 C 
BRANCH  39  40
ATOM     40  C   UNL     1     -13.190   6.504  -5.213  1.00  0.00     0.026 C 
BRANCH  40  41
ATOM     41  C   UNL     1     -13.136   7.545  -6.332  1.00  0.00     0.146 C 
BRANCH  41  42
ATOM     42  N   UNL     1     -13.156   6.878  -7.627  1.00  0.00    -0.254 NA
ATOM     43  C   UNL     1     -13.171   7.578  -8.699  1.00  0.00     0.185 C 
ATOM     44  N   UNL     1     -13.170   8.913  -8.861  1.00  0.00    -0.370 N 
ATOM     45  N   UNL     1     -13.193   6.944  -9.883  1.00  0.00    -0.370 N 
ATOM     46  H   UNL     1     -13.429   9.323  -9.742  1.00  0.00     0.159 HD
ATOM     47  H   UNL     1     -13.141   9.546  -8.067  1.00  0.00     0.159 HD
ATOM     48  H   UNL     1     -13.186   5.933  -9.851  1.00  0.00     0.159 HD
ATOM     49  H   UNL     1     -12.969   7.401 -10.749  1.00  0.00     0.159 HD
ENDBRANCH  41  42
ENDBRANCH  40  41
ENDBRANCH  39  40
ENDBRANCH  38  39
ENDBRANCH  36  38
ENDBRANCH   5  34
BRANCH   8  50
ATOM     50  O   UNL     1     -17.960   6.169  -3.161  1.00  0.00    -0.245 OA
BRANCH  50  51
ATOM     51  S   UNL     1     -17.825   7.715  -2.674  1.00  0.00     0.397 S 
ATOM     52  O   UNL     1     -17.722   8.547  -3.852  1.00  0.00    -0.169 OA
ATOM     53  O   UNL     1     -16.862   7.803  -1.596  1.00  0.00    -0.169 OA
BRANCH  51  54
ATOM     54  O   UNL     1     -19.283   8.003  -2.061  1.00  0.00    -0.264 OA
ATOM     55  H   UNL     1     -19.701   8.704  -2.601  1.00  0.00     0.236 HD
ENDBRANCH  51  54
ENDBRANCH  50  51
ENDBRANCH   8  50
TORSDOF 19
ENDMDL
MODEL 9
REMARK VINA RESULT:    -7.156     15.211     19.259
REMARK INTER + INTRA:         -17.968
REMARK INTER:                 -15.150
REMARK INTRA:                  -2.817
REMARK UNBOUND:                -3.491
REMARK SMILES CC[C@@H](C)[C@@H](NC(=O)[C@@H](O)Cc1ccc(O)c(Cl)c1)C(=O)N1[C@H](C(=O)NCCCCN=C(N)N)C[C@H]2CC[C@H](OS(=O)(=O)O)C[C@@H]21
REMARK SMILES IDX 22 1 36 2 46 3 35 4 23 5 45 6 37 7 39 8 38 9 20 10 21 11
REMARK SMILES IDX 5 12 6 13 7 14 8 15 9 17 11 18 12 19 17 20 19 21 15 22 14 23
REMARK SMILES IDX 13 24 18 25 16 26 10 28 3 30 4 31 2 32 1 33 24 34 25 35
REMARK SMILES IDX 26 36 27 38 28 39 29 40 30 41 31 42 32 43 33 44 34 45 40 50
REMARK SMILES IDX 41 51 42 52 43 53 44 54
REMARK H PARENT 6 16 16 27 10 29 26 37 33 46 33 47 34 48 34 49 44 55
ROOT
ATOM      1  N   UNL     1     -15.617  -4.922   2.324  1.00  0.00    -0.326 N 
ATOM      2  C   UNL     1     -17.346  -6.450   2.791  1.00  0.00     0.014 C 
ATOM      3  C   UNL     1     -16.998  -5.228   1.936  1.00  0.00     0.091 C 
ATOM      4  C   UNL     1     -16.589  -6.182   4.083  1.00  0.00     0.041 C 
ATOM      5  C   UNL     1     -15.235  -5.720   3.514  1.00  0.00     0.175 C 
ATOM      6  C   UNL     1     -17.282  -5.565   0.474  1.00  0.00     0.059 C 
ATOM      7  C   UNL     1     -18.846  -6.668   2.840  1.00  0.00     0.008 C 
ATOM      8  C   UNL     1     -18.456  -6.549   0.280  1.00  0.00     0.143 C 
ATOM      9  C   UNL     1     -19.468  -6.479   1.441  1.00  0.00     0.034 C 
ENDROOT
BRANCH   1  10
ATOM     10  C   UNL     1     -14.780  -3.907   1.894  1.00  0.00     0.246 C 
ATOM     11  O   UNL     1     -13.925  -4.155   1.037  1.00  0.00    -0.272 OA
BRANCH  10  12
ATOM     12  C   UNL     1     -14.959  -2.471   2.466  1.00  0.00     0.174 C 
BRANCH  12  13
ATOM     13  N   UNL     1     -14.861  -1.488   1.388  1.00  0.00    -0.342 N 
ATOM     14  C   UNL     1     -15.835  -0.570   1.065  1.00  0.00     0.249 C 
ATOM     15  O   UNL     1     -16.892  -0.455   1.672  1.00  0.00    -0.272 OA
ATOM     16  H   UNL     1     -14.114  -1.565   0.702  1.00  0.00     0.164 HD
BRANCH  14  17
ATOM     17  C   UNL     1     -15.442   0.318  -0.135  1.00  0.00     0.207 C 
BRANCH  17  18
ATOM     18  C   UNL     1     -15.971  -0.282  -1.442  1.00  0.00     0.077 C 
BRANCH  18  19
ATOM     19  C   UNL     1     -16.895   0.672  -2.165  1.00  0.00    -0.043 A 
ATOM     20  C   UNL     1     -17.573   1.806  -4.199  1.00  0.00     0.083 A 
ATOM     21  C   UNL     1     -16.752   0.888  -3.544  1.00  0.00     0.028 A 
ATOM     22  C   UNL     1     -18.540   2.513  -3.483  1.00  0.00     0.134 A 
ATOM     23  C   UNL     1     -18.692   2.309  -2.116  1.00  0.00     0.048 A 
ATOM     24  C   UNL     1     -17.870   1.392  -1.458  1.00  0.00     0.008 A 
ATOM     25  Cl  UNL     1     -17.382   2.058  -5.894  1.00  0.00    -0.080 Cl
BRANCH  22  26
ATOM     26  O   UNL     1     -19.361   3.431  -4.079  1.00  0.00    -0.506 OA
ATOM     27  H   UNL     1     -19.170   3.399  -5.035  1.00  0.00     0.293 HD
ENDBRANCH  22  26
ENDBRANCH  18  19
ENDBRANCH  17  18
BRANCH  17  28
ATOM     28  O   UNL     1     -14.016   0.468  -0.223  1.00  0.00    -0.383 OA
ATOM     29  H   UNL     1     -13.754   0.082  -1.090  1.00  0.00     0.211 HD
ENDBRANCH  17  28
ENDBRANCH  14  17
ENDBRANCH  12  13
BRANCH  12  30
ATOM     30  C   UNL     1     -13.985  -2.165   3.636  1.00  0.00     0.018 C 
ATOM     31  C   UNL     1     -12.765  -3.099   3.589  1.00  0.00     0.010 C 
BRANCH  30  32
ATOM     32  C   UNL     1     -14.650  -2.229   5.032  1.00  0.00     0.002 C 
ATOM     33  C   UNL     1     -15.947  -1.442   5.172  1.00  0.00     0.004 C 
ENDBRANCH  30  32
ENDBRANCH  12  30
ENDBRANCH  10  12
ENDBRANCH   1  10
BRANCH   5  34
ATOM     34  C   UNL     1     -14.345  -6.925   3.107  1.00  0.00     0.242 C 
ATOM     35  O   UNL     1     -14.090  -7.186   1.931  1.00  0.00    -0.273 OA
ATOM     36  N   UNL     1     -13.907  -7.709   4.150  1.00  0.00    -0.354 N 
ATOM     37  H   UNL     1     -14.250  -7.511   5.091  1.00  0.00     0.163 HD
BRANCH  36  38
ATOM     38  C   UNL     1     -12.902  -8.737   3.976  1.00  0.00     0.116 C 
BRANCH  38  39
ATOM     39  C   UNL     1     -11.514  -8.153   4.233  1.00  0.00     0.023 C 
BRANCH  39  40
ATOM     40  C   UNL     1     -10.512  -8.536   3.149  1.00  0.00     0.026 C 
BRANCH  40  41
ATOM     41  C   UNL     1     -11.156  -8.463   1.765  1.00  0.00     0.146 C 
BRANCH  41  42
ATOM     42  N   UNL     1     -10.343  -7.631   0.887  1.00  0.00    -0.254 NA
ATOM     43  C   UNL     1     -10.555  -6.369   0.836  1.00  0.00     0.185 C 
ATOM     44  N   UNL     1     -11.455  -5.616   1.493  1.00  0.00    -0.370 N 
ATOM     45  N   UNL     1      -9.798  -5.620   0.017  1.00  0.00    -0.370 N 
ATOM     46  H   UNL     1     -11.673  -4.686   1.178  1.00  0.00     0.159 HD
ATOM     47  H   UNL     1     -12.101  -6.020   2.164  1.00  0.00     0.159 HD
ATOM     48  H   UNL     1      -9.087  -6.110  -0.510  1.00  0.00     0.159 HD
ATOM     49  H   UNL     1      -9.739  -4.621   0.094  1.00  0.00     0.159 HD
ENDBRANCH  41  42
ENDBRANCH  40  41
ENDBRANCH  39  40
ENDBRANCH  38  39
ENDBRANCH  36  38
ENDBRANCH   5  34
BRANCH   8  50
ATOM     50  O   UNL     1     -17.964  -7.887   0.187  1.00  0.00    -0.245 OA
BRANCH  50  51
ATOM     51  S   UNL     1     -17.279  -8.396  -1.197  1.00  0.00     0.397 S 
ATOM     52  O   UNL     1     -15.923  -8.800  -0.901  1.00  0.00    -0.169 OA
ATOM     53  O   UNL     1     -17.578  -7.460  -2.261  1.00  0.00    -0.169 OA
BRANCH  51  54
ATOM     54  O   UNL     1     -18.087  -9.755  -1.491  1.00  0.00    -0.264 OA
ATOM     55  H   UNL     1     -18.838  -9.535  -2.078  1.00  0.00     0.236 HD
ENDBRANCH  51  54
ENDBRANCH  50  51
ENDBRANCH   8  50
TORSDOF 19
ENDMDL
MODEL 10
REMARK VINA RESULT:    -7.115     15.799     20.449
REMARK INTER + INTRA:         -17.886
REMARK INTER:                 -13.955
REMARK INTRA:                  -3.930
REMARK UNBOUND:                -3.491
REMARK SMILES CC[C@@H](C)[C@@H](NC(=O)[C@@H](O)Cc1ccc(O)c(Cl)c1)C(=O)N1[C@H](C(=O)NCCCCN=C(N)N)C[C@H]2CC[C@H](OS(=O)(=O)O)C[C@@H]21
REMARK SMILES IDX 22 1 36 2 46 3 35 4 23 5 45 6 37 7 39 8 38 9 20 10 21 11
REMARK SMILES IDX 5 12 6 13 7 14 8 15 9 17 11 18 12 19 17 20 19 21 15 22 14 23
REMARK SMILES IDX 13 24 18 25 16 26 10 28 3 30 4 31 2 32 1 33 24 34 25 35
REMARK SMILES IDX 26 36 27 38 28 39 29 40 30 41 31 42 32 43 33 44 34 45 40 50
REMARK SMILES IDX 41 51 42 52 43 53 44 54
REMARK H PARENT 6 16 16 27 10 29 26 37 33 46 33 47 34 48 34 49 44 55
ROOT
ATOM      1  N   UNL     1     -18.041  -7.060   1.588  1.00  0.00    -0.326 N 
ATOM      2  C   UNL     1     -19.437  -6.524   3.407  1.00  0.00     0.014 C 
ATOM      3  C   UNL     1     -18.922  -7.699   2.570  1.00  0.00     0.091 C 
ATOM      4  C   UNL     1     -19.545  -5.405   2.383  1.00  0.00     0.041 C 
ATOM      5  C   UNL     1     -18.208  -5.586   1.640  1.00  0.00     0.175 C 
ATOM      6  C   UNL     1     -18.320  -8.738   3.515  1.00  0.00     0.059 C 
ATOM      7  C   UNL     1     -20.664  -6.923   4.204  1.00  0.00     0.008 C 
ATOM      8  C   UNL     1     -19.006  -8.792   4.897  1.00  0.00     0.143 C 
ATOM      9  C   UNL     1     -20.473  -8.319   4.835  1.00  0.00     0.034 C 
ENDROOT
BRANCH   1  10
ATOM     10  C   UNL     1     -17.308  -7.620   0.556  1.00  0.00     0.246 C 
ATOM     11  O   UNL     1     -17.444  -7.174  -0.588  1.00  0.00    -0.272 OA
BRANCH  10  12
ATOM     12  C   UNL     1     -16.301  -8.765   0.864  1.00  0.00     0.174 C 
BRANCH  12  13
ATOM     13  N   UNL     1     -15.230  -8.269   1.728  1.00  0.00    -0.342 N 
ATOM     14  C   UNL     1     -14.737  -8.925   2.833  1.00  0.00     0.249 C 
ATOM     15  O   UNL     1     -15.128 -10.025   3.203  1.00  0.00    -0.272 OA
ATOM     16  H   UNL     1     -14.917  -7.305   1.638  1.00  0.00     0.164 HD
BRANCH  14  17
ATOM     17  C   UNL     1     -13.620  -8.135   3.546  1.00  0.00     0.207 C 
BRANCH  17  18
ATOM     18  C   UNL     1     -12.388  -8.014   2.643  1.00  0.00     0.077 C 
BRANCH  18  19
ATOM     19  C   UNL     1     -12.062  -6.571   2.329  1.00  0.00    -0.043 A 
ATOM     20  C   UNL     1     -12.056  -4.230   2.963  1.00  0.00     0.083 A 
ATOM     21  C   UNL     1     -12.312  -5.566   3.275  1.00  0.00     0.028 A 
ATOM     22  C   UNL     1     -11.550  -3.891   1.707  1.00  0.00     0.134 A 
ATOM     23  C   UNL     1     -11.298  -4.877   0.761  1.00  0.00     0.048 A 
ATOM     24  C   UNL     1     -11.555  -6.214   1.069  1.00  0.00     0.008 A 
ATOM     25  Cl  UNL     1     -12.370  -3.009   4.139  1.00  0.00    -0.080 Cl
BRANCH  22  26
ATOM     26  O   UNL     1     -11.293  -2.595   1.352  1.00  0.00    -0.506 OA
ATOM     27  H   UNL     1     -10.756  -2.628   0.539  1.00  0.00     0.293 HD
ENDBRANCH  22  26
ENDBRANCH  18  19
ENDBRANCH  17  18
BRANCH  17  28
ATOM     28  O   UNL     1     -13.246  -8.768   4.781  1.00  0.00    -0.383 OA
ATOM     29  H   UNL     1     -13.753  -9.610   4.819  1.00  0.00     0.211 HD
ENDBRANCH  17  28
ENDBRANCH  14  17
ENDBRANCH  12  13
BRANCH  12  30
ATOM     30  C   UNL     1     -15.758  -9.449  -0.420  1.00  0.00     0.018 C 
ATOM     31  C   UNL     1     -16.056 -10.956  -0.404  1.00  0.00     0.010 C 
BRANCH  30  32
ATOM     32  C   UNL     1     -14.248  -9.207  -0.661  1.00  0.00     0.002 C 
ATOM     33  C   UNL     1     -13.350 -10.414  -0.425  1.00  0.00     0.004 C 
ENDBRANCH  30  32
ENDBRANCH  12  30
ENDBRANCH  10  12
ENDBRANCH   1  10
BRANCH   5  34
ATOM     34  C   UNL     1     -17.033  -4.926   2.410  1.00  0.00     0.242 C 
ATOM     35  O   UNL     1     -16.091  -5.580   2.858  1.00  0.00    -0.273 OA
ATOM     36  N   UNL     1     -17.147  -3.568   2.601  1.00  0.00    -0.354 N 
ATOM     37  H   UNL     1     -18.008  -3.101   2.312  1.00  0.00     0.163 HD
BRANCH  36  38
ATOM     38  C   UNL     1     -16.053  -2.762   3.103  1.00  0.00     0.116 C 
BRANCH  38  39
ATOM     39  C   UNL     1     -15.687  -1.690   2.080  1.00  0.00     0.023 C 
BRANCH  39  40
ATOM     40  C   UNL     1     -15.617  -0.297   2.696  1.00  0.00     0.026 C 
BRANCH  40  41
ATOM     41  C   UNL     1     -16.162   0.753   1.727  1.00  0.00     0.146 C 
BRANCH  41  42
ATOM     42  N   UNL     1     -15.250   0.903   0.600  1.00  0.00    -0.254 NA
ATOM     43  C   UNL     1     -15.627   0.545  -0.570  1.00  0.00     0.185 C 
ATOM     44  N   UNL     1     -16.795   0.019  -0.981  1.00  0.00    -0.370 N 
ATOM     45  N   UNL     1     -14.770   0.687  -1.595  1.00  0.00    -0.370 N 
ATOM     46  H   UNL     1     -16.866  -0.439  -1.874  1.00  0.00     0.159 HD
ATOM     47  H   UNL     1     -17.562  -0.144  -0.335  1.00  0.00     0.159 HD
ATOM     48  H   UNL     1     -13.868   1.086  -1.374  1.00  0.00     0.159 HD
ATOM     49  H   UNL     1     -15.062   0.657  -2.556  1.00  0.00     0.159 HD
ENDBRANCH  41  42
ENDBRANCH  40  41
ENDBRANCH  39  40
ENDBRANCH  38  39
ENDBRANCH  36  38
ENDBRANCH   5  34
BRANCH   8  50
ATOM     50  O   UNL     1     -18.303  -7.968   5.827  1.00  0.00    -0.245 OA
BRANCH  50  51
ATOM     51  S   UNL     1     -17.327  -8.656   6.931  1.00  0.00     0.397 S 
ATOM     52  O   UNL     1     -17.843  -9.975   7.224  1.00  0.00    -0.169 OA
ATOM     53  O   UNL     1     -17.035  -7.704   7.983  1.00  0.00    -0.169 OA
BRANCH  51  54
ATOM     54  O   UNL     1     -15.978  -8.891   6.088  1.00  0.00    -0.264 OA
ATOM     55  H   UNL     1     -15.255  -9.068   6.724  1.00  0.00     0.236 HD
ENDBRANCH  51  54
ENDBRANCH  50  51
ENDBRANCH   8  50
TORSDOF 19
ENDMDL
MODEL 11
REMARK VINA RESULT:    -7.099     15.802     19.851
REMARK INTER + INTRA:         -17.853
REMARK INTER:                 -14.639
REMARK INTRA:                  -3.214
REMARK UNBOUND:                -3.491
REMARK SMILES CC[C@@H](C)[C@@H](NC(=O)[C@@H](O)Cc1ccc(O)c(Cl)c1)C(=O)N1[C@H](C(=O)NCCCCN=C(N)N)C[C@H]2CC[C@H](OS(=O)(=O)O)C[C@@H]21
REMARK SMILES IDX 22 1 36 2 46 3 35 4 23 5 45 6 37 7 39 8 38 9 20 10 21 11
REMARK SMILES IDX 5 12 6 13 7 14 8 15 9 17 11 18 12 19 17 20 19 21 15 22 14 23
REMARK SMILES IDX 13 24 18 25 16 26 10 28 3 30 4 31 2 32 1 33 24 34 25 35
REMARK SMILES IDX 26 36 27 38 28 39 29 40 30 41 31 42 32 43 33 44 34 45 40 50
REMARK SMILES IDX 41 51 42 52 43 53 44 54
REMARK H PARENT 6 16 16 27 10 29 26 37 33 46 33 47 34 48 34 49 44 55
ROOT
ATOM      1  N   UNL     1     -16.234  -6.173   2.884  1.00  0.00    -0.326 N 
ATOM      2  C   UNL     1     -18.111  -7.461   3.483  1.00  0.00     0.014 C 
ATOM      3  C   UNL     1     -17.697  -6.104   2.907  1.00  0.00     0.091 C 
ATOM      4  C   UNL     1     -16.998  -7.757   4.477  1.00  0.00     0.041 C 
ATOM      5  C   UNL     1     -15.770  -7.367   3.634  1.00  0.00     0.175 C 
ATOM      6  C   UNL     1     -18.434  -5.895   1.585  1.00  0.00     0.059 C 
ATOM      7  C   UNL     1     -19.548  -7.431   3.964  1.00  0.00     0.008 C 
ATOM      8  C   UNL     1     -19.830  -6.554   1.541  1.00  0.00     0.143 C 
ATOM      9  C   UNL     1     -20.447  -6.698   2.946  1.00  0.00     0.034 C 
ENDROOT
BRANCH   1  10
ATOM     10  C   UNL     1     -15.306  -5.227   2.481  1.00  0.00     0.246 C 
ATOM     11  O   UNL     1     -15.012  -5.146   1.284  1.00  0.00    -0.272 OA
BRANCH  10  12
ATOM     12  C   UNL     1     -14.689  -4.261   3.533  1.00  0.00     0.174 C 
BRANCH  12  13
ATOM     13  N   UNL     1     -15.072  -2.883   3.230  1.00  0.00    -0.342 N 
ATOM     14  C   UNL     1     -15.545  -1.974   4.150  1.00  0.00     0.249 C 
ATOM     15  O   UNL     1     -15.672  -2.215   5.344  1.00  0.00    -0.272 OA
ATOM     16  H   UNL     1     -15.170  -2.588   2.262  1.00  0.00     0.164 HD
BRANCH  14  17
ATOM     17  C   UNL     1     -15.880  -0.606   3.518  1.00  0.00     0.207 C 
BRANCH  17  18
ATOM     18  C   UNL     1     -14.934  -0.310   2.350  1.00  0.00     0.077 C 
BRANCH  18  19
ATOM     19  C   UNL     1     -15.690   0.072   1.097  1.00  0.00    -0.043 A 
ATOM     20  C   UNL     1     -15.740   0.431  -1.302  1.00  0.00     0.083 A 
ATOM     21  C   UNL     1     -15.055   0.031  -0.154  1.00  0.00     0.028 A 
ATOM     22  C   UNL     1     -17.060   0.874  -1.208  1.00  0.00     0.134 A 
ATOM     23  C   UNL     1     -17.701   0.920   0.025  1.00  0.00     0.048 A 
ATOM     24  C   UNL     1     -17.017   0.522   1.176  1.00  0.00     0.008 A 
ATOM     25  Cl  UNL     1     -14.943   0.373  -2.830  1.00  0.00    -0.080 Cl
BRANCH  22  26
ATOM     26  O   UNL     1     -17.769   1.286  -2.303  1.00  0.00    -0.506 OA
ATOM     27  H   UNL     1     -17.780   2.261  -2.279  1.00  0.00     0.293 HD
ENDBRANCH  22  26
ENDBRANCH  18  19
ENDBRANCH  17  18
BRANCH  17  28
ATOM     28  O   UNL     1     -15.784   0.450   4.488  1.00  0.00    -0.383 OA
ATOM     29  H   UNL     1     -15.656   1.280   3.975  1.00  0.00     0.211 HD
ENDBRANCH  17  28
ENDBRANCH  14  17
ENDBRANCH  12  13
BRANCH  12  30
ATOM     30  C   UNL     1     -13.152  -4.431   3.675  1.00  0.00     0.018 C 
ATOM     31  C   UNL     1     -12.810  -5.774   4.340  1.00  0.00     0.010 C 
BRANCH  30  32
ATOM     32  C   UNL     1     -12.466  -3.271   4.436  1.00  0.00     0.002 C 
ATOM     33  C   UNL     1     -11.534  -2.404   3.599  1.00  0.00     0.004 C 
ENDBRANCH  30  32
ENDBRANCH  12  30
ENDBRANCH  10  12
ENDBRANCH   1  10
BRANCH   5  34
ATOM     34  C   UNL     1     -15.360  -8.503   2.660  1.00  0.00     0.242 C 
ATOM     35  O   UNL     1     -15.582  -9.689   2.902  1.00  0.00    -0.273 OA
ATOM     36  N   UNL     1     -14.683  -8.093   1.533  1.00  0.00    -0.354 N 
ATOM     37  H   UNL     1     -14.423  -7.110   1.446  1.00  0.00     0.163 HD
BRANCH  36  38
ATOM     38  C   UNL     1     -14.418  -8.985   0.423  1.00  0.00     0.116 C 
BRANCH  38  39
ATOM     39  C   UNL     1     -12.959  -8.857  -0.008  1.00  0.00     0.023 C 
BRANCH  39  40
ATOM     40  C   UNL     1     -12.005  -8.781   1.180  1.00  0.00     0.026 C 
BRANCH  40  41
ATOM     41  C   UNL     1     -11.094  -7.559   1.066  1.00  0.00     0.146 C 
BRANCH  41  42
ATOM     42  N   UNL     1     -11.901  -6.350   0.962  1.00  0.00    -0.254 NA
ATOM     43  C   UNL     1     -11.356  -5.255   0.584  1.00  0.00     0.185 C 
ATOM     44  N   UNL     1     -10.081  -4.998   0.237  1.00  0.00    -0.370 N 
ATOM     45  N   UNL     1     -12.116  -4.151   0.499  1.00  0.00    -0.370 N 
ATOM     46  H   UNL     1      -9.742  -4.052   0.198  1.00  0.00     0.159 HD
ATOM     47  H   UNL     1      -9.373  -5.725   0.232  1.00  0.00     0.159 HD
ATOM     48  H   UNL     1     -13.093  -4.260   0.735  1.00  0.00     0.159 HD
ATOM     49  H   UNL     1     -11.830  -3.331  -0.005  1.00  0.00     0.159 HD
ENDBRANCH  41  42
ENDBRANCH  40  41
ENDBRANCH  39  40
ENDBRANCH  38  39
ENDBRANCH  36  38
ENDBRANCH   5  34
BRANCH   8  50
ATOM     50  O   UNL     1     -19.741  -7.851   0.949  1.00  0.00    -0.245 OA
BRANCH  50  51
ATOM     51  S   UNL     1     -20.148  -8.050  -0.613  1.00  0.00     0.397 S 
ATOM     52  O   UNL     1     -21.343  -8.861  -0.663  1.00  0.00    -0.169 OA
ATOM     53  O   UNL     1     -18.969  -8.387  -1.383  1.00  0.00    -0.169 OA
BRANCH  51  54
ATOM     54  O   UNL     1     -20.607  -6.567  -1.032  1.00  0.00    -0.264 OA
ATOM     55  H   UNL     1     -21.286  -6.273  -0.391  1.00  0.00     0.236 HD
ENDBRANCH  51  54
ENDBRANCH  50  51
ENDBRANCH   8  50
TORSDOF 19
ENDMDL
MODEL 12
REMARK VINA RESULT:    -7.095     16.098     18.906
REMARK INTER + INTRA:         -17.845
REMARK INTER:                 -15.093
REMARK INTRA:                  -2.752
REMARK UNBOUND:                -3.491
REMARK SMILES CC[C@@H](C)[C@@H](NC(=O)[C@@H](O)Cc1ccc(O)c(Cl)c1)C(=O)N1[C@H](C(=O)NCCCCN=C(N)N)C[C@H]2CC[C@H](OS(=O)(=O)O)C[C@@H]21
REMARK SMILES IDX 22 1 36 2 46 3 35 4 23 5 45 6 37 7 39 8 38 9 20 10 21 11
REMARK SMILES IDX 5 12 6 13 7 14 8 15 9 17 11 18 12 19 17 20 19 21 15 22 14 23
REMARK SMILES IDX 13 24 18 25 16 26 10 28 3 30 4 31 2 32 1 33 24 34 25 35
REMARK SMILES IDX 26 36 27 38 28 39 29 40 30 41 31 42 32 43 33 44 34 45 40 50
REMARK SMILES IDX 41 51 42 52 43 53 44 54
REMARK H PARENT 6 16 16 27 10 29 26 37 33 46 33 47 34 48 34 49 44 55
ROOT
ATOM      1  N   UNL     1     -15.472  -5.011   2.636  1.00  0.00    -0.326 N 
ATOM      2  C   UNL     1     -13.336  -5.116   3.620  1.00  0.00     0.014 C 
ATOM      3  C   UNL     1     -14.393  -5.965   2.908  1.00  0.00     0.091 C 
ATOM      4  C   UNL     1     -14.178  -4.135   4.422  1.00  0.00     0.041 C 
ATOM      5  C   UNL     1     -15.220  -3.740   3.359  1.00  0.00     0.175 C 
ATOM      6  C   UNL     1     -13.731  -6.667   1.724  1.00  0.00     0.059 C 
ATOM      7  C   UNL     1     -12.331  -5.994   4.340  1.00  0.00     0.008 C 
ATOM      8  C   UNL     1     -12.244  -7.012   1.958  1.00  0.00     0.143 C 
ATOM      9  C   UNL     1     -11.919  -7.189   3.454  1.00  0.00     0.034 C 
ENDROOT
BRANCH   1  10
ATOM     10  C   UNL     1     -16.699  -5.209   2.027  1.00  0.00     0.246 C 
ATOM     11  O   UNL     1     -17.360  -4.227   1.673  1.00  0.00    -0.272 OA
BRANCH  10  12
ATOM     12  C   UNL     1     -17.200  -6.659   1.765  1.00  0.00     0.174 C 
BRANCH  12  13
ATOM     13  N   UNL     1     -18.184  -6.658   0.683  1.00  0.00    -0.342 N 
ATOM     14  C   UNL     1     -17.997  -7.228  -0.556  1.00  0.00     0.249 C 
ATOM     15  O   UNL     1     -16.982  -7.830  -0.883  1.00  0.00    -0.272 OA
ATOM     16  H   UNL     1     -19.007  -6.065   0.751  1.00  0.00     0.164 HD
BRANCH  14  17
ATOM     17  C   UNL     1     -19.215  -7.045  -1.487  1.00  0.00     0.207 C 
BRANCH  17  18
ATOM     18  C   UNL     1     -18.834  -6.201  -2.708  1.00  0.00     0.077 C 
BRANCH  18  19
ATOM     19  C   UNL     1     -18.708  -7.045  -3.956  1.00  0.00    -0.043 A 
ATOM     20  C   UNL     1     -19.465  -8.897  -5.328  1.00  0.00     0.083 A 
ATOM     21  C   UNL     1     -19.614  -8.089  -4.200  1.00  0.00     0.028 A 
ATOM     22  C   UNL     1     -18.412  -8.670  -6.216  1.00  0.00     0.134 A 
ATOM     23  C   UNL     1     -17.508  -7.640  -5.986  1.00  0.00     0.048 A 
ATOM     24  C   UNL     1     -17.653  -6.831  -4.857  1.00  0.00     0.008 A 
ATOM     25  Cl  UNL     1     -20.588 -10.174  -5.611  1.00  0.00    -0.080 Cl
BRANCH  22  26
ATOM     26  O   UNL     1     -18.219  -9.443  -7.329  1.00  0.00    -0.506 OA
ATOM     27  H   UNL     1     -18.986 -10.043  -7.390  1.00  0.00     0.293 HD
ENDBRANCH  22  26
ENDBRANCH  18  19
ENDBRANCH  17  18
BRANCH  17  28
ATOM     28  O   UNL     1     -20.305  -6.415  -0.794  1.00  0.00    -0.383 OA
ATOM     29  H   UNL     1     -19.950  -6.145   0.083  1.00  0.00     0.211 HD
ENDBRANCH  17  28
ENDBRANCH  14  17
ENDBRANCH  12  13
BRANCH  12  30
ATOM     30  C   UNL     1     -17.731  -7.352   3.048  1.00  0.00     0.018 C 
ATOM     31  C   UNL     1     -17.845  -8.870   2.842  1.00  0.00     0.010 C 
BRANCH  30  32
ATOM     32  C   UNL     1     -19.080  -6.781   3.550  1.00  0.00     0.002 C 
ATOM     33  C   UNL     1     -19.870  -7.695   4.477  1.00  0.00     0.004 C 
ENDBRANCH  30  32
ENDBRANCH  12  30
ENDBRANCH  10  12
ENDBRANCH   1  10
BRANCH   5  34
ATOM     34  C   UNL     1     -14.669  -2.657   2.393  1.00  0.00     0.242 C 
ATOM     35  O   UNL     1     -14.289  -1.555   2.787  1.00  0.00    -0.273 OA
ATOM     36  N   UNL     1     -14.686  -2.999   1.059  1.00  0.00    -0.354 N 
ATOM     37  H   UNL     1     -15.123  -3.879   0.783  1.00  0.00     0.163 HD
BRANCH  36  38
ATOM     38  C   UNL     1     -14.017  -2.206   0.049  1.00  0.00     0.116 C 
BRANCH  38  39
ATOM     39  C   UNL     1     -14.964  -1.953  -1.122  1.00  0.00     0.023 C 
BRANCH  39  40
ATOM     40  C   UNL     1     -14.872  -0.524  -1.648  1.00  0.00     0.026 C 
BRANCH  40  41
ATOM     41  C   UNL     1     -16.035   0.320  -1.129  1.00  0.00     0.146 C 
BRANCH  41  42
ATOM     42  N   UNL     1     -15.738   0.796   0.215  1.00  0.00    -0.254 NA
ATOM     43  C   UNL     1     -16.473   0.426   1.195  1.00  0.00     0.185 C 
ATOM     44  N   UNL     1     -17.549  -0.382   1.213  1.00  0.00    -0.370 N 
ATOM     45  N   UNL     1     -16.185   0.879   2.427  1.00  0.00    -0.370 N 
ATOM     46  H   UNL     1     -18.171  -0.391   2.003  1.00  0.00     0.159 HD
ATOM     47  H   UNL     1     -17.897  -0.824   0.368  1.00  0.00     0.159 HD
ATOM     48  H   UNL     1     -15.382   1.489   2.503  1.00  0.00     0.159 HD
ATOM     49  H   UNL     1     -16.553   0.459   3.261  1.00  0.00     0.159 HD
ENDBRANCH  41  42
ENDBRANCH  40  41
ENDBRANCH  39  40
ENDBRANCH  38  39
ENDBRANCH  36  38
ENDBRANCH   5  34
BRANCH   8  50
ATOM     50  O   UNL     1     -11.413  -5.977   1.432  1.00  0.00    -0.245 OA
BRANCH  50  51
ATOM     51  S   UNL     1     -10.305  -6.335   0.296  1.00  0.00     0.397 S 
ATOM     52  O   UNL     1      -9.574  -5.127  -0.011  1.00  0.00    -0.169 OA
ATOM     53  O   UNL     1     -10.916  -7.139  -0.742  1.00  0.00    -0.169 OA
BRANCH  51  54
ATOM     54  O   UNL     1      -9.281  -7.272   1.110  1.00  0.00    -0.264 OA
ATOM     55  H   UNL     1      -9.090  -8.056   0.556  1.00  0.00     0.236 HD
ENDBRANCH  51  54
ENDBRANCH  50  51
ENDBRANCH   8  50
TORSDOF 19
ENDMDL
MODEL 13
REMARK VINA RESULT:    -7.068     17.642     21.985
REMARK INTER + INTRA:         -17.789
REMARK INTER:                 -14.594
REMARK INTRA:                  -3.195
REMARK UNBOUND:                -3.491
REMARK SMILES CC[C@@H](C)[C@@H](NC(=O)[C@@H](O)Cc1ccc(O)c(Cl)c1)C(=O)N1[C@H](C(=O)NCCCCN=C(N)N)C[C@H]2CC[C@H](OS(=O)(=O)O)C[C@@H]21
REMARK SMILES IDX 22 1 36 2 46 3 35 4 23 5 45 6 37 7 39 8 38 9 20 10 21 11
REMARK SMILES IDX 5 12 6 13 7 14 8 15 9 17 11 18 12 19 17 20 19 21 15 22 14 23
REMARK SMILES IDX 13 24 18 25 16 26 10 28 3 30 4 31 2 32 1 33 24 34 25 35
REMARK SMILES IDX 26 36 27 38 28 39 29 40 30 41 31 42 32 43 33 44 34 45 40 50
REMARK SMILES IDX 41 51 42 52 43 53 44 54
REMARK H PARENT 6 16 16 27 10 29 26 37 33 46 33 47 34 48 34 49 44 55
ROOT
ATOM      1  N   UNL     1     -17.124  -8.053   3.425  1.00  0.00    -0.326 N 
ATOM      2  C   UNL     1     -17.794  -9.933   4.674  1.00  0.00     0.014 C 
ATOM      3  C   UNL     1     -16.921  -8.677   4.736  1.00  0.00     0.091 C 
ATOM      4  C   UNL     1     -17.677 -10.351   3.216  1.00  0.00     0.041 C 
ATOM      5  C   UNL     1     -17.850  -8.984   2.526  1.00  0.00     0.175 C 
ATOM      6  C   UNL     1     -17.305  -7.883   5.983  1.00  0.00     0.059 C 
ATOM      7  C   UNL     1     -17.409 -10.916   5.762  1.00  0.00     0.008 C 
ATOM      8  C   UNL     1     -17.776  -8.764   7.160  1.00  0.00     0.143 C 
ATOM      9  C   UNL     1     -17.174 -10.182   7.099  1.00  0.00     0.034 C 
ENDROOT
BRANCH   1  10
ATOM     10  C   UNL     1     -16.574  -6.898   2.897  1.00  0.00     0.246 C 
ATOM     11  O   UNL     1     -17.290  -6.138   2.236  1.00  0.00    -0.272 OA
BRANCH  10  12
ATOM     12  C   UNL     1     -15.082  -6.559   3.182  1.00  0.00     0.174 C 
BRANCH  12  13
ATOM     13  N   UNL     1     -14.939  -5.129   3.457  1.00  0.00    -0.342 N 
ATOM     14  C   UNL     1     -15.139  -4.536   4.683  1.00  0.00     0.249 C 
ATOM     15  O   UNL     1     -15.437  -5.154   5.699  1.00  0.00    -0.272 OA
ATOM     16  H   UNL     1     -14.850  -4.474   2.684  1.00  0.00     0.164 HD
BRANCH  14  17
ATOM     17  C   UNL     1     -14.928  -3.008   4.648  1.00  0.00     0.207 C 
BRANCH  17  18
ATOM     18  C   UNL     1     -13.986  -2.624   3.502  1.00  0.00     0.077 C 
BRANCH  18  19
ATOM     19  C   UNL     1     -14.540  -1.484   2.677  1.00  0.00    -0.043 A 
ATOM     20  C   UNL     1     -14.624  -0.242   0.596  1.00  0.00     0.083 A 
ATOM     21  C   UNL     1     -14.150  -1.323   1.339  1.00  0.00     0.028 A 
ATOM     22  C   UNL     1     -15.487   0.684   1.183  1.00  0.00     0.134 A 
ATOM     23  C   UNL     1     -15.882   0.537   2.507  1.00  0.00     0.048 A 
ATOM     24  C   UNL     1     -15.407  -0.543   3.254  1.00  0.00     0.008 A 
ATOM     25  Cl  UNL     1     -14.133  -0.061  -1.048  1.00  0.00    -0.080 Cl
BRANCH  22  26
ATOM     26  O   UNL     1     -15.970   1.766   0.497  1.00  0.00    -0.506 OA
ATOM     27  H   UNL     1     -16.669   2.160   1.051  1.00  0.00     0.293 HD
ENDBRANCH  22  26
ENDBRANCH  18  19
ENDBRANCH  17  18
BRANCH  17  28
ATOM     28  O   UNL     1     -14.387  -2.531   5.890  1.00  0.00    -0.383 OA
ATOM     29  H   UNL     1     -13.408  -2.582   5.798  1.00  0.00     0.211 HD
ENDBRANCH  17  28
ENDBRANCH  14  17
ENDBRANCH  12  13
BRANCH  12  30
ATOM     30  C   UNL     1     -14.130  -7.043   2.055  1.00  0.00     0.018 C 
ATOM     31  C   UNL     1     -14.025  -8.576   2.051  1.00  0.00     0.010 C 
BRANCH  30  32
ATOM     32  C   UNL     1     -12.718  -6.413   2.120  1.00  0.00     0.002 C 
ATOM     33  C   UNL     1     -12.377  -5.459   0.982  1.00  0.00     0.004 C 
ENDBRANCH  30  32
ENDBRANCH  12  30
ENDBRANCH  10  12
ENDBRANCH   1  10
BRANCH   5  34
ATOM     34  C   UNL     1     -19.345  -8.586   2.413  1.00  0.00     0.242 C 
ATOM     35  O   UNL     1     -19.891  -7.840   3.226  1.00  0.00    -0.273 OA
ATOM     36  N   UNL     1     -20.029  -9.170   1.370  1.00  0.00    -0.354 N 
ATOM     37  H   UNL     1     -19.554  -9.872   0.803  1.00  0.00     0.163 HD
BRANCH  36  38
ATOM     38  C   UNL     1     -21.362  -8.750   0.988  1.00  0.00     0.116 C 
BRANCH  38  39
ATOM     39  C   UNL     1     -21.314  -8.045  -0.365  1.00  0.00     0.023 C 
BRANCH  39  40
ATOM     40  C   UNL     1     -20.599  -8.872  -1.428  1.00  0.00     0.026 C 
BRANCH  40  41
ATOM     41  C   UNL     1     -19.522  -8.042  -2.127  1.00  0.00     0.146 C 
BRANCH  41  42
ATOM     42  N   UNL     1     -18.739  -7.317  -1.136  1.00  0.00    -0.254 NA
ATOM     43  C   UNL     1     -18.319  -6.137  -1.400  1.00  0.00     0.185 C 
ATOM     44  N   UNL     1     -18.482  -5.388  -2.506  1.00  0.00    -0.370 N 
ATOM     45  N   UNL     1     -17.594  -5.487  -0.475  1.00  0.00    -0.370 N 
ATOM     46  H   UNL     1     -17.898  -4.586  -2.673  1.00  0.00     0.159 HD
ATOM     47  H   UNL     1     -19.017  -5.721  -3.302  1.00  0.00     0.159 HD
ATOM     48  H   UNL     1     -17.432  -5.978   0.394  1.00  0.00     0.159 HD
ATOM     49  H   UNL     1     -17.436  -4.495  -0.506  1.00  0.00     0.159 HD
ENDBRANCH  41  42
ENDBRANCH  40  41
ENDBRANCH  39  40
ENDBRANCH  38  39
ENDBRANCH  36  38
ENDBRANCH   5  34
BRANCH   8  50
ATOM     50  O   UNL     1     -19.200  -8.875   7.150  1.00  0.00    -0.245 OA
BRANCH  50  51
ATOM     51  S   UNL     1     -20.035  -8.615   8.521  1.00  0.00     0.397 S 
ATOM     52  O   UNL     1     -20.331  -9.899   9.114  1.00  0.00    -0.169 OA
ATOM     53  O   UNL     1     -21.072  -7.633   8.280  1.00  0.00    -0.169 OA
BRANCH  51  54
ATOM     54  O   UNL     1     -18.924  -7.940   9.468  1.00  0.00    -0.264 OA
ATOM     55  H   UNL     1     -19.378  -7.604  10.268  1.00  0.00     0.236 HD
ENDBRANCH  51  54
ENDBRANCH  50  51
ENDBRANCH   8  50
TORSDOF 19
ENDMDL
MODEL 14
REMARK VINA RESULT:    -7.052     15.980     20.730
REMARK INTER + INTRA:         -17.756
REMARK INTER:                 -13.822
REMARK INTRA:                  -3.935
REMARK UNBOUND:                -3.491
REMARK SMILES CC[C@@H](C)[C@@H](NC(=O)[C@@H](O)Cc1ccc(O)c(Cl)c1)C(=O)N1[C@H](C(=O)NCCCCN=C(N)N)C[C@H]2CC[C@H](OS(=O)(=O)O)C[C@@H]21
REMARK SMILES IDX 22 1 36 2 46 3 35 4 23 5 45 6 37 7 39 8 38 9 20 10 21 11
REMARK SMILES IDX 5 12 6 13 7 14 8 15 9 17 11 18 12 19 17 20 19 21 15 22 14 23
REMARK SMILES IDX 13 24 18 25 16 26 10 28 3 30 4 31 2 32 1 33 24 34 25 35
REMARK SMILES IDX 26 36 27 38 28 39 29 40 30 41 31 42 32 43 33 44 34 45 40 50
REMARK SMILES IDX 41 51 42 52 43 53 44 54
REMARK H PARENT 6 16 16 27 10 29 26 37 33 46 33 47 34 48 34 49 44 55
ROOT
ATOM      1  N   UNL     1     -17.070  -7.708   2.597  1.00  0.00    -0.326 N 
ATOM      2  C   UNL     1     -18.958  -6.780   3.653  1.00  0.00     0.014 C 
ATOM      3  C   UNL     1     -18.390  -8.092   3.106  1.00  0.00     0.091 C 
ATOM      4  C   UNL     1     -18.398  -5.745   2.689  1.00  0.00     0.041 C 
ATOM      5  C   UNL     1     -16.941  -6.230   2.585  1.00  0.00     0.175 C 
ATOM      6  C   UNL     1     -18.462  -9.147   4.209  1.00  0.00     0.059 C 
ATOM      7  C   UNL     1     -20.458  -6.878   3.850  1.00  0.00     0.008 C 
ATOM      8  C   UNL     1     -19.658  -8.963   5.167  1.00  0.00     0.143 C 
ATOM      9  C   UNL     1     -20.835  -8.231   4.491  1.00  0.00     0.034 C 
ENDROOT
BRANCH   1  10
ATOM     10  C   UNL     1     -16.103  -8.475   1.970  1.00  0.00     0.246 C 
ATOM     11  O   UNL     1     -16.193  -8.681   0.755  1.00  0.00    -0.272 OA
BRANCH  10  12
ATOM     12  C   UNL     1     -14.904  -9.024   2.797  1.00  0.00     0.174 C 
BRANCH  12  13
ATOM     13  N   UNL     1     -13.645  -8.536   2.235  1.00  0.00    -0.342 N 
ATOM     14  C   UNL     1     -12.766  -7.694   2.879  1.00  0.00     0.249 C 
ATOM     15  O   UNL     1     -12.932  -7.279   4.019  1.00  0.00    -0.272 OA
ATOM     16  H   UNL     1     -13.450  -8.668   1.246  1.00  0.00     0.164 HD
BRANCH  14  17
ATOM     17  C   UNL     1     -11.535  -7.345   2.016  1.00  0.00     0.207 C 
BRANCH  17  18
ATOM     18  C   UNL     1     -11.963  -6.590   0.753  1.00  0.00     0.077 C 
BRANCH  18  19
ATOM     19  C   UNL     1     -12.207  -5.124   1.031  1.00  0.00    -0.043 A 
ATOM     20  C   UNL     1     -13.582  -3.139   0.796  1.00  0.00     0.083 A 
ATOM     21  C   UNL     1     -13.383  -4.504   0.581  1.00  0.00     0.028 A 
ATOM     22  C   UNL     1     -12.611  -2.387   1.457  1.00  0.00     0.134 A 
ATOM     23  C   UNL     1     -11.441  -2.989   1.908  1.00  0.00     0.048 A 
ATOM     24  C   UNL     1     -11.238  -4.354   1.693  1.00  0.00     0.008 A 
ATOM     25  Cl  UNL     1     -15.034  -2.396   0.236  1.00  0.00    -0.080 Cl
BRANCH  22  26
ATOM     26  O   UNL     1     -12.757  -1.045   1.681  1.00  0.00    -0.506 OA
ATOM     27  H   UNL     1     -12.941  -0.635   0.816  1.00  0.00     0.293 HD
ENDBRANCH  22  26
ENDBRANCH  18  19
ENDBRANCH  17  18
BRANCH  17  28
ATOM     28  O   UNL     1     -10.813  -8.529   1.642  1.00  0.00    -0.383 OA
ATOM     29  H   UNL     1     -10.751  -8.511   0.660  1.00  0.00     0.211 HD
ENDBRANCH  17  28
ENDBRANCH  14  17
ENDBRANCH  12  13
BRANCH  12  30
ATOM     30  C   UNL     1     -14.930 -10.570   2.937  1.00  0.00     0.018 C 
ATOM     31  C   UNL     1     -16.205 -11.154   2.309  1.00  0.00     0.010 C 
BRANCH  30  32
ATOM     32  C   UNL     1     -14.781 -11.065   4.396  1.00  0.00     0.002 C 
ATOM     33  C   UNL     1     -15.073 -10.024   5.469  1.00  0.00     0.004 C 
ENDBRANCH  30  32
ENDBRANCH  12  30
ENDBRANCH  10  12
ENDBRANCH   1  10
BRANCH   5  34
ATOM     34  C   UNL     1     -16.088  -5.743   3.786  1.00  0.00     0.242 C 
ATOM     35  O   UNL     1     -16.013  -6.375   4.840  1.00  0.00    -0.273 OA
ATOM     36  N   UNL     1     -15.466  -4.527   3.608  1.00  0.00    -0.354 N 
ATOM     37  H   UNL     1     -15.663  -3.994   2.760  1.00  0.00     0.163 HD
BRANCH  36  38
ATOM     38  C   UNL     1     -14.468  -4.027   4.530  1.00  0.00     0.116 C 
BRANCH  38  39
ATOM     39  C   UNL     1     -14.558  -2.505   4.617  1.00  0.00     0.023 C 
BRANCH  39  40
ATOM     40  C   UNL     1     -15.663  -1.936   3.733  1.00  0.00     0.026 C 
BRANCH  40  41
ATOM     41  C   UNL     1     -15.713  -0.412   3.842  1.00  0.00     0.146 C 
BRANCH  41  42
ATOM     42  N   UNL     1     -15.207   0.187   2.614  1.00  0.00    -0.254 NA
ATOM     43  C   UNL     1     -16.031   0.638   1.744  1.00  0.00     0.185 C 
ATOM     44  N   UNL     1     -17.376   0.664   1.757  1.00  0.00    -0.370 N 
ATOM     45  N   UNL     1     -15.544   1.182   0.617  1.00  0.00    -0.370 N 
ATOM     46  H   UNL     1     -17.894   0.822   0.910  1.00  0.00     0.159 HD
ATOM     47  H   UNL     1     -17.908   0.304   2.544  1.00  0.00     0.159 HD
ATOM     48  H   UNL     1     -14.537   1.211   0.530  1.00  0.00     0.159 HD
ATOM     49  H   UNL     1     -16.097   1.761   0.009  1.00  0.00     0.159 HD
ENDBRANCH  41  42
ENDBRANCH  40  41
ENDBRANCH  39  40
ENDBRANCH  38  39
ENDBRANCH  36  38
ENDBRANCH   5  34
BRANCH   8  50
ATOM     50  O   UNL     1     -19.257  -8.214   6.314  1.00  0.00    -0.245 OA
BRANCH  50  51
ATOM     51  S   UNL     1     -19.936  -8.532   7.758  1.00  0.00     0.397 S 
ATOM     52  O   UNL     1     -20.200  -9.951   7.824  1.00  0.00    -0.169 OA
ATOM     53  O   UNL     1     -20.966  -7.553   8.037  1.00  0.00    -0.169 OA
BRANCH  51  54
ATOM     54  O   UNL     1     -18.714  -8.266   8.769  1.00  0.00    -0.264 OA
ATOM     55  H   UNL     1     -19.093  -8.028   9.639  1.00  0.00     0.236 HD
ENDBRANCH  51  54
ENDBRANCH  50  51
ENDBRANCH   8  50
TORSDOF 19
ENDMDL
MODEL 15
REMARK VINA RESULT:    -7.029      5.835     10.017
REMARK INTER + INTRA:         -17.710
REMARK INTER:                 -15.975
REMARK INTRA:                  -1.735
REMARK UNBOUND:                -3.491
REMARK SMILES CC[C@@H](C)[C@@H](NC(=O)[C@@H](O)Cc1ccc(O)c(Cl)c1)C(=O)N1[C@H](C(=O)NCCCCN=C(N)N)C[C@H]2CC[C@H](OS(=O)(=O)O)C[C@@H]21
REMARK SMILES IDX 22 1 36 2 46 3 35 4 23 5 45 6 37 7 39 8 38 9 20 10 21 11
REMARK SMILES IDX 5 12 6 13 7 14 8 15 9 17 11 18 12 19 17 20 19 21 15 22 14 23
REMARK SMILES IDX 13 24 18 25 16 26 10 28 3 30 4 31 2 32 1 33 24 34 25 35
REMARK SMILES IDX 26 36 27 38 28 39 29 40 30 41 31 42 32 43 33 44 34 45 40 50
REMARK SMILES IDX 41 51 42 52 43 53 44 54
REMARK H PARENT 6 16 16 27 10 29 26 37 33 46 33 47 34 48 34 49 44 55
ROOT
ATOM      1  N   UNL     1      -2.221  -7.167  -0.102  1.00  0.00    -0.326 N 
ATOM      2  C   UNL     1      -0.344  -5.940   0.612  1.00  0.00     0.014 C 
ATOM      3  C   UNL     1      -1.265  -6.169  -0.589  1.00  0.00     0.091 C 
ATOM      4  C   UNL     1      -0.279  -7.318   1.252  1.00  0.00     0.041 C 
ATOM      5  C   UNL     1      -1.767  -7.712   1.201  1.00  0.00     0.175 C 
ATOM      6  C   UNL     1      -1.804  -4.815  -1.050  1.00  0.00     0.059 C 
ATOM      7  C   UNL     1       0.941  -5.256   0.187  1.00  0.00     0.008 C 
ATOM      8  C   UNL     1      -0.821  -3.646  -0.823  1.00  0.00     0.143 C 
ATOM      9  C   UNL     1       0.647  -4.117  -0.811  1.00  0.00     0.034 C 
ENDROOT
BRANCH   1  10
ATOM     10  C   UNL     1      -3.280  -7.775  -0.755  1.00  0.00     0.246 C 
ATOM     11  O   UNL     1      -4.419  -7.661  -0.290  1.00  0.00    -0.272 OA
BRANCH  10  12
ATOM     12  C   UNL     1      -3.021  -8.550  -2.080  1.00  0.00     0.174 C 
BRANCH  12  13
ATOM     13  N   UNL     1      -3.618  -7.830  -3.204  1.00  0.00    -0.342 N 
ATOM     14  C   UNL     1      -2.929  -7.021  -4.079  1.00  0.00     0.249 C 
ATOM     15  O   UNL     1      -1.719  -6.835  -4.029  1.00  0.00    -0.272 OA
ATOM     16  H   UNL     1      -4.630  -7.762  -3.278  1.00  0.00     0.164 HD
BRANCH  14  17
ATOM     17  C   UNL     1      -3.843  -6.387  -5.149  1.00  0.00     0.207 C 
BRANCH  17  18
ATOM     18  C   UNL     1      -3.331  -6.717  -6.555  1.00  0.00     0.077 C 
BRANCH  18  19
ATOM     19  C   UNL     1      -3.837  -8.058  -7.037  1.00  0.00    -0.043 A 
ATOM     20  C   UNL     1      -5.644  -9.451  -7.861  1.00  0.00     0.083 A 
ATOM     21  C   UNL     1      -5.167  -8.201  -7.464  1.00  0.00     0.028 A 
ATOM     22  C   UNL     1      -4.801 -10.562  -7.832  1.00  0.00     0.134 A 
ATOM     23  C   UNL     1      -3.482 -10.434  -7.412  1.00  0.00     0.048 A 
ATOM     24  C   UNL     1      -3.002  -9.185  -7.012  1.00  0.00     0.008 A 
ATOM     25  Cl  UNL     1      -7.281  -9.607  -8.382  1.00  0.00    -0.080 Cl
BRANCH  22  26
ATOM     26  O   UNL     1      -5.227 -11.809  -8.202  1.00  0.00    -0.506 OA
ATOM     27  H   UNL     1      -4.537 -12.437  -7.916  1.00  0.00     0.293 HD
ENDBRANCH  22  26
ENDBRANCH  18  19
ENDBRANCH  17  18
BRANCH  17  28
ATOM     28  O   UNL     1      -3.913  -4.960  -4.990  1.00  0.00    -0.383 OA
ATOM     29  H   UNL     1      -4.000  -4.799  -4.023  1.00  0.00     0.211 HD
ENDBRANCH  17  28
ENDBRANCH  14  17
ENDBRANCH  12  13
BRANCH  12  30
ATOM     30  C   UNL     1      -3.486 -10.030  -2.010  1.00  0.00     0.018 C 
ATOM     31  C   UNL     1      -2.342 -10.981  -2.395  1.00  0.00     0.010 C 
BRANCH  30  32
ATOM     32  C   UNL     1      -4.738 -10.329  -2.870  1.00  0.00     0.002 C 
ATOM     33  C   UNL     1      -4.566 -11.427  -3.911  1.00  0.00     0.004 C 
ENDBRANCH  30  32
ENDBRANCH  12  30
ENDBRANCH  10  12
ENDBRANCH   1  10
BRANCH   5  34
ATOM     34  C   UNL     1      -2.567  -7.078   2.371  1.00  0.00     0.242 C 
ATOM     35  O   UNL     1      -3.796  -7.122   2.428  1.00  0.00    -0.273 OA
ATOM     36  N   UNL     1      -1.807  -6.417   3.310  1.00  0.00    -0.354 N 
ATOM     37  H   UNL     1      -0.805  -6.312   3.145  1.00  0.00     0.163 HD
BRANCH  36  38
ATOM     38  C   UNL     1      -2.359  -5.958   4.567  1.00  0.00     0.116 C 
BRANCH  38  39
ATOM     39  C   UNL     1      -3.352  -4.826   4.315  1.00  0.00     0.023 C 
BRANCH  39  40
ATOM     40  C   UNL     1      -4.659  -5.016   5.077  1.00  0.00     0.026 C 
BRANCH  40  41
ATOM     41  C   UNL     1      -4.506  -6.088   6.156  1.00  0.00     0.146 C 
BRANCH  41  42
ATOM     42  N   UNL     1      -4.816  -5.519   7.462  1.00  0.00    -0.254 NA
ATOM     43  C   UNL     1      -5.929  -5.803   8.027  1.00  0.00     0.185 C 
ATOM     44  N   UNL     1      -6.938  -6.588   7.608  1.00  0.00    -0.370 N 
ATOM     45  N   UNL     1      -6.198  -5.266   9.229  1.00  0.00    -0.370 N 
ATOM     46  H   UNL     1      -7.847  -6.527   8.034  1.00  0.00     0.159 HD
ATOM     47  H   UNL     1      -6.894  -7.085   6.723  1.00  0.00     0.159 HD
ATOM     48  H   UNL     1      -5.484  -4.667   9.622  1.00  0.00     0.159 HD
ATOM     49  H   UNL     1      -6.920  -5.616   9.832  1.00  0.00     0.159 HD
ENDBRANCH  41  42
ENDBRANCH  40  41
ENDBRANCH  39  40
ENDBRANCH  38  39
ENDBRANCH  36  38
ENDBRANCH   5  34
BRANCH   8  50
ATOM     50  O   UNL     1      -1.101  -3.004   0.421  1.00  0.00    -0.245 OA
BRANCH  50  51
ATOM     51  S   UNL     1      -0.536  -1.504   0.697  1.00  0.00     0.397 S 
ATOM     52  O   UNL     1       0.830  -1.620   1.156  1.00  0.00    -0.169 OA
ATOM     53  O   UNL     1      -1.522  -0.740   1.432  1.00  0.00    -0.169 OA
BRANCH  51  54
ATOM     54  O   UNL     1      -0.448  -0.900  -0.791  1.00  0.00    -0.264 OA
ATOM     55  H   UNL     1      -1.051  -0.130  -0.836  1.00  0.00     0.236 HD
ENDBRANCH  51  54
ENDBRANCH  50  51
ENDBRANCH   8  50
TORSDOF 19
ENDMDL
MODEL 16
REMARK VINA RESULT:    -7.003     15.502     19.936
REMARK INTER + INTRA:         -17.659
REMARK INTER:                 -15.010
REMARK INTRA:                  -2.649
REMARK UNBOUND:                -3.491
REMARK SMILES CC[C@@H](C)[C@@H](NC(=O)[C@@H](O)Cc1ccc(O)c(Cl)c1)C(=O)N1[C@H](C(=O)NCCCCN=C(N)N)C[C@H]2CC[C@H](OS(=O)(=O)O)C[C@@H]21
REMARK SMILES IDX 22 1 36 2 46 3 35 4 23 5 45 6 37 7 39 8 38 9 20 10 21 11
REMARK SMILES IDX 5 12 6 13 7 14 8 15 9 17 11 18 12 19 17 20 19 21 15 22 14 23
REMARK SMILES IDX 13 24 18 25 16 26 10 28 3 30 4 31 2 32 1 33 24 34 25 35
REMARK SMILES IDX 26 36 27 38 28 39 29 40 30 41 31 42 32 43 33 44 34 45 40 50
REMARK SMILES IDX 41 51 42 52 43 53 44 54
REMARK H PARENT 6 16 16 27 10 29 26 37 33 46 33 47 34 48 34 49 44 55
ROOT
ATOM      1  N   UNL     1     -15.991  -5.440   2.509  1.00  0.00    -0.326 N 
ATOM      2  C   UNL     1     -17.515  -6.994   3.408  1.00  0.00     0.014 C 
ATOM      3  C   UNL     1     -17.406  -5.563   2.874  1.00  0.00     0.091 C 
ATOM      4  C   UNL     1     -16.171  -7.200   4.090  1.00  0.00     0.041 C 
ATOM      5  C   UNL     1     -15.231  -6.605   3.025  1.00  0.00     0.175 C 
ATOM      6  C   UNL     1     -18.455  -5.375   1.779  1.00  0.00     0.059 C 
ATOM      7  C   UNL     1     -18.790  -7.179   4.206  1.00  0.00     0.008 C 
ATOM      8  C   UNL     1     -19.738  -6.205   1.998  1.00  0.00     0.143 C 
ATOM      9  C   UNL     1     -19.982  -6.510   3.490  1.00  0.00     0.034 C 
ENDROOT
BRANCH   1  10
ATOM     10  C   UNL     1     -15.299  -4.360   1.989  1.00  0.00     0.246 C 
ATOM     11  O   UNL     1     -14.504  -4.546   1.062  1.00  0.00    -0.272 OA
BRANCH  10  12
ATOM     12  C   UNL     1     -15.569  -2.934   2.550  1.00  0.00     0.174 C 
BRANCH  12  13
ATOM     13  N   UNL     1     -15.196  -1.928   1.556  1.00  0.00    -0.342 N 
ATOM     14  C   UNL     1     -15.978  -0.857   1.183  1.00  0.00     0.249 C 
ATOM     15  O   UNL     1     -17.075  -0.612   1.669  1.00  0.00    -0.272 OA
ATOM     16  H   UNL     1     -14.389  -2.086   0.958  1.00  0.00     0.164 HD
BRANCH  14  17
ATOM     17  C   UNL     1     -15.314   0.015   0.097  1.00  0.00     0.207 C 
BRANCH  17  18
ATOM     18  C   UNL     1     -15.670  -0.504  -1.300  1.00  0.00     0.077 C 
BRANCH  18  19
ATOM     19  C   UNL     1     -16.612   0.431  -2.024  1.00  0.00    -0.043 A 
ATOM     20  C   UNL     1     -17.232   1.660  -4.021  1.00  0.00     0.083 A 
ATOM     21  C   UNL     1     -16.390   0.758  -3.370  1.00  0.00     0.028 A 
ATOM     22  C   UNL     1     -18.299   2.240  -3.333  1.00  0.00     0.134 A 
ATOM     23  C   UNL     1     -18.531   1.925  -1.999  1.00  0.00     0.048 A 
ATOM     24  C   UNL     1     -17.688   1.024  -1.345  1.00  0.00     0.008 A 
ATOM     25  Cl  UNL     1     -16.943   2.050  -5.676  1.00  0.00    -0.080 Cl
BRANCH  22  26
ATOM     26  O   UNL     1     -19.145   3.138  -3.926  1.00  0.00    -0.506 OA
ATOM     27  H   UNL     1     -19.952   3.165  -3.379  1.00  0.00     0.293 HD
ENDBRANCH  22  26
ENDBRANCH  18  19
ENDBRANCH  17  18
BRANCH  17  28
ATOM     28  O   UNL     1     -13.885   0.032   0.249  1.00  0.00    -0.383 OA
ATOM     29  H   UNL     1     -13.534   0.511  -0.536  1.00  0.00     0.211 HD
ENDBRANCH  17  28
ENDBRANCH  14  17
ENDBRANCH  12  13
BRANCH  12  30
ATOM     30  C   UNL     1     -14.887  -2.690   3.923  1.00  0.00     0.018 C 
ATOM     31  C   UNL     1     -15.527  -1.495   4.647  1.00  0.00     0.010 C 
BRANCH  30  32
ATOM     32  C   UNL     1     -13.354  -2.498   3.830  1.00  0.00     0.002 C 
ATOM     33  C   UNL     1     -12.519  -3.688   4.283  1.00  0.00     0.004 C 
ENDBRANCH  30  32
ENDBRANCH  12  30
ENDBRANCH  10  12
ENDBRANCH   1  10
BRANCH   5  34
ATOM     34  C   UNL     1     -14.940  -7.620   1.888  1.00  0.00     0.242 C 
ATOM     35  O   UNL     1     -15.383  -7.476   0.748  1.00  0.00    -0.273 OA
ATOM     36  N   UNL     1     -14.198  -8.719   2.258  1.00  0.00    -0.354 N 
ATOM     37  H   UNL     1     -13.961  -8.842   3.244  1.00  0.00     0.163 HD
BRANCH  36  38
ATOM     38  C   UNL     1     -13.654  -9.648   1.289  1.00  0.00     0.116 C 
BRANCH  38  39
ATOM     39  C   UNL     1     -12.206  -9.281   0.974  1.00  0.00     0.023 C 
BRANCH  39  40
ATOM     40  C   UNL     1     -11.610  -8.325   2.003  1.00  0.00     0.026 C 
BRANCH  40  41
ATOM     41  C   UNL     1     -10.778  -7.241   1.318  1.00  0.00     0.146 C 
BRANCH  41  42
ATOM     42  N   UNL     1     -11.521  -5.988   1.301  1.00  0.00    -0.254 NA
ATOM     43  C   UNL     1     -11.005  -4.954   0.750  1.00  0.00     0.185 C 
ATOM     44  N   UNL     1      -9.816  -4.802   0.137  1.00  0.00    -0.370 N 
ATOM     45  N   UNL     1     -11.704  -3.807   0.748  1.00  0.00    -0.370 N 
ATOM     46  H   UNL     1      -9.440  -3.885  -0.031  1.00  0.00     0.159 HD
ATOM     47  H   UNL     1      -9.166  -5.575   0.037  1.00  0.00     0.159 HD
ATOM     48  H   UNL     1     -12.616  -3.837   1.183  1.00  0.00     0.159 HD
ATOM     49  H   UNL     1     -11.482  -3.036   0.144  1.00  0.00     0.159 HD
ENDBRANCH  41  42
ENDBRANCH  40  41
ENDBRANCH  39  40
ENDBRANCH  38  39
ENDBRANCH  36  38
ENDBRANCH   5  34
BRANCH   8  50
ATOM     50  O   UNL     1     -19.647  -7.443   1.291  1.00  0.00    -0.245 OA
BRANCH  50  51
ATOM     51  S   UNL     1     -20.949  -8.011   0.498  1.00  0.00     0.397 S 
ATOM     52  O   UNL     1     -21.554  -6.909  -0.214  1.00  0.00    -0.169 OA
ATOM     53  O   UNL     1     -21.721  -8.862   1.380  1.00  0.00    -0.169 OA
BRANCH  51  54
ATOM     54  O   UNL     1     -20.276  -8.943  -0.626  1.00  0.00    -0.264 OA
ATOM     55  H   UNL     1     -20.987  -9.247  -1.226  1.00  0.00     0.236 HD
ENDBRANCH  51  54
ENDBRANCH  50  51
ENDBRANCH   8  50
TORSDOF 19
ENDMDL
MODEL 17
REMARK VINA RESULT:    -6.999     12.826     17.677
REMARK INTER + INTRA:         -17.650
REMARK INTER:                 -14.703
REMARK INTRA:                  -2.947
REMARK UNBOUND:                -3.491
REMARK SMILES CC[C@@H](C)[C@@H](NC(=O)[C@@H](O)Cc1ccc(O)c(Cl)c1)C(=O)N1[C@H](C(=O)NCCCCN=C(N)N)C[C@H]2CC[C@H](OS(=O)(=O)O)C[C@@H]21
REMARK SMILES IDX 22 1 36 2 46 3 35 4 23 5 45 6 37 7 39 8 38 9 20 10 21 11
REMARK SMILES IDX 5 12 6 13 7 14 8 15 9 17 11 18 12 19 17 20 19 21 15 22 14 23
REMARK SMILES IDX 13 24 18 25 16 26 10 28 3 30 4 31 2 32 1 33 24 34 25 35
REMARK SMILES IDX 26 36 27 38 28 39 29 40 30 41 31 42 32 43 33 44 34 45 40 50
REMARK SMILES IDX 41 51 42 52 43 53 44 54
REMARK H PARENT 6 16 16 27 10 29 26 37 33 46 33 47 34 48 34 49 44 55
ROOT
ATOM      1  N   UNL     1     -11.598  -6.756   2.514  1.00  0.00    -0.326 N 
ATOM      2  C   UNL     1     -12.462  -4.770   3.439  1.00  0.00     0.014 C 
ATOM      3  C   UNL     1     -11.406  -5.303   2.467  1.00  0.00     0.091 C 
ATOM      4  C   UNL     1     -12.506  -5.849   4.510  1.00  0.00     0.041 C 
ATOM      5  C   UNL     1     -12.515  -7.110   3.626  1.00  0.00     0.175 C 
ATOM      6  C   UNL     1     -11.582  -4.593   1.126  1.00  0.00     0.059 C 
ATOM      7  C   UNL     1     -12.159  -3.339   3.837  1.00  0.00     0.008 C 
ATOM      8  C   UNL     1     -12.102  -3.145   1.253  1.00  0.00     0.143 C 
ATOM      9  C   UNL     1     -11.727  -2.512   2.608  1.00  0.00     0.034 C 
ENDROOT
BRANCH   1  10
ATOM     10  C   UNL     1     -10.915  -7.764   1.855  1.00  0.00     0.246 C 
ATOM     11  O   UNL     1     -10.391  -7.520   0.764  1.00  0.00    -0.272 OA
BRANCH  10  12
ATOM     12  C   UNL     1     -10.787  -9.165   2.521  1.00  0.00     0.174 C 
BRANCH  12  13
ATOM     13  N   UNL     1      -9.406  -9.390   2.947  1.00  0.00    -0.342 N 
ATOM     14  C   UNL     1      -8.987  -9.474   4.256  1.00  0.00     0.249 C 
ATOM     15  O   UNL     1      -9.739  -9.396   5.219  1.00  0.00    -0.272 OA
ATOM     16  H   UNL     1      -8.652  -9.318   2.269  1.00  0.00     0.164 HD
BRANCH  14  17
ATOM     17  C   UNL     1      -7.465  -9.698   4.380  1.00  0.00     0.207 C 
BRANCH  17  18
ATOM     18  C   UNL     1      -6.700  -8.636   3.585  1.00  0.00     0.077 C 
BRANCH  18  19
ATOM     19  C   UNL     1      -5.970  -7.671   4.493  1.00  0.00    -0.043 A 
ATOM     20  C   UNL     1      -5.545  -6.784   6.710  1.00  0.00     0.083 A 
ATOM     21  C   UNL     1      -6.181  -7.707   5.880  1.00  0.00     0.028 A 
ATOM     22  C   UNL     1      -4.697  -5.820   6.162  1.00  0.00     0.134 A 
ATOM     23  C   UNL     1      -4.479  -5.773   4.790  1.00  0.00     0.048 A 
ATOM     24  C   UNL     1      -5.116  -6.695   3.956  1.00  0.00     0.008 A 
ATOM     25  Cl  UNL     1      -5.817  -6.844   8.412  1.00  0.00    -0.080 Cl
BRANCH  22  26
ATOM     26  O   UNL     1      -4.059  -4.888   6.934  1.00  0.00    -0.506 OA
ATOM     27  H   UNL     1      -3.567  -5.379   7.617  1.00  0.00     0.293 HD
ENDBRANCH  22  26
ENDBRANCH  18  19
ENDBRANCH  17  18
BRANCH  17  28
ATOM     28  O   UNL     1      -7.094 -11.004   3.909  1.00  0.00    -0.383 OA
ATOM     29  H   UNL     1      -6.989 -11.563   4.713  1.00  0.00     0.211 HD
ENDBRANCH  17  28
ENDBRANCH  14  17
ENDBRANCH  12  13
BRANCH  12  30
ATOM     30  C   UNL     1     -11.322 -10.309   1.618  1.00  0.00     0.018 C 
ATOM     31  C   UNL     1     -12.858 -10.352   1.643  1.00  0.00     0.010 C 
BRANCH  30  32
ATOM     32  C   UNL     1     -10.744 -11.701   1.971  1.00  0.00     0.002 C 
ATOM     33  C   UNL     1     -10.864 -12.753   0.876  1.00  0.00     0.004 C 
ENDBRANCH  30  32
ENDBRANCH  12  30
ENDBRANCH  10  12
ENDBRANCH   1  10
BRANCH   5  34
ATOM     34  C   UNL     1     -13.937  -7.422   3.089  1.00  0.00     0.242 C 
ATOM     35  O   UNL     1     -14.738  -8.117   3.713  1.00  0.00    -0.273 OA
ATOM     36  N   UNL     1     -14.217  -6.910   1.841  1.00  0.00    -0.354 N 
ATOM     37  H   UNL     1     -13.471  -6.445   1.323  1.00  0.00     0.163 HD
BRANCH  36  38
ATOM     38  C   UNL     1     -15.554  -6.920   1.284  1.00  0.00     0.116 C 
BRANCH  38  39
ATOM     39  C   UNL     1     -16.160  -5.521   1.368  1.00  0.00     0.023 C 
BRANCH  39  40
ATOM     40  C   UNL     1     -16.848  -5.263   2.704  1.00  0.00     0.026 C 
BRANCH  40  41
ATOM     41  C   UNL     1     -15.981  -4.378   3.599  1.00  0.00     0.146 C 
BRANCH  41  42
ATOM     42  N   UNL     1     -16.191  -2.977   3.259  1.00  0.00    -0.254 NA
ATOM     43  C   UNL     1     -15.880  -2.067   4.104  1.00  0.00     0.185 C 
ATOM     44  N   UNL     1     -15.356  -2.175   5.339  1.00  0.00    -0.370 N 
ATOM     45  N   UNL     1     -16.086  -0.782   3.773  1.00  0.00    -0.370 N 
ATOM     46  H   UNL     1     -15.392  -1.401   5.980  1.00  0.00     0.159 HD
ATOM     47  H   UNL     1     -15.125  -3.077   5.743  1.00  0.00     0.159 HD
ATOM     48  H   UNL     1     -16.471  -0.612   2.854  1.00  0.00     0.159 HD
ATOM     49  H   UNL     1     -15.660  -0.018   4.266  1.00  0.00     0.159 HD
ENDBRANCH  41  42
ENDBRANCH  40  41
ENDBRANCH  39  40
ENDBRANCH  38  39
ENDBRANCH  36  38
ENDBRANCH   5  34
BRANCH   8  50
ATOM     50  O   UNL     1     -13.523  -3.122   1.119  1.00  0.00    -0.245 OA
BRANCH  50  51
ATOM     51  S   UNL     1     -14.220  -2.021   0.145  1.00  0.00     0.397 S 
ATOM     52  O   UNL     1     -14.246  -2.563  -1.195  1.00  0.00    -0.169 OA
ATOM     53  O   UNL     1     -13.672  -0.710   0.423  1.00  0.00    -0.169 OA
BRANCH  51  54
ATOM     54  O   UNL     1     -15.745  -2.040   0.654  1.00  0.00    -0.264 OA
ATOM     55  H   UNL     1     -16.248  -2.642   0.069  1.00  0.00     0.236 HD
ENDBRANCH  51  54
ENDBRANCH  50  51
ENDBRANCH   8  50
TORSDOF 19
ENDMDL
MODEL 18
REMARK VINA RESULT:    -6.994      3.802      9.279
REMARK INTER + INTRA:         -17.640
REMARK INTER:                 -15.329
REMARK INTRA:                  -2.311
REMARK UNBOUND:                -3.491
REMARK SMILES CC[C@@H](C)[C@@H](NC(=O)[C@@H](O)Cc1ccc(O)c(Cl)c1)C(=O)N1[C@H](C(=O)NCCCCN=C(N)N)C[C@H]2CC[C@H](OS(=O)(=O)O)C[C@@H]21
REMARK SMILES IDX 22 1 36 2 46 3 35 4 23 5 45 6 37 7 39 8 38 9 20 10 21 11
REMARK SMILES IDX 5 12 6 13 7 14 8 15 9 17 11 18 12 19 17 20 19 21 15 22 14 23
REMARK SMILES IDX 13 24 18 25 16 26 10 28 3 30 4 31 2 32 1 33 24 34 25 35
REMARK SMILES IDX 26 36 27 38 28 39 29 40 30 41 31 42 32 43 33 44 34 45 40 50
REMARK SMILES IDX 41 51 42 52 43 53 44 54
REMARK H PARENT 6 16 16 27 10 29 26 37 33 46 33 47 34 48 34 49 44 55
ROOT
ATOM      1  N   UNL     1       1.041  -5.297  -1.573  1.00  0.00    -0.326 N 
ATOM      2  C   UNL     1      -0.037  -4.363   0.300  1.00  0.00     0.014 C 
ATOM      3  C   UNL     1       1.270  -4.329  -0.497  1.00  0.00     0.091 C 
ATOM      4  C   UNL     1      -0.459  -5.820   0.189  1.00  0.00     0.041 C 
ATOM      5  C   UNL     1      -0.201  -6.065  -1.309  1.00  0.00     0.175 C 
ATOM      6  C   UNL     1       1.567  -2.880  -0.877  1.00  0.00     0.059 C 
ATOM      7  C   UNL     1       0.148  -3.745   1.672  1.00  0.00     0.008 C 
ATOM      8  C   UNL     1       1.066  -1.850   0.159  1.00  0.00     0.143 C 
ATOM      9  C   UNL     1       0.982  -2.450   1.577  1.00  0.00     0.034 C 
ENDROOT
BRANCH   1  10
ATOM     10  C   UNL     1       1.882  -5.704  -2.595  1.00  0.00     0.246 C 
ATOM     11  O   UNL     1       1.408  -5.908  -3.718  1.00  0.00    -0.272 OA
BRANCH  10  12
ATOM     12  C   UNL     1       3.406  -5.854  -2.320  1.00  0.00     0.174 C 
BRANCH  12  13
ATOM     13  N   UNL     1       4.115  -4.660  -2.777  1.00  0.00    -0.342 N 
ATOM     14  C   UNL     1       4.942  -3.884  -1.995  1.00  0.00     0.249 C 
ATOM     15  O   UNL     1       5.198  -4.128  -0.823  1.00  0.00    -0.272 OA
ATOM     16  H   UNL     1       3.879  -4.247  -3.676  1.00  0.00     0.164 HD
BRANCH  14  17
ATOM     17  C   UNL     1       5.529  -2.680  -2.762  1.00  0.00     0.207 C 
BRANCH  17  18
ATOM     18  C   UNL     1       6.798  -3.092  -3.515  1.00  0.00     0.077 C 
BRANCH  18  19
ATOM     19  C   UNL     1       6.566  -3.174  -5.007  1.00  0.00    -0.043 A 
ATOM     20  C   UNL     1       6.056  -4.479  -6.987  1.00  0.00     0.083 A 
ATOM     21  C   UNL     1       6.222  -4.397  -5.604  1.00  0.00     0.028 A 
ATOM     22  C   UNL     1       6.234  -3.345  -7.780  1.00  0.00     0.134 A 
ATOM     23  C   UNL     1       6.574  -2.128  -7.202  1.00  0.00     0.048 A 
ATOM     24  C   UNL     1       6.742  -2.043  -5.818  1.00  0.00     0.008 A 
ATOM     25  Cl  UNL     1       5.634  -5.990  -7.703  1.00  0.00    -0.080 Cl
BRANCH  22  26
ATOM     26  O   UNL     1       6.092  -3.379  -9.141  1.00  0.00    -0.506 OA
ATOM     27  H   UNL     1       6.247  -4.302  -9.416  1.00  0.00     0.293 HD
ENDBRANCH  22  26
ENDBRANCH  18  19
ENDBRANCH  17  18
BRANCH  17  28
ATOM     28  O   UNL     1       5.835  -1.597  -1.869  1.00  0.00    -0.383 OA
ATOM     29  H   UNL     1       6.723  -1.267  -2.136  1.00  0.00     0.211 HD
ENDBRANCH  17  28
ENDBRANCH  14  17
ENDBRANCH  12  13
BRANCH  12  30
ATOM     30  C   UNL     1       3.998  -7.159  -2.918  1.00  0.00     0.018 C 
ATOM     31  C   UNL     1       5.302  -7.546  -2.203  1.00  0.00     0.010 C 
BRANCH  30  32
ATOM     32  C   UNL     1       4.229  -7.094  -4.447  1.00  0.00     0.002 C 
ATOM     33  C   UNL     1       3.417  -8.084  -5.272  1.00  0.00     0.004 C 
ENDBRANCH  30  32
ENDBRANCH  12  30
ENDBRANCH  10  12
ENDBRANCH   1  10
BRANCH   5  34
ATOM     34  C   UNL     1      -1.370  -5.539  -2.185  1.00  0.00     0.242 C 
ATOM     35  O   UNL     1      -2.050  -4.567  -1.858  1.00  0.00    -0.273 OA
ATOM     36  N   UNL     1      -1.623  -6.270  -3.324  1.00  0.00    -0.354 N 
ATOM     37  H   UNL     1      -1.104  -7.134  -3.479  1.00  0.00     0.163 HD
BRANCH  36  38
ATOM     38  C   UNL     1      -2.526  -5.804  -4.356  1.00  0.00     0.116 C 
BRANCH  38  39
ATOM     39  C   UNL     1      -3.944  -6.285  -4.061  1.00  0.00     0.023 C 
BRANCH  39  40
ATOM     40  C   UNL     1      -4.068  -7.804  -4.113  1.00  0.00     0.026 C 
BRANCH  40  41
ATOM     41  C   UNL     1      -3.681  -8.331  -5.495  1.00  0.00     0.146 C 
BRANCH  41  42
ATOM     42  N   UNL     1      -4.561  -7.758  -6.505  1.00  0.00    -0.254 NA
ATOM     43  C   UNL     1      -5.348  -8.521  -7.166  1.00  0.00     0.185 C 
ATOM     44  N   UNL     1      -5.525  -9.852  -7.094  1.00  0.00    -0.370 N 
ATOM     45  N   UNL     1      -6.148  -7.973  -8.096  1.00  0.00    -0.370 N 
ATOM     46  H   UNL     1      -5.992 -10.349  -7.834  1.00  0.00     0.159 HD
ATOM     47  H   UNL     1      -5.009 -10.424  -6.433  1.00  0.00     0.159 HD
ATOM     48  H   UNL     1      -6.083  -6.970  -8.209  1.00  0.00     0.159 HD
ATOM     49  H   UNL     1      -6.944  -8.451  -8.479  1.00  0.00     0.159 HD
ENDBRANCH  41  42
ENDBRANCH  40  41
ENDBRANCH  39  40
ENDBRANCH  38  39
ENDBRANCH  36  38
ENDBRANCH   5  34
BRANCH   8  50
ATOM     50  O   UNL     1      -0.229  -1.375  -0.209  1.00  0.00    -0.245 OA
BRANCH  50  51
ATOM     51  S   UNL     1      -0.632   0.172   0.091  1.00  0.00     0.397 S 
ATOM     52  O   UNL     1      -1.512   0.190   1.238  1.00  0.00    -0.169 OA
ATOM     53  O   UNL     1      -0.986   0.832  -1.148  1.00  0.00    -0.169 OA
BRANCH  51  54
ATOM     54  O   UNL     1       0.763   0.789   0.600  1.00  0.00    -0.264 OA
ATOM     55  H   UNL     1       0.917   1.624   0.112  1.00  0.00     0.236 HD
ENDBRANCH  51  54
ENDBRANCH  50  51
ENDBRANCH   8  50
TORSDOF 19
ENDMDL
MODEL 19
REMARK VINA RESULT:    -6.957      4.097      8.952
REMARK INTER + INTRA:         -17.565
REMARK INTER:                 -13.656
REMARK INTRA:                  -3.909
REMARK UNBOUND:                -3.491
REMARK SMILES CC[C@@H](C)[C@@H](NC(=O)[C@@H](O)Cc1ccc(O)c(Cl)c1)C(=O)N1[C@H](C(=O)NCCCCN=C(N)N)C[C@H]2CC[C@H](OS(=O)(=O)O)C[C@@H]21
REMARK SMILES IDX 22 1 36 2 46 3 35 4 23 5 45 6 37 7 39 8 38 9 20 10 21 11
REMARK SMILES IDX 5 12 6 13 7 14 8 15 9 17 11 18 12 19 17 20 19 21 15 22 14 23
REMARK SMILES IDX 13 24 18 25 16 26 10 28 3 30 4 31 2 32 1 33 24 34 25 35
REMARK SMILES IDX 26 36 27 38 28 39 29 40 30 41 31 42 32 43 33 44 34 45 40 50
REMARK SMILES IDX 41 51 42 52 43 53 44 54
REMARK H PARENT 6 16 16 27 10 29 26 37 33 46 33 47 34 48 34 49 44 55
ROOT
ATOM      1  N   UNL     1      -0.065  -6.945  -2.970  1.00  0.00    -0.326 N 
ATOM      2  C   UNL     1      -2.330  -7.559  -2.778  1.00  0.00     0.014 C 
ATOM      3  C   UNL     1      -1.410  -6.372  -3.076  1.00  0.00     0.091 C 
ATOM      4  C   UNL     1      -1.537  -8.346  -1.745  1.00  0.00     0.041 C 
ATOM      5  C   UNL     1      -0.139  -8.309  -2.389  1.00  0.00     0.175 C 
ATOM      6  C   UNL     1      -1.832  -5.756  -4.409  1.00  0.00     0.059 C 
ATOM      7  C   UNL     1      -3.730  -7.088  -2.439  1.00  0.00     0.008 C 
ATOM      8  C   UNL     1      -3.344  -5.874  -4.697  1.00  0.00     0.143 C 
ATOM      9  C   UNL     1      -4.175  -5.966  -3.401  1.00  0.00     0.034 C 
ENDROOT
BRANCH   1  10
ATOM     10  C   UNL     1       1.172  -6.341  -3.119  1.00  0.00     0.246 C 
ATOM     11  O   UNL     1       1.647  -6.214  -4.252  1.00  0.00    -0.272 OA
BRANCH  10  12
ATOM     12  C   UNL     1       1.916  -5.798  -1.864  1.00  0.00     0.174 C 
BRANCH  12  13
ATOM     13  N   UNL     1       1.013  -4.966  -1.070  1.00  0.00    -0.342 N 
ATOM     14  C   UNL     1       0.665  -5.206   0.240  1.00  0.00     0.249 C 
ATOM     15  O   UNL     1       1.100  -6.140   0.902  1.00  0.00    -0.272 OA
ATOM     16  H   UNL     1       0.455  -4.249  -1.528  1.00  0.00     0.164 HD
BRANCH  14  17
ATOM     17  C   UNL     1      -0.321  -4.156   0.796  1.00  0.00     0.207 C 
BRANCH  17  18
ATOM     18  C   UNL     1       0.441  -2.984   1.423  1.00  0.00     0.077 C 
BRANCH  18  19
ATOM     19  C   UNL     1       0.332  -1.730   0.585  1.00  0.00    -0.043 A 
ATOM     20  C   UNL     1       1.341  -0.098  -0.898  1.00  0.00     0.083 A 
ATOM     21  C   UNL     1       1.430  -1.282  -0.166  1.00  0.00     0.028 A 
ATOM     22  C   UNL     1       0.160   0.646  -0.884  1.00  0.00     0.134 A 
ATOM     23  C   UNL     1      -0.934   0.214  -0.144  1.00  0.00     0.048 A 
ATOM     24  C   UNL     1      -0.848  -0.970   0.591  1.00  0.00     0.008 A 
ATOM     25  Cl  UNL     1       2.701   0.436  -1.815  1.00  0.00    -0.080 Cl
BRANCH  22  26
ATOM     26  O   UNL     1       0.030   1.818  -1.578  1.00  0.00    -0.506 OA
ATOM     27  H   UNL     1       0.909   2.024  -1.947  1.00  0.00     0.293 HD
ENDBRANCH  22  26
ENDBRANCH  18  19
ENDBRANCH  17  18
BRANCH  17  28
ATOM     28  O   UNL     1      -1.195  -4.736   1.777  1.00  0.00    -0.383 OA
ATOM     29  H   UNL     1      -0.656  -5.401   2.262  1.00  0.00     0.211 HD
ENDBRANCH  17  28
ENDBRANCH  14  17
ENDBRANCH  12  13
BRANCH  12  30
ATOM     30  C   UNL     1       3.237  -5.065  -2.221  1.00  0.00     0.018 C 
ATOM     31  C   UNL     1       4.432  -5.710  -1.500  1.00  0.00     0.010 C 
BRANCH  30  32
ATOM     32  C   UNL     1       3.201  -3.544  -1.935  1.00  0.00     0.002 C 
ATOM     33  C   UNL     1       4.157  -2.702  -2.770  1.00  0.00     0.004 C 
ENDBRANCH  30  32
ENDBRANCH  12  30
ENDBRANCH  10  12
ENDBRANCH   1  10
BRANCH   5  34
ATOM     34  C   UNL     1       0.010  -9.387  -3.496  1.00  0.00     0.242 C 
ATOM     35  O   UNL     1      -0.239 -10.575  -3.295  1.00  0.00    -0.273 OA
ATOM     36  N   UNL     1       0.492  -8.926  -4.701  1.00  0.00    -0.354 N 
ATOM     37  H   UNL     1       0.794  -7.954  -4.770  1.00  0.00     0.163 HD
BRANCH  36  38
ATOM     38  C   UNL     1       0.490  -9.742  -5.897  1.00  0.00     0.116 C 
BRANCH  38  39
ATOM     39  C   UNL     1      -0.926  -9.831  -6.462  1.00  0.00     0.023 C 
BRANCH  39  40
ATOM     40  C   UNL     1      -1.231 -11.201  -7.058  1.00  0.00     0.026 C 
BRANCH  40  41
ATOM     41  C   UNL     1      -2.415 -11.852  -6.342  1.00  0.00     0.146 C 
BRANCH  41  42
ATOM     42  N   UNL     1      -3.004 -10.906  -5.404  1.00  0.00    -0.254 NA
ATOM     43  C   UNL     1      -4.204 -10.498  -5.587  1.00  0.00     0.185 C 
ATOM     44  N   UNL     1      -5.085 -10.805  -6.557  1.00  0.00    -0.370 N 
ATOM     45  N   UNL     1      -4.728  -9.622  -4.713  1.00  0.00    -0.370 N 
ATOM     46  H   UNL     1      -5.895 -10.231  -6.715  1.00  0.00     0.159 HD
ATOM     47  H   UNL     1      -4.857 -11.465  -7.294  1.00  0.00     0.159 HD
ATOM     48  H   UNL     1      -4.132  -9.344  -3.945  1.00  0.00     0.159 HD
ATOM     49  H   UNL     1      -5.714  -9.442  -4.649  1.00  0.00     0.159 HD
ENDBRANCH  41  42
ENDBRANCH  40  41
ENDBRANCH  39  40
ENDBRANCH  38  39
ENDBRANCH  36  38
ENDBRANCH   5  34
BRANCH   8  50
ATOM     50  O   UNL     1      -3.604  -7.036  -5.485  1.00  0.00    -0.245 OA
BRANCH  50  51
ATOM     51  S   UNL     1      -3.866  -6.880  -7.083  1.00  0.00     0.397 S 
ATOM     52  O   UNL     1      -4.930  -7.786  -7.451  1.00  0.00    -0.169 OA
ATOM     53  O   UNL     1      -2.599  -6.871  -7.784  1.00  0.00    -0.169 OA
BRANCH  51  54
ATOM     54  O   UNL     1      -4.496  -5.403  -7.177  1.00  0.00    -0.264 OA
ATOM     55  H   UNL     1      -4.173  -4.993  -8.005  1.00  0.00     0.236 HD
ENDBRANCH  51  54
ENDBRANCH  50  51
ENDBRANCH   8  50
TORSDOF 19
ENDMDL
MODEL 20
REMARK VINA RESULT:    -6.934      4.296      9.094
REMARK INTER + INTRA:         -17.519
REMARK INTER:                 -13.500
REMARK INTRA:                  -4.019
REMARK UNBOUND:                -3.491
REMARK SMILES CC[C@@H](C)[C@@H](NC(=O)[C@@H](O)Cc1ccc(O)c(Cl)c1)C(=O)N1[C@H](C(=O)NCCCCN=C(N)N)C[C@H]2CC[C@H](OS(=O)(=O)O)C[C@@H]21
REMARK SMILES IDX 22 1 36 2 46 3 35 4 23 5 45 6 37 7 39 8 38 9 20 10 21 11
REMARK SMILES IDX 5 12 6 13 7 14 8 15 9 17 11 18 12 19 17 20 19 21 15 22 14 23
REMARK SMILES IDX 13 24 18 25 16 26 10 28 3 30 4 31 2 32 1 33 24 34 25 35
REMARK SMILES IDX 26 36 27 38 28 39 29 40 30 41 31 42 32 43 33 44 34 45 40 50
REMARK SMILES IDX 41 51 42 52 43 53 44 54
REMARK H PARENT 6 16 16 27 10 29 26 37 33 46 33 47 34 48 34 49 44 55
ROOT
ATOM      1  N   UNL     1       0.089  -6.935  -3.305  1.00  0.00    -0.326 N 
ATOM      2  C   UNL     1      -2.171  -7.343  -2.788  1.00  0.00     0.014 C 
ATOM      3  C   UNL     1      -1.218  -6.272  -3.326  1.00  0.00     0.091 C 
ATOM      4  C   UNL     1      -1.313  -8.072  -1.765  1.00  0.00     0.041 C 
ATOM      5  C   UNL     1      -0.003  -8.217  -2.562  1.00  0.00     0.175 C 
ATOM      6  C   UNL     1      -1.756  -5.776  -4.667  1.00  0.00     0.059 C 
ATOM      7  C   UNL     1      -3.486  -6.728  -2.352  1.00  0.00     0.008 C 
ATOM      8  C   UNL     1      -3.297  -5.804  -4.767  1.00  0.00     0.143 C 
ATOM      9  C   UNL     1      -3.969  -5.687  -3.384  1.00  0.00     0.034 C 
ENDROOT
BRANCH   1  10
ATOM     10  C   UNL     1       1.336  -6.451  -3.662  1.00  0.00     0.246 C 
ATOM     11  O   UNL     1       1.661  -6.447  -4.854  1.00  0.00    -0.272 OA
BRANCH  10  12
ATOM     12  C   UNL     1       2.283  -5.885  -2.564  1.00  0.00     0.174 C 
BRANCH  12  13
ATOM     13  N   UNL     1       1.671  -4.716  -1.933  1.00  0.00    -0.342 N 
ATOM     14  C   UNL     1       1.200  -4.673  -0.640  1.00  0.00     0.249 C 
ATOM     15  O   UNL     1       1.268  -5.612   0.143  1.00  0.00    -0.272 OA
ATOM     16  H   UNL     1       1.405  -3.917  -2.503  1.00  0.00     0.164 HD
BRANCH  14  17
ATOM     17  C   UNL     1       0.593  -3.301  -0.273  1.00  0.00     0.207 C 
BRANCH  17  18
ATOM     18  C   UNL     1      -0.901  -3.442   0.037  1.00  0.00     0.077 C 
BRANCH  18  19
ATOM     19  C   UNL     1      -1.146  -3.729   1.502  1.00  0.00    -0.043 A 
ATOM     20  C   UNL     1      -0.788  -3.189   3.839  1.00  0.00     0.083 A 
ATOM     21  C   UNL     1      -0.601  -2.893   2.488  1.00  0.00     0.028 A 
ATOM     22  C   UNL     1      -1.516  -4.319   4.212  1.00  0.00     0.134 A 
ATOM     23  C   UNL     1      -2.061  -5.156   3.246  1.00  0.00     0.048 A 
ATOM     24  C   UNL     1      -1.875  -4.863   1.893  1.00  0.00     0.008 A 
ATOM     25  Cl  UNL     1      -0.111  -2.149   5.037  1.00  0.00    -0.080 Cl
BRANCH  22  26
ATOM     26  O   UNL     1      -1.717  -4.655   5.524  1.00  0.00    -0.506 OA
ATOM     27  H   UNL     1      -1.187  -4.034   6.057  1.00  0.00     0.293 HD
ENDBRANCH  22  26
ENDBRANCH  18  19
ENDBRANCH  17  18
BRANCH  17  28
ATOM     28  O   UNL     1       0.771  -2.355  -1.339  1.00  0.00    -0.383 OA
ATOM     29  H   UNL     1      -0.071  -1.850  -1.397  1.00  0.00     0.211 HD
ENDBRANCH  17  28
ENDBRANCH  14  17
ENDBRANCH  12  13
BRANCH  12  30
ATOM     30  C   UNL     1       3.711  -5.590  -3.097  1.00  0.00     0.018 C 
ATOM     31  C   UNL     1       4.741  -6.526  -2.445  1.00  0.00     0.010 C 
BRANCH  30  32
ATOM     32  C   UNL     1       4.147  -4.115  -2.922  1.00  0.00     0.002 C 
ATOM     33  C   UNL     1       4.835  -3.492  -4.130  1.00  0.00     0.004 C 
ENDBRANCH  30  32
ENDBRANCH  12  30
ENDBRANCH  10  12
ENDBRANCH   1  10
BRANCH   5  34
ATOM     34  C   UNL     1      -0.061  -9.418  -3.543  1.00  0.00     0.242 C 
ATOM     35  O   UNL     1      -0.475 -10.526  -3.203  1.00  0.00    -0.273 OA
ATOM     36  N   UNL     1       0.435  -9.169  -4.803  1.00  0.00    -0.354 N 
ATOM     37  H   UNL     1       0.875  -8.267  -4.989  1.00  0.00     0.163 HD
BRANCH  36  38
ATOM     38  C   UNL     1       0.264 -10.100  -5.899  1.00  0.00     0.116 C 
BRANCH  38  39
ATOM     39  C   UNL     1      -1.121  -9.923  -6.518  1.00  0.00     0.023 C 
BRANCH  39  40
ATOM     40  C   UNL     1      -1.771 -11.253  -6.882  1.00  0.00     0.026 C 
BRANCH  40  41
ATOM     41  C   UNL     1      -2.734 -11.704  -5.784  1.00  0.00     0.146 C 
BRANCH  41  42
ATOM     42  N   UNL     1      -3.717 -10.659  -5.531  1.00  0.00    -0.254 NA
ATOM     43  C   UNL     1      -3.978 -10.313  -4.327  1.00  0.00     0.185 C 
ATOM     44  N   UNL     1      -3.473 -10.771  -3.166  1.00  0.00    -0.370 N 
ATOM     45  N   UNL     1      -4.890  -9.350  -4.115  1.00  0.00    -0.370 N 
ATOM     46  H   UNL     1      -3.941 -10.585  -2.295  1.00  0.00     0.159 HD
ATOM     47  H   UNL     1      -2.760 -11.493  -3.143  1.00  0.00     0.159 HD
ATOM     48  H   UNL     1      -5.314  -8.944  -4.938  1.00  0.00     0.159 HD
ATOM     49  H   UNL     1      -4.976  -8.865  -3.239  1.00  0.00     0.159 HD
ENDBRANCH  41  42
ENDBRANCH  40  41
ENDBRANCH  39  40
ENDBRANCH  38  39
ENDBRANCH  36  38
ENDBRANCH   5  34
BRANCH   8  50
ATOM     50  O   UNL     1      -3.726  -7.021  -5.378  1.00  0.00    -0.245 OA
BRANCH  50  51
ATOM     51  S   UNL     1      -4.097  -7.038  -6.961  1.00  0.00     0.397 S 
ATOM     52  O   UNL     1      -5.154  -8.004  -7.162  1.00  0.00    -0.169 OA
ATOM     53  O   UNL     1      -2.880  -7.068  -7.746  1.00  0.00    -0.169 OA
BRANCH  51  54
ATOM     54  O   UNL     1      -4.779  -5.595  -7.160  1.00  0.00    -0.264 OA
ATOM     55  H   UNL     1      -4.181  -4.926  -6.770  1.00  0.00     0.236 HD
ENDBRANCH  51  54
ENDBRANCH  50  51
ENDBRANCH   8  50
TORSDOF 19
ENDMDL
MODEL 21
REMARK VINA RESULT:    -6.892      5.031      9.578
REMARK INTER + INTRA:         -17.433
REMARK INTER:                 -14.166
REMARK INTRA:                  -3.266
REMARK UNBOUND:                -3.491
REMARK SMILES CC[C@@H](C)[C@@H](NC(=O)[C@@H](O)Cc1ccc(O)c(Cl)c1)C(=O)N1[C@H](C(=O)NCCCCN=C(N)N)C[C@H]2CC[C@H](OS(=O)(=O)O)C[C@@H]21
REMARK SMILES IDX 22 1 36 2 46 3 35 4 23 5 45 6 37 7 39 8 38 9 20 10 21 11
REMARK SMILES IDX 5 12 6 13 7 14 8 15 9 17 11 18 12 19 17 20 19 21 15 22 14 23
REMARK SMILES IDX 13 24 18 25 16 26 10 28 3 30 4 31 2 32 1 33 24 34 25 35
REMARK SMILES IDX 26 36 27 38 28 39 29 40 30 41 31 42 32 43 33 44 34 45 40 50
REMARK SMILES IDX 41 51 42 52 43 53 44 54
REMARK H PARENT 6 16 16 27 10 29 26 37 33 46 33 47 34 48 34 49 44 55
ROOT
ATOM      1  N   UNL     1      -2.109  -7.118  -1.656  1.00  0.00    -0.326 N 
ATOM      2  C   UNL     1      -0.354  -6.390  -0.265  1.00  0.00     0.014 C 
ATOM      3  C   UNL     1      -0.985  -6.177  -1.644  1.00  0.00     0.091 C 
ATOM      4  C   UNL     1      -0.557  -7.879  -0.031  1.00  0.00     0.041 C 
ATOM      5  C   UNL     1      -2.019  -8.031  -0.490  1.00  0.00     0.175 C 
ATOM      6  C   UNL     1      -1.286  -4.689  -1.813  1.00  0.00     0.059 C 
ATOM      7  C   UNL     1       1.047  -5.813  -0.215  1.00  0.00     0.008 C 
ATOM      8  C   UNL     1      -0.289  -3.766  -1.078  1.00  0.00     0.143 C 
ATOM      9  C   UNL     1       1.091  -4.430  -0.898  1.00  0.00     0.034 C 
ENDROOT
BRANCH   1  10
ATOM     10  C   UNL     1      -3.032  -7.386  -2.653  1.00  0.00     0.246 C 
ATOM     11  O   UNL     1      -4.074  -6.723  -2.700  1.00  0.00    -0.272 OA
BRANCH  10  12
ATOM     12  C   UNL     1      -2.721  -8.481  -3.714  1.00  0.00     0.174 C 
BRANCH  12  13
ATOM     13  N   UNL     1      -1.328  -8.374  -4.147  1.00  0.00    -0.342 N 
ATOM     14  C   UNL     1      -0.306  -9.199  -3.735  1.00  0.00     0.249 C 
ATOM     15  O   UNL     1      -0.459 -10.144  -2.970  1.00  0.00    -0.272 OA
ATOM     16  H   UNL     1      -1.020  -7.548  -4.655  1.00  0.00     0.164 HD
BRANCH  14  17
ATOM     17  C   UNL     1       1.055  -8.819  -4.356  1.00  0.00     0.207 C 
BRANCH  17  18
ATOM     18  C   UNL     1       1.503  -7.440  -3.862  1.00  0.00     0.077 C 
BRANCH  18  19
ATOM     19  C   UNL     1       2.934  -7.455  -3.375  1.00  0.00    -0.043 A 
ATOM     20  C   UNL     1       4.961  -8.677  -2.843  1.00  0.00     0.083 A 
ATOM     21  C   UNL     1       3.657  -8.658  -3.340  1.00  0.00     0.028 A 
ATOM     22  C   UNL     1       5.549  -7.500  -2.378  1.00  0.00     0.134 A 
ATOM     23  C   UNL     1       4.844  -6.302  -2.408  1.00  0.00     0.048 A 
ATOM     24  C   UNL     1       3.538  -6.280  -2.902  1.00  0.00     0.008 A 
ATOM     25  Cl  UNL     1       5.833 -10.164  -2.808  1.00  0.00    -0.080 Cl
BRANCH  22  26
ATOM     26  O   UNL     1       6.820  -7.472  -1.873  1.00  0.00    -0.506 OA
ATOM     27  H   UNL     1       6.783  -7.895  -0.995  1.00  0.00     0.293 HD
ENDBRANCH  22  26
ENDBRANCH  18  19
ENDBRANCH  17  18
BRANCH  17  28
ATOM     28  O   UNL     1       0.983  -8.811  -5.791  1.00  0.00    -0.383 OA
ATOM     29  H   UNL     1       0.277  -8.168  -6.025  1.00  0.00     0.211 HD
ENDBRANCH  17  28
ENDBRANCH  14  17
ENDBRANCH  12  13
BRANCH  12  30
ATOM     30  C   UNL     1      -3.715  -8.461  -4.906  1.00  0.00     0.018 C 
ATOM     31  C   UNL     1      -4.052  -9.890  -5.359  1.00  0.00     0.010 C 
BRANCH  30  32
ATOM     32  C   UNL     1      -3.224  -7.623  -6.111  1.00  0.00     0.002 C 
ATOM     33  C   UNL     1      -3.750  -6.195  -6.168  1.00  0.00     0.004 C 
ENDBRANCH  30  32
ENDBRANCH  12  30
ENDBRANCH  10  12
ENDBRANCH   1  10
BRANCH   5  34
ATOM     34  C   UNL     1      -3.014  -7.603   0.621  1.00  0.00     0.242 C 
ATOM     35  O   UNL     1      -4.216  -7.860   0.563  1.00  0.00    -0.273 OA
ATOM     36  N   UNL     1      -2.465  -6.868   1.648  1.00  0.00    -0.354 N 
ATOM     37  H   UNL     1      -1.487  -6.584   1.581  1.00  0.00     0.163 HD
BRANCH  36  38
ATOM     38  C   UNL     1      -3.194  -6.573   2.864  1.00  0.00     0.116 C 
BRANCH  38  39
ATOM     39  C   UNL     1      -2.759  -5.216   3.413  1.00  0.00     0.023 C 
BRANCH  39  40
ATOM     40  C   UNL     1      -2.131  -5.323   4.799  1.00  0.00     0.026 C 
BRANCH  40  41
ATOM     41  C   UNL     1      -0.685  -4.828   4.778  1.00  0.00     0.146 C 
BRANCH  41  42
ATOM     42  N   UNL     1      -0.538  -3.697   5.684  1.00  0.00    -0.254 NA
ATOM     43  C   UNL     1      -0.108  -2.578   5.235  1.00  0.00     0.185 C 
ATOM     44  N   UNL     1       0.260  -2.229   3.988  1.00  0.00    -0.370 N 
ATOM     45  N   UNL     1       0.024  -1.548   6.087  1.00  0.00    -0.370 N 
ATOM     46  H   UNL     1       0.804  -1.399   3.827  1.00  0.00     0.159 HD
ATOM     47  H   UNL     1       0.209  -2.885   3.215  1.00  0.00     0.159 HD
ATOM     48  H   UNL     1      -0.240  -1.724   7.047  1.00  0.00     0.159 HD
ATOM     49  H   UNL     1       0.123  -0.597   5.780  1.00  0.00     0.159 HD
ENDBRANCH  41  42
ENDBRANCH  40  41
ENDBRANCH  39  40
ENDBRANCH  38  39
ENDBRANCH  36  38
ENDBRANCH   5  34
BRANCH   8  50
ATOM     50  O   UNL     1      -0.798  -3.423   0.212  1.00  0.00    -0.245 OA
BRANCH  50  51
ATOM     51  S   UNL     1      -1.145  -1.871   0.551  1.00  0.00     0.397 S 
ATOM     52  O   UNL     1      -0.068  -1.051   0.043  1.00  0.00    -0.169 OA
ATOM     53  O   UNL     1      -1.601  -1.763   1.922  1.00  0.00    -0.169 OA
BRANCH  51  54
ATOM     54  O   UNL     1      -2.402  -1.589  -0.412  1.00  0.00    -0.264 OA
ATOM     55  H   UNL     1      -3.094  -2.248  -0.199  1.00  0.00     0.236 HD
ENDBRANCH  51  54
ENDBRANCH  50  51
ENDBRANCH   8  50
TORSDOF 19
ENDMDL
MODEL 22
REMARK VINA RESULT:    -6.890      4.690      8.401
REMARK INTER + INTRA:         -17.429
REMARK INTER:                 -13.379
REMARK INTRA:                  -4.050
REMARK UNBOUND:                -3.491
REMARK SMILES CC[C@@H](C)[C@@H](NC(=O)[C@@H](O)Cc1ccc(O)c(Cl)c1)C(=O)N1[C@H](C(=O)NCCCCN=C(N)N)C[C@H]2CC[C@H](OS(=O)(=O)O)C[C@@H]21
REMARK SMILES IDX 22 1 36 2 46 3 35 4 23 5 45 6 37 7 39 8 38 9 20 10 21 11
REMARK SMILES IDX 5 12 6 13 7 14 8 15 9 17 11 18 12 19 17 20 19 21 15 22 14 23
REMARK SMILES IDX 13 24 18 25 16 26 10 28 3 30 4 31 2 32 1 33 24 34 25 35
REMARK SMILES IDX 26 36 27 38 28 39 29 40 30 41 31 42 32 43 33 44 34 45 40 50
REMARK SMILES IDX 41 51 42 52 43 53 44 54
REMARK H PARENT 6 16 16 27 10 29 26 37 33 46 33 47 34 48 34 49 44 55
ROOT
ATOM      1  N   UNL     1      -0.603  -7.531  -2.655  1.00  0.00    -0.326 N 
ATOM      2  C   UNL     1       0.303  -5.368  -2.451  1.00  0.00     0.014 C 
ATOM      3  C   UNL     1       0.568  -6.837  -2.111  1.00  0.00     0.091 C 
ATOM      4  C   UNL     1      -1.208  -5.262  -2.323  1.00  0.00     0.041 C 
ATOM      5  C   UNL     1      -1.635  -6.545  -3.059  1.00  0.00     0.175 C 
ATOM      6  C   UNL     1       1.948  -7.216  -2.646  1.00  0.00     0.059 C 
ATOM      7  C   UNL     1       1.186  -4.453  -1.625  1.00  0.00     0.008 C 
ATOM      8  C   UNL     1       2.959  -6.048  -2.640  1.00  0.00     0.143 C 
ATOM      9  C   UNL     1       2.627  -5.001  -1.559  1.00  0.00     0.034 C 
ENDROOT
BRANCH   1  10
ATOM     10  C   UNL     1      -0.928  -8.877  -2.630  1.00  0.00     0.246 C 
ATOM     11  O   UNL     1      -0.152  -9.692  -3.140  1.00  0.00    -0.272 OA
BRANCH  10  12
ATOM     12  C   UNL     1      -2.237  -9.337  -1.927  1.00  0.00     0.174 C 
BRANCH  12  13
ATOM     13  N   UNL     1      -2.288  -8.801  -0.567  1.00  0.00    -0.342 N 
ATOM     14  C   UNL     1      -3.263  -7.957  -0.086  1.00  0.00     0.249 C 
ATOM     15  O   UNL     1      -4.224  -7.579  -0.745  1.00  0.00    -0.272 OA
ATOM     16  H   UNL     1      -1.480  -8.899   0.043  1.00  0.00     0.164 HD
BRANCH  14  17
ATOM     17  C   UNL     1      -3.028  -7.552   1.385  1.00  0.00     0.207 C 
BRANCH  17  18
ATOM     18  C   UNL     1      -1.564  -7.158   1.605  1.00  0.00     0.077 C 
BRANCH  18  19
ATOM     19  C   UNL     1      -1.436  -5.761   2.168  1.00  0.00    -0.043 A 
ATOM     20  C   UNL     1      -0.414  -3.562   2.125  1.00  0.00     0.083 A 
ATOM     21  C   UNL     1      -0.566  -4.834   1.573  1.00  0.00     0.028 A 
ATOM     22  C   UNL     1      -1.125  -3.209   3.273  1.00  0.00     0.134 A 
ATOM     23  C   UNL     1      -1.989  -4.117   3.872  1.00  0.00     0.048 A 
ATOM     24  C   UNL     1      -2.143  -5.392   3.323  1.00  0.00     0.008 A 
ATOM     25  Cl  UNL     1       0.660  -2.437   1.380  1.00  0.00    -0.080 Cl
BRANCH  22  26
ATOM     26  O   UNL     1      -1.000  -1.977   3.856  1.00  0.00    -0.506 OA
ATOM     27  H   UNL     1      -1.469  -1.345   3.280  1.00  0.00     0.293 HD
ENDBRANCH  22  26
ENDBRANCH  18  19
ENDBRANCH  17  18
BRANCH  17  28
ATOM     28  O   UNL     1      -3.373  -8.623   2.278  1.00  0.00    -0.383 OA
ATOM     29  H   UNL     1      -2.934  -9.428   1.919  1.00  0.00     0.211 HD
ENDBRANCH  17  28
ENDBRANCH  14  17
ENDBRANCH  12  13
BRANCH  12  30
ATOM     30  C   UNL     1      -2.429 -10.877  -1.964  1.00  0.00     0.018 C 
ATOM     31  C   UNL     1      -3.723 -11.248  -2.705  1.00  0.00     0.010 C 
BRANCH  30  32
ATOM     32  C   UNL     1      -2.408 -11.540  -0.565  1.00  0.00     0.002 C 
ATOM     33  C   UNL     1      -2.274 -13.057  -0.566  1.00  0.00     0.004 C 
ENDBRANCH  30  32
ENDBRANCH  12  30
ENDBRANCH  10  12
ENDBRANCH   1  10
BRANCH   5  34
ATOM     34  C   UNL     1      -1.635  -6.348  -4.598  1.00  0.00     0.242 C 
ATOM     35  O   UNL     1      -0.596  -6.311  -5.257  1.00  0.00    -0.273 OA
ATOM     36  N   UNL     1      -2.877  -6.164  -5.165  1.00  0.00    -0.354 N 
ATOM     37  H   UNL     1      -3.690  -6.085  -4.553  1.00  0.00     0.163 HD
BRANCH  36  38
ATOM     38  C   UNL     1      -3.083  -6.181  -6.598  1.00  0.00     0.116 C 
BRANCH  38  39
ATOM     39  C   UNL     1      -4.350  -6.965  -6.930  1.00  0.00     0.023 C 
BRANCH  39  40
ATOM     40  C   UNL     1      -4.327  -8.379  -6.362  1.00  0.00     0.026 C 
BRANCH  40  41
ATOM     41  C   UNL     1      -3.577  -9.327  -7.299  1.00  0.00     0.146 C 
BRANCH  41  42
ATOM     42  N   UNL     1      -2.985 -10.413  -6.529  1.00  0.00    -0.254 NA
ATOM     43  C   UNL     1      -1.781 -10.307  -6.107  1.00  0.00     0.185 C 
ATOM     44  N   UNL     1      -0.898  -9.302  -6.253  1.00  0.00    -0.370 N 
ATOM     45  N   UNL     1      -1.252 -11.321  -5.403  1.00  0.00    -0.370 N 
ATOM     46  H   UNL     1       0.082  -9.452  -6.084  1.00  0.00     0.159 HD
ATOM     47  H   UNL     1      -1.139  -8.449  -6.749  1.00  0.00     0.159 HD
ATOM     48  H   UNL     1      -1.855 -12.116  -5.240  1.00  0.00     0.159 HD
ATOM     49  H   UNL     1      -0.422 -11.222  -4.845  1.00  0.00     0.159 HD
ENDBRANCH  41  42
ENDBRANCH  40  41
ENDBRANCH  39  40
ENDBRANCH  38  39
ENDBRANCH  36  38
ENDBRANCH   5  34
BRANCH   8  50
ATOM     50  O   UNL     1       2.966  -5.400  -3.913  1.00  0.00    -0.245 OA
BRANCH  50  51
ATOM     51  S   UNL     1       4.341  -4.727  -4.463  1.00  0.00     0.397 S 
ATOM     52  O   UNL     1       4.265  -4.672  -5.905  1.00  0.00    -0.169 OA
ATOM     53  O   UNL     1       5.476  -5.317  -3.784  1.00  0.00    -0.169 OA
BRANCH  51  54
ATOM     54  O   UNL     1       4.196  -3.207  -3.958  1.00  0.00    -0.264 OA
ATOM     55  H   UNL     1       4.332  -2.622  -4.731  1.00  0.00     0.236 HD
ENDBRANCH  51  54
ENDBRANCH  50  51
ENDBRANCH   8  50
TORSDOF 19
ENDMDL
MODEL 23
REMARK VINA RESULT:    -6.880      3.998      8.291
REMARK INTER + INTRA:         -17.410
REMARK INTER:                 -14.652
REMARK INTRA:                  -2.758
REMARK UNBOUND:                -3.491
REMARK SMILES CC[C@@H](C)[C@@H](NC(=O)[C@@H](O)Cc1ccc(O)c(Cl)c1)C(=O)N1[C@H](C(=O)NCCCCN=C(N)N)C[C@H]2CC[C@H](OS(=O)(=O)O)C[C@@H]21
REMARK SMILES IDX 22 1 36 2 46 3 35 4 23 5 45 6 37 7 39 8 38 9 20 10 21 11
REMARK SMILES IDX 5 12 6 13 7 14 8 15 9 17 11 18 12 19 17 20 19 21 15 22 14 23
REMARK SMILES IDX 13 24 18 25 16 26 10 28 3 30 4 31 2 32 1 33 24 34 25 35
REMARK SMILES IDX 26 36 27 38 28 39 29 40 30 41 31 42 32 43 33 44 34 45 40 50
REMARK SMILES IDX 41 51 42 52 43 53 44 54
REMARK H PARENT 6 16 16 27 10 29 26 37 33 46 33 47 34 48 34 49 44 55
ROOT
ATOM      1  N   UNL     1      -0.946  -4.334   0.420  1.00  0.00    -0.326 N 
ATOM      2  C   UNL     1      -0.593  -5.903   2.138  1.00  0.00     0.014 C 
ATOM      3  C   UNL     1      -0.924  -4.430   1.882  1.00  0.00     0.091 C 
ATOM      4  C   UNL     1       0.345  -6.240   0.990  1.00  0.00     0.041 C 
ATOM      5  C   UNL     1      -0.408  -5.580  -0.180  1.00  0.00     0.175 C 
ATOM      6  C   UNL     1      -2.198  -4.081   2.650  1.00  0.00     0.059 C 
ATOM      7  C   UNL     1      -0.127  -6.114   3.566  1.00  0.00     0.008 C 
ATOM      8  C   UNL     1      -2.366  -4.871   3.966  1.00  0.00     0.143 C 
ATOM      9  C   UNL     1      -1.012  -5.320   4.550  1.00  0.00     0.034 C 
ENDROOT
BRANCH   1  10
ATOM     10  C   UNL     1      -1.174  -3.237  -0.394  1.00  0.00     0.246 C 
ATOM     11  O   UNL     1      -2.282  -3.100  -0.923  1.00  0.00    -0.272 OA
BRANCH  10  12
ATOM     12  C   UNL     1      -0.048  -2.181  -0.591  1.00  0.00     0.174 C 
BRANCH  12  13
ATOM     13  N   UNL     1       1.231  -2.852  -0.820  1.00  0.00    -0.342 N 
ATOM     14  C   UNL     1       2.190  -2.440  -1.718  1.00  0.00     0.249 C 
ATOM     15  O   UNL     1       2.088  -1.437  -2.412  1.00  0.00    -0.272 OA
ATOM     16  H   UNL     1       1.390  -3.779  -0.434  1.00  0.00     0.164 HD
BRANCH  14  17
ATOM     17  C   UNL     1       3.423  -3.369  -1.741  1.00  0.00     0.207 C 
BRANCH  17  18
ATOM     18  C   UNL     1       2.986  -4.838  -1.731  1.00  0.00     0.077 C 
BRANCH  18  19
ATOM     19  C   UNL     1       3.141  -5.479  -3.092  1.00  0.00    -0.043 A 
ATOM     20  C   UNL     1       2.773  -7.354  -4.586  1.00  0.00     0.083 A 
ATOM     21  C   UNL     1       2.587  -6.744  -3.346  1.00  0.00     0.028 A 
ATOM     22  C   UNL     1       3.512  -6.709  -5.578  1.00  0.00     0.134 A 
ATOM     23  C   UNL     1       4.066  -5.456  -5.340  1.00  0.00     0.048 A 
ATOM     24  C   UNL     1       3.883  -4.843  -4.099  1.00  0.00     0.008 A 
ATOM     25  Cl  UNL     1       2.085  -8.908  -4.879  1.00  0.00    -0.080 Cl
BRANCH  22  26
ATOM     26  O   UNL     1       3.731  -7.272  -6.806  1.00  0.00    -0.506 OA
ATOM     27  H   UNL     1       4.123  -6.578  -7.367  1.00  0.00     0.293 HD
ENDBRANCH  22  26
ENDBRANCH  18  19
ENDBRANCH  17  18
BRANCH  17  28
ATOM     28  O   UNL     1       4.280  -3.119  -0.616  1.00  0.00    -0.383 OA
ATOM     29  H   UNL     1       4.716  -3.977  -0.410  1.00  0.00     0.211 HD
ENDBRANCH  17  28
ENDBRANCH  14  17
ENDBRANCH  12  13
BRANCH  12  30
ATOM     30  C   UNL     1       0.022  -1.155   0.572  1.00  0.00     0.018 C 
ATOM     31  C   UNL     1      -1.380  -0.867   1.132  1.00  0.00     0.010 C 
BRANCH  30  32
ATOM     32  C   UNL     1       0.725   0.171   0.191  1.00  0.00     0.002 C 
ATOM     33  C   UNL     1       0.070   0.953  -0.940  1.00  0.00     0.004 C 
ENDBRANCH  30  32
ENDBRANCH  12  30
ENDBRANCH  10  12
ENDBRANCH   1  10
BRANCH   5  34
ATOM     34  C   UNL     1      -1.558  -6.481  -0.701  1.00  0.00     0.242 C 
ATOM     35  O   UNL     1      -2.405  -6.967   0.048  1.00  0.00    -0.273 OA
ATOM     36  N   UNL     1      -1.531  -6.741  -2.053  1.00  0.00    -0.354 N 
ATOM     37  H   UNL     1      -0.737  -6.409  -2.602  1.00  0.00     0.163 HD
BRANCH  36  38
ATOM     38  C   UNL     1      -2.636  -7.378  -2.740  1.00  0.00     0.116 C 
BRANCH  38  39
ATOM     39  C   UNL     1      -3.703  -6.341  -3.079  1.00  0.00     0.023 C 
BRANCH  39  40
ATOM     40  C   UNL     1      -3.294  -5.441  -4.239  1.00  0.00     0.026 C 
BRANCH  40  41
ATOM     41  C   UNL     1      -3.013  -6.268  -5.494  1.00  0.00     0.146 C 
BRANCH  41  42
ATOM     42  N   UNL     1      -1.792  -5.795  -6.133  1.00  0.00    -0.254 NA
ATOM     43  C   UNL     1      -0.900  -6.639  -6.495  1.00  0.00     0.185 C 
ATOM     44  N   UNL     1      -0.883  -7.980  -6.389  1.00  0.00    -0.370 N 
ATOM     45  N   UNL     1       0.221  -6.183  -7.078  1.00  0.00    -0.370 N 
ATOM     46  H   UNL     1      -0.024  -8.492  -6.490  1.00  0.00     0.159 HD
ATOM     47  H   UNL     1      -1.661  -8.492  -5.983  1.00  0.00     0.159 HD
ATOM     48  H   UNL     1       0.285  -5.182  -7.205  1.00  0.00     0.159 HD
ATOM     49  H   UNL     1       0.845  -6.777  -7.596  1.00  0.00     0.159 HD
ENDBRANCH  41  42
ENDBRANCH  40  41
ENDBRANCH  39  40
ENDBRANCH  38  39
ENDBRANCH  36  38
ENDBRANCH   5  34
BRANCH   8  50
ATOM     50  O   UNL     1      -3.170  -6.030   3.742  1.00  0.00    -0.245 OA
BRANCH  50  51
ATOM     51  S   UNL     1      -4.637  -6.137   4.436  1.00  0.00     0.397 S 
ATOM     52  O   UNL     1      -5.503  -6.870   3.540  1.00  0.00    -0.169 OA
ATOM     53  O   UNL     1      -5.016  -4.846   4.972  1.00  0.00    -0.169 OA
BRANCH  51  54
ATOM     54  O   UNL     1      -4.352  -7.123   5.674  1.00  0.00    -0.264 OA
ATOM     55  H   UNL     1      -3.691  -7.783   5.383  1.00  0.00     0.236 HD
ENDBRANCH  51  54
ENDBRANCH  50  51
ENDBRANCH   8  50
TORSDOF 19
ENDMDL
MODEL 24
REMARK VINA RESULT:    -6.867      2.931      6.720
REMARK INTER + INTRA:         -17.383
REMARK INTER:                 -13.663
REMARK INTRA:                  -3.720
REMARK UNBOUND:                -3.491
REMARK SMILES CC[C@@H](C)[C@@H](NC(=O)[C@@H](O)Cc1ccc(O)c(Cl)c1)C(=O)N1[C@H](C(=O)NCCCCN=C(N)N)C[C@H]2CC[C@H](OS(=O)(=O)O)C[C@@H]21
REMARK SMILES IDX 22 1 36 2 46 3 35 4 23 5 45 6 37 7 39 8 38 9 20 10 21 11
REMARK SMILES IDX 5 12 6 13 7 14 8 15 9 17 11 18 12 19 17 20 19 21 15 22 14 23
REMARK SMILES IDX 13 24 18 25 16 26 10 28 3 30 4 31 2 32 1 33 24 34 25 35
REMARK SMILES IDX 26 36 27 38 28 39 29 40 30 41 31 42 32 43 33 44 34 45 40 50
REMARK SMILES IDX 41 51 42 52 43 53 44 54
REMARK H PARENT 6 16 16 27 10 29 26 37 33 46 33 47 34 48 34 49 44 55
ROOT
ATOM      1  N   UNL     1       4.352  -5.359  -3.668  1.00  0.00    -0.326 N 
ATOM      2  C   UNL     1       5.390  -4.818  -1.625  1.00  0.00     0.014 C 
ATOM      3  C   UNL     1       5.615  -4.835  -3.140  1.00  0.00     0.091 C 
ATOM      4  C   UNL     1       4.517  -6.044  -1.403  1.00  0.00     0.041 C 
ATOM      5  C   UNL     1       3.513  -5.877  -2.559  1.00  0.00     0.175 C 
ATOM      6  C   UNL     1       6.061  -3.442  -3.577  1.00  0.00     0.059 C 
ATOM      7  C   UNL     1       6.706  -4.699  -0.882  1.00  0.00     0.008 C 
ATOM      8  C   UNL     1       6.883  -2.688  -2.509  1.00  0.00     0.143 C 
ATOM      9  C   UNL     1       7.618  -3.653  -1.557  1.00  0.00     0.034 C 
ENDROOT
BRANCH   1  10
ATOM     10  C   UNL     1       3.975  -5.614  -4.975  1.00  0.00     0.246 C 
ATOM     11  O   UNL     1       3.502  -4.697  -5.655  1.00  0.00    -0.272 OA
BRANCH  10  12
ATOM     12  C   UNL     1       4.193  -7.035  -5.573  1.00  0.00     0.174 C 
BRANCH  12  13
ATOM     13  N   UNL     1       2.934  -7.779  -5.564  1.00  0.00    -0.342 N 
ATOM     14  C   UNL     1       2.091  -7.919  -6.643  1.00  0.00     0.249 C 
ATOM     15  O   UNL     1       2.320  -7.454  -7.753  1.00  0.00    -0.272 OA
ATOM     16  H   UNL     1       2.537  -8.086  -4.679  1.00  0.00     0.164 HD
BRANCH  14  17
ATOM     17  C   UNL     1       0.832  -8.748  -6.311  1.00  0.00     0.207 C 
BRANCH  17  18
ATOM     18  C   UNL     1       0.123  -8.175  -5.080  1.00  0.00     0.077 C 
BRANCH  18  19
ATOM     19  C   UNL     1      -1.087  -7.351  -5.459  1.00  0.00    -0.043 A 
ATOM     20  C   UNL     1      -2.820  -5.762  -4.863  1.00  0.00     0.083 A 
ATOM     21  C   UNL     1      -1.674  -6.484  -4.526  1.00  0.00     0.028 A 
ATOM     22  C   UNL     1      -3.385  -5.903  -6.131  1.00  0.00     0.134 A 
ATOM     23  C   UNL     1      -2.814  -6.759  -7.066  1.00  0.00     0.048 A 
ATOM     24  C   UNL     1      -1.668  -7.484  -6.730  1.00  0.00     0.008 A 
ATOM     25  Cl  UNL     1      -3.527  -4.701  -3.703  1.00  0.00    -0.080 Cl
BRANCH  22  26
ATOM     26  O   UNL     1      -4.514  -5.225  -6.505  1.00  0.00    -0.506 OA
ATOM     27  H   UNL     1      -4.580  -5.304  -7.474  1.00  0.00     0.293 HD
ENDBRANCH  22  26
ENDBRANCH  18  19
ENDBRANCH  17  18
BRANCH  17  28
ATOM     28  O   UNL     1       1.166 -10.124  -6.072  1.00  0.00    -0.383 OA
ATOM     29  H   UNL     1       2.134 -10.201  -6.235  1.00  0.00     0.211 HD
ENDBRANCH  17  28
ENDBRANCH  14  17
ENDBRANCH  12  13
BRANCH  12  30
ATOM     30  C   UNL     1       5.344  -7.809  -4.876  1.00  0.00     0.018 C 
ATOM     31  C   UNL     1       6.583  -7.878  -5.782  1.00  0.00     0.010 C 
BRANCH  30  32
ATOM     32  C   UNL     1       4.944  -9.230  -4.411  1.00  0.00     0.002 C 
ATOM     33  C   UNL     1       4.974  -9.455  -2.905  1.00  0.00     0.004 C 
ENDBRANCH  30  32
ENDBRANCH  12  30
ENDBRANCH  10  12
ENDBRANCH   1  10
BRANCH   5  34
ATOM     34  C   UNL     1       2.390  -4.867  -2.201  1.00  0.00     0.242 C 
ATOM     35  O   UNL     1       2.590  -3.654  -2.142  1.00  0.00    -0.273 OA
ATOM     36  N   UNL     1       1.170  -5.431  -1.901  1.00  0.00    -0.354 N 
ATOM     37  H   UNL     1       1.098  -6.448  -1.849  1.00  0.00     0.163 HD
BRANCH  36  38
ATOM     38  C   UNL     1      -0.033  -4.638  -1.757  1.00  0.00     0.116 C 
BRANCH  38  39
ATOM     39  C   UNL     1      -0.785  -5.062  -0.497  1.00  0.00     0.023 C 
BRANCH  39  40
ATOM     40  C   UNL     1      -0.972  -3.911   0.485  1.00  0.00     0.026 C 
BRANCH  40  41
ATOM     41  C   UNL     1       0.217  -2.951   0.427  1.00  0.00     0.146 C 
BRANCH  41  42
ATOM     42  N   UNL     1      -0.258  -1.593   0.197  1.00  0.00    -0.254 NA
ATOM     43  C   UNL     1       0.268  -0.888  -0.734  1.00  0.00     0.185 C 
ATOM     44  N   UNL     1       1.249  -1.194  -1.602  1.00  0.00    -0.370 N 
ATOM     45  N   UNL     1      -0.181   0.363  -0.927  1.00  0.00    -0.370 N 
ATOM     46  H   UNL     1       1.727  -0.471  -2.112  1.00  0.00     0.159 HD
ATOM     47  H   UNL     1       1.693  -2.107  -1.605  1.00  0.00     0.159 HD
ATOM     48  H   UNL     1      -0.928   0.671  -0.319  1.00  0.00     0.159 HD
ATOM     49  H   UNL     1       0.004   0.884  -1.766  1.00  0.00     0.159 HD
ENDBRANCH  41  42
ENDBRANCH  40  41
ENDBRANCH  39  40
ENDBRANCH  38  39
ENDBRANCH  36  38
ENDBRANCH   5  34
BRANCH   8  50
ATOM     50  O   UNL     1       6.026  -1.850  -1.733  1.00  0.00    -0.245 OA
BRANCH  50  51
ATOM     51  S   UNL     1       5.389  -0.512  -2.403  1.00  0.00     0.397 S 
ATOM     52  O   UNL     1       6.138  -0.214  -3.603  1.00  0.00    -0.169 OA
ATOM     53  O   UNL     1       5.167   0.486  -1.378  1.00  0.00    -0.169 OA
BRANCH  51  54
ATOM     54  O   UNL     1       3.954  -1.038  -2.902  1.00  0.00    -0.264 OA
ATOM     55  H   UNL     1       4.108  -1.742  -3.565  1.00  0.00     0.236 HD
ENDBRANCH  51  54
ENDBRANCH  50  51
ENDBRANCH   8  50
TORSDOF 19
ENDMDL
MODEL 25
REMARK VINA RESULT:    -6.839      4.371      9.702
REMARK INTER + INTRA:         -17.326
REMARK INTER:                 -15.087
REMARK INTRA:                  -2.239
REMARK UNBOUND:                -3.491
REMARK SMILES CC[C@@H](C)[C@@H](NC(=O)[C@@H](O)Cc1ccc(O)c(Cl)c1)C(=O)N1[C@H](C(=O)NCCCCN=C(N)N)C[C@H]2CC[C@H](OS(=O)(=O)O)C[C@@H]21
REMARK SMILES IDX 22 1 36 2 46 3 35 4 23 5 45 6 37 7 39 8 38 9 20 10 21 11
REMARK SMILES IDX 5 12 6 13 7 14 8 15 9 17 11 18 12 19 17 20 19 21 15 22 14 23
REMARK SMILES IDX 13 24 18 25 16 26 10 28 3 30 4 31 2 32 1 33 24 34 25 35
REMARK SMILES IDX 26 36 27 38 28 39 29 40 30 41 31 42 32 43 33 44 34 45 40 50
REMARK SMILES IDX 41 51 42 52 43 53 44 54
REMARK H PARENT 6 16 16 27 10 29 26 37 33 46 33 47 34 48 34 49 44 55
ROOT
ATOM      1  N   UNL     1       0.173  -6.215  -2.203  1.00  0.00    -0.326 N 
ATOM      2  C   UNL     1      -1.013  -5.720  -0.230  1.00  0.00     0.014 C 
ATOM      3  C   UNL     1       0.365  -5.597  -0.887  1.00  0.00     0.091 C 
ATOM      4  C   UNL     1      -1.524  -7.047  -0.770  1.00  0.00     0.041 C 
ATOM      5  C   UNL     1      -1.140  -6.904  -2.254  1.00  0.00     0.175 C 
ATOM      6  C   UNL     1       0.798  -4.133  -0.830  1.00  0.00     0.059 C 
ATOM      7  C   UNL     1      -0.920  -5.513   1.269  1.00  0.00     0.008 C 
ATOM      8  C   UNL     1       0.272  -3.378   0.409  1.00  0.00     0.143 C 
ATOM      9  C   UNL     1       0.009  -4.325   1.597  1.00  0.00     0.034 C 
ENDROOT
BRANCH   1  10
ATOM     10  C   UNL     1       1.078  -6.410  -3.232  1.00  0.00     0.246 C 
ATOM     11  O   UNL     1       0.749  -6.116  -4.386  1.00  0.00    -0.272 OA
BRANCH  10  12
ATOM     12  C   UNL     1       2.500  -6.953  -2.909  1.00  0.00     0.174 C 
BRANCH  12  13
ATOM     13  N   UNL     1       3.499  -5.912  -3.151  1.00  0.00    -0.342 N 
ATOM     14  C   UNL     1       4.197  -5.245  -2.170  1.00  0.00     0.249 C 
ATOM     15  O   UNL     1       4.078  -5.473  -0.972  1.00  0.00    -0.272 OA
ATOM     16  H   UNL     1       3.591  -5.509  -4.079  1.00  0.00     0.164 HD
BRANCH  14  17
ATOM     17  C   UNL     1       5.167  -4.189  -2.742  1.00  0.00     0.207 C 
BRANCH  17  18
ATOM     18  C   UNL     1       4.511  -3.433  -3.902  1.00  0.00     0.077 C 
BRANCH  18  19
ATOM     19  C   UNL     1       4.997  -2.003  -3.986  1.00  0.00    -0.043 A 
ATOM     20  C   UNL     1       6.541  -0.356  -4.872  1.00  0.00     0.083 A 
ATOM     21  C   UNL     1       6.064  -1.666  -4.834  1.00  0.00     0.028 A 
ATOM     22  C   UNL     1       5.960   0.623  -4.065  1.00  0.00     0.134 A 
ATOM     23  C   UNL     1       4.903   0.303  -3.221  1.00  0.00     0.048 A 
ATOM     24  C   UNL     1       4.424  -1.008  -3.180  1.00  0.00     0.008 A 
ATOM     25  Cl  UNL     1       7.853   0.039  -5.920  1.00  0.00    -0.080 Cl
BRANCH  22  26
ATOM     26  O   UNL     1       6.401   1.919  -4.061  1.00  0.00    -0.506 OA
ATOM     27  H   UNL     1       7.038   1.995  -3.326  1.00  0.00     0.293 HD
ENDBRANCH  22  26
ENDBRANCH  18  19
ENDBRANCH  17  18
BRANCH  17  28
ATOM     28  O   UNL     1       6.385  -4.800  -3.200  1.00  0.00    -0.383 OA
ATOM     29  H   UNL     1       6.988  -4.059  -3.435  1.00  0.00     0.211 HD
ENDBRANCH  17  28
ENDBRANCH  14  17
ENDBRANCH  12  13
BRANCH  12  30
ATOM     30  C   UNL     1       2.824  -8.271  -3.664  1.00  0.00     0.018 C 
ATOM     31  C   UNL     1       3.545  -7.978  -4.989  1.00  0.00     0.010 C 
BRANCH  30  32
ATOM     32  C   UNL     1       1.585  -9.163  -3.918  1.00  0.00     0.002 C 
ATOM     33  C   UNL     1       1.334  -9.529  -5.375  1.00  0.00     0.004 C 
ENDBRANCH  30  32
ENDBRANCH  12  30
ENDBRANCH  10  12
ENDBRANCH   1  10
BRANCH   5  34
ATOM     34  C   UNL     1      -2.178  -6.054  -3.034  1.00  0.00     0.242 C 
ATOM     35  O   UNL     1      -2.240  -4.830  -2.927  1.00  0.00    -0.273 OA
ATOM     36  N   UNL     1      -3.057  -6.774  -3.812  1.00  0.00    -0.354 N 
ATOM     37  H   UNL     1      -3.033  -7.793  -3.767  1.00  0.00     0.163 HD
BRANCH  36  38
ATOM     38  C   UNL     1      -3.943  -6.139  -4.766  1.00  0.00     0.116 C 
BRANCH  38  39
ATOM     39  C   UNL     1      -3.442  -6.391  -6.186  1.00  0.00     0.023 C 
BRANCH  39  40
ATOM     40  C   UNL     1      -2.728  -7.731  -6.323  1.00  0.00     0.026 C 
BRANCH  40  41
ATOM     41  C   UNL     1      -3.530  -8.686  -7.207  1.00  0.00     0.146 C 
BRANCH  41  42
ATOM     42  N   UNL     1      -4.697  -7.997  -7.743  1.00  0.00    -0.254 NA
ATOM     43  C   UNL     1      -5.796  -8.636  -7.893  1.00  0.00     0.185 C 
ATOM     44  N   UNL     1      -6.093  -9.921  -7.626  1.00  0.00    -0.370 N 
ATOM     45  N   UNL     1      -6.859  -7.984  -8.393  1.00  0.00    -0.370 N 
ATOM     46  H   UNL     1      -6.915 -10.349  -8.017  1.00  0.00     0.159 HD
ATOM     47  H   UNL     1      -5.407 -10.555  -7.229  1.00  0.00     0.159 HD
ATOM     48  H   UNL     1      -6.722  -7.007  -8.613  1.00  0.00     0.159 HD
ATOM     49  H   UNL     1      -7.797  -8.336  -8.319  1.00  0.00     0.159 HD
ENDBRANCH  41  42
ENDBRANCH  40  41
ENDBRANCH  39  40
ENDBRANCH  38  39
ENDBRANCH  36  38
ENDBRANCH   5  34
BRANCH   8  50
ATOM     50  O   UNL     1      -0.944  -2.700   0.091  1.00  0.00    -0.245 OA
BRANCH  50  51
ATOM     51  S   UNL     1      -1.082  -1.110   0.403  1.00  0.00     0.397 S 
ATOM     52  O   UNL     1      -2.391  -0.681  -0.035  1.00  0.00    -0.169 OA
ATOM     53  O   UNL     1       0.122  -0.425  -0.019  1.00  0.00    -0.169 OA
BRANCH  51  54
ATOM     54  O   UNL     1      -1.129  -1.086   2.010  1.00  0.00    -0.264 OA
ATOM     55  H   UNL     1      -0.252  -1.372   2.338  1.00  0.00     0.236 HD
ENDBRANCH  51  54
ENDBRANCH  50  51
ENDBRANCH   8  50
TORSDOF 19
ENDMDL
MODEL 26
REMARK VINA RESULT:    -6.810      2.726      5.783
REMARK INTER + INTRA:         -17.268
REMARK INTER:                 -14.113
REMARK INTRA:                  -3.155
REMARK UNBOUND:                -3.491
REMARK SMILES CC[C@@H](C)[C@@H](NC(=O)[C@@H](O)Cc1ccc(O)c(Cl)c1)C(=O)N1[C@H](C(=O)NCCCCN=C(N)N)C[C@H]2CC[C@H](OS(=O)(=O)O)C[C@@H]21
REMARK SMILES IDX 22 1 36 2 46 3 35 4 23 5 45 6 37 7 39 8 38 9 20 10 21 11
REMARK SMILES IDX 5 12 6 13 7 14 8 15 9 17 11 18 12 19 17 20 19 21 15 22 14 23
REMARK SMILES IDX 13 24 18 25 16 26 10 28 3 30 4 31 2 32 1 33 24 34 25 35
REMARK SMILES IDX 26 36 27 38 28 39 29 40 30 41 31 42 32 43 33 44 34 45 40 50
REMARK SMILES IDX 41 51 42 52 43 53 44 54
REMARK H PARENT 6 16 16 27 10 29 26 37 33 46 33 47 34 48 34 49 44 55
ROOT
ATOM      1  N   UNL     1       3.834  -6.188  -3.204  1.00  0.00    -0.326 N 
ATOM      2  C   UNL     1       5.341  -4.516  -2.517  1.00  0.00     0.014 C 
ATOM      3  C   UNL     1       4.888  -5.321  -3.738  1.00  0.00     0.091 C 
ATOM      4  C   UNL     1       5.198  -5.518  -1.382  1.00  0.00     0.041 C 
ATOM      5  C   UNL     1       3.821  -6.119  -1.722  1.00  0.00     0.175 C 
ATOM      6  C   UNL     1       4.525  -4.343  -4.854  1.00  0.00     0.059 C 
ATOM      7  C   UNL     1       6.687  -3.864  -2.766  1.00  0.00     0.008 C 
ATOM      8  C   UNL     1       5.359  -3.043  -4.836  1.00  0.00     0.143 C 
ATOM      9  C   UNL     1       6.740  -3.250  -4.181  1.00  0.00     0.034 C 
ENDROOT
BRANCH   1  10
ATOM     10  C   UNL     1       3.068  -7.150  -3.841  1.00  0.00     0.246 C 
ATOM     11  O   UNL     1       3.523  -8.291  -3.971  1.00  0.00    -0.272 OA
BRANCH  10  12
ATOM     12  C   UNL     1       1.639  -6.786  -4.340  1.00  0.00     0.174 C 
BRANCH  12  13
ATOM     13  N   UNL     1       0.641  -7.256  -3.380  1.00  0.00    -0.342 N 
ATOM     14  C   UNL     1      -0.267  -6.453  -2.728  1.00  0.00     0.249 C 
ATOM     15  O   UNL     1      -0.359  -5.244  -2.904  1.00  0.00    -0.272 OA
ATOM     16  H   UNL     1       0.699  -8.204  -3.017  1.00  0.00     0.164 HD
BRANCH  14  17
ATOM     17  C   UNL     1      -1.177  -7.244  -1.763  1.00  0.00     0.207 C 
BRANCH  17  18
ATOM     18  C   UNL     1      -2.639  -6.820  -1.937  1.00  0.00     0.077 C 
BRANCH  18  19
ATOM     19  C   UNL     1      -3.233  -7.363  -3.217  1.00  0.00    -0.043 A 
ATOM     20  C   UNL     1      -4.033  -7.009  -5.479  1.00  0.00     0.083 A 
ATOM     21  C   UNL     1      -3.439  -6.516  -4.317  1.00  0.00     0.028 A 
ATOM     22  C   UNL     1      -4.426  -8.346  -5.549  1.00  0.00     0.134 A 
ATOM     23  C   UNL     1      -4.228  -9.196  -4.467  1.00  0.00     0.048 A 
ATOM     24  C   UNL     1      -3.635  -8.705  -3.302  1.00  0.00     0.008 A 
ATOM     25  Cl  UNL     1      -4.278  -5.954  -6.821  1.00  0.00    -0.080 Cl
BRANCH  22  26
ATOM     26  O   UNL     1      -5.022  -8.873  -6.663  1.00  0.00    -0.506 OA
ATOM     27  H   UNL     1      -5.146  -9.824  -6.492  1.00  0.00     0.293 HD
ENDBRANCH  22  26
ENDBRANCH  18  19
ENDBRANCH  17  18
BRANCH  17  28
ATOM     28  O   UNL     1      -0.781  -7.042  -0.397  1.00  0.00    -0.383 OA
ATOM     29  H   UNL     1      -1.408  -6.381  -0.027  1.00  0.00     0.211 HD
ENDBRANCH  17  28
ENDBRANCH  14  17
ENDBRANCH  12  13
BRANCH  12  30
ATOM     30  C   UNL     1       1.360  -7.293  -5.781  1.00  0.00     0.018 C 
ATOM     31  C   UNL     1       2.065  -6.405  -6.818  1.00  0.00     0.010 C 
BRANCH  30  32
ATOM     32  C   UNL     1      -0.146  -7.410  -6.117  1.00  0.00     0.002 C 
ATOM     33  C   UNL     1      -0.687  -6.347  -7.065  1.00  0.00     0.004 C 
ENDBRANCH  30  32
ENDBRANCH  12  30
ENDBRANCH  10  12
ENDBRANCH   1  10
BRANCH   5  34
ATOM     34  C   UNL     1       2.663  -5.213  -1.224  1.00  0.00     0.242 C 
ATOM     35  O   UNL     1       1.922  -5.542  -0.298  1.00  0.00    -0.273 OA
ATOM     36  N   UNL     1       2.492  -4.041  -1.927  1.00  0.00    -0.354 N 
ATOM     37  H   UNL     1       3.060  -3.880  -2.759  1.00  0.00     0.163 HD
BRANCH  36  38
ATOM     38  C   UNL     1       1.610  -2.987  -1.470  1.00  0.00     0.116 C 
BRANCH  38  39
ATOM     39  C   UNL     1       2.393  -1.686  -1.314  1.00  0.00     0.023 C 
BRANCH  39  40
ATOM     40  C   UNL     1       1.762  -0.530  -2.082  1.00  0.00     0.026 C 
BRANCH  40  41
ATOM     41  C   UNL     1       1.229   0.532  -1.121  1.00  0.00     0.146 C 
BRANCH  41  42
ATOM     42  N   UNL     1       0.767  -0.101   0.107  1.00  0.00    -0.254 NA
ATOM     43  C   UNL     1      -0.466  -0.423   0.227  1.00  0.00     0.185 C 
ATOM     44  N   UNL     1      -1.488  -0.273  -0.635  1.00  0.00    -0.370 N 
ATOM     45  N   UNL     1      -0.874  -1.002   1.369  1.00  0.00    -0.370 N 
ATOM     46  H   UNL     1      -2.440  -0.344  -0.319  1.00  0.00     0.159 HD
ATOM     47  H   UNL     1      -1.354   0.136  -1.554  1.00  0.00     0.159 HD
ATOM     48  H   UNL     1      -0.163  -1.160   2.070  1.00  0.00     0.159 HD
ATOM     49  H   UNL     1      -1.748  -1.491   1.449  1.00  0.00     0.159 HD
ENDBRANCH  41  42
ENDBRANCH  40  41
ENDBRANCH  39  40
ENDBRANCH  38  39
ENDBRANCH  36  38
ENDBRANCH   5  34
BRANCH   8  50
ATOM     50  O   UNL     1       4.664  -2.024  -4.117  1.00  0.00    -0.245 OA
BRANCH  50  51
ATOM     51  S   UNL     1       4.973  -0.460  -4.440  1.00  0.00     0.397 S 
ATOM     52  O   UNL     1       3.745   0.154  -4.891  1.00  0.00    -0.169 OA
ATOM     53  O   UNL     1       6.200  -0.355  -5.203  1.00  0.00    -0.169 OA
BRANCH  51  54
ATOM     54  O   UNL     1       5.249   0.137  -2.973  1.00  0.00    -0.264 OA
ATOM     55  H   UNL     1       4.739  -0.399  -2.332  1.00  0.00     0.236 HD
ENDBRANCH  51  54
ENDBRANCH  50  51
ENDBRANCH   8  50
TORSDOF 19
ENDMDL
MODEL 27
REMARK VINA RESULT:    -6.789      4.597      9.543
REMARK INTER + INTRA:         -17.224
REMARK INTER:                 -15.781
REMARK INTRA:                  -1.444
REMARK UNBOUND:                -3.491
REMARK SMILES CC[C@@H](C)[C@@H](NC(=O)[C@@H](O)Cc1ccc(O)c(Cl)c1)C(=O)N1[C@H](C(=O)NCCCCN=C(N)N)C[C@H]2CC[C@H](OS(=O)(=O)O)C[C@@H]21
REMARK SMILES IDX 22 1 36 2 46 3 35 4 23 5 45 6 37 7 39 8 38 9 20 10 21 11
REMARK SMILES IDX 5 12 6 13 7 14 8 15 9 17 11 18 12 19 17 20 19 21 15 22 14 23
REMARK SMILES IDX 13 24 18 25 16 26 10 28 3 30 4 31 2 32 1 33 24 34 25 35
REMARK SMILES IDX 26 36 27 38 28 39 29 40 30 41 31 42 32 43 33 44 34 45 40 50
REMARK SMILES IDX 41 51 42 52 43 53 44 54
REMARK H PARENT 6 16 16 27 10 29 26 37 33 46 33 47 34 48 34 49 44 55
ROOT
ATOM      1  N   UNL     1      -0.864  -4.748   0.712  1.00  0.00    -0.326 N 
ATOM      2  C   UNL     1      -0.594  -6.009   2.682  1.00  0.00     0.014 C 
ATOM      3  C   UNL     1      -0.947  -4.610   2.169  1.00  0.00     0.091 C 
ATOM      4  C   UNL     1       0.436  -6.486   1.669  1.00  0.00     0.041 C 
ATOM      5  C   UNL     1      -0.248  -6.051   0.360  1.00  0.00     0.175 C 
ATOM      6  C   UNL     1      -2.283  -4.194   2.783  1.00  0.00     0.059 C 
ATOM      7  C   UNL     1      -0.227  -5.971   4.152  1.00  0.00     0.008 C 
ATOM      8  C   UNL     1      -2.525  -4.771   4.194  1.00  0.00     0.143 C 
ATOM      9  C   UNL     1      -1.204  -5.067   4.933  1.00  0.00     0.034 C 
ENDROOT
BRANCH   1  10
ATOM     10  C   UNL     1      -1.063  -3.804  -0.282  1.00  0.00     0.246 C 
ATOM     11  O   UNL     1      -2.135  -3.794  -0.895  1.00  0.00    -0.272 OA
BRANCH  10  12
ATOM     12  C   UNL     1       0.048  -2.754  -0.575  1.00  0.00     0.174 C 
BRANCH  12  13
ATOM     13  N   UNL     1       1.315  -3.431  -0.848  1.00  0.00    -0.342 N 
ATOM     14  C   UNL     1       2.318  -2.936  -1.650  1.00  0.00     0.249 C 
ATOM     15  O   UNL     1       2.270  -1.848  -2.209  1.00  0.00    -0.272 OA
ATOM     16  H   UNL     1       1.433  -4.406  -0.582  1.00  0.00     0.164 HD
BRANCH  14  17
ATOM     17  C   UNL     1       3.524  -3.894  -1.755  1.00  0.00     0.207 C 
BRANCH  17  18
ATOM     18  C   UNL     1       3.779  -4.277  -3.216  1.00  0.00     0.077 C 
BRANCH  18  19
ATOM     19  C   UNL     1       4.765  -3.340  -3.879  1.00  0.00    -0.043 A 
ATOM     20  C   UNL     1       5.967  -2.607  -5.853  1.00  0.00     0.083 A 
ATOM     21  C   UNL     1       5.021  -3.440  -5.255  1.00  0.00     0.028 A 
ATOM     22  C   UNL     1       6.662  -1.673  -5.084  1.00  0.00     0.134 A 
ATOM     23  C   UNL     1       6.417  -1.563  -3.720  1.00  0.00     0.048 A 
ATOM     24  C   UNL     1       5.472  -2.397  -3.117  1.00  0.00     0.008 A 
ATOM     25  Cl  UNL     1       6.269  -2.745  -7.546  1.00  0.00    -0.080 Cl
BRANCH  22  26
ATOM     26  O   UNL     1       7.606  -0.842  -5.624  1.00  0.00    -0.506 OA
ATOM     27  H   UNL     1       8.362  -1.404  -5.877  1.00  0.00     0.293 HD
ENDBRANCH  22  26
ENDBRANCH  18  19
ENDBRANCH  17  18
BRANCH  17  28
ATOM     28  O   UNL     1       3.307  -5.085  -0.981  1.00  0.00    -0.383 OA
ATOM     29  H   UNL     1       4.199  -5.467  -0.814  1.00  0.00     0.211 HD
ENDBRANCH  17  28
ENDBRANCH  14  17
ENDBRANCH  12  13
BRANCH  12  30
ATOM     30  C   UNL     1       0.175  -1.687   0.546  1.00  0.00     0.018 C 
ATOM     31  C   UNL     1       1.114  -2.176   1.661  1.00  0.00     0.010 C 
BRANCH  30  32
ATOM     32  C   UNL     1      -1.183  -1.252   1.147  1.00  0.00     0.002 C 
ATOM     33  C   UNL     1      -1.554   0.209   0.929  1.00  0.00     0.004 C 
ENDBRANCH  30  32
ENDBRANCH  12  30
ENDBRANCH  10  12
ENDBRANCH   1  10
BRANCH   5  34
ATOM     34  C   UNL     1      -1.331  -7.069  -0.086  1.00  0.00     0.242 C 
ATOM     35  O   UNL     1      -1.775  -7.932   0.671  1.00  0.00    -0.273 OA
ATOM     36  N   UNL     1      -1.718  -6.972  -1.404  1.00  0.00    -0.354 N 
ATOM     37  H   UNL     1      -1.228  -6.316  -2.014  1.00  0.00     0.163 HD
BRANCH  36  38
ATOM     38  C   UNL     1      -2.861  -7.691  -1.929  1.00  0.00     0.116 C 
BRANCH  38  39
ATOM     39  C   UNL     1      -2.543  -8.221  -3.325  1.00  0.00     0.023 C 
BRANCH  39  40
ATOM     40  C   UNL     1      -3.094  -7.325  -4.428  1.00  0.00     0.026 C 
BRANCH  40  41
ATOM     41  C   UNL     1      -3.589  -8.160  -5.609  1.00  0.00     0.146 C 
BRANCH  41  42
ATOM     42  N   UNL     1      -3.878  -7.290  -6.741  1.00  0.00    -0.254 NA
ATOM     43  C   UNL     1      -4.909  -7.515  -7.465  1.00  0.00     0.185 C 
ATOM     44  N   UNL     1      -5.845  -8.476  -7.364  1.00  0.00    -0.370 N 
ATOM     45  N   UNL     1      -5.156  -6.703  -8.507  1.00  0.00    -0.370 N 
ATOM     46  H   UNL     1      -6.456  -8.681  -8.137  1.00  0.00     0.159 HD
ATOM     47  H   UNL     1      -5.819  -9.169  -6.622  1.00  0.00     0.159 HD
ATOM     48  H   UNL     1      -4.502  -5.945  -8.649  1.00  0.00     0.159 HD
ATOM     49  H   UNL     1      -6.048  -6.665  -8.967  1.00  0.00     0.159 HD
ENDBRANCH  41  42
ENDBRANCH  40  41
ENDBRANCH  39  40
ENDBRANCH  38  39
ENDBRANCH  36  38
ENDBRANCH   5  34
BRANCH   8  50
ATOM     50  O   UNL     1      -3.277  -5.982   4.106  1.00  0.00    -0.245 OA
BRANCH  50  51
ATOM     51  S   UNL     1      -4.747  -6.066   4.796  1.00  0.00     0.397 S 
ATOM     52  O   UNL     1      -5.240  -4.718   4.963  1.00  0.00    -0.169 OA
ATOM     53  O   UNL     1      -4.714  -7.005   5.898  1.00  0.00    -0.169 OA
BRANCH  51  54
ATOM     54  O   UNL     1      -5.633  -6.714   3.620  1.00  0.00    -0.264 OA
ATOM     55  H   UNL     1      -5.103  -7.425   3.205  1.00  0.00     0.236 HD
ENDBRANCH  51  54
ENDBRANCH  50  51
ENDBRANCH   8  50
TORSDOF 19
ENDMDL
MODEL 28
REMARK VINA RESULT:    -6.782     18.284     21.648
REMARK INTER + INTRA:         -17.211
REMARK INTER:                 -13.901
REMARK INTRA:                  -3.310
REMARK UNBOUND:                -3.491
REMARK SMILES CC[C@@H](C)[C@@H](NC(=O)[C@@H](O)Cc1ccc(O)c(Cl)c1)C(=O)N1[C@H](C(=O)NCCCCN=C(N)N)C[C@H]2CC[C@H](OS(=O)(=O)O)C[C@@H]21
REMARK SMILES IDX 22 1 36 2 46 3 35 4 23 5 45 6 37 7 39 8 38 9 20 10 21 11
REMARK SMILES IDX 5 12 6 13 7 14 8 15 9 17 11 18 12 19 17 20 19 21 15 22 14 23
REMARK SMILES IDX 13 24 18 25 16 26 10 28 3 30 4 31 2 32 1 33 24 34 25 35
REMARK SMILES IDX 26 36 27 38 28 39 29 40 30 41 31 42 32 43 33 44 34 45 40 50
REMARK SMILES IDX 41 51 42 52 43 53 44 54
REMARK H PARENT 6 16 16 27 10 29 26 37 33 46 33 47 34 48 34 49 44 55
ROOT
ATOM      1  N   UNL     1     -17.727  -8.061   2.238  1.00  0.00    -0.326 N 
ATOM      2  C   UNL     1     -19.108  -6.676   3.548  1.00  0.00     0.014 C 
ATOM      3  C   UNL     1     -19.051  -8.045   2.866  1.00  0.00     0.091 C 
ATOM      4  C   UNL     1     -18.323  -5.792   2.591  1.00  0.00     0.041 C 
ATOM      5  C   UNL     1     -17.121  -6.708   2.298  1.00  0.00     0.175 C 
ATOM      6  C   UNL     1     -19.372  -9.117   3.906  1.00  0.00     0.059 C 
ATOM      7  C   UNL     1     -20.535  -6.305   3.902  1.00  0.00     0.008 C 
ATOM      8  C   UNL     1     -20.356  -8.647   4.999  1.00  0.00     0.143 C 
ATOM      9  C   UNL     1     -21.279  -7.517   4.500  1.00  0.00     0.034 C 
ENDROOT
BRANCH   1  10
ATOM     10  C   UNL     1     -17.122  -9.037   1.464  1.00  0.00     0.246 C 
ATOM     11  O   UNL     1     -16.895 -10.144   1.964  1.00  0.00    -0.272 OA
BRANCH  10  12
ATOM     12  C   UNL     1     -16.783  -8.736  -0.024  1.00  0.00     0.174 C 
BRANCH  12  13
ATOM     13  N   UNL     1     -17.998  -8.361  -0.747  1.00  0.00    -0.342 N 
ATOM     14  C   UNL     1     -18.305  -7.087  -1.170  1.00  0.00     0.249 C 
ATOM     15  O   UNL     1     -17.571  -6.120  -1.010  1.00  0.00    -0.272 OA
ATOM     16  H   UNL     1     -18.768  -9.022  -0.814  1.00  0.00     0.164 HD
BRANCH  14  17
ATOM     17  C   UNL     1     -19.668  -7.011  -1.890  1.00  0.00     0.207 C 
BRANCH  17  18
ATOM     18  C   UNL     1     -19.546  -6.201  -3.184  1.00  0.00     0.077 C 
BRANCH  18  19
ATOM     19  C   UNL     1     -18.981  -7.031  -4.315  1.00  0.00    -0.043 A 
ATOM     20  C   UNL     1     -18.920  -9.102  -5.576  1.00  0.00     0.083 A 
ATOM     21  C   UNL     1     -19.477  -8.320  -4.564  1.00  0.00     0.028 A 
ATOM     22  C   UNL     1     -17.866  -8.604  -6.343  1.00  0.00     0.134 A 
ATOM     23  C   UNL     1     -17.365  -7.329  -6.108  1.00  0.00     0.048 A 
ATOM     24  C   UNL     1     -17.920  -6.545  -5.094  1.00  0.00     0.008 A 
ATOM     25  Cl  UNL     1     -19.543 -10.684  -5.867  1.00  0.00    -0.080 Cl
BRANCH  22  26
ATOM     26  O   UNL     1     -17.281  -9.338  -7.340  1.00  0.00    -0.506 OA
ATOM     27  H   UNL     1     -17.979  -9.905  -7.717  1.00  0.00     0.293 HD
ENDBRANCH  22  26
ENDBRANCH  18  19
ENDBRANCH  17  18
BRANCH  17  28
ATOM     28  O   UNL     1     -20.666  -6.413  -1.046  1.00  0.00    -0.383 OA
ATOM     29  H   UNL     1     -21.475  -6.963  -1.151  1.00  0.00     0.211 HD
ENDBRANCH  17  28
ENDBRANCH  14  17
ENDBRANCH  12  13
BRANCH  12  30
ATOM     30  C   UNL     1     -16.019  -9.899  -0.713  1.00  0.00     0.018 C 
ATOM     31  C   UNL     1     -14.551  -9.516  -0.961  1.00  0.00     0.010 C 
BRANCH  30  32
ATOM     32  C   UNL     1     -16.674 -10.379  -2.030  1.00  0.00     0.002 C 
ATOM     33  C   UNL     1     -16.034  -9.849  -3.307  1.00  0.00     0.004 C 
ENDBRANCH  30  32
ENDBRANCH  12  30
ENDBRANCH  10  12
ENDBRANCH   1  10
BRANCH   5  34
ATOM     34  C   UNL     1     -16.056  -6.632   3.425  1.00  0.00     0.242 C 
ATOM     35  O   UNL     1     -15.973  -7.483   4.310  1.00  0.00    -0.273 OA
ATOM     36  N   UNL     1     -15.249  -5.517   3.394  1.00  0.00    -0.354 N 
ATOM     37  H   UNL     1     -15.445  -4.787   2.707  1.00  0.00     0.163 HD
BRANCH  36  38
ATOM     38  C   UNL     1     -14.073  -5.389   4.230  1.00  0.00     0.116 C 
BRANCH  38  39
ATOM     39  C   UNL     1     -13.090  -4.408   3.597  1.00  0.00     0.023 C 
BRANCH  39  40
ATOM     40  C   UNL     1     -13.252  -2.991   4.137  1.00  0.00     0.026 C 
BRANCH  40  41
ATOM     41  C   UNL     1     -13.671  -2.031   3.023  1.00  0.00     0.146 C 
BRANCH  41  42
ATOM     42  N   UNL     1     -14.929  -2.476   2.437  1.00  0.00    -0.254 NA
ATOM     43  C   UNL     1     -16.032  -1.975   2.849  1.00  0.00     0.185 C 
ATOM     44  N   UNL     1     -16.259  -1.043   3.793  1.00  0.00    -0.370 N 
ATOM     45  N   UNL     1     -17.180  -2.401   2.299  1.00  0.00    -0.370 N 
ATOM     46  H   UNL     1     -17.178  -0.922   4.183  1.00  0.00     0.159 HD
ATOM     47  H   UNL     1     -15.499  -0.602   4.301  1.00  0.00     0.159 HD
ATOM     48  H   UNL     1     -17.097  -3.099   1.572  1.00  0.00     0.159 HD
ATOM     49  H   UNL     1     -18.047  -1.901   2.392  1.00  0.00     0.159 HD
ENDBRANCH  41  42
ENDBRANCH  40  41
ENDBRANCH  39  40
ENDBRANCH  38  39
ENDBRANCH  36  38
ENDBRANCH   5  34
BRANCH   8  50
ATOM     50  O   UNL     1     -19.635  -8.174   6.137  1.00  0.00    -0.245 OA
BRANCH  50  51
ATOM     51  S   UNL     1     -20.131  -8.587   7.630  1.00  0.00     0.397 S 
ATOM     52  O   UNL     1     -19.068  -8.270   8.557  1.00  0.00    -0.169 OA
ATOM     53  O   UNL     1     -20.740  -9.901   7.594  1.00  0.00    -0.169 OA
BRANCH  51  54
ATOM     54  O   UNL     1     -21.291  -7.510   7.909  1.00  0.00    -0.264 OA
ATOM     55  H   UNL     1     -21.744  -7.332   7.059  1.00  0.00     0.236 HD
ENDBRANCH  51  54
ENDBRANCH  50  51
ENDBRANCH   8  50
TORSDOF 19
ENDMDL
MODEL 29
REMARK VINA RESULT:    -6.764      5.207     10.798
REMARK INTER + INTRA:         -17.174
REMARK INTER:                 -14.996
REMARK INTRA:                  -2.178
REMARK UNBOUND:                -3.491
REMARK SMILES CC[C@@H](C)[C@@H](NC(=O)[C@@H](O)Cc1ccc(O)c(Cl)c1)C(=O)N1[C@H](C(=O)NCCCCN=C(N)N)C[C@H]2CC[C@H](OS(=O)(=O)O)C[C@@H]21
REMARK SMILES IDX 22 1 36 2 46 3 35 4 23 5 45 6 37 7 39 8 38 9 20 10 21 11
REMARK SMILES IDX 5 12 6 13 7 14 8 15 9 17 11 18 12 19 17 20 19 21 15 22 14 23
REMARK SMILES IDX 13 24 18 25 16 26 10 28 3 30 4 31 2 32 1 33 24 34 25 35
REMARK SMILES IDX 26 36 27 38 28 39 29 40 30 41 31 42 32 43 33 44 34 45 40 50
REMARK SMILES IDX 41 51 42 52 43 53 44 54
REMARK H PARENT 6 16 16 27 10 29 26 37 33 46 33 47 34 48 34 49 44 55
ROOT
ATOM      1  N   UNL     1      -2.242  -7.058  -1.005  1.00  0.00    -0.326 N 
ATOM      2  C   UNL     1      -0.665  -6.505   0.653  1.00  0.00     0.014 C 
ATOM      3  C   UNL     1      -1.128  -6.138  -0.760  1.00  0.00     0.091 C 
ATOM      4  C   UNL     1      -0.895  -8.008   0.701  1.00  0.00     0.041 C 
ATOM      5  C   UNL     1      -2.293  -8.090   0.060  1.00  0.00     0.175 C 
ATOM      6  C   UNL     1      -1.405  -4.637  -0.803  1.00  0.00     0.059 C 
ATOM      7  C   UNL     1       0.721  -5.956   0.930  1.00  0.00     0.008 C 
ATOM      8  C   UNL     1      -0.502  -3.811   0.139  1.00  0.00     0.143 C 
ATOM      9  C   UNL     1       0.847  -4.509   0.408  1.00  0.00     0.034 C 
ENDROOT
BRANCH   1  10
ATOM     10  C   UNL     1      -3.041  -7.206  -2.126  1.00  0.00     0.246 C 
ATOM     11  O   UNL     1      -4.154  -6.670  -2.146  1.00  0.00    -0.272 OA
BRANCH  10  12
ATOM     12  C   UNL     1      -2.505  -8.003  -3.350  1.00  0.00     0.174 C 
BRANCH  12  13
ATOM     13  N   UNL     1      -1.155  -7.553  -3.687  1.00  0.00    -0.342 N 
ATOM     14  C   UNL     1       0.003  -8.236  -3.388  1.00  0.00     0.249 C 
ATOM     15  O   UNL     1       0.027  -9.324  -2.825  1.00  0.00    -0.272 OA
ATOM     16  H   UNL     1      -1.008  -6.601  -4.013  1.00  0.00     0.164 HD
BRANCH  14  17
ATOM     17  C   UNL     1       1.271  -7.493  -3.859  1.00  0.00     0.207 C 
BRANCH  17  18
ATOM     18  C   UNL     1       1.518  -6.253  -2.994  1.00  0.00     0.077 C 
BRANCH  18  19
ATOM     19  C   UNL     1       2.973  -6.122  -2.603  1.00  0.00    -0.043 A 
ATOM     20  C   UNL     1       4.801  -4.793  -1.722  1.00  0.00     0.083 A 
ATOM     21  C   UNL     1       3.449  -4.929  -2.036  1.00  0.00     0.028 A 
ATOM     22  C   UNL     1       5.685  -5.843  -1.973  1.00  0.00     0.134 A 
ATOM     23  C   UNL     1       5.227  -7.030  -2.534  1.00  0.00     0.048 A 
ATOM     24  C   UNL     1       3.874  -7.168  -2.850  1.00  0.00     0.008 A 
ATOM     25  Cl  UNL     1       5.367  -3.320  -1.027  1.00  0.00    -0.080 Cl
BRANCH  22  26
ATOM     26  O   UNL     1       7.022  -5.753  -1.692  1.00  0.00    -0.506 OA
ATOM     27  H   UNL     1       7.096  -5.317  -0.823  1.00  0.00     0.293 HD
ENDBRANCH  22  26
ENDBRANCH  18  19
ENDBRANCH  17  18
BRANCH  17  28
ATOM     28  O   UNL     1       1.157  -7.098  -5.236  1.00  0.00    -0.383 OA
ATOM     29  H   UNL     1       1.820  -7.634  -5.728  1.00  0.00     0.211 HD
ENDBRANCH  17  28
ENDBRANCH  14  17
ENDBRANCH  12  13
BRANCH  12  30
ATOM     30  C   UNL     1      -3.467  -7.952  -4.567  1.00  0.00     0.018 C 
ATOM     31  C   UNL     1      -3.479  -9.296  -5.312  1.00  0.00     0.010 C 
BRANCH  30  32
ATOM     32  C   UNL     1      -3.159  -6.800  -5.555  1.00  0.00     0.002 C 
ATOM     33  C   UNL     1      -2.784  -7.234  -6.966  1.00  0.00     0.004 C 
ENDBRANCH  30  32
ENDBRANCH  12  30
ENDBRANCH  10  12
ENDBRANCH   1  10
BRANCH   5  34
ATOM     34  C   UNL     1      -3.412  -7.769   1.085  1.00  0.00     0.242 C 
ATOM     35  O   UNL     1      -4.583  -8.103   0.907  1.00  0.00    -0.273 OA
ATOM     36  N   UNL     1      -3.011  -7.036   2.180  1.00  0.00    -0.354 N 
ATOM     37  H   UNL     1      -2.053  -6.686   2.212  1.00  0.00     0.163 HD
BRANCH  36  38
ATOM     38  C   UNL     1      -3.867  -6.834   3.331  1.00  0.00     0.116 C 
BRANCH  38  39
ATOM     39  C   UNL     1      -3.359  -5.652   4.153  1.00  0.00     0.023 C 
BRANCH  39  40
ATOM     40  C   UNL     1      -4.437  -5.066   5.058  1.00  0.00     0.026 C 
BRANCH  40  41
ATOM     41  C   UNL     1      -4.985  -6.131   6.008  1.00  0.00     0.146 C 
BRANCH  41  42
ATOM     42  N   UNL     1      -5.120  -5.573   7.348  1.00  0.00    -0.254 NA
ATOM     43  C   UNL     1      -6.178  -5.812   8.029  1.00  0.00     0.185 C 
ATOM     44  N   UNL     1      -7.266  -6.537   7.712  1.00  0.00    -0.370 N 
ATOM     45  N   UNL     1      -6.285  -5.285   9.260  1.00  0.00    -0.370 N 
ATOM     46  H   UNL     1      -8.118  -6.439   8.237  1.00  0.00     0.159 HD
ATOM     47  H   UNL     1      -7.345  -7.018   6.822  1.00  0.00     0.159 HD
ATOM     48  H   UNL     1      -5.503  -4.731   9.580  1.00  0.00     0.159 HD
ATOM     49  H   UNL     1      -6.954  -5.611   9.935  1.00  0.00     0.159 HD
ENDBRANCH  41  42
ENDBRANCH  40  41
ENDBRANCH  39  40
ENDBRANCH  38  39
ENDBRANCH  36  38
ENDBRANCH   5  34
BRANCH   8  50
ATOM     50  O   UNL     1      -1.160  -3.600   1.389  1.00  0.00    -0.245 OA
BRANCH  50  51
ATOM     51  S   UNL     1      -1.045  -2.153   2.122  1.00  0.00     0.397 S 
ATOM     52  O   UNL     1      -1.476  -2.312   3.493  1.00  0.00    -0.169 OA
ATOM     53  O   UNL     1      -1.603  -1.128   1.265  1.00  0.00    -0.169 OA
BRANCH  51  54
ATOM     54  O   UNL     1       0.546  -1.934   2.186  1.00  0.00    -0.264 OA
ATOM     55  H   UNL     1       0.876  -2.373   2.996  1.00  0.00     0.236 HD
ENDBRANCH  51  54
ENDBRANCH  50  51
ENDBRANCH   8  50
TORSDOF 19
ENDMDL
MODEL 30
REMARK VINA RESULT:    -6.723     17.335     20.124
REMARK INTER + INTRA:         -17.091
REMARK INTER:                 -14.359
REMARK INTRA:                  -2.733
REMARK UNBOUND:                -3.491
REMARK SMILES CC[C@@H](C)[C@@H](NC(=O)[C@@H](O)Cc1ccc(O)c(Cl)c1)C(=O)N1[C@H](C(=O)NCCCCN=C(N)N)C[C@H]2CC[C@H](OS(=O)(=O)O)C[C@@H]21
REMARK SMILES IDX 22 1 36 2 46 3 35 4 23 5 45 6 37 7 39 8 38 9 20 10 21 11
REMARK SMILES IDX 5 12 6 13 7 14 8 15 9 17 11 18 12 19 17 20 19 21 15 22 14 23
REMARK SMILES IDX 13 24 18 25 16 26 10 28 3 30 4 31 2 32 1 33 24 34 25 35
REMARK SMILES IDX 26 36 27 38 28 39 29 40 30 41 31 42 32 43 33 44 34 45 40 50
REMARK SMILES IDX 41 51 42 52 43 53 44 54
REMARK H PARENT 6 16 16 27 10 29 26 37 33 46 33 47 34 48 34 49 44 55
ROOT
ATOM      1  N   UNL     1     -15.241  -5.247   2.573  1.00  0.00    -0.326 N 
ATOM      2  C   UNL     1     -16.941  -6.736   3.231  1.00  0.00     0.014 C 
ATOM      3  C   UNL     1     -16.701  -5.340   2.649  1.00  0.00     0.091 C 
ATOM      4  C   UNL     1     -15.766  -6.909   4.181  1.00  0.00     0.041 C 
ATOM      5  C   UNL     1     -14.621  -6.383   3.297  1.00  0.00     0.175 C 
ATOM      6  C   UNL     1     -17.504  -5.211   1.356  1.00  0.00     0.059 C 
ATOM      7  C   UNL     1     -18.354  -6.867   3.763  1.00  0.00     0.008 C 
ATOM      8  C   UNL     1     -18.819  -6.020   1.358  1.00  0.00     0.143 C 
ATOM      9  C   UNL     1     -19.365  -6.235   2.784  1.00  0.00     0.034 C 
ENDROOT
BRANCH   1  10
ATOM     10  C   UNL     1     -14.439  -4.203   2.142  1.00  0.00     0.246 C 
ATOM     11  O   UNL     1     -13.512  -4.440   1.361  1.00  0.00    -0.272 OA
BRANCH  10  12
ATOM     12  C   UNL     1     -14.748  -2.753   2.616  1.00  0.00     0.174 C 
BRANCH  12  13
ATOM     13  N   UNL     1     -14.587  -1.820   1.502  1.00  0.00    -0.342 N 
ATOM     14  C   UNL     1     -15.454  -0.794   1.199  1.00  0.00     0.249 C 
ATOM     15  O   UNL     1     -16.454  -0.530   1.855  1.00  0.00    -0.272 OA
ATOM     16  H   UNL     1     -13.894  -2.009   0.782  1.00  0.00     0.164 HD
BRANCH  14  17
ATOM     17  C   UNL     1     -15.020   0.005  -0.048  1.00  0.00     0.207 C 
BRANCH  17  18
ATOM     18  C   UNL     1     -15.690  -0.558  -1.305  1.00  0.00     0.077 C 
BRANCH  18  19
ATOM     19  C   UNL     1     -16.657   0.431  -1.917  1.00  0.00    -0.043 A 
ATOM     20  C   UNL     1     -17.491   1.636  -3.850  1.00  0.00     0.083 A 
ATOM     21  C   UNL     1     -16.631   0.686  -3.297  1.00  0.00     0.028 A 
ATOM     22  C   UNL     1     -18.379   2.335  -3.032  1.00  0.00     0.134 A 
ATOM     23  C   UNL     1     -18.415   2.093  -1.663  1.00  0.00     0.048 A 
ATOM     24  C   UNL     1     -17.554   1.144  -1.106  1.00  0.00     0.008 A 
ATOM     25  Cl  UNL     1     -17.445   1.935  -5.548  1.00  0.00    -0.080 Cl
BRANCH  22  26
ATOM     26  O   UNL     1     -19.233   3.283  -3.527  1.00  0.00    -0.506 OA
ATOM     27  H   UNL     1     -19.274   3.147  -4.492  1.00  0.00     0.293 HD
ENDBRANCH  22  26
ENDBRANCH  18  19
ENDBRANCH  17  18
BRANCH  17  28
ATOM     28  O   UNL     1     -13.593  -0.030  -0.213  1.00  0.00    -0.383 OA
ATOM     29  H   UNL     1     -13.216   0.386   0.595  1.00  0.00     0.211 HD
ENDBRANCH  17  28
ENDBRANCH  14  17
ENDBRANCH  12  13
BRANCH  12  30
ATOM     30  C   UNL     1     -13.917  -2.339   3.860  1.00  0.00     0.018 C 
ATOM     31  C   UNL     1     -12.657  -3.209   3.990  1.00  0.00     0.010 C 
BRANCH  30  32
ATOM     32  C   UNL     1     -14.721  -2.367   5.183  1.00  0.00     0.002 C 
ATOM     33  C   UNL     1     -15.705  -1.220   5.372  1.00  0.00     0.004 C 
ENDBRANCH  30  32
ENDBRANCH  12  30
ENDBRANCH  10  12
ENDBRANCH   1  10
BRANCH   5  34
ATOM     34  C   UNL     1     -14.124  -7.465   2.302  1.00  0.00     0.242 C 
ATOM     35  O   UNL     1     -13.286  -8.312   2.614  1.00  0.00    -0.273 OA
ATOM     36  N   UNL     1     -14.646  -7.376   1.031  1.00  0.00    -0.354 N 
ATOM     37  H   UNL     1     -15.244  -6.581   0.800  1.00  0.00     0.163 HD
BRANCH  36  38
ATOM     38  C   UNL     1     -14.463  -8.420   0.044  1.00  0.00     0.116 C 
BRANCH  38  39
ATOM     39  C   UNL     1     -15.707  -9.303  -0.014  1.00  0.00     0.023 C 
BRANCH  39  40
ATOM     40  C   UNL     1     -15.475 -10.585  -0.807  1.00  0.00     0.026 C 
BRANCH  40  41
ATOM     41  C   UNL     1     -16.266 -10.563  -2.115  1.00  0.00     0.146 C 
BRANCH  41  42
ATOM     42  N   UNL     1     -15.884  -9.398  -2.902  1.00  0.00    -0.254 NA
ATOM     43  C   UNL     1     -16.744  -8.848  -3.676  1.00  0.00     0.185 C 
ATOM     44  N   UNL     1     -18.028  -9.171  -3.911  1.00  0.00    -0.370 N 
ATOM     45  N   UNL     1     -16.371  -7.777  -4.396  1.00  0.00    -0.370 N 
ATOM     46  H   UNL     1     -18.509  -8.809  -4.717  1.00  0.00     0.159 HD
ATOM     47  H   UNL     1     -18.477  -9.949  -3.438  1.00  0.00     0.159 HD
ATOM     48  H   UNL     1     -15.419  -7.461  -4.271  1.00  0.00     0.159 HD
ATOM     49  H   UNL     1     -17.032  -7.158  -4.831  1.00  0.00     0.159 HD
ENDBRANCH  41  42
ENDBRANCH  40  41
ENDBRANCH  39  40
ENDBRANCH  38  39
ENDBRANCH  36  38
ENDBRANCH   5  34
BRANCH   8  50
ATOM     50  O   UNL     1     -18.610  -7.297   0.755  1.00  0.00    -0.245 OA
BRANCH  50  51
ATOM     51  S   UNL     1     -18.929  -7.501  -0.827  1.00  0.00     0.397 S 
ATOM     52  O   UNL     1     -19.229  -8.898  -1.045  1.00  0.00    -0.169 OA
ATOM     53  O   UNL     1     -17.935  -6.805  -1.617  1.00  0.00    -0.169 OA
BRANCH  51  54
ATOM     54  O   UNL     1     -20.326  -6.722  -0.990  1.00  0.00    -0.264 OA
ATOM     55  H   UNL     1     -20.385  -6.061  -0.270  1.00  0.00     0.236 HD
ENDBRANCH  51  54
ENDBRANCH  50  51
ENDBRANCH   8  50
TORSDOF 19
ENDMDL
MODEL 31
REMARK VINA RESULT:    -6.718      5.301      9.416
REMARK INTER + INTRA:         -17.082
REMARK INTER:                 -14.030
REMARK INTRA:                  -3.051
REMARK UNBOUND:                -3.491
REMARK SMILES CC[C@@H](C)[C@@H](NC(=O)[C@@H](O)Cc1ccc(O)c(Cl)c1)C(=O)N1[C@H](C(=O)NCCCCN=C(N)N)C[C@H]2CC[C@H](OS(=O)(=O)O)C[C@@H]21
REMARK SMILES IDX 22 1 36 2 46 3 35 4 23 5 45 6 37 7 39 8 38 9 20 10 21 11
REMARK SMILES IDX 5 12 6 13 7 14 8 15 9 17 11 18 12 19 17 20 19 21 15 22 14 23
REMARK SMILES IDX 13 24 18 25 16 26 10 28 3 30 4 31 2 32 1 33 24 34 25 35
REMARK SMILES IDX 26 36 27 38 28 39 29 40 30 41 31 42 32 43 33 44 34 45 40 50
REMARK SMILES IDX 41 51 42 52 43 53 44 54
REMARK H PARENT 6 16 16 27 10 29 26 37 33 46 33 47 34 48 34 49 44 55
ROOT
ATOM      1  N   UNL     1      -1.276  -7.978  -3.811  1.00  0.00    -0.326 N 
ATOM      2  C   UNL     1      -0.911  -7.311  -6.039  1.00  0.00     0.014 C 
ATOM      3  C   UNL     1      -0.278  -7.301  -4.645  1.00  0.00     0.091 C 
ATOM      4  C   UNL     1      -2.393  -7.156  -5.736  1.00  0.00     0.041 C 
ATOM      5  C   UNL     1      -2.538  -8.153  -4.571  1.00  0.00     0.175 C 
ATOM      6  C   UNL     1       1.118  -7.912  -4.744  1.00  0.00     0.059 C 
ATOM      7  C   UNL     1      -0.230  -6.309  -6.951  1.00  0.00     0.008 C 
ATOM      8  C   UNL     1       1.814  -7.656  -6.099  1.00  0.00     0.143 C 
ATOM      9  C   UNL     1       1.302  -6.370  -6.779  1.00  0.00     0.034 C 
ENDROOT
BRANCH   1  10
ATOM     10  C   UNL     1      -1.262  -8.246  -2.453  1.00  0.00     0.246 C 
ATOM     11  O   UNL     1      -0.478  -9.094  -2.015  1.00  0.00    -0.272 OA
BRANCH  10  12
ATOM     12  C   UNL     1      -2.202  -7.447  -1.504  1.00  0.00     0.174 C 
BRANCH  12  13
ATOM     13  N   UNL     1      -1.487  -6.302  -0.943  1.00  0.00    -0.342 N 
ATOM     14  C   UNL     1      -1.346  -5.079  -1.560  1.00  0.00     0.249 C 
ATOM     15  O   UNL     1      -1.834  -4.804  -2.649  1.00  0.00    -0.272 OA
ATOM     16  H   UNL     1      -0.900  -6.427  -0.122  1.00  0.00     0.164 HD
BRANCH  14  17
ATOM     17  C   UNL     1      -0.522  -4.080  -0.720  1.00  0.00     0.207 C 
BRANCH  17  18
ATOM     18  C   UNL     1      -1.449  -3.173   0.095  1.00  0.00     0.077 C 
BRANCH  18  19
ATOM     19  C   UNL     1      -1.220  -3.326   1.582  1.00  0.00    -0.043 A 
ATOM     20  C   UNL     1      -1.498  -4.593   3.632  1.00  0.00     0.083 A 
ATOM     21  C   UNL     1      -1.666  -4.476   2.252  1.00  0.00     0.028 A 
ATOM     22  C   UNL     1      -0.886  -3.565   4.350  1.00  0.00     0.134 A 
ATOM     23  C   UNL     1      -0.439  -2.421   3.699  1.00  0.00     0.048 A 
ATOM     24  C   UNL     1      -0.608  -2.300   2.318  1.00  0.00     0.008 A 
ATOM     25  Cl  UNL     1      -2.053  -6.013   4.438  1.00  0.00    -0.080 Cl
BRANCH  22  26
ATOM     26  O   UNL     1      -0.708  -3.629   5.706  1.00  0.00    -0.506 OA
ATOM     27  H   UNL     1      -0.407  -4.535   5.906  1.00  0.00     0.293 HD
ENDBRANCH  22  26
ENDBRANCH  18  19
ENDBRANCH  17  18
BRANCH  17  28
ATOM     28  O   UNL     1       0.321  -3.271  -1.558  1.00  0.00    -0.383 OA
ATOM     29  H   UNL     1      -0.284  -2.783  -2.162  1.00  0.00     0.211 HD
ENDBRANCH  17  28
ENDBRANCH  14  17
ENDBRANCH  12  13
BRANCH  12  30
ATOM     30  C   UNL     1      -2.847  -8.338  -0.408  1.00  0.00     0.018 C 
ATOM     31  C   UNL     1      -4.340  -8.560  -0.693  1.00  0.00     0.010 C 
BRANCH  30  32
ATOM     32  C   UNL     1      -2.654  -7.793   1.028  1.00  0.00     0.002 C 
ATOM     33  C   UNL     1      -3.888  -7.855   1.919  1.00  0.00     0.004 C 
ENDBRANCH  30  32
ENDBRANCH  12  30
ENDBRANCH  10  12
ENDBRANCH   1  10
BRANCH   5  34
ATOM     34  C   UNL     1      -2.677  -9.612  -5.080  1.00  0.00     0.242 C 
ATOM     35  O   UNL     1      -1.782 -10.446  -4.940  1.00  0.00    -0.273 OA
ATOM     36  N   UNL     1      -3.848  -9.891  -5.748  1.00  0.00    -0.354 N 
ATOM     37  H   UNL     1      -4.499  -9.128  -5.938  1.00  0.00     0.163 HD
BRANCH  36  38
ATOM     38  C   UNL     1      -4.236 -11.242  -6.098  1.00  0.00     0.116 C 
BRANCH  38  39
ATOM     39  C   UNL     1      -4.218 -11.409  -7.616  1.00  0.00     0.023 C 
BRANCH  39  40
ATOM     40  C   UNL     1      -5.613 -11.617  -8.196  1.00  0.00     0.026 C 
BRANCH  40  41
ATOM     41  C   UNL     1      -6.064 -10.383  -8.978  1.00  0.00     0.146 C 
BRANCH  41  42
ATOM     42  N   UNL     1      -5.336  -9.211  -8.511  1.00  0.00    -0.254 NA
ATOM     43  C   UNL     1      -5.952  -8.097  -8.372  1.00  0.00     0.185 C 
ATOM     44  N   UNL     1      -7.243  -7.789  -8.593  1.00  0.00    -0.370 N 
ATOM     45  N   UNL     1      -5.263  -7.027  -7.944  1.00  0.00    -0.370 N 
ATOM     46  H   UNL     1      -7.534  -6.830  -8.678  1.00  0.00     0.159 HD
ATOM     47  H   UNL     1      -7.911  -8.486  -8.908  1.00  0.00     0.159 HD
ATOM     48  H   UNL     1      -4.283  -7.175  -7.746  1.00  0.00     0.159 HD
ATOM     49  H   UNL     1      -5.708  -6.200  -7.588  1.00  0.00     0.159 HD
ENDBRANCH  41  42
ENDBRANCH  40  41
ENDBRANCH  39  40
ENDBRANCH  38  39
ENDBRANCH  36  38
ENDBRANCH   5  34
BRANCH   8  50
ATOM     50  O   UNL     1       1.590  -8.756  -6.981  1.00  0.00    -0.245 OA
BRANCH  50  51
ATOM     51  S   UNL     1       2.860  -9.549  -7.615  1.00  0.00     0.397 S 
ATOM     52  O   UNL     1       2.397 -10.838  -8.076  1.00  0.00    -0.169 OA
ATOM     53  O   UNL     1       4.002  -9.422  -6.733  1.00  0.00    -0.169 OA
BRANCH  51  54
ATOM     54  O   UNL     1       3.162  -8.692  -8.942  1.00  0.00    -0.264 OA
ATOM     55  H   UNL     1       2.334  -8.235  -9.197  1.00  0.00     0.236 HD
ENDBRANCH  51  54
ENDBRANCH  50  51
ENDBRANCH   8  50
TORSDOF 19
ENDMDL
MODEL 32
REMARK VINA RESULT:    -6.713     15.364     18.865
REMARK INTER + INTRA:         -17.073
REMARK INTER:                 -14.830
REMARK INTRA:                  -2.243
REMARK UNBOUND:                -3.491
REMARK SMILES CC[C@@H](C)[C@@H](NC(=O)[C@@H](O)Cc1ccc(O)c(Cl)c1)C(=O)N1[C@H](C(=O)NCCCCN=C(N)N)C[C@H]2CC[C@H](OS(=O)(=O)O)C[C@@H]21
REMARK SMILES IDX 22 1 36 2 46 3 35 4 23 5 45 6 37 7 39 8 38 9 20 10 21 11
REMARK SMILES IDX 5 12 6 13 7 14 8 15 9 17 11 18 12 19 17 20 19 21 15 22 14 23
REMARK SMILES IDX 13 24 18 25 16 26 10 28 3 30 4 31 2 32 1 33 24 34 25 35
REMARK SMILES IDX 26 36 27 38 28 39 29 40 30 41 31 42 32 43 33 44 34 45 40 50
REMARK SMILES IDX 41 51 42 52 43 53 44 54
REMARK H PARENT 6 16 16 27 10 29 26 37 33 46 33 47 34 48 34 49 44 55
ROOT
ATOM      1  N   UNL     1     -14.096  -4.969   1.858  1.00  0.00    -0.326 N 
ATOM      2  C   UNL     1     -14.859  -6.938   2.900  1.00  0.00     0.014 C 
ATOM      3  C   UNL     1     -15.335  -5.606   2.315  1.00  0.00     0.091 C 
ATOM      4  C   UNL     1     -13.510  -6.576   3.503  1.00  0.00     0.041 C 
ATOM      5  C   UNL     1     -12.922  -5.724   2.362  1.00  0.00     0.175 C 
ATOM      6  C   UNL     1     -16.425  -5.893   1.283  1.00  0.00     0.059 C 
ATOM      7  C   UNL     1     -15.926  -7.555   3.784  1.00  0.00     0.008 C 
ATOM      8  C   UNL     1     -17.276  -7.139   1.610  1.00  0.00     0.143 C 
ATOM      9  C   UNL     1     -17.315  -7.434   3.123  1.00  0.00     0.034 C 
ENDROOT
BRANCH   1  10
ATOM     10  C   UNL     1     -13.900  -3.736   1.260  1.00  0.00     0.246 C 
ATOM     11  O   UNL     1     -13.267  -3.676   0.201  1.00  0.00    -0.272 OA
BRANCH  10  12
ATOM     12  C   UNL     1     -14.514  -2.462   1.910  1.00  0.00     0.174 C 
BRANCH  12  13
ATOM     13  N   UNL     1     -14.611  -1.393   0.916  1.00  0.00    -0.342 N 
ATOM     14  C   UNL     1     -15.681  -0.538   0.778  1.00  0.00     0.249 C 
ATOM     15  O   UNL     1     -16.671  -0.561   1.500  1.00  0.00    -0.272 OA
ATOM     16  H   UNL     1     -13.941  -1.353   0.153  1.00  0.00     0.164 HD
BRANCH  14  17
ATOM     17  C   UNL     1     -15.492   0.471  -0.374  1.00  0.00     0.207 C 
BRANCH  17  18
ATOM     18  C   UNL     1     -16.078  -0.086  -1.676  1.00  0.00     0.077 C 
BRANCH  18  19
ATOM     19  C   UNL     1     -17.016   0.899  -2.336  1.00  0.00    -0.043 A 
ATOM     20  C   UNL     1     -17.828   2.016  -4.331  1.00  0.00     0.083 A 
ATOM     21  C   UNL     1     -16.996   1.071  -3.729  1.00  0.00     0.028 A 
ATOM     22  C   UNL     1     -18.681   2.794  -3.548  1.00  0.00     0.134 A 
ATOM     23  C   UNL     1     -18.711   2.634  -2.167  1.00  0.00     0.048 A 
ATOM     24  C   UNL     1     -17.879   1.690  -1.562  1.00  0.00     0.008 A 
ATOM     25  Cl  UNL     1     -17.789   2.213  -6.044  1.00  0.00    -0.080 Cl
BRANCH  22  26
ATOM     26  O   UNL     1     -19.507   3.740  -4.091  1.00  0.00    -0.506 OA
ATOM     27  H   UNL     1     -20.107   3.272  -4.701  1.00  0.00     0.293 HD
ENDBRANCH  22  26
ENDBRANCH  18  19
ENDBRANCH  17  18
BRANCH  17  28
ATOM     28  O   UNL     1     -14.102   0.778  -0.570  1.00  0.00    -0.383 OA
ATOM     29  H   UNL     1     -13.819   1.278   0.229  1.00  0.00     0.211 HD
ENDBRANCH  17  28
ENDBRANCH  14  17
ENDBRANCH  12  13
BRANCH  12  30
ATOM     30  C   UNL     1     -13.755  -2.015   3.188  1.00  0.00     0.018 C 
ATOM     31  C   UNL     1     -12.266  -2.386   3.097  1.00  0.00     0.010 C 
BRANCH  30  32
ATOM     32  C   UNL     1     -14.363  -2.572   4.499  1.00  0.00     0.002 C 
ATOM     33  C   UNL     1     -15.391  -1.673   5.173  1.00  0.00     0.004 C 
ENDBRANCH  30  32
ENDBRANCH  12  30
ENDBRANCH  10  12
ENDBRANCH   1  10
BRANCH   5  34
ATOM     34  C   UNL     1     -12.315  -6.609   1.242  1.00  0.00     0.242 C 
ATOM     35  O   UNL     1     -11.163  -6.459   0.836  1.00  0.00    -0.273 OA
ATOM     36  N   UNL     1     -13.175  -7.538   0.698  1.00  0.00    -0.354 N 
ATOM     37  H   UNL     1     -14.152  -7.534   0.992  1.00  0.00     0.163 HD
BRANCH  36  38
ATOM     38  C   UNL     1     -12.720  -8.582  -0.197  1.00  0.00     0.116 C 
BRANCH  38  39
ATOM     39  C   UNL     1     -13.055  -9.951   0.391  1.00  0.00     0.023 C 
BRANCH  39  40
ATOM     40  C   UNL     1     -12.979  -9.965   1.914  1.00  0.00     0.026 C 
BRANCH  40  41
ATOM     41  C   UNL     1     -11.696 -10.651   2.386  1.00  0.00     0.146 C 
BRANCH  41  42
ATOM     42  N   UNL     1     -10.541  -9.845   2.013  1.00  0.00    -0.254 NA
ATOM     43  C   UNL     1     -10.086  -8.973   2.832  1.00  0.00     0.185 C 
ATOM     44  N   UNL     1     -10.510  -8.640   4.065  1.00  0.00    -0.370 N 
ATOM     45  N   UNL     1      -9.024  -8.237   2.467  1.00  0.00    -0.370 N 
ATOM     46  H   UNL     1     -10.217  -7.778   4.493  1.00  0.00     0.159 HD
ATOM     47  H   UNL     1     -11.297  -9.109   4.503  1.00  0.00     0.159 HD
ATOM     48  H   UNL     1      -8.636  -8.431   1.554  1.00  0.00     0.159 HD
ATOM     49  H   UNL     1      -8.472  -7.715   3.125  1.00  0.00     0.159 HD
ENDBRANCH  41  42
ENDBRANCH  40  41
ENDBRANCH  39  40
ENDBRANCH  38  39
ENDBRANCH  36  38
ENDBRANCH   5  34
BRANCH   8  50
ATOM     50  O   UNL     1     -16.748  -8.284   0.939  1.00  0.00    -0.245 OA
BRANCH  50  51
ATOM     51  S   UNL     1     -17.346  -8.711  -0.512  1.00  0.00     0.397 S 
ATOM     52  O   UNL     1     -18.281  -9.794  -0.308  1.00  0.00    -0.169 OA
ATOM     53  O   UNL     1     -16.267  -8.809  -1.473  1.00  0.00    -0.169 OA
BRANCH  51  54
ATOM     54  O   UNL     1     -18.238  -7.430  -0.898  1.00  0.00    -0.264 OA
ATOM     55  H   UNL     1     -18.856  -7.699  -1.608  1.00  0.00     0.236 HD
ENDBRANCH  51  54
ENDBRANCH  50  51
ENDBRANCH   8  50
TORSDOF 19
ENDMDL
MODEL 33
REMARK VINA RESULT:    -6.708     16.768     19.667
REMARK INTER + INTRA:         -17.062
REMARK INTER:                 -14.253
REMARK INTRA:                  -2.808
REMARK UNBOUND:                -3.491
REMARK SMILES CC[C@@H](C)[C@@H](NC(=O)[C@@H](O)Cc1ccc(O)c(Cl)c1)C(=O)N1[C@H](C(=O)NCCCCN=C(N)N)C[C@H]2CC[C@H](OS(=O)(=O)O)C[C@@H]21
REMARK SMILES IDX 22 1 36 2 46 3 35 4 23 5 45 6 37 7 39 8 38 9 20 10 21 11
REMARK SMILES IDX 5 12 6 13 7 14 8 15 9 17 11 18 12 19 17 20 19 21 15 22 14 23
REMARK SMILES IDX 13 24 18 25 16 26 10 28 3 30 4 31 2 32 1 33 24 34 25 35
REMARK SMILES IDX 26 36 27 38 28 39 29 40 30 41 31 42 32 43 33 44 34 45 40 50
REMARK SMILES IDX 41 51 42 52 43 53 44 54
REMARK H PARENT 6 16 16 27 10 29 26 37 33 46 33 47 34 48 34 49 44 55
ROOT
ATOM      1  N   UNL     1     -15.342  -4.877   2.309  1.00  0.00    -0.326 N 
ATOM      2  C   UNL     1     -16.586  -6.574   3.363  1.00  0.00     0.014 C 
ATOM      3  C   UNL     1     -16.729  -5.269   2.575  1.00  0.00     0.091 C 
ATOM      4  C   UNL     1     -15.324  -6.337   4.178  1.00  0.00     0.041 C 
ATOM      5  C   UNL     1     -14.414  -5.724   3.098  1.00  0.00     0.175 C 
ATOM      6  C   UNL     1     -17.651  -5.523   1.383  1.00  0.00     0.059 C 
ATOM      7  C   UNL     1     -17.878  -6.920   4.077  1.00  0.00     0.008 C 
ATOM      8  C   UNL     1     -18.738  -6.585   1.654  1.00  0.00     0.143 C 
ATOM      9  C   UNL     1     -19.091  -6.684   3.152  1.00  0.00     0.034 C 
ENDROOT
BRANCH   1  10
ATOM     10  C   UNL     1     -14.845  -3.766   1.648  1.00  0.00     0.246 C 
ATOM     11  O   UNL     1     -14.206  -3.926   0.602  1.00  0.00    -0.272 OA
BRANCH  10  12
ATOM     12  C   UNL     1     -15.136  -2.345   2.209  1.00  0.00     0.174 C 
BRANCH  12  13
ATOM     13  N   UNL     1     -15.152  -1.371   1.118  1.00  0.00    -0.342 N 
ATOM     14  C   UNL     1     -15.679  -0.101   1.200  1.00  0.00     0.249 C 
ATOM     15  O   UNL     1     -16.174   0.368   2.217  1.00  0.00    -0.272 OA
ATOM     16  H   UNL     1     -14.921  -1.669   0.174  1.00  0.00     0.164 HD
BRANCH  14  17
ATOM     17  C   UNL     1     -15.560   0.679  -0.127  1.00  0.00     0.207 C 
BRANCH  17  18
ATOM     18  C   UNL     1     -16.370  -0.011  -1.229  1.00  0.00     0.077 C 
BRANCH  18  19
ATOM     19  C   UNL     1     -17.218   0.973  -2.003  1.00  0.00    -0.043 A 
ATOM     20  C   UNL     1     -18.083   1.798  -4.114  1.00  0.00     0.083 A 
ATOM     21  C   UNL     1     -17.340   0.859  -3.397  1.00  0.00     0.028 A 
ATOM     22  C   UNL     1     -18.705   2.853  -3.446  1.00  0.00     0.134 A 
ATOM     23  C   UNL     1     -18.593   2.977  -2.066  1.00  0.00     0.048 A 
ATOM     24  C   UNL     1     -17.849   2.040  -1.346  1.00  0.00     0.008 A 
ATOM     25  Cl  UNL     1     -18.220   1.642  -5.826  1.00  0.00    -0.080 Cl
BRANCH  22  26
ATOM     26  O   UNL     1     -19.435   3.804  -4.108  1.00  0.00    -0.506 OA
ATOM     27  H   UNL     1     -19.634   3.440  -4.990  1.00  0.00     0.293 HD
ENDBRANCH  22  26
ENDBRANCH  18  19
ENDBRANCH  17  18
BRANCH  17  28
ATOM     28  O   UNL     1     -14.189   0.789  -0.541  1.00  0.00    -0.383 OA
ATOM     29  H   UNL     1     -14.094   1.688  -0.930  1.00  0.00     0.211 HD
ENDBRANCH  17  28
ENDBRANCH  14  17
ENDBRANCH  12  13
BRANCH  12  30
ATOM     30  C   UNL     1     -14.165  -1.940   3.351  1.00  0.00     0.018 C 
ATOM     31  C   UNL     1     -12.762  -2.517   3.105  1.00  0.00     0.010 C 
BRANCH  30  32
ATOM     32  C   UNL     1     -14.664  -2.337   4.761  1.00  0.00     0.002 C 
ATOM     33  C   UNL     1     -15.668  -1.380   5.390  1.00  0.00     0.004 C 
ENDBRANCH  30  32
ENDBRANCH  12  30
ENDBRANCH  10  12
ENDBRANCH   1  10
BRANCH   5  34
ATOM     34  C   UNL     1     -13.771  -6.817   2.204  1.00  0.00     0.242 C 
ATOM     35  O   UNL     1     -14.312  -7.230   1.178  1.00  0.00    -0.273 OA
ATOM     36  N   UNL     1     -12.580  -7.328   2.669  1.00  0.00    -0.354 N 
ATOM     37  H   UNL     1     -12.242  -7.031   3.585  1.00  0.00     0.163 HD
BRANCH  36  38
ATOM     38  C   UNL     1     -11.741  -8.190   1.862  1.00  0.00     0.116 C 
BRANCH  38  39
ATOM     39  C   UNL     1     -11.665  -9.578   2.493  1.00  0.00     0.023 C 
BRANCH  39  40
ATOM     40  C   UNL     1     -11.719 -10.694   1.455  1.00  0.00     0.026 C 
BRANCH  40  41
ATOM     41  C   UNL     1     -13.161 -10.978   1.038  1.00  0.00     0.146 C 
BRANCH  41  42
ATOM     42  N   UNL     1     -13.209 -11.294  -0.384  1.00  0.00    -0.254 NA
ATOM     43  C   UNL     1     -13.543 -10.387  -1.223  1.00  0.00     0.185 C 
ATOM     44  N   UNL     1     -13.881  -9.100  -1.019  1.00  0.00    -0.370 N 
ATOM     45  N   UNL     1     -13.585 -10.700  -2.529  1.00  0.00    -0.370 N 
ATOM     46  H   UNL     1     -14.353  -8.574  -1.734  1.00  0.00     0.159 HD
ATOM     47  H   UNL     1     -13.888  -8.692  -0.089  1.00  0.00     0.159 HD
ATOM     48  H   UNL     1     -13.336 -11.649  -2.771  1.00  0.00     0.159 HD
ATOM     49  H   UNL     1     -13.602 -10.005  -3.254  1.00  0.00     0.159 HD
ENDBRANCH  41  42
ENDBRANCH  40  41
ENDBRANCH  39  40
ENDBRANCH  38  39
ENDBRANCH  36  38
ENDBRANCH   5  34
BRANCH   8  50
ATOM     50  O   UNL     1     -18.293  -7.866   1.208  1.00  0.00    -0.245 OA
BRANCH  50  51
ATOM     51  S   UNL     1     -18.279  -8.202  -0.384  1.00  0.00     0.397 S 
ATOM     52  O   UNL     1     -18.911  -7.102  -1.077  1.00  0.00    -0.169 OA
ATOM     53  O   UNL     1     -18.694  -9.573  -0.595  1.00  0.00    -0.169 OA
BRANCH  51  54
ATOM     54  O   UNL     1     -16.713  -8.098  -0.735  1.00  0.00    -0.264 OA
ATOM     55  H   UNL     1     -16.375  -9.008  -0.862  1.00  0.00     0.236 HD
ENDBRANCH  51  54
ENDBRANCH  50  51
ENDBRANCH   8  50
TORSDOF 19
ENDMDL
MODEL 34
REMARK VINA RESULT:    -6.668     13.604     18.326
REMARK INTER + INTRA:         -16.980
REMARK INTER:                 -13.514
REMARK INTRA:                  -3.467
REMARK UNBOUND:                -3.491
REMARK SMILES CC[C@@H](C)[C@@H](NC(=O)[C@@H](O)Cc1ccc(O)c(Cl)c1)C(=O)N1[C@H](C(=O)NCCCCN=C(N)N)C[C@H]2CC[C@H](OS(=O)(=O)O)C[C@@H]21
REMARK SMILES IDX 22 1 36 2 46 3 35 4 23 5 45 6 37 7 39 8 38 9 20 10 21 11
REMARK SMILES IDX 5 12 6 13 7 14 8 15 9 17 11 18 12 19 17 20 19 21 15 22 14 23
REMARK SMILES IDX 13 24 18 25 16 26 10 28 3 30 4 31 2 32 1 33 24 34 25 35
REMARK SMILES IDX 26 36 27 38 28 39 29 40 30 41 31 42 32 43 33 44 34 45 40 50
REMARK SMILES IDX 41 51 42 52 43 53 44 54
REMARK H PARENT 6 16 16 27 10 29 26 37 33 46 33 47 34 48 34 49 44 55
ROOT
ATOM      1  N   UNL     1     -12.129  -6.623   2.587  1.00  0.00    -0.326 N 
ATOM      2  C   UNL     1     -13.326  -4.687   3.190  1.00  0.00     0.014 C 
ATOM      3  C   UNL     1     -12.002  -5.162   2.584  1.00  0.00     0.091 C 
ATOM      4  C   UNL     1     -13.637  -5.772   4.209  1.00  0.00     0.041 C 
ATOM      5  C   UNL     1     -13.319  -7.027   3.376  1.00  0.00     0.175 C 
ATOM      6  C   UNL     1     -11.801  -4.455   1.245  1.00  0.00     0.059 C 
ATOM      7  C   UNL     1     -13.226  -3.244   3.646  1.00  0.00     0.008 C 
ATOM      8  C   UNL     1     -12.405  -3.035   1.196  1.00  0.00     0.143 C 
ATOM      9  C   UNL     1     -12.486  -2.391   2.595  1.00  0.00     0.034 C 
ENDROOT
BRANCH   1  10
ATOM     10  C   UNL     1     -11.232  -7.593   2.174  1.00  0.00     0.246 C 
ATOM     11  O   UNL     1     -10.428  -7.324   1.275  1.00  0.00    -0.272 OA
BRANCH  10  12
ATOM     12  C   UNL     1     -11.226  -8.981   2.876  1.00  0.00     0.174 C 
BRANCH  12  13
ATOM     13  N   UNL     1     -10.384  -8.932   4.071  1.00  0.00    -0.342 N 
ATOM     14  C   UNL     1     -10.791  -9.282   5.339  1.00  0.00     0.249 C 
ATOM     15  O   UNL     1     -11.909  -9.704   5.604  1.00  0.00    -0.272 OA
ATOM     16  H   UNL     1      -9.486  -8.457   4.035  1.00  0.00     0.164 HD
BRANCH  14  17
ATOM     17  C   UNL     1      -9.676  -9.104   6.392  1.00  0.00     0.207 C 
BRANCH  17  18
ATOM     18  C   UNL     1      -8.436  -9.915   6.001  1.00  0.00     0.077 C 
BRANCH  18  19
ATOM     19  C   UNL     1      -7.172  -9.092   6.101  1.00  0.00    -0.043 A 
ATOM     20  C   UNL     1      -5.416  -7.797   5.040  1.00  0.00     0.083 A 
ATOM     21  C   UNL     1      -6.610  -8.515   4.952  1.00  0.00     0.028 A 
ATOM     22  C   UNL     1      -4.778  -7.653   6.273  1.00  0.00     0.134 A 
ATOM     23  C   UNL     1      -5.324  -8.219   7.419  1.00  0.00     0.048 A 
ATOM     24  C   UNL     1      -6.517  -8.939   7.333  1.00  0.00     0.008 A 
ATOM     25  Cl  UNL     1      -4.740  -7.096   3.617  1.00  0.00    -0.080 Cl
BRANCH  22  26
ATOM     26  O   UNL     1      -3.601  -6.968   6.407  1.00  0.00    -0.506 OA
ATOM     27  H   UNL     1      -3.734  -6.098   5.986  1.00  0.00     0.293 HD
ENDBRANCH  22  26
ENDBRANCH  18  19
ENDBRANCH  17  18
BRANCH  17  28
ATOM     28  O   UNL     1     -10.124  -9.515   7.694  1.00  0.00    -0.383 OA
ATOM     29  H   UNL     1     -10.635 -10.345   7.556  1.00  0.00     0.211 HD
ENDBRANCH  17  28
ENDBRANCH  14  17
ENDBRANCH  12  13
BRANCH  12  30
ATOM     30  C   UNL     1     -10.829 -10.137   1.918  1.00  0.00     0.018 C 
ATOM     31  C   UNL     1     -12.073 -10.752   1.258  1.00  0.00     0.010 C 
BRANCH  30  32
ATOM     32  C   UNL     1      -9.984 -11.243   2.596  1.00  0.00     0.002 C 
ATOM     33  C   UNL     1     -10.776 -12.420   3.150  1.00  0.00     0.004 C 
ENDBRANCH  30  32
ENDBRANCH  12  30
ENDBRANCH  10  12
ENDBRANCH   1  10
BRANCH   5  34
ATOM     34  C   UNL     1     -14.497  -7.406   2.440  1.00  0.00     0.242 C 
ATOM     35  O   UNL     1     -14.511  -7.107   1.246  1.00  0.00    -0.273 OA
ATOM     36  N   UNL     1     -15.548  -8.051   3.053  1.00  0.00    -0.354 N 
ATOM     37  H   UNL     1     -15.531  -8.164   4.067  1.00  0.00     0.163 HD
BRANCH  36  38
ATOM     38  C   UNL     1     -16.623  -8.664   2.301  1.00  0.00     0.116 C 
BRANCH  38  39
ATOM     39  C   UNL     1     -17.859  -8.808   3.186  1.00  0.00     0.023 C 
BRANCH  39  40
ATOM     40  C   UNL     1     -18.146  -7.547   3.995  1.00  0.00     0.026 C 
BRANCH  40  41
ATOM     41  C   UNL     1     -18.696  -6.440   3.097  1.00  0.00     0.146 C 
BRANCH  41  42
ATOM     42  N   UNL     1     -17.631  -5.505   2.758  1.00  0.00    -0.254 NA
ATOM     43  C   UNL     1     -17.396  -5.231   1.530  1.00  0.00     0.185 C 
ATOM     44  N   UNL     1     -17.997  -5.679   0.413  1.00  0.00    -0.370 N 
ATOM     45  N   UNL     1     -16.407  -4.370   1.239  1.00  0.00    -0.370 N 
ATOM     46  H   UNL     1     -17.556  -5.573  -0.484  1.00  0.00     0.159 HD
ATOM     47  H   UNL     1     -18.776  -6.329   0.451  1.00  0.00     0.159 HD
ATOM     48  H   UNL     1     -15.908  -3.977   2.026  1.00  0.00     0.159 HD
ATOM     49  H   UNL     1     -16.317  -3.928   0.342  1.00  0.00     0.159 HD
ENDBRANCH  41  42
ENDBRANCH  40  41
ENDBRANCH  39  40
ENDBRANCH  38  39
ENDBRANCH  36  38
ENDBRANCH   5  34
BRANCH   8  50
ATOM     50  O   UNL     1     -13.720  -3.081   0.641  1.00  0.00    -0.245 OA
BRANCH  50  51
ATOM     51  S   UNL     1     -14.254  -1.839  -0.264  1.00  0.00     0.397 S 
ATOM     52  O   UNL     1     -14.401  -2.309  -1.623  1.00  0.00    -0.169 OA
ATOM     53  O   UNL     1     -13.494  -0.647   0.050  1.00  0.00    -0.169 OA
BRANCH  51  54
ATOM     54  O   UNL     1     -15.748  -1.636   0.294  1.00  0.00    -0.264 OA
ATOM     55  H   UNL     1     -15.717  -1.717   1.269  1.00  0.00     0.236 HD
ENDBRANCH  51  54
ENDBRANCH  50  51
ENDBRANCH   8  50
TORSDOF 19
ENDMDL
MODEL 35
REMARK VINA RESULT:    -6.626     14.439     17.827
REMARK INTER + INTRA:         -16.896
REMARK INTER:                 -15.144
REMARK INTRA:                  -1.752
REMARK UNBOUND:                -3.491
REMARK SMILES CC[C@@H](C)[C@@H](NC(=O)[C@@H](O)Cc1ccc(O)c(Cl)c1)C(=O)N1[C@H](C(=O)NCCCCN=C(N)N)C[C@H]2CC[C@H](OS(=O)(=O)O)C[C@@H]21
REMARK SMILES IDX 22 1 36 2 46 3 35 4 23 5 45 6 37 7 39 8 38 9 20 10 21 11
REMARK SMILES IDX 5 12 6 13 7 14 8 15 9 17 11 18 12 19 17 20 19 21 15 22 14 23
REMARK SMILES IDX 13 24 18 25 16 26 10 28 3 30 4 31 2 32 1 33 24 34 25 35
REMARK SMILES IDX 26 36 27 38 28 39 29 40 30 41 31 42 32 43 33 44 34 45 40 50
REMARK SMILES IDX 41 51 42 52 43 53 44 54
REMARK H PARENT 6 16 16 27 10 29 26 37 33 46 33 47 34 48 34 49 44 55
ROOT
ATOM      1  N   UNL     1     -11.076  -8.288   2.117  1.00  0.00    -0.326 N 
ATOM      2  C   UNL     1     -13.213  -7.477   1.551  1.00  0.00     0.014 C 
ATOM      3  C   UNL     1     -12.439  -8.206   2.652  1.00  0.00     0.091 C 
ATOM      4  C   UNL     1     -12.548  -7.985   0.281  1.00  0.00     0.041 C 
ATOM      5  C   UNL     1     -11.067  -7.883   0.689  1.00  0.00     0.175 C 
ATOM      6  C   UNL     1     -12.656  -7.463   3.969  1.00  0.00     0.059 C 
ATOM      7  C   UNL     1     -14.708  -7.655   1.730  1.00  0.00     0.008 C 
ATOM      8  C   UNL     1     -14.039  -6.785   4.079  1.00  0.00     0.143 C 
ATOM      9  C   UNL     1     -15.101  -7.492   3.213  1.00  0.00     0.034 C 
ENDROOT
BRANCH   1  10
ATOM     10  C   UNL     1      -9.940  -8.860   2.664  1.00  0.00     0.246 C 
ATOM     11  O   UNL     1      -8.833  -8.540   2.220  1.00  0.00    -0.272 OA
BRANCH  10  12
ATOM     12  C   UNL     1     -10.079  -9.857   3.851  1.00  0.00     0.174 C 
BRANCH  12  13
ATOM     13  N   UNL     1      -9.110  -9.527   4.895  1.00  0.00    -0.342 N 
ATOM     14  C   UNL     1      -9.416  -9.322   6.221  1.00  0.00     0.249 C 
ATOM     15  O   UNL     1     -10.546  -9.422   6.684  1.00  0.00    -0.272 OA
ATOM     16  H   UNL     1      -8.163  -9.259   4.637  1.00  0.00     0.164 HD
BRANCH  14  17
ATOM     17  C   UNL     1      -8.177  -8.973   7.072  1.00  0.00     0.207 C 
BRANCH  17  18
ATOM     18  C   UNL     1      -8.564  -8.038   8.223  1.00  0.00     0.077 C 
BRANCH  18  19
ATOM     19  C   UNL     1      -7.353  -7.368   8.834  1.00  0.00    -0.043 A 
ATOM     20  C   UNL     1      -5.813  -7.094  10.687  1.00  0.00     0.083 A 
ATOM     21  C   UNL     1      -6.900  -7.748  10.106  1.00  0.00     0.028 A 
ATOM     22  C   UNL     1      -5.175  -6.058  10.004  1.00  0.00     0.134 A 
ATOM     23  C   UNL     1      -5.614  -5.671   8.743  1.00  0.00     0.048 A 
ATOM     24  C   UNL     1      -6.703  -6.323   8.160  1.00  0.00     0.008 A 
ATOM     25  Cl  UNL     1      -5.270  -7.575  12.252  1.00  0.00    -0.080 Cl
BRANCH  22  26
ATOM     26  O   UNL     1      -4.113  -5.379  10.537  1.00  0.00    -0.506 OA
ATOM     27  H   UNL     1      -4.040  -4.541  10.045  1.00  0.00     0.293 HD
ENDBRANCH  22  26
ENDBRANCH  18  19
ENDBRANCH  17  18
BRANCH  17  28
ATOM     28  O   UNL     1      -7.160  -8.348   6.272  1.00  0.00    -0.383 OA
ATOM     29  H   UNL     1      -6.584  -7.856   6.900  1.00  0.00     0.211 HD
ENDBRANCH  17  28
ENDBRANCH  14  17
ENDBRANCH  12  13
BRANCH  12  30
ATOM     30  C   UNL     1      -9.985 -11.340   3.402  1.00  0.00     0.018 C 
ATOM     31  C   UNL     1      -8.547 -11.863   3.543  1.00  0.00     0.010 C 
BRANCH  30  32
ATOM     32  C   UNL     1     -10.503 -11.588   1.964  1.00  0.00     0.002 C 
ATOM     33  C   UNL     1     -11.991 -11.890   1.851  1.00  0.00     0.004 C 
ENDBRANCH  30  32
ENDBRANCH  12  30
ENDBRANCH  10  12
ENDBRANCH   1  10
BRANCH   5  34
ATOM     34  C   UNL     1     -10.528  -6.436   0.531  1.00  0.00     0.242 C 
ATOM     35  O   UNL     1      -9.491  -6.184  -0.082  1.00  0.00    -0.273 OA
ATOM     36  N   UNL     1     -11.264  -5.464   1.171  1.00  0.00    -0.354 N 
ATOM     37  H   UNL     1     -12.046  -5.749   1.763  1.00  0.00     0.163 HD
BRANCH  36  38
ATOM     38  C   UNL     1     -11.033  -4.051   0.953  1.00  0.00     0.116 C 
BRANCH  38  39
ATOM     39  C   UNL     1     -12.032  -3.231   1.767  1.00  0.00     0.023 C 
BRANCH  39  40
ATOM     40  C   UNL     1     -13.274  -2.861   0.964  1.00  0.00     0.026 C 
BRANCH  40  41
ATOM     41  C   UNL     1     -13.568  -1.365   1.079  1.00  0.00     0.146 C 
BRANCH  41  42
ATOM     42  N   UNL     1     -14.212  -1.087   2.356  1.00  0.00    -0.254 NA
ATOM     43  C   UNL     1     -15.484  -0.947   2.406  1.00  0.00     0.185 C 
ATOM     44  N   UNL     1     -16.402  -1.016   1.425  1.00  0.00    -0.370 N 
ATOM     45  N   UNL     1     -16.058  -0.687   3.592  1.00  0.00    -0.370 N 
ATOM     46  H   UNL     1     -17.327  -0.647   1.561  1.00  0.00     0.159 HD
ATOM     47  H   UNL     1     -16.141  -1.219   0.465  1.00  0.00     0.159 HD
ATOM     48  H   UNL     1     -15.437  -0.627   4.388  1.00  0.00     0.159 HD
ATOM     49  H   UNL     1     -17.043  -0.798   3.756  1.00  0.00     0.159 HD
ENDBRANCH  41  42
ENDBRANCH  40  41
ENDBRANCH  39  40
ENDBRANCH  38  39
ENDBRANCH  36  38
ENDBRANCH   5  34
BRANCH   8  50
ATOM     50  O   UNL     1     -13.950  -5.421   3.663  1.00  0.00    -0.245 OA
BRANCH  50  51
ATOM     51  S   UNL     1     -14.596  -4.254   4.593  1.00  0.00     0.397 S 
ATOM     52  O   UNL     1     -15.767  -3.742   3.917  1.00  0.00    -0.169 OA
ATOM     53  O   UNL     1     -13.548  -3.376   5.069  1.00  0.00    -0.169 OA
BRANCH  51  54
ATOM     54  O   UNL     1     -15.148  -5.094   5.849  1.00  0.00    -0.264 OA
ATOM     55  H   UNL     1     -14.716  -4.744   6.655  1.00  0.00     0.236 HD
ENDBRANCH  51  54
ENDBRANCH  50  51
ENDBRANCH   8  50
TORSDOF 19
ENDMDL
MODEL 36
REMARK VINA RESULT:    -6.613     15.812     19.719
REMARK INTER + INTRA:         -16.869
REMARK INTER:                 -14.301
REMARK INTRA:                  -2.568
REMARK UNBOUND:                -3.491
REMARK SMILES CC[C@@H](C)[C@@H](NC(=O)[C@@H](O)Cc1ccc(O)c(Cl)c1)C(=O)N1[C@H](C(=O)NCCCCN=C(N)N)C[C@H]2CC[C@H](OS(=O)(=O)O)C[C@@H]21
REMARK SMILES IDX 22 1 36 2 46 3 35 4 23 5 45 6 37 7 39 8 38 9 20 10 21 11
REMARK SMILES IDX 5 12 6 13 7 14 8 15 9 17 11 18 12 19 17 20 19 21 15 22 14 23
REMARK SMILES IDX 13 24 18 25 16 26 10 28 3 30 4 31 2 32 1 33 24 34 25 35
REMARK SMILES IDX 26 36 27 38 28 39 29 40 30 41 31 42 32 43 33 44 34 45 40 50
REMARK SMILES IDX 41 51 42 52 43 53 44 54
REMARK H PARENT 6 16 16 27 10 29 26 37 33 46 33 47 34 48 34 49 44 55
ROOT
ATOM      1  N   UNL     1     -15.928  -5.736   2.893  1.00  0.00    -0.326 N 
ATOM      2  C   UNL     1     -17.778  -7.062   3.495  1.00  0.00     0.014 C 
ATOM      3  C   UNL     1     -17.393  -5.693   2.928  1.00  0.00     0.091 C 
ATOM      4  C   UNL     1     -16.652  -7.346   4.477  1.00  0.00     0.041 C 
ATOM      5  C   UNL     1     -15.437  -6.927   3.629  1.00  0.00     0.175 C 
ATOM      6  C   UNL     1     -18.143  -5.486   1.613  1.00  0.00     0.059 C 
ATOM      7  C   UNL     1     -19.211  -7.062   3.987  1.00  0.00     0.008 C 
ATOM      8  C   UNL     1     -19.527  -6.169   1.574  1.00  0.00     0.143 C 
ATOM      9  C   UNL     1     -20.131  -6.336   2.983  1.00  0.00     0.034 C 
ENDROOT
BRANCH   1  10
ATOM     10  C   UNL     1     -15.021  -4.770   2.491  1.00  0.00     0.246 C 
ATOM     11  O   UNL     1     -14.601  -4.786   1.329  1.00  0.00    -0.272 OA
BRANCH  10  12
ATOM     12  C   UNL     1     -14.583  -3.664   3.494  1.00  0.00     0.174 C 
BRANCH  12  13
ATOM     13  N   UNL     1     -14.969  -2.348   2.985  1.00  0.00    -0.342 N 
ATOM     14  C   UNL     1     -15.499  -1.331   3.746  1.00  0.00     0.249 C 
ATOM     15  O   UNL     1     -15.682  -1.407   4.955  1.00  0.00    -0.272 OA
ATOM     16  H   UNL     1     -15.022  -2.192   1.982  1.00  0.00     0.164 HD
BRANCH  14  17
ATOM     17  C   UNL     1     -15.820  -0.070   2.915  1.00  0.00     0.207 C 
BRANCH  17  18
ATOM     18  C   UNL     1     -14.827   0.075   1.758  1.00  0.00     0.077 C 
BRANCH  18  19
ATOM     19  C   UNL     1     -15.531   0.186   0.424  1.00  0.00    -0.043 A 
ATOM     20  C   UNL     1     -17.052   1.356  -1.060  1.00  0.00     0.083 A 
ATOM     21  C   UNL     1     -16.365   1.282   0.153  1.00  0.00     0.028 A 
ATOM     22  C   UNL     1     -16.912   0.340  -2.005  1.00  0.00     0.134 A 
ATOM     23  C   UNL     1     -16.089  -0.751  -1.749  1.00  0.00     0.048 A 
ATOM     24  C   UNL     1     -15.401  -0.829  -0.536  1.00  0.00     0.008 A 
ATOM     25  Cl  UNL     1     -18.072   2.710  -1.375  1.00  0.00    -0.080 Cl
BRANCH  22  26
ATOM     26  O   UNL     1     -17.573   0.363  -3.203  1.00  0.00    -0.506 OA
ATOM     27  H   UNL     1     -18.321   0.980  -3.098  1.00  0.00     0.293 HD
ENDBRANCH  22  26
ENDBRANCH  18  19
ENDBRANCH  17  18
BRANCH  17  28
ATOM     28  O   UNL     1     -15.777   1.112   3.731  1.00  0.00    -0.383 OA
ATOM     29  H   UNL     1     -15.381   1.816   3.169  1.00  0.00     0.211 HD
ENDBRANCH  17  28
ENDBRANCH  14  17
ENDBRANCH  12  13
BRANCH  12  30
ATOM     30  C   UNL     1     -13.075  -3.741   3.852  1.00  0.00     0.018 C 
ATOM     31  C   UNL     1     -12.330  -2.494   3.353  1.00  0.00     0.010 C 
BRANCH  30  32
ATOM     32  C   UNL     1     -12.377  -5.022   3.331  1.00  0.00     0.002 C 
ATOM     33  C   UNL     1     -12.211  -6.136   4.356  1.00  0.00     0.004 C 
ENDBRANCH  30  32
ENDBRANCH  12  30
ENDBRANCH  10  12
ENDBRANCH   1  10
BRANCH   5  34
ATOM     34  C   UNL     1     -15.015  -8.048   2.641  1.00  0.00     0.242 C 
ATOM     35  O   UNL     1     -15.162  -9.242   2.900  1.00  0.00    -0.273 OA
ATOM     36  N   UNL     1     -14.416  -7.611   1.481  1.00  0.00    -0.354 N 
ATOM     37  H   UNL     1     -14.213  -6.616   1.377  1.00  0.00     0.163 HD
BRANCH  36  38
ATOM     38  C   UNL     1     -14.158  -8.496   0.364  1.00  0.00     0.116 C 
BRANCH  38  39
ATOM     39  C   UNL     1     -12.678  -8.444  -0.007  1.00  0.00     0.023 C 
BRANCH  39  40
ATOM     40  C   UNL     1     -11.994  -7.179   0.500  1.00  0.00     0.026 C 
BRANCH  40  41
ATOM     41  C   UNL     1     -10.622  -7.504   1.091  1.00  0.00     0.146 C 
BRANCH  41  42
ATOM     42  N   UNL     1     -10.741  -8.608   2.035  1.00  0.00    -0.254 NA
ATOM     43  C   UNL     1      -9.725  -8.960   2.728  1.00  0.00     0.185 C 
ATOM     44  N   UNL     1      -8.475  -8.461   2.748  1.00  0.00    -0.370 N 
ATOM     45  N   UNL     1      -9.854  -9.983   3.589  1.00  0.00    -0.370 N 
ATOM     46  H   UNL     1      -7.720  -8.985   3.156  1.00  0.00     0.159 HD
ATOM     47  H   UNL     1      -8.207  -7.673   2.167  1.00  0.00     0.159 HD
ATOM     48  H   UNL     1     -10.768 -10.411   3.643  1.00  0.00     0.159 HD
ATOM     49  H   UNL     1      -9.193 -10.162   4.324  1.00  0.00     0.159 HD
ENDBRANCH  41  42
ENDBRANCH  40  41
ENDBRANCH  39  40
ENDBRANCH  38  39
ENDBRANCH  36  38
ENDBRANCH   5  34
BRANCH   8  50
ATOM     50  O   UNL     1     -19.420  -7.459   0.971  1.00  0.00    -0.245 OA
BRANCH  50  51
ATOM     51  S   UNL     1     -20.265  -7.786  -0.380  1.00  0.00     0.397 S 
ATOM     52  O   UNL     1     -21.511  -7.055  -0.316  1.00  0.00    -0.169 OA
ATOM     53  O   UNL     1     -20.232  -9.210  -0.641  1.00  0.00    -0.169 OA
BRANCH  51  54
ATOM     54  O   UNL     1     -19.386  -7.054  -1.511  1.00  0.00    -0.264 OA
ATOM     55  H   UNL     1     -18.656  -6.582  -1.062  1.00  0.00     0.236 HD
ENDBRANCH  51  54
ENDBRANCH  50  51
ENDBRANCH   8  50
TORSDOF 19
ENDMDL
MODEL 37
REMARK VINA RESULT:    -6.600      3.362      7.813
REMARK INTER + INTRA:         -16.843
REMARK INTER:                 -14.228
REMARK INTRA:                  -2.615
REMARK UNBOUND:                -3.491
REMARK SMILES CC[C@@H](C)[C@@H](NC(=O)[C@@H](O)Cc1ccc(O)c(Cl)c1)C(=O)N1[C@H](C(=O)NCCCCN=C(N)N)C[C@H]2CC[C@H](OS(=O)(=O)O)C[C@@H]21
REMARK SMILES IDX 22 1 36 2 46 3 35 4 23 5 45 6 37 7 39 8 38 9 20 10 21 11
REMARK SMILES IDX 5 12 6 13 7 14 8 15 9 17 11 18 12 19 17 20 19 21 15 22 14 23
REMARK SMILES IDX 13 24 18 25 16 26 10 28 3 30 4 31 2 32 1 33 24 34 25 35
REMARK SMILES IDX 26 36 27 38 28 39 29 40 30 41 31 42 32 43 33 44 34 45 40 50
REMARK SMILES IDX 41 51 42 52 43 53 44 54
REMARK H PARENT 6 16 16 27 10 29 26 37 33 46 33 47 34 48 34 49 44 55
ROOT
ATOM      1  N   UNL     1       4.158  -5.804  -4.443  1.00  0.00    -0.326 N 
ATOM      2  C   UNL     1       4.811  -7.757  -5.583  1.00  0.00     0.014 C 
ATOM      3  C   UNL     1       5.071  -6.943  -4.312  1.00  0.00     0.091 C 
ATOM      4  C   UNL     1       4.522  -6.680  -6.617  1.00  0.00     0.041 C 
ATOM      5  C   UNL     1       3.577  -5.772  -5.808  1.00  0.00     0.175 C 
ATOM      6  C   UNL     1       4.909  -7.866  -3.106  1.00  0.00     0.059 C 
ATOM      7  C   UNL     1       5.934  -8.745  -5.833  1.00  0.00     0.008 C 
ATOM      8  C   UNL     1       5.308  -9.331  -3.387  1.00  0.00     0.143 C 
ATOM      9  C   UNL     1       6.348  -9.441  -4.519  1.00  0.00     0.034 C 
ENDROOT
BRANCH   1  10
ATOM     10  C   UNL     1       3.962  -4.722  -3.602  1.00  0.00     0.246 C 
ATOM     11  O   UNL     1       2.987  -4.719  -2.843  1.00  0.00    -0.272 OA
BRANCH  10  12
ATOM     12  C   UNL     1       4.994  -3.557  -3.598  1.00  0.00     0.174 C 
BRANCH  12  13
ATOM     13  N   UNL     1       4.362  -2.332  -3.108  1.00  0.00    -0.342 N 
ATOM     14  C   UNL     1       4.906  -1.483  -2.170  1.00  0.00     0.249 C 
ATOM     15  O   UNL     1       6.006  -1.648  -1.658  1.00  0.00    -0.272 OA
ATOM     16  H   UNL     1       3.385  -2.149  -3.323  1.00  0.00     0.164 HD
BRANCH  14  17
ATOM     17  C   UNL     1       3.988  -0.286  -1.847  1.00  0.00     0.207 C 
BRANCH  17  18
ATOM     18  C   UNL     1       2.571  -0.540  -2.372  1.00  0.00     0.077 C 
BRANCH  18  19
ATOM     19  C   UNL     1       1.558  -0.597  -1.251  1.00  0.00    -0.043 A 
ATOM     20  C   UNL     1       0.419  -1.841   0.492  1.00  0.00     0.083 A 
ATOM     21  C   UNL     1       1.389  -1.776  -0.509  1.00  0.00     0.028 A 
ATOM     22  C   UNL     1      -0.387  -0.733   0.757  1.00  0.00     0.134 A 
ATOM     23  C   UNL     1      -0.230   0.441   0.029  1.00  0.00     0.048 A 
ATOM     24  C   UNL     1       0.739   0.509  -0.975  1.00  0.00     0.008 A 
ATOM     25  Cl  UNL     1       0.225  -3.298   1.393  1.00  0.00    -0.080 Cl
BRANCH  22  26
ATOM     26  O   UNL     1      -1.358  -0.752   1.721  1.00  0.00    -0.506 OA
ATOM     27  H   UNL     1      -0.901  -0.691   2.580  1.00  0.00     0.293 HD
ENDBRANCH  22  26
ENDBRANCH  18  19
ENDBRANCH  17  18
BRANCH  17  28
ATOM     28  O   UNL     1       4.498   0.928  -2.423  1.00  0.00    -0.383 OA
ATOM     29  H   UNL     1       5.056   0.653  -3.186  1.00  0.00     0.211 HD
ENDBRANCH  17  28
ENDBRANCH  14  17
ENDBRANCH  12  13
BRANCH  12  30
ATOM     30  C   UNL     1       5.679  -3.358  -4.977  1.00  0.00     0.018 C 
ATOM     31  C   UNL     1       7.185  -3.646  -4.886  1.00  0.00     0.010 C 
BRANCH  30  32
ATOM     32  C   UNL     1       5.442  -1.957  -5.593  1.00  0.00     0.002 C 
ATOM     33  C   UNL     1       6.665  -1.050  -5.636  1.00  0.00     0.004 C 
ENDBRANCH  30  32
ENDBRANCH  12  30
ENDBRANCH  10  12
ENDBRANCH   1  10
BRANCH   5  34
ATOM     34  C   UNL     1       2.125  -6.320  -5.801  1.00  0.00     0.242 C 
ATOM     35  O   UNL     1       1.460  -6.436  -6.831  1.00  0.00    -0.273 OA
ATOM     36  N   UNL     1       1.616  -6.614  -4.556  1.00  0.00    -0.354 N 
ATOM     37  H   UNL     1       2.171  -6.384  -3.731  1.00  0.00     0.163 HD
BRANCH  36  38
ATOM     38  C   UNL     1       0.369  -7.330  -4.379  1.00  0.00     0.116 C 
BRANCH  38  39
ATOM     39  C   UNL     1      -0.044  -7.296  -2.910  1.00  0.00     0.023 C 
BRANCH  39  40
ATOM     40  C   UNL     1      -0.519  -5.916  -2.470  1.00  0.00     0.026 C 
BRANCH  40  41
ATOM     41  C   UNL     1      -2.030  -5.910  -2.239  1.00  0.00     0.146 C 
BRANCH  41  42
ATOM     42  N   UNL     1      -2.724  -6.062  -3.511  1.00  0.00    -0.254 NA
ATOM     43  C   UNL     1      -3.368  -5.072  -4.003  1.00  0.00     0.185 C 
ATOM     44  N   UNL     1      -3.534  -3.825  -3.526  1.00  0.00    -0.370 N 
ATOM     45  N   UNL     1      -4.005  -5.234  -5.175  1.00  0.00    -0.370 N 
ATOM     46  H   UNL     1      -4.260  -3.230  -3.888  1.00  0.00     0.159 HD
ATOM     47  H   UNL     1      -3.108  -3.526  -2.654  1.00  0.00     0.159 HD
ATOM     48  H   UNL     1      -3.923  -6.144  -5.608  1.00  0.00     0.159 HD
ATOM     49  H   UNL     1      -4.323  -4.461  -5.732  1.00  0.00     0.159 HD
ENDBRANCH  41  42
ENDBRANCH  40  41
ENDBRANCH  39  40
ENDBRANCH  38  39
ENDBRANCH  36  38
ENDBRANCH   5  34
BRANCH   8  50
ATOM     50  O   UNL     1       4.156 -10.091  -3.753  1.00  0.00    -0.245 OA
BRANCH  50  51
ATOM     51  S   UNL     1       4.200 -11.714  -3.655  1.00  0.00     0.397 S 
ATOM     52  O   UNL     1       4.773 -12.221  -4.882  1.00  0.00    -0.169 OA
ATOM     53  O   UNL     1       2.936 -12.205  -3.147  1.00  0.00    -0.169 OA
BRANCH  51  54
ATOM     54  O   UNL     1       5.315 -11.951  -2.521  1.00  0.00    -0.264 OA
ATOM     55  H   UNL     1       5.397 -12.917  -2.379  1.00  0.00     0.236 HD
ENDBRANCH  51  54
ENDBRANCH  50  51
ENDBRANCH   8  50
TORSDOF 19
ENDMDL
MODEL 38
REMARK VINA RESULT:    -6.584     15.391     19.153
REMARK INTER + INTRA:         -16.810
REMARK INTER:                 -13.716
REMARK INTRA:                  -3.094
REMARK UNBOUND:                -3.491
REMARK SMILES CC[C@@H](C)[C@@H](NC(=O)[C@@H](O)Cc1ccc(O)c(Cl)c1)C(=O)N1[C@H](C(=O)NCCCCN=C(N)N)C[C@H]2CC[C@H](OS(=O)(=O)O)C[C@@H]21
REMARK SMILES IDX 22 1 36 2 46 3 35 4 23 5 45 6 37 7 39 8 38 9 20 10 21 11
REMARK SMILES IDX 5 12 6 13 7 14 8 15 9 17 11 18 12 19 17 20 19 21 15 22 14 23
REMARK SMILES IDX 13 24 18 25 16 26 10 28 3 30 4 31 2 32 1 33 24 34 25 35
REMARK SMILES IDX 26 36 27 38 28 39 29 40 30 41 31 42 32 43 33 44 34 45 40 50
REMARK SMILES IDX 41 51 42 52 43 53 44 54
REMARK H PARENT 6 16 16 27 10 29 26 37 33 46 33 47 34 48 34 49 44 55
ROOT
ATOM      1  N   UNL     1     -14.715  -3.707   2.813  1.00  0.00    -0.326 N 
ATOM      2  C   UNL     1     -15.529  -5.856   3.325  1.00  0.00     0.014 C 
ATOM      3  C   UNL     1     -15.973  -4.413   3.072  1.00  0.00     0.091 C 
ATOM      4  C   UNL     1     -14.192  -5.676   4.028  1.00  0.00     0.041 C 
ATOM      5  C   UNL     1     -13.564  -4.583   3.144  1.00  0.00     0.175 C 
ATOM      6  C   UNL     1     -17.038  -4.421   1.977  1.00  0.00     0.059 C 
ATOM      7  C   UNL     1     -16.626  -6.650   4.007  1.00  0.00     0.008 C 
ATOM      8  C   UNL     1     -17.913  -5.693   1.970  1.00  0.00     0.143 C 
ATOM      9  C   UNL     1     -17.996  -6.347   3.365  1.00  0.00     0.034 C 
ENDROOT
BRANCH   1  10
ATOM     10  C   UNL     1     -14.488  -2.370   2.539  1.00  0.00     0.246 C 
ATOM     11  O   UNL     1     -13.347  -1.913   2.673  1.00  0.00    -0.272 OA
BRANCH  10  12
ATOM     12  C   UNL     1     -15.659  -1.482   2.027  1.00  0.00     0.174 C 
BRANCH  12  13
ATOM     13  N   UNL     1     -15.704  -1.508   0.566  1.00  0.00    -0.342 N 
ATOM     14  C   UNL     1     -14.784  -0.907  -0.264  1.00  0.00     0.249 C 
ATOM     15  O   UNL     1     -13.800  -0.299   0.136  1.00  0.00    -0.272 OA
ATOM     16  H   UNL     1     -16.542  -1.839   0.093  1.00  0.00     0.164 HD
BRANCH  14  17
ATOM     17  C   UNL     1     -15.116  -1.099  -1.759  1.00  0.00     0.207 C 
BRANCH  17  18
ATOM     18  C   UNL     1     -16.633  -1.112  -1.974  1.00  0.00     0.077 C 
BRANCH  18  19
ATOM     19  C   UNL     1     -17.135   0.205  -2.520  1.00  0.00    -0.043 A 
ATOM     20  C   UNL     1     -16.980   2.007  -4.137  1.00  0.00     0.083 A 
ATOM     21  C   UNL     1     -16.547   0.768  -3.664  1.00  0.00     0.028 A 
ATOM     22  C   UNL     1     -17.998   2.691  -3.472  1.00  0.00     0.134 A 
ATOM     23  C   UNL     1     -18.589   2.146  -2.338  1.00  0.00     0.048 A 
ATOM     24  C   UNL     1     -18.157   0.906  -1.861  1.00  0.00     0.008 A 
ATOM     25  Cl  UNL     1     -16.245   2.682  -5.543  1.00  0.00    -0.080 Cl
BRANCH  22  26
ATOM     26  O   UNL     1     -18.448   3.914  -3.892  1.00  0.00    -0.506 OA
ATOM     27  H   UNL     1     -17.670   4.501  -3.930  1.00  0.00     0.293 HD
ENDBRANCH  22  26
ENDBRANCH  18  19
ENDBRANCH  17  18
BRANCH  17  28
ATOM     28  O   UNL     1     -14.553  -2.321  -2.261  1.00  0.00    -0.383 OA
ATOM     29  H   UNL     1     -14.236  -2.121  -3.171  1.00  0.00     0.211 HD
ENDBRANCH  17  28
ENDBRANCH  14  17
ENDBRANCH  12  13
BRANCH  12  30
ATOM     30  C   UNL     1     -15.607  -0.037   2.592  1.00  0.00     0.018 C 
ATOM     31  C   UNL     1     -15.730  -0.044   4.124  1.00  0.00     0.010 C 
BRANCH  30  32
ATOM     32  C   UNL     1     -16.669   0.909   1.979  1.00  0.00     0.002 C 
ATOM     33  C   UNL     1     -16.130   1.946   1.001  1.00  0.00     0.004 C 
ENDBRANCH  30  32
ENDBRANCH  12  30
ENDBRANCH  10  12
ENDBRANCH   1  10
BRANCH   5  34
ATOM     34  C   UNL     1     -12.938  -5.180   1.855  1.00  0.00     0.242 C 
ATOM     35  O   UNL     1     -13.591  -5.354   0.826  1.00  0.00    -0.273 OA
ATOM     36  N   UNL     1     -11.616  -5.550   1.963  1.00  0.00    -0.354 N 
ATOM     37  H   UNL     1     -11.163  -5.492   2.876  1.00  0.00     0.163 HD
BRANCH  36  38
ATOM     38  C   UNL     1     -10.820  -5.919   0.811  1.00  0.00     0.116 C 
BRANCH  38  39
ATOM     39  C   UNL     1     -10.123  -7.253   1.068  1.00  0.00     0.023 C 
BRANCH  39  40
ATOM     40  C   UNL     1     -10.763  -8.034   2.211  1.00  0.00     0.026 C 
BRANCH  40  41
ATOM     41  C   UNL     1     -11.557  -9.225   1.675  1.00  0.00     0.146 C 
BRANCH  41  42
ATOM     42  N   UNL     1     -12.728  -8.750   0.950  1.00  0.00    -0.254 NA
ATOM     43  C   UNL     1     -13.872  -8.749   1.525  1.00  0.00     0.185 C 
ATOM     44  N   UNL     1     -14.216  -9.134   2.768  1.00  0.00    -0.370 N 
ATOM     45  N   UNL     1     -14.940  -8.311   0.838  1.00  0.00    -0.370 N 
ATOM     46  H   UNL     1     -15.178  -9.309   3.002  1.00  0.00     0.159 HD
ATOM     47  H   UNL     1     -13.527  -9.479   3.428  1.00  0.00     0.159 HD
ATOM     48  H   UNL     1     -14.766  -7.994  -0.107  1.00  0.00     0.159 HD
ATOM     49  H   UNL     1     -15.805  -8.059   1.280  1.00  0.00     0.159 HD
ENDBRANCH  41  42
ENDBRANCH  40  41
ENDBRANCH  39  40
ENDBRANCH  38  39
ENDBRANCH  36  38
ENDBRANCH   5  34
BRANCH   8  50
ATOM     50  O   UNL     1     -17.381  -6.649   1.052  1.00  0.00    -0.245 OA
BRANCH  50  51
ATOM     51  S   UNL     1     -18.157  -6.934  -0.349  1.00  0.00     0.397 S 
ATOM     52  O   UNL     1     -19.574  -6.996  -0.070  1.00  0.00    -0.169 OA
ATOM     53  O   UNL     1     -17.478  -7.988  -1.074  1.00  0.00    -0.169 OA
BRANCH  51  54
ATOM     54  O   UNL     1     -17.927  -5.557  -1.146  1.00  0.00    -0.264 OA
ATOM     55  H   UNL     1     -17.900  -4.832  -0.488  1.00  0.00     0.236 HD
ENDBRANCH  51  54
ENDBRANCH  50  51
ENDBRANCH   8  50
TORSDOF 19
ENDMDL
MODEL 39
REMARK VINA RESULT:    -6.571      3.371      6.505
REMARK INTER + INTRA:         -16.783
REMARK INTER:                 -13.031
REMARK INTRA:                  -3.752
REMARK UNBOUND:                -3.491
REMARK SMILES CC[C@@H](C)[C@@H](NC(=O)[C@@H](O)Cc1ccc(O)c(Cl)c1)C(=O)N1[C@H](C(=O)NCCCCN=C(N)N)C[C@H]2CC[C@H](OS(=O)(=O)O)C[C@@H]21
REMARK SMILES IDX 22 1 36 2 46 3 35 4 23 5 45 6 37 7 39 8 38 9 20 10 21 11
REMARK SMILES IDX 5 12 6 13 7 14 8 15 9 17 11 18 12 19 17 20 19 21 15 22 14 23
REMARK SMILES IDX 13 24 18 25 16 26 10 28 3 30 4 31 2 32 1 33 24 34 25 35
REMARK SMILES IDX 26 36 27 38 28 39 29 40 30 41 31 42 32 43 33 44 34 45 40 50
REMARK SMILES IDX 41 51 42 52 43 53 44 54
REMARK H PARENT 6 16 16 27 10 29 26 37 33 46 33 47 34 48 34 49 44 55
ROOT
ATOM      1  N   UNL     1       5.282  -6.731  -5.263  1.00  0.00    -0.326 N 
ATOM      2  C   UNL     1       3.683  -6.871  -6.986  1.00  0.00     0.014 C 
ATOM      3  C   UNL     1       4.204  -7.600  -5.744  1.00  0.00     0.091 C 
ATOM      4  C   UNL     1       4.945  -6.246  -7.561  1.00  0.00     0.041 C 
ATOM      5  C   UNL     1       5.584  -5.688  -6.275  1.00  0.00     0.175 C 
ATOM      6  C   UNL     1       3.024  -7.872  -4.813  1.00  0.00     0.059 C 
ATOM      7  C   UNL     1       2.852  -7.798  -7.850  1.00  0.00     0.008 C 
ATOM      8  C   UNL     1       1.689  -8.104  -5.554  1.00  0.00     0.143 C 
ATOM      9  C   UNL     1       1.905  -8.650  -6.980  1.00  0.00     0.034 C 
ENDROOT
BRANCH   1  10
ATOM     10  C   UNL     1       6.131  -6.886  -4.181  1.00  0.00     0.246 C 
ATOM     11  O   UNL     1       7.092  -7.657  -4.276  1.00  0.00    -0.272 OA
BRANCH  10  12
ATOM     12  C   UNL     1       5.884  -6.057  -2.887  1.00  0.00     0.174 C 
BRANCH  12  13
ATOM     13  N   UNL     1       4.508  -5.561  -2.868  1.00  0.00    -0.342 N 
ATOM     14  C   UNL     1       3.723  -5.451  -1.743  1.00  0.00     0.249 C 
ATOM     15  O   UNL     1       4.105  -5.735  -0.614  1.00  0.00    -0.272 OA
ATOM     16  H   UNL     1       4.006  -5.436  -3.744  1.00  0.00     0.164 HD
BRANCH  14  17
ATOM     17  C   UNL     1       2.311  -4.910  -2.052  1.00  0.00     0.207 C 
BRANCH  17  18
ATOM     18  C   UNL     1       1.377  -5.136  -0.859  1.00  0.00     0.077 C 
BRANCH  18  19
ATOM     19  C   UNL     1       0.887  -3.831  -0.273  1.00  0.00    -0.043 A 
ATOM     20  C   UNL     1      -0.376  -2.624   1.410  1.00  0.00     0.083 A 
ATOM     21  C   UNL     1       0.116  -3.826   0.900  1.00  0.00     0.028 A 
ATOM     22  C   UNL     1      -0.103  -1.423   0.753  1.00  0.00     0.134 A 
ATOM     23  C   UNL     1       0.659  -1.414  -0.409  1.00  0.00     0.048 A 
ATOM     24  C   UNL     1       1.152  -2.615  -0.923  1.00  0.00     0.008 A 
ATOM     25  Cl  UNL     1      -1.322  -2.638   2.851  1.00  0.00    -0.080 Cl
BRANCH  22  26
ATOM     26  O   UNL     1      -0.573  -0.221   1.209  1.00  0.00    -0.506 OA
ATOM     27  H   UNL     1      -0.927   0.254   0.435  1.00  0.00     0.293 HD
ENDBRANCH  22  26
ENDBRANCH  18  19
ENDBRANCH  17  18
BRANCH  17  28
ATOM     28  O   UNL     1       1.757  -5.544  -3.217  1.00  0.00    -0.383 OA
ATOM     29  H   UNL     1       2.303  -5.240  -3.977  1.00  0.00     0.211 HD
ENDBRANCH  17  28
ENDBRANCH  14  17
ENDBRANCH  12  13
BRANCH  12  30
ATOM     30  C   UNL     1       6.925  -4.922  -2.693  1.00  0.00     0.018 C 
ATOM     31  C   UNL     1       7.765  -5.161  -1.428  1.00  0.00     0.010 C 
BRANCH  30  32
ATOM     32  C   UNL     1       6.302  -3.505  -2.658  1.00  0.00     0.002 C 
ATOM     33  C   UNL     1       6.231  -2.859  -1.281  1.00  0.00     0.004 C 
ENDBRANCH  30  32
ENDBRANCH  12  30
ENDBRANCH  10  12
ENDBRANCH   1  10
BRANCH   5  34
ATOM     34  C   UNL     1       4.956  -4.329  -5.868  1.00  0.00     0.242 C 
ATOM     35  O   UNL     1       3.889  -4.252  -5.260  1.00  0.00    -0.273 OA
ATOM     36  N   UNL     1       5.651  -3.215  -6.283  1.00  0.00    -0.354 N 
ATOM     37  H   UNL     1       6.465  -3.340  -6.887  1.00  0.00     0.163 HD
BRANCH  36  38
ATOM     38  C   UNL     1       5.331  -1.883  -5.812  1.00  0.00     0.116 C 
BRANCH  38  39
ATOM     39  C   UNL     1       6.616  -1.131  -5.473  1.00  0.00     0.023 C 
BRANCH  39  40
ATOM     40  C   UNL     1       6.434  -0.164  -4.308  1.00  0.00     0.026 C 
BRANCH  40  41
ATOM     41  C   UNL     1       5.248   0.768  -4.557  1.00  0.00     0.146 C 
BRANCH  41  42
ATOM     42  N   UNL     1       4.687   1.201  -3.284  1.00  0.00    -0.254 NA
ATOM     43  C   UNL     1       3.837   0.459  -2.681  1.00  0.00     0.185 C 
ATOM     44  N   UNL     1       3.329  -0.737  -3.033  1.00  0.00    -0.370 N 
ATOM     45  N   UNL     1       3.328   0.878  -1.511  1.00  0.00    -0.370 N 
ATOM     46  H   UNL     1       2.495  -1.089  -2.594  1.00  0.00     0.159 HD
ATOM     47  H   UNL     1       3.616  -1.208  -3.885  1.00  0.00     0.159 HD
ATOM     48  H   UNL     1       3.665   1.768  -1.169  1.00  0.00     0.159 HD
ATOM     49  H   UNL     1       2.852   0.265  -0.874  1.00  0.00     0.159 HD
ENDBRANCH  41  42
ENDBRANCH  40  41
ENDBRANCH  39  40
ENDBRANCH  38  39
ENDBRANCH  36  38
ENDBRANCH   5  34
BRANCH   8  50
ATOM     50  O   UNL     1       0.959  -6.881  -5.643  1.00  0.00    -0.245 OA
BRANCH  50  51
ATOM     51  S   UNL     1      -0.658  -6.896  -5.465  1.00  0.00     0.397 S 
ATOM     52  O   UNL     1      -1.084  -8.274  -5.375  1.00  0.00    -0.169 OA
ATOM     53  O   UNL     1      -1.259  -5.975  -6.407  1.00  0.00    -0.169 OA
BRANCH  51  54
ATOM     54  O   UNL     1      -0.839  -6.284  -3.989  1.00  0.00    -0.264 OA
ATOM     55  H   UNL     1      -1.720  -6.555  -3.660  1.00  0.00     0.236 HD
ENDBRANCH  51  54
ENDBRANCH  50  51
ENDBRANCH   8  50
TORSDOF 19
ENDMDL
MODEL 40
REMARK VINA RESULT:    -6.566      4.131      9.686
REMARK INTER + INTRA:         -16.773
REMARK INTER:                 -14.058
REMARK INTRA:                  -2.716
REMARK UNBOUND:                -3.491
REMARK SMILES CC[C@@H](C)[C@@H](NC(=O)[C@@H](O)Cc1ccc(O)c(Cl)c1)C(=O)N1[C@H](C(=O)NCCCCN=C(N)N)C[C@H]2CC[C@H](OS(=O)(=O)O)C[C@@H]21
REMARK SMILES IDX 22 1 36 2 46 3 35 4 23 5 45 6 37 7 39 8 38 9 20 10 21 11
REMARK SMILES IDX 5 12 6 13 7 14 8 15 9 17 11 18 12 19 17 20 19 21 15 22 14 23
REMARK SMILES IDX 13 24 18 25 16 26 10 28 3 30 4 31 2 32 1 33 24 34 25 35
REMARK SMILES IDX 26 36 27 38 28 39 29 40 30 41 31 42 32 43 33 44 34 45 40 50
REMARK SMILES IDX 41 51 42 52 43 53 44 54
REMARK H PARENT 6 16 16 27 10 29 26 37 33 46 33 47 34 48 34 49 44 55
ROOT
ATOM      1  N   UNL     1      -0.148  -6.519  -2.660  1.00  0.00    -0.326 N 
ATOM      2  C   UNL     1      -1.047  -6.135  -0.519  1.00  0.00     0.014 C 
ATOM      3  C   UNL     1       0.166  -5.833  -1.403  1.00  0.00     0.091 C 
ATOM      4  C   UNL     1      -1.434  -7.541  -0.949  1.00  0.00     0.041 C 
ATOM      5  C   UNL     1      -1.330  -7.396  -2.478  1.00  0.00     0.175 C 
ATOM      6  C   UNL     1       0.375  -4.320  -1.436  1.00  0.00     0.059 C 
ATOM      7  C   UNL     1      -0.736  -5.863   0.940  1.00  0.00     0.008 C 
ATOM      8  C   UNL     1      -0.044  -3.606  -0.132  1.00  0.00     0.143 C 
ATOM      9  C   UNL     1       0.043  -4.539   1.092  1.00  0.00     0.034 C 
ENDROOT
BRANCH   1  10
ATOM     10  C   UNL     1       0.591  -6.615  -3.827  1.00  0.00     0.246 C 
ATOM     11  O   UNL     1       0.118  -6.167  -4.877  1.00  0.00    -0.272 OA
BRANCH  10  12
ATOM     12  C   UNL     1       2.014  -7.243  -3.784  1.00  0.00     0.174 C 
BRANCH  12  13
ATOM     13  N   UNL     1       2.850  -6.657  -4.832  1.00  0.00    -0.342 N 
ATOM     14  C   UNL     1       3.949  -5.858  -4.611  1.00  0.00     0.249 C 
ATOM     15  O   UNL     1       4.370  -5.569  -3.498  1.00  0.00    -0.272 OA
ATOM     16  H   UNL     1       2.535  -6.680  -5.798  1.00  0.00     0.164 HD
BRANCH  14  17
ATOM     17  C   UNL     1       4.610  -5.380  -5.922  1.00  0.00     0.207 C 
BRANCH  17  18
ATOM     18  C   UNL     1       4.117  -3.977  -6.290  1.00  0.00     0.077 C 
BRANCH  18  19
ATOM     19  C   UNL     1       5.189  -2.931  -6.077  1.00  0.00    -0.043 A 
ATOM     20  C   UNL     1       6.159  -1.157  -4.736  1.00  0.00     0.083 A 
ATOM     21  C   UNL     1       5.198  -2.155  -4.908  1.00  0.00     0.028 A 
ATOM     22  C   UNL     1       7.112  -0.928  -5.729  1.00  0.00     0.134 A 
ATOM     23  C   UNL     1       7.114  -1.690  -6.892  1.00  0.00     0.048 A 
ATOM     24  C   UNL     1       6.153  -2.688  -7.067  1.00  0.00     0.008 A 
ATOM     25  Cl  UNL     1       6.154  -0.214  -3.293  1.00  0.00    -0.080 Cl
BRANCH  22  26
ATOM     26  O   UNL     1       8.066   0.046  -5.611  1.00  0.00    -0.506 OA
ATOM     27  H   UNL     1       7.828   0.579  -4.830  1.00  0.00     0.293 HD
ENDBRANCH  22  26
ENDBRANCH  18  19
ENDBRANCH  17  18
BRANCH  17  28
ATOM     28  O   UNL     1       4.328  -6.283  -7.003  1.00  0.00    -0.383 OA
ATOM     29  H   UNL     1       4.658  -7.164  -6.714  1.00  0.00     0.211 HD
ENDBRANCH  17  28
ENDBRANCH  14  17
ENDBRANCH  12  13
BRANCH  12  30
ATOM     30  C   UNL     1       1.988  -8.794  -3.846  1.00  0.00     0.018 C 
ATOM     31  C   UNL     1       3.390  -9.375  -3.606  1.00  0.00     0.010 C 
BRANCH  30  32
ATOM     32  C   UNL     1       1.399  -9.353  -5.164  1.00  0.00     0.002 C 
ATOM     33  C   UNL     1       0.016  -9.980  -5.045  1.00  0.00     0.004 C 
ENDBRANCH  30  32
ENDBRANCH  12  30
ENDBRANCH  10  12
ENDBRANCH   1  10
BRANCH   5  34
ATOM     34  C   UNL     1      -2.601  -6.738  -3.078  1.00  0.00     0.242 C 
ATOM     35  O   UNL     1      -3.490  -6.261  -2.373  1.00  0.00    -0.273 OA
ATOM     36  N   UNL     1      -2.688  -6.776  -4.452  1.00  0.00    -0.354 N 
ATOM     37  H   UNL     1      -1.978  -7.291  -4.975  1.00  0.00     0.163 HD
BRANCH  36  38
ATOM     38  C   UNL     1      -3.687  -6.027  -5.185  1.00  0.00     0.116 C 
BRANCH  38  39
ATOM     39  C   UNL     1      -3.585  -6.345  -6.674  1.00  0.00     0.023 C 
BRANCH  39  40
ATOM     40  C   UNL     1      -2.772  -7.606  -6.946  1.00  0.00     0.026 C 
BRANCH  40  41
ATOM     41  C   UNL     1      -3.689  -8.774  -7.311  1.00  0.00     0.146 C 
BRANCH  41  42
ATOM     42  N   UNL     1      -3.278  -9.969  -6.586  1.00  0.00    -0.254 NA
ATOM     43  C   UNL     1      -3.791 -10.222  -5.441  1.00  0.00     0.185 C 
ATOM     44  N   UNL     1      -4.709  -9.538  -4.733  1.00  0.00    -0.370 N 
ATOM     45  N   UNL     1      -3.396 -11.326  -4.786  1.00  0.00    -0.370 N 
ATOM     46  H   UNL     1      -4.839  -9.718  -3.752  1.00  0.00     0.159 HD
ATOM     47  H   UNL     1      -5.127  -8.683  -5.088  1.00  0.00     0.159 HD
ATOM     48  H   UNL     1      -2.711 -11.904  -5.254  1.00  0.00     0.159 HD
ATOM     49  H   UNL     1      -3.909 -11.715  -4.015  1.00  0.00     0.159 HD
ENDBRANCH  41  42
ENDBRANCH  40  41
ENDBRANCH  39  40
ENDBRANCH  38  39
ENDBRANCH  36  38
ENDBRANCH   5  34
BRANCH   8  50
ATOM     50  O   UNL     1      -1.384  -3.128  -0.244  1.00  0.00    -0.245 OA
BRANCH  50  51
ATOM     51  S   UNL     1      -1.720  -1.582   0.132  1.00  0.00     0.397 S 
ATOM     52  O   UNL     1      -1.467  -1.401   1.544  1.00  0.00    -0.169 OA
ATOM     53  O   UNL     1      -2.980  -1.197  -0.469  1.00  0.00    -0.169 OA
BRANCH  51  54
ATOM     54  O   UNL     1      -0.545  -0.789  -0.629  1.00  0.00    -0.264 OA
ATOM     55  H   UNL     1      -0.651  -0.948  -1.589  1.00  0.00     0.236 HD
ENDBRANCH  51  54
ENDBRANCH  50  51
ENDBRANCH   8  50
TORSDOF 19
ENDMDL
MODEL 41
REMARK VINA RESULT:    -6.557     17.580     21.529
REMARK INTER + INTRA:         -16.756
REMARK INTER:                 -13.253
REMARK INTRA:                  -3.502
REMARK UNBOUND:                -3.491
REMARK SMILES CC[C@@H](C)[C@@H](NC(=O)[C@@H](O)Cc1ccc(O)c(Cl)c1)C(=O)N1[C@H](C(=O)NCCCCN=C(N)N)C[C@H]2CC[C@H](OS(=O)(=O)O)C[C@@H]21
REMARK SMILES IDX 22 1 36 2 46 3 35 4 23 5 45 6 37 7 39 8 38 9 20 10 21 11
REMARK SMILES IDX 5 12 6 13 7 14 8 15 9 17 11 18 12 19 17 20 19 21 15 22 14 23
REMARK SMILES IDX 13 24 18 25 16 26 10 28 3 30 4 31 2 32 1 33 24 34 25 35
REMARK SMILES IDX 26 36 27 38 28 39 29 40 30 41 31 42 32 43 33 44 34 45 40 50
REMARK SMILES IDX 41 51 42 52 43 53 44 54
REMARK H PARENT 6 16 16 27 10 29 26 37 33 46 33 47 34 48 34 49 44 55
ROOT
ATOM      1  N   UNL     1     -16.645  -6.424   2.904  1.00  0.00    -0.326 N 
ATOM      2  C   UNL     1     -17.321  -7.393   0.868  1.00  0.00     0.014 C 
ATOM      3  C   UNL     1     -16.308  -7.534   2.008  1.00  0.00     0.091 C 
ATOM      4  C   UNL     1     -17.489  -5.886   0.753  1.00  0.00     0.041 C 
ATOM      5  C   UNL     1     -17.609  -5.511   2.242  1.00  0.00     0.175 C 
ATOM      6  C   UNL     1     -16.391  -8.957   2.555  1.00  0.00     0.059 C 
ATOM      7  C   UNL     1     -16.883  -8.187  -0.347  1.00  0.00     0.008 C 
ATOM      8  C   UNL     1     -16.767 -10.011   1.491  1.00  0.00     0.143 C 
ATOM      9  C   UNL     1     -16.352  -9.575   0.072  1.00  0.00     0.034 C 
ENDROOT
BRANCH   1  10
ATOM     10  C   UNL     1     -16.056  -6.034   4.095  1.00  0.00     0.246 C 
ATOM     11  O   UNL     1     -16.471  -6.512   5.156  1.00  0.00    -0.272 OA
BRANCH  10  12
ATOM     12  C   UNL     1     -14.859  -5.039   4.069  1.00  0.00     0.174 C 
BRANCH  12  13
ATOM     13  N   UNL     1     -15.332  -3.699   3.725  1.00  0.00    -0.342 N 
ATOM     14  C   UNL     1     -15.005  -2.547   4.404  1.00  0.00     0.249 C 
ATOM     15  O   UNL     1     -14.250  -2.515   5.368  1.00  0.00    -0.272 OA
ATOM     16  H   UNL     1     -16.085  -3.588   3.050  1.00  0.00     0.164 HD
BRANCH  14  17
ATOM     17  C   UNL     1     -15.678  -1.292   3.808  1.00  0.00     0.207 C 
BRANCH  17  18
ATOM     18  C   UNL     1     -14.782  -0.663   2.736  1.00  0.00     0.077 C 
BRANCH  18  19
ATOM     19  C   UNL     1     -15.573  -0.252   1.514  1.00  0.00    -0.043 A 
ATOM     20  C   UNL     1     -15.708   0.100  -0.882  1.00  0.00     0.083 A 
ATOM     21  C   UNL     1     -14.994  -0.327   0.238  1.00  0.00     0.028 A 
ATOM     22  C   UNL     1     -17.001   0.605  -0.735  1.00  0.00     0.134 A 
ATOM     23  C   UNL     1     -17.586   0.685   0.523  1.00  0.00     0.048 A 
ATOM     24  C   UNL     1     -16.873   0.260   1.646  1.00  0.00     0.008 A 
ATOM     25  Cl  UNL     1     -14.980   0.001  -2.442  1.00  0.00    -0.080 Cl
BRANCH  22  26
ATOM     26  O   UNL     1     -17.736   1.046  -1.802  1.00  0.00    -0.506 OA
ATOM     27  H   UNL     1     -17.802   2.015  -1.716  1.00  0.00     0.293 HD
ENDBRANCH  22  26
ENDBRANCH  18  19
ENDBRANCH  17  18
BRANCH  17  28
ATOM     28  O   UNL     1     -15.955  -0.319   4.828  1.00  0.00    -0.383 OA
ATOM     29  H   UNL     1     -15.350  -0.529   5.575  1.00  0.00     0.211 HD
ENDBRANCH  17  28
ENDBRANCH  14  17
ENDBRANCH  12  13
BRANCH  12  30
ATOM     30  C   UNL     1     -13.704  -5.514   3.147  1.00  0.00     0.018 C 
ATOM     31  C   UNL     1     -12.343  -5.331   3.837  1.00  0.00     0.010 C 
BRANCH  30  32
ATOM     32  C   UNL     1     -13.694  -4.828   1.759  1.00  0.00     0.002 C 
ATOM     33  C   UNL     1     -12.462  -3.982   1.460  1.00  0.00     0.004 C 
ENDBRANCH  30  32
ENDBRANCH  12  30
ENDBRANCH  10  12
ENDBRANCH   1  10
BRANCH   5  34
ATOM     34  C   UNL     1     -19.047  -5.748   2.777  1.00  0.00     0.242 C 
ATOM     35  O   UNL     1     -20.013  -5.101   2.374  1.00  0.00    -0.273 OA
ATOM     36  N   UNL     1     -19.153  -6.695   3.771  1.00  0.00    -0.354 N 
ATOM     37  H   UNL     1     -18.301  -7.111   4.146  1.00  0.00     0.163 HD
BRANCH  36  38
ATOM     38  C   UNL     1     -20.433  -7.194   4.229  1.00  0.00     0.116 C 
BRANCH  38  39
ATOM     39  C   UNL     1     -20.350  -8.701   4.461  1.00  0.00     0.023 C 
BRANCH  39  40
ATOM     40  C   UNL     1     -19.062  -9.111   5.166  1.00  0.00     0.026 C 
BRANCH  40  41
ATOM     41  C   UNL     1     -19.164  -8.859   6.670  1.00  0.00     0.146 C 
BRANCH  41  42
ATOM     42  N   UNL     1     -18.115  -9.595   7.365  1.00  0.00    -0.254 NA
ATOM     43  C   UNL     1     -17.118  -8.962   7.859  1.00  0.00     0.185 C 
ATOM     44  N   UNL     1     -16.841  -7.645   7.854  1.00  0.00    -0.370 N 
ATOM     45  N   UNL     1     -16.160  -9.659   8.492  1.00  0.00    -0.370 N 
ATOM     46  H   UNL     1     -15.913  -7.316   8.060  1.00  0.00     0.159 HD
ATOM     47  H   UNL     1     -17.468  -6.970   7.428  1.00  0.00     0.159 HD
ATOM     48  H   UNL     1     -16.297 -10.659   8.548  1.00  0.00     0.159 HD
ATOM     49  H   UNL     1     -15.486  -9.229   9.099  1.00  0.00     0.159 HD
ENDBRANCH  41  42
ENDBRANCH  40  41
ENDBRANCH  39  40
ENDBRANCH  38  39
ENDBRANCH  36  38
ENDBRANCH   5  34
BRANCH   8  50
ATOM     50  O   UNL     1     -18.176 -10.238   1.502  1.00  0.00    -0.245 OA
BRANCH  50  51
ATOM     51  S   UNL     1     -18.745 -11.748   1.707  1.00  0.00     0.397 S 
ATOM     52  O   UNL     1     -19.908 -11.675   2.563  1.00  0.00    -0.169 OA
ATOM     53  O   UNL     1     -17.646 -12.647   1.992  1.00  0.00    -0.169 OA
BRANCH  51  54
ATOM     54  O   UNL     1     -19.303 -12.098   0.240  1.00  0.00    -0.264 OA
ATOM     55  H   UNL     1     -18.578 -12.524  -0.262  1.00  0.00     0.236 HD
ENDBRANCH  51  54
ENDBRANCH  50  51
ENDBRANCH   8  50
TORSDOF 19
ENDMDL
MODEL 42
REMARK VINA RESULT:    -6.526     16.233     20.843
REMARK INTER + INTRA:         -16.694
REMARK INTER:                 -13.356
REMARK INTRA:                  -3.338
REMARK UNBOUND:                -3.491
REMARK SMILES CC[C@@H](C)[C@@H](NC(=O)[C@@H](O)Cc1ccc(O)c(Cl)c1)C(=O)N1[C@H](C(=O)NCCCCN=C(N)N)C[C@H]2CC[C@H](OS(=O)(=O)O)C[C@@H]21
REMARK SMILES IDX 22 1 36 2 46 3 35 4 23 5 45 6 37 7 39 8 38 9 20 10 21 11
REMARK SMILES IDX 5 12 6 13 7 14 8 15 9 17 11 18 12 19 17 20 19 21 15 22 14 23
REMARK SMILES IDX 13 24 18 25 16 26 10 28 3 30 4 31 2 32 1 33 24 34 25 35
REMARK SMILES IDX 26 36 27 38 28 39 29 40 30 41 31 42 32 43 33 44 34 45 40 50
REMARK SMILES IDX 41 51 42 52 43 53 44 54
REMARK H PARENT 6 16 16 27 10 29 26 37 33 46 33 47 34 48 34 49 44 55
ROOT
ATOM      1  N   UNL     1     -15.020  -6.260   3.089  1.00  0.00    -0.326 N 
ATOM      2  C   UNL     1     -17.116  -6.533   2.052  1.00  0.00     0.014 C 
ATOM      3  C   UNL     1     -15.613  -6.483   1.767  1.00  0.00     0.091 C 
ATOM      4  C   UNL     1     -17.276  -5.531   3.185  1.00  0.00     0.041 C 
ATOM      5  C   UNL     1     -16.082  -5.930   4.072  1.00  0.00     0.175 C 
ATOM      6  C   UNL     1     -15.224  -7.747   1.003  1.00  0.00     0.059 C 
ATOM      7  C   UNL     1     -17.916  -6.348   0.778  1.00  0.00     0.008 C 
ATOM      8  C   UNL     1     -16.342  -8.287   0.084  1.00  0.00     0.143 C 
ATOM      9  C   UNL     1     -17.303  -7.172  -0.374  1.00  0.00     0.034 C 
ENDROOT
BRANCH   1  10
ATOM     10  C   UNL     1     -13.693  -6.110   3.453  1.00  0.00     0.246 C 
ATOM     11  O   UNL     1     -13.038  -7.110   3.764  1.00  0.00    -0.272 OA
BRANCH  10  12
ATOM     12  C   UNL     1     -13.044  -4.696   3.421  1.00  0.00     0.174 C 
BRANCH  12  13
ATOM     13  N   UNL     1     -14.075  -3.679   3.213  1.00  0.00    -0.342 N 
ATOM     14  C   UNL     1     -14.500  -2.778   4.163  1.00  0.00     0.249 C 
ATOM     15  O   UNL     1     -14.036  -2.711   5.295  1.00  0.00    -0.272 OA
ATOM     16  H   UNL     1     -14.657  -3.715   2.379  1.00  0.00     0.164 HD
BRANCH  14  17
ATOM     17  C   UNL     1     -15.614  -1.845   3.643  1.00  0.00     0.207 C 
BRANCH  17  18
ATOM     18  C   UNL     1     -15.025  -0.498   3.211  1.00  0.00     0.077 C 
BRANCH  18  19
ATOM     19  C   UNL     1     -15.407  -0.148   1.790  1.00  0.00    -0.043 A 
ATOM     20  C   UNL     1     -15.431  -0.689  -0.575  1.00  0.00     0.083 A 
ATOM     21  C   UNL     1     -15.123  -1.037   0.741  1.00  0.00     0.028 A 
ATOM     22  C   UNL     1     -16.022   0.544  -0.851  1.00  0.00     0.134 A 
ATOM     23  C   UNL     1     -16.308   1.434   0.178  1.00  0.00     0.048 A 
ATOM     24  C   UNL     1     -15.999   1.090   1.496  1.00  0.00     0.008 A 
ATOM     25  Cl  UNL     1     -15.074  -1.795  -1.850  1.00  0.00    -0.080 Cl
BRANCH  22  26
ATOM     26  O   UNL     1     -16.332   0.933  -2.126  1.00  0.00    -0.506 OA
ATOM     27  H   UNL     1     -16.708   1.831  -2.061  1.00  0.00     0.293 HD
ENDBRANCH  22  26
ENDBRANCH  18  19
ENDBRANCH  17  18
BRANCH  17  28
ATOM     28  O   UNL     1     -16.617  -1.626   4.648  1.00  0.00    -0.383 OA
ATOM     29  H   UNL     1     -16.848  -0.671   4.598  1.00  0.00     0.211 HD
ENDBRANCH  17  28
ENDBRANCH  14  17
ENDBRANCH  12  13
BRANCH  12  30
ATOM     30  C   UNL     1     -11.889  -4.588   2.390  1.00  0.00     0.018 C 
ATOM     31  C   UNL     1     -11.424  -3.131   2.240  1.00  0.00     0.010 C 
BRANCH  30  32
ATOM     32  C   UNL     1     -12.237  -5.181   1.003  1.00  0.00     0.002 C 
ATOM     33  C   UNL     1     -11.302  -6.278   0.510  1.00  0.00     0.004 C 
ENDBRANCH  30  32
ENDBRANCH  12  30
ENDBRANCH  10  12
ENDBRANCH   1  10
BRANCH   5  34
ATOM     34  C   UNL     1     -16.413  -7.160   4.958  1.00  0.00     0.242 C 
ATOM     35  O   UNL     1     -17.268  -7.122   5.843  1.00  0.00    -0.273 OA
ATOM     36  N   UNL     1     -15.646  -8.278   4.719  1.00  0.00    -0.354 N 
ATOM     37  H   UNL     1     -14.873  -8.211   4.055  1.00  0.00     0.163 HD
BRANCH  36  38
ATOM     38  C   UNL     1     -15.959  -9.569   5.296  1.00  0.00     0.116 C 
BRANCH  38  39
ATOM     39  C   UNL     1     -16.975 -10.296   4.419  1.00  0.00     0.023 C 
BRANCH  39  40
ATOM     40  C   UNL     1     -18.007 -11.065   5.237  1.00  0.00     0.026 C 
BRANCH  40  41
ATOM     41  C   UNL     1     -18.900 -10.105   6.022  1.00  0.00     0.146 C 
BRANCH  41  42
ATOM     42  N   UNL     1     -19.014 -10.556   7.403  1.00  0.00    -0.254 NA
ATOM     43  C   UNL     1     -18.582  -9.811   8.350  1.00  0.00     0.185 C 
ATOM     44  N   UNL     1     -18.001  -8.598   8.301  1.00  0.00    -0.370 N 
ATOM     45  N   UNL     1     -18.693 -10.247   9.616  1.00  0.00    -0.370 N 
ATOM     46  H   UNL     1     -17.494  -8.240   9.092  1.00  0.00     0.159 HD
ATOM     47  H   UNL     1     -17.852  -8.114   7.421  1.00  0.00     0.159 HD
ATOM     48  H   UNL     1     -19.129 -11.150   9.742  1.00  0.00     0.159 HD
ATOM     49  H   UNL     1     -18.602  -9.639  10.410  1.00  0.00     0.159 HD
ENDBRANCH  41  42
ENDBRANCH  40  41
ENDBRANCH  39  40
ENDBRANCH  38  39
ENDBRANCH  36  38
ENDBRANCH   5  34
BRANCH   8  50
ATOM     50  O   UNL     1     -17.098  -9.286   0.768  1.00  0.00    -0.245 OA
BRANCH  50  51
ATOM     51  S   UNL     1     -17.624 -10.593  -0.046  1.00  0.00     0.397 S 
ATOM     52  O   UNL     1     -16.565 -11.022  -0.931  1.00  0.00    -0.169 OA
ATOM     53  O   UNL     1     -18.969 -10.357  -0.528  1.00  0.00    -0.169 OA
BRANCH  51  54
ATOM     54  O   UNL     1     -17.701 -11.702   1.116  1.00  0.00    -0.264 OA
ATOM     55  H   UNL     1     -18.096 -11.280   1.906  1.00  0.00     0.236 HD
ENDBRANCH  51  54
ENDBRANCH  50  51
ENDBRANCH   8  50
TORSDOF 19
ENDMDL
MODEL 43
REMARK VINA RESULT:    -6.490     19.138     21.954
REMARK INTER + INTRA:         -16.621
REMARK INTER:                 -12.057
REMARK INTRA:                  -4.564
REMARK UNBOUND:                -3.491
REMARK SMILES CC[C@@H](C)[C@@H](NC(=O)[C@@H](O)Cc1ccc(O)c(Cl)c1)C(=O)N1[C@H](C(=O)NCCCCN=C(N)N)C[C@H]2CC[C@H](OS(=O)(=O)O)C[C@@H]21
REMARK SMILES IDX 22 1 36 2 46 3 35 4 23 5 45 6 37 7 39 8 38 9 20 10 21 11
REMARK SMILES IDX 5 12 6 13 7 14 8 15 9 17 11 18 12 19 17 20 19 21 15 22 14 23
REMARK SMILES IDX 13 24 18 25 16 26 10 28 3 30 4 31 2 32 1 33 24 34 25 35
REMARK SMILES IDX 26 36 27 38 28 39 29 40 30 41 31 42 32 43 33 44 34 45 40 50
REMARK SMILES IDX 41 51 42 52 43 53 44 54
REMARK H PARENT 6 16 16 27 10 29 26 37 33 46 33 47 34 48 34 49 44 55
ROOT
ATOM      1  N   UNL     1     -19.668  -8.033   1.739  1.00  0.00    -0.326 N 
ATOM      2  C   UNL     1     -20.228  -7.224   3.878  1.00  0.00     0.014 C 
ATOM      3  C   UNL     1     -20.212  -8.492   3.020  1.00  0.00     0.091 C 
ATOM      4  C   UNL     1     -20.547  -6.137   2.863  1.00  0.00     0.041 C 
ATOM      5  C   UNL     1     -19.605  -6.550   1.717  1.00  0.00     0.175 C 
ATOM      6  C   UNL     1     -19.454  -9.580   3.780  1.00  0.00     0.059 C 
ATOM      7  C   UNL     1     -21.126  -7.399   5.087  1.00  0.00     0.008 C 
ATOM      8  C   UNL     1     -19.597  -9.479   5.315  1.00  0.00     0.143 C 
ATOM      9  C   UNL     1     -20.909  -8.785   5.730  1.00  0.00     0.034 C 
ENDROOT
BRANCH   1  10
ATOM     10  C   UNL     1     -19.438  -8.735   0.569  1.00  0.00     0.246 C 
ATOM     11  O   UNL     1     -20.161  -9.699   0.295  1.00  0.00    -0.272 OA
BRANCH  10  12
ATOM     12  C   UNL     1     -18.308  -8.272  -0.395  1.00  0.00     0.174 C 
BRANCH  12  13
ATOM     13  N   UNL     1     -18.890  -7.696  -1.607  1.00  0.00    -0.342 N 
ATOM     14  C   UNL     1     -18.658  -6.419  -2.065  1.00  0.00     0.249 C 
ATOM     15  O   UNL     1     -17.907  -5.623  -1.515  1.00  0.00    -0.272 OA
ATOM     16  H   UNL     1     -19.650  -8.179  -2.079  1.00  0.00     0.164 HD
BRANCH  14  17
ATOM     17  C   UNL     1     -19.432  -6.101  -3.362  1.00  0.00     0.207 C 
BRANCH  17  18
ATOM     18  C   UNL     1     -18.474  -6.043  -4.556  1.00  0.00     0.077 C 
BRANCH  18  19
ATOM     19  C   UNL     1     -18.156  -7.423  -5.088  1.00  0.00    -0.043 A 
ATOM     20  C   UNL     1     -16.548  -9.032  -5.930  1.00  0.00     0.083 A 
ATOM     21  C   UNL     1     -16.832  -7.776  -5.393  1.00  0.00     0.028 A 
ATOM     22  C   UNL     1     -17.580  -9.940  -6.167  1.00  0.00     0.134 A 
ATOM     23  C   UNL     1     -18.895  -9.603  -5.869  1.00  0.00     0.048 A 
ATOM     24  C   UNL     1     -19.184  -8.346  -5.334  1.00  0.00     0.008 A 
ATOM     25  Cl  UNL     1     -14.915  -9.447  -6.298  1.00  0.00    -0.080 Cl
BRANCH  22  26
ATOM     26  O   UNL     1     -17.351 -11.179  -6.701  1.00  0.00    -0.506 OA
ATOM     27  H   UNL     1     -17.567 -11.119  -7.651  1.00  0.00     0.293 HD
ENDBRANCH  22  26
ENDBRANCH  18  19
ENDBRANCH  17  18
BRANCH  17  28
ATOM     28  O   UNL     1     -20.134  -4.852  -3.253  1.00  0.00    -0.383 OA
ATOM     29  H   UNL     1     -20.016  -4.555  -2.322  1.00  0.00     0.211 HD
ENDBRANCH  17  28
ENDBRANCH  14  17
ENDBRANCH  12  13
BRANCH  12  30
ATOM     30  C   UNL     1     -17.286  -9.399  -0.706  1.00  0.00     0.018 C 
ATOM     31  C   UNL     1     -15.882  -9.015  -0.213  1.00  0.00     0.010 C 
BRANCH  30  32
ATOM     32  C   UNL     1     -17.235  -9.795  -2.202  1.00  0.00     0.002 C 
ATOM     33  C   UNL     1     -18.001 -11.060  -2.567  1.00  0.00     0.004 C 
ENDBRANCH  30  32
ENDBRANCH  12  30
ENDBRANCH  10  12
ENDBRANCH   1  10
BRANCH   5  34
ATOM     34  C   UNL     1     -18.155  -6.057   1.963  1.00  0.00     0.242 C 
ATOM     35  O   UNL     1     -17.302  -6.763   2.501  1.00  0.00    -0.273 OA
ATOM     36  N   UNL     1     -17.907  -4.756   1.586  1.00  0.00    -0.354 N 
ATOM     37  H   UNL     1     -18.685  -4.183   1.256  1.00  0.00     0.163 HD
BRANCH  36  38
ATOM     38  C   UNL     1     -16.568  -4.205   1.543  1.00  0.00     0.116 C 
BRANCH  38  39
ATOM     39  C   UNL     1     -16.323  -3.341   2.777  1.00  0.00     0.023 C 
BRANCH  39  40
ATOM     40  C   UNL     1     -14.874  -3.395   3.248  1.00  0.00     0.026 C 
BRANCH  40  41
ATOM     41  C   UNL     1     -14.755  -4.190   4.548  1.00  0.00     0.146 C 
BRANCH  41  42
ATOM     42  N   UNL     1     -14.561  -5.602   4.246  1.00  0.00    -0.254 NA
ATOM     43  C   UNL     1     -15.358  -6.471   4.743  1.00  0.00     0.185 C 
ATOM     44  N   UNL     1     -16.422  -6.308   5.551  1.00  0.00    -0.370 N 
ATOM     45  N   UNL     1     -15.160  -7.768   4.456  1.00  0.00    -0.370 N 
ATOM     46  H   UNL     1     -16.805  -7.088   6.058  1.00  0.00     0.159 HD
ATOM     47  H   UNL     1     -16.723  -5.388   5.857  1.00  0.00     0.159 HD
ATOM     48  H   UNL     1     -14.382  -7.978   3.845  1.00  0.00     0.159 HD
ATOM     49  H   UNL     1     -15.861  -8.472   4.604  1.00  0.00     0.159 HD
ENDBRANCH  41  42
ENDBRANCH  40  41
ENDBRANCH  39  40
ENDBRANCH  38  39
ENDBRANCH  36  38
ENDBRANCH   5  34
BRANCH   8  50
ATOM     50  O   UNL     1     -18.502  -8.744   5.862  1.00  0.00    -0.245 OA
BRANCH  50  51
ATOM     51  S   UNL     1     -17.955  -9.106   7.350  1.00  0.00     0.397 S 
ATOM     52  O   UNL     1     -18.035 -10.540   7.519  1.00  0.00    -0.169 OA
ATOM     53  O   UNL     1     -18.534  -8.195   8.315  1.00  0.00    -0.169 OA
BRANCH  51  54
ATOM     54  O   UNL     1     -16.389  -8.766   7.225  1.00  0.00    -0.264 OA
ATOM     55  H   UNL     1     -16.207  -8.540   6.290  1.00  0.00     0.236 HD
ENDBRANCH  51  54
ENDBRANCH  50  51
ENDBRANCH   8  50
TORSDOF 19
ENDMDL
MODEL 44
REMARK VINA RESULT:    -6.469     16.801     21.817
REMARK INTER + INTRA:         -16.577
REMARK INTER:                 -13.298
REMARK INTRA:                  -3.279
REMARK UNBOUND:                -3.491
REMARK SMILES CC[C@@H](C)[C@@H](NC(=O)[C@@H](O)Cc1ccc(O)c(Cl)c1)C(=O)N1[C@H](C(=O)NCCCCN=C(N)N)C[C@H]2CC[C@H](OS(=O)(=O)O)C[C@@H]21
REMARK SMILES IDX 22 1 36 2 46 3 35 4 23 5 45 6 37 7 39 8 38 9 20 10 21 11
REMARK SMILES IDX 5 12 6 13 7 14 8 15 9 17 11 18 12 19 17 20 19 21 15 22 14 23
REMARK SMILES IDX 13 24 18 25 16 26 10 28 3 30 4 31 2 32 1 33 24 34 25 35
REMARK SMILES IDX 26 36 27 38 28 39 29 40 30 41 31 42 32 43 33 44 34 45 40 50
REMARK SMILES IDX 41 51 42 52 43 53 44 54
REMARK H PARENT 6 16 16 27 10 29 26 37 33 46 33 47 34 48 34 49 44 55
ROOT
ATOM      1  N   UNL     1     -16.675  -7.028   2.618  1.00  0.00    -0.326 N 
ATOM      2  C   UNL     1     -18.901  -7.088   3.380  1.00  0.00     0.014 C 
ATOM      3  C   UNL     1     -17.989  -6.446   2.331  1.00  0.00     0.091 C 
ATOM      4  C   UNL     1     -17.985  -7.217   4.587  1.00  0.00     0.041 C 
ATOM      5  C   UNL     1     -16.715  -7.762   3.907  1.00  0.00     0.175 C 
ATOM      6  C   UNL     1     -18.600  -6.682   0.951  1.00  0.00     0.059 C 
ATOM      7  C   UNL     1     -20.200  -6.317   3.513  1.00  0.00     0.008 C 
ATOM      8  C   UNL     1     -20.143  -6.734   0.955  1.00  0.00     0.143 C 
ATOM      9  C   UNL     1     -20.747  -5.929   2.123  1.00  0.00     0.034 C 
ENDROOT
BRANCH   1  10
ATOM     10  C   UNL     1     -15.453  -6.808   2.005  1.00  0.00     0.246 C 
ATOM     11  O   UNL     1     -15.316  -7.106   0.814  1.00  0.00    -0.272 OA
BRANCH  10  12
ATOM     12  C   UNL     1     -14.296  -6.152   2.814  1.00  0.00     0.174 C 
BRANCH  12  13
ATOM     13  N   UNL     1     -14.587  -4.737   3.042  1.00  0.00    -0.342 N 
ATOM     14  C   UNL     1     -15.066  -4.209   4.220  1.00  0.00     0.249 C 
ATOM     15  O   UNL     1     -15.277  -4.872   5.228  1.00  0.00    -0.272 OA
ATOM     16  H   UNL     1     -14.610  -4.094   2.255  1.00  0.00     0.164 HD
BRANCH  14  17
ATOM     17  C   UNL     1     -15.289  -2.684   4.142  1.00  0.00     0.207 C 
BRANCH  17  18
ATOM     18  C   UNL     1     -14.204  -2.027   3.283  1.00  0.00     0.077 C 
BRANCH  18  19
ATOM     19  C   UNL     1     -14.786  -1.026   2.311  1.00  0.00    -0.043 A 
ATOM     20  C   UNL     1     -14.794   0.021   0.123  1.00  0.00     0.083 A 
ATOM     21  C   UNL     1     -14.289  -0.937   1.001  1.00  0.00     0.028 A 
ATOM     22  C   UNL     1     -15.796   0.896   0.545  1.00  0.00     0.134 A 
ATOM     23  C   UNL     1     -16.298   0.820   1.839  1.00  0.00     0.048 A 
ATOM     24  C   UNL     1     -15.793  -0.138   2.721  1.00  0.00     0.008 A 
ATOM     25  Cl  UNL     1     -14.170   0.114  -1.482  1.00  0.00    -0.080 Cl
BRANCH  22  26
ATOM     26  O   UNL     1     -16.316   1.859  -0.277  1.00  0.00    -0.506 OA
ATOM     27  H   UNL     1     -15.694   2.610  -0.257  1.00  0.00     0.293 HD
ENDBRANCH  22  26
ENDBRANCH  18  19
ENDBRANCH  17  18
BRANCH  17  28
ATOM     28  O   UNL     1     -15.283  -2.092   5.451  1.00  0.00    -0.383 OA
ATOM     29  H   UNL     1     -14.603  -1.381   5.425  1.00  0.00     0.211 HD
ENDBRANCH  17  28
ENDBRANCH  14  17
ENDBRANCH  12  13
BRANCH  12  30
ATOM     30  C   UNL     1     -12.906  -6.373   2.159  1.00  0.00     0.018 C 
ATOM     31  C   UNL     1     -11.845  -6.690   3.223  1.00  0.00     0.010 C 
BRANCH  30  32
ATOM     32  C   UNL     1     -12.439  -5.188   1.278  1.00  0.00     0.002 C 
ATOM     33  C   UNL     1     -11.354  -4.310   1.890  1.00  0.00     0.004 C 
ENDBRANCH  30  32
ENDBRANCH  12  30
ENDBRANCH  10  12
ENDBRANCH   1  10
BRANCH   5  34
ATOM     34  C   UNL     1     -16.807  -9.292   3.667  1.00  0.00     0.242 C 
ATOM     35  O   UNL     1     -16.532  -9.805   2.582  1.00  0.00    -0.273 OA
ATOM     36  N   UNL     1     -17.268 -10.026   4.736  1.00  0.00    -0.354 N 
ATOM     37  H   UNL     1     -17.594  -9.532   5.568  1.00  0.00     0.163 HD
BRANCH  36  38
ATOM     38  C   UNL     1     -17.213 -11.473   4.762  1.00  0.00     0.116 C 
BRANCH  38  39
ATOM     39  C   UNL     1     -17.918 -11.997   6.012  1.00  0.00     0.023 C 
BRANCH  39  40
ATOM     40  C   UNL     1     -19.118 -11.142   6.404  1.00  0.00     0.026 C 
BRANCH  40  41
ATOM     41  C   UNL     1     -18.923 -10.540   7.796  1.00  0.00     0.146 C 
BRANCH  41  42
ATOM     42  N   UNL     1     -18.419  -9.178   7.677  1.00  0.00    -0.254 NA
ATOM     43  C   UNL     1     -17.219  -8.914   8.034  1.00  0.00     0.185 C 
ATOM     44  N   UNL     1     -16.267  -9.722   8.535  1.00  0.00    -0.370 N 
ATOM     45  N   UNL     1     -16.774  -7.651   7.921  1.00  0.00    -0.370 N 
ATOM     46  H   UNL     1     -15.460  -9.339   8.997  1.00  0.00     0.159 HD
ATOM     47  H   UNL     1     -16.430 -10.715   8.674  1.00  0.00     0.159 HD
ATOM     48  H   UNL     1     -17.428  -6.978   7.542  1.00  0.00     0.159 HD
ATOM     49  H   UNL     1     -15.799  -7.413   7.951  1.00  0.00     0.159 HD
ENDBRANCH  41  42
ENDBRANCH  40  41
ENDBRANCH  39  40
ENDBRANCH  38  39
ENDBRANCH  36  38
ENDBRANCH   5  34
BRANCH   8  50
ATOM     50  O   UNL     1     -20.588  -8.087   1.060  1.00  0.00    -0.245 OA
BRANCH  50  51
ATOM     51  S   UNL     1     -20.585  -9.038  -0.260  1.00  0.00     0.397 S 
ATOM     52  O   UNL     1     -21.707  -9.945  -0.159  1.00  0.00    -0.169 OA
ATOM     53  O   UNL     1     -19.242  -9.516  -0.512  1.00  0.00    -0.169 OA
BRANCH  51  54
ATOM     54  O   UNL     1     -20.968  -7.997  -1.424  1.00  0.00    -0.264 OA
ATOM     55  H   UNL     1     -20.402  -7.206  -1.315  1.00  0.00     0.236 HD
ENDBRANCH  51  54
ENDBRANCH  50  51
ENDBRANCH   8  50
TORSDOF 19
ENDMDL
MODEL 45
REMARK VINA RESULT:    -6.444     20.907     23.635
REMARK INTER + INTRA:         -16.528
REMARK INTER:                 -13.320
REMARK INTRA:                  -3.208
REMARK UNBOUND:                -3.491
REMARK SMILES CC[C@@H](C)[C@@H](NC(=O)[C@@H](O)Cc1ccc(O)c(Cl)c1)C(=O)N1[C@H](C(=O)NCCCCN=C(N)N)C[C@H]2CC[C@H](OS(=O)(=O)O)C[C@@H]21
REMARK SMILES IDX 22 1 36 2 46 3 35 4 23 5 45 6 37 7 39 8 38 9 20 10 21 11
REMARK SMILES IDX 5 12 6 13 7 14 8 15 9 17 11 18 12 19 17 20 19 21 15 22 14 23
REMARK SMILES IDX 13 24 18 25 16 26 10 28 3 30 4 31 2 32 1 33 24 34 25 35
REMARK SMILES IDX 26 36 27 38 28 39 29 40 30 41 31 42 32 43 33 44 34 45 40 50
REMARK SMILES IDX 41 51 42 52 43 53 44 54
REMARK H PARENT 6 16 16 27 10 29 26 37 33 46 33 47 34 48 34 49 44 55
ROOT
ATOM      1  N   UNL     1     -16.644  11.313  -5.375  1.00  0.00    -0.326 N 
ATOM      2  C   UNL     1     -14.511  12.029  -6.067  1.00  0.00     0.014 C 
ATOM      3  C   UNL     1     -15.225  11.117  -5.065  1.00  0.00     0.091 C 
ATOM      4  C   UNL     1     -15.468  13.204  -6.191  1.00  0.00     0.041 C 
ATOM      5  C   UNL     1     -16.807  12.454  -6.310  1.00  0.00     0.175 C 
ATOM      6  C   UNL     1     -14.643   9.711  -5.191  1.00  0.00     0.059 C 
ATOM      7  C   UNL     1     -13.076  12.280  -5.645  1.00  0.00     0.008 C 
ATOM      8  C   UNL     1     -13.151   9.689  -5.591  1.00  0.00     0.143 C 
ATOM      9  C   UNL     1     -12.417  10.973  -5.156  1.00  0.00     0.034 C 
ENDROOT
BRANCH   1  10
ATOM     10  C   UNL     1     -17.767  10.761  -4.782  1.00  0.00     0.246 C 
ATOM     11  O   UNL     1     -18.562  10.122  -5.479  1.00  0.00    -0.272 OA
BRANCH  10  12
ATOM     12  C   UNL     1     -17.980  10.919  -3.249  1.00  0.00     0.174 C 
BRANCH  12  13
ATOM     13  N   UNL     1     -18.453   9.658  -2.678  1.00  0.00    -0.342 N 
ATOM     14  C   UNL     1     -17.641   8.631  -2.250  1.00  0.00     0.249 C 
ATOM     15  O   UNL     1     -16.418   8.673  -2.274  1.00  0.00    -0.272 OA
ATOM     16  H   UNL     1     -19.438   9.415  -2.739  1.00  0.00     0.164 HD
BRANCH  14  17
ATOM     17  C   UNL     1     -18.441   7.424  -1.714  1.00  0.00     0.207 C 
BRANCH  17  18
ATOM     18  C   UNL     1     -19.458   6.950  -2.756  1.00  0.00     0.077 C 
BRANCH  18  19
ATOM     19  C   UNL     1     -19.218   5.513  -3.163  1.00  0.00    -0.043 A 
ATOM     20  C   UNL     1     -18.496   3.265  -2.610  1.00  0.00     0.083 A 
ATOM     21  C   UNL     1     -18.763   4.578  -2.221  1.00  0.00     0.028 A 
ATOM     22  C   UNL     1     -18.679   2.879  -3.939  1.00  0.00     0.134 A 
ATOM     23  C   UNL     1     -19.129   3.796  -4.882  1.00  0.00     0.048 A 
ATOM     24  C   UNL     1     -19.396   5.111  -4.495  1.00  0.00     0.008 A 
ATOM     25  Cl  UNL     1     -17.937   2.130  -1.438  1.00  0.00    -0.080 Cl
BRANCH  22  26
ATOM     26  O   UNL     1     -18.420   1.607  -4.370  1.00  0.00    -0.506 OA
ATOM     27  H   UNL     1     -18.219   1.077  -3.576  1.00  0.00     0.293 HD
ENDBRANCH  22  26
ENDBRANCH  18  19
ENDBRANCH  17  18
BRANCH  17  28
ATOM     28  O   UNL     1     -19.127   7.758  -0.496  1.00  0.00    -0.383 OA
ATOM     29  H   UNL     1     -18.539   7.462   0.237  1.00  0.00     0.211 HD
ENDBRANCH  17  28
ENDBRANCH  14  17
ENDBRANCH  12  13
BRANCH  12  30
ATOM     30  C   UNL     1     -18.904  12.114  -2.892  1.00  0.00     0.018 C 
ATOM     31  C   UNL     1     -19.895  12.398  -4.031  1.00  0.00     0.010 C 
BRANCH  30  32
ATOM     32  C   UNL     1     -18.135  13.405  -2.521  1.00  0.00     0.002 C 
ATOM     33  C   UNL     1     -18.745  14.224  -1.391  1.00  0.00     0.004 C 
ENDBRANCH  30  32
ENDBRANCH  12  30
ENDBRANCH  10  12
ENDBRANCH   1  10
BRANCH   5  34
ATOM     34  C   UNL     1     -17.054  11.949  -7.757  1.00  0.00     0.242 C 
ATOM     35  O   UNL     1     -16.613  10.874  -8.163  1.00  0.00    -0.273 OA
ATOM     36  N   UNL     1     -17.754  12.814  -8.567  1.00  0.00    -0.354 N 
ATOM     37  H   UNL     1     -17.989  13.741  -8.210  1.00  0.00     0.163 HD
BRANCH  36  38
ATOM     38  C   UNL     1     -18.257  12.420  -9.867  1.00  0.00     0.116 C 
BRANCH  38  39
ATOM     39  C   UNL     1     -17.407  13.052 -10.966  1.00  0.00     0.023 C 
BRANCH  39  40
ATOM     40  C   UNL     1     -16.760  14.360 -10.522  1.00  0.00     0.026 C 
BRANCH  40  41
ATOM     41  C   UNL     1     -15.241  14.213 -10.440  1.00  0.00     0.146 C 
BRANCH  41  42
ATOM     42  N   UNL     1     -14.889  12.808 -10.285  1.00  0.00    -0.254 NA
ATOM     43  C   UNL     1     -13.816  12.488  -9.665  1.00  0.00     0.185 C 
ATOM     44  N   UNL     1     -12.886  13.269  -9.086  1.00  0.00    -0.370 N 
ATOM     45  N   UNL     1     -13.508  11.187  -9.537  1.00  0.00    -0.370 N 
ATOM     46  H   UNL     1     -11.980  12.900  -8.852  1.00  0.00     0.159 HD
ATOM     47  H   UNL     1     -12.969  14.280  -9.078  1.00  0.00     0.159 HD
ATOM     48  H   UNL     1     -14.163  10.529  -9.938  1.00  0.00     0.159 HD
ATOM     49  H   UNL     1     -12.830  10.851  -8.876  1.00  0.00     0.159 HD
ENDBRANCH  41  42
ENDBRANCH  40  41
ENDBRANCH  39  40
ENDBRANCH  38  39
ENDBRANCH  36  38
ENDBRANCH   5  34
BRANCH   8  50
ATOM     50  O   UNL     1     -13.025   9.551  -7.006  1.00  0.00    -0.245 OA
BRANCH  50  51
ATOM     51  S   UNL     1     -13.108   8.073  -7.680  1.00  0.00     0.397 S 
ATOM     52  O   UNL     1     -13.905   8.175  -8.882  1.00  0.00    -0.169 OA
ATOM     53  O   UNL     1     -13.398   7.089  -6.658  1.00  0.00    -0.169 OA
BRANCH  51  54
ATOM     54  O   UNL     1     -11.596   7.844  -8.175  1.00  0.00    -0.264 OA
ATOM     55  H   UNL     1     -11.527   6.926  -8.508  1.00  0.00     0.236 HD
ENDBRANCH  51  54
ENDBRANCH  50  51
ENDBRANCH   8  50
TORSDOF 19
ENDMDL
MODEL 46
REMARK VINA RESULT:    -6.443     20.767     24.481
REMARK INTER + INTRA:         -16.525
REMARK INTER:                 -11.620
REMARK INTRA:                  -4.905
REMARK UNBOUND:                -3.491
REMARK SMILES CC[C@@H](C)[C@@H](NC(=O)[C@@H](O)Cc1ccc(O)c(Cl)c1)C(=O)N1[C@H](C(=O)NCCCCN=C(N)N)C[C@H]2CC[C@H](OS(=O)(=O)O)C[C@@H]21
REMARK SMILES IDX 22 1 36 2 46 3 35 4 23 5 45 6 37 7 39 8 38 9 20 10 21 11
REMARK SMILES IDX 5 12 6 13 7 14 8 15 9 17 11 18 12 19 17 20 19 21 15 22 14 23
REMARK SMILES IDX 13 24 18 25 16 26 10 28 3 30 4 31 2 32 1 33 24 34 25 35
REMARK SMILES IDX 26 36 27 38 28 39 29 40 30 41 31 42 32 43 33 44 34 45 40 50
REMARK SMILES IDX 41 51 42 52 43 53 44 54
REMARK H PARENT 6 16 16 27 10 29 26 37 33 46 33 47 34 48 34 49 44 55
ROOT
ATOM      1  N   UNL     1     -15.389  13.072  -8.774  1.00  0.00    -0.326 N 
ATOM      2  C   UNL     1     -13.170  13.318  -8.026  1.00  0.00     0.014 C 
ATOM      3  C   UNL     1     -14.534  14.013  -8.044  1.00  0.00     0.091 C 
ATOM      4  C   UNL     1     -13.141  12.603  -9.368  1.00  0.00     0.041 C 
ATOM      5  C   UNL     1     -14.560  12.007  -9.391  1.00  0.00     0.175 C 
ATOM      6  C   UNL     1     -14.912  14.372  -6.608  1.00  0.00     0.059 C 
ATOM      7  C   UNL     1     -12.066  14.298  -7.681  1.00  0.00     0.008 C 
ATOM      8  C   UNL     1     -13.700  14.694  -5.708  1.00  0.00     0.143 C 
ATOM      9  C   UNL     1     -12.499  15.218  -6.520  1.00  0.00     0.034 C 
ENDROOT
BRANCH   1  10
ATOM     10  C   UNL     1     -16.726  13.171  -9.117  1.00  0.00     0.246 C 
ATOM     11  O   UNL     1     -17.047  13.105 -10.309  1.00  0.00    -0.272 OA
BRANCH  10  12
ATOM     12  C   UNL     1     -17.797  13.320  -7.998  1.00  0.00     0.174 C 
BRANCH  12  13
ATOM     13  N   UNL     1     -17.492  12.413  -6.892  1.00  0.00    -0.342 N 
ATOM     14  C   UNL     1     -17.711  12.687  -5.561  1.00  0.00     0.249 C 
ATOM     15  O   UNL     1     -18.216  13.726  -5.153  1.00  0.00    -0.272 OA
ATOM     16  H   UNL     1     -16.929  11.584  -7.062  1.00  0.00     0.164 HD
BRANCH  14  17
ATOM     17  C   UNL     1     -17.268  11.535  -4.635  1.00  0.00     0.207 C 
BRANCH  17  18
ATOM     18  C   UNL     1     -18.403  10.521  -4.461  1.00  0.00     0.077 C 
BRANCH  18  19
ATOM     19  C   UNL     1     -18.133   9.564  -3.322  1.00  0.00    -0.043 A 
ATOM     20  C   UNL     1     -18.538   8.841  -1.042  1.00  0.00     0.083 A 
ATOM     21  C   UNL     1     -18.825   9.695  -2.108  1.00  0.00     0.028 A 
ATOM     22  C   UNL     1     -17.560   7.856  -1.181  1.00  0.00     0.134 A 
ATOM     23  C   UNL     1     -16.867   7.715  -2.377  1.00  0.00     0.048 A 
ATOM     24  C   UNL     1     -17.151   8.569  -3.446  1.00  0.00     0.008 A 
ATOM     25  Cl  UNL     1     -19.399   9.018   0.442  1.00  0.00    -0.080 Cl
BRANCH  22  26
ATOM     26  O   UNL     1     -17.236   7.003  -0.160  1.00  0.00    -0.506 OA
ATOM     27  H   UNL     1     -16.385   7.311   0.203  1.00  0.00     0.293 HD
ENDBRANCH  22  26
ENDBRANCH  18  19
ENDBRANCH  17  18
BRANCH  17  28
ATOM     28  O   UNL     1     -16.871  12.030  -3.346  1.00  0.00    -0.383 OA
ATOM     29  H   UNL     1     -16.575  11.245  -2.832  1.00  0.00     0.211 HD
ENDBRANCH  17  28
ENDBRANCH  14  17
ENDBRANCH  12  13
BRANCH  12  30
ATOM     30  C   UNL     1     -19.246  13.145  -8.526  1.00  0.00     0.018 C 
ATOM     31  C   UNL     1     -20.169  14.237  -7.964  1.00  0.00     0.010 C 
BRANCH  30  32
ATOM     32  C   UNL     1     -19.845  11.745  -8.244  1.00  0.00     0.002 C 
ATOM     33  C   UNL     1     -21.001  11.720  -7.253  1.00  0.00     0.004 C 
ENDBRANCH  30  32
ENDBRANCH  12  30
ENDBRANCH  10  12
ENDBRANCH   1  10
BRANCH   5  34
ATOM     34  C   UNL     1     -14.644  10.697  -8.564  1.00  0.00     0.242 C 
ATOM     35  O   UNL     1     -15.236  10.635  -7.486  1.00  0.00    -0.273 OA
ATOM     36  N   UNL     1     -13.963   9.624  -9.095  1.00  0.00    -0.354 N 
ATOM     37  H   UNL     1     -13.391   9.769  -9.928  1.00  0.00     0.163 HD
BRANCH  36  38
ATOM     38  C   UNL     1     -14.109   8.281  -8.575  1.00  0.00     0.116 C 
BRANCH  38  39
ATOM     39  C   UNL     1     -12.868   7.897  -7.772  1.00  0.00     0.023 C 
BRANCH  39  40
ATOM     40  C   UNL     1     -13.202   7.037  -6.558  1.00  0.00     0.026 C 
BRANCH  40  41
ATOM     41  C   UNL     1     -12.591   7.631  -5.289  1.00  0.00     0.146 C 
BRANCH  41  42
ATOM     42  N   UNL     1     -13.546   8.531  -4.656  1.00  0.00    -0.254 NA
ATOM     43  C   UNL     1     -13.451   9.793  -4.849  1.00  0.00     0.185 C 
ATOM     44  N   UNL     1     -12.565  10.492  -5.582  1.00  0.00    -0.370 N 
ATOM     45  N   UNL     1     -14.339  10.606  -4.253  1.00  0.00    -0.370 N 
ATOM     46  H   UNL     1     -12.457  11.482  -5.449  1.00  0.00     0.159 HD
ATOM     47  H   UNL     1     -11.831  10.032  -6.112  1.00  0.00     0.159 HD
ATOM     48  H   UNL     1     -15.047  10.158  -3.687  1.00  0.00     0.159 HD
ATOM     49  H   UNL     1     -14.478  11.559  -4.536  1.00  0.00     0.159 HD
ENDBRANCH  41  42
ENDBRANCH  40  41
ENDBRANCH  39  40
ENDBRANCH  38  39
ENDBRANCH  36  38
ENDBRANCH   5  34
BRANCH   8  50
ATOM     50  O   UNL     1     -13.292  13.525  -4.998  1.00  0.00    -0.245 OA
BRANCH  50  51
ATOM     51  S   UNL     1     -13.032  13.609  -3.394  1.00  0.00     0.397 S 
ATOM     52  O   UNL     1     -14.237  13.176  -2.723  1.00  0.00    -0.169 OA
ATOM     53  O   UNL     1     -12.392  14.868  -3.071  1.00  0.00    -0.169 OA
BRANCH  51  54
ATOM     54  O   UNL     1     -11.958  12.434  -3.166  1.00  0.00    -0.264 OA
ATOM     55  H   UNL     1     -11.071  12.846  -3.115  1.00  0.00     0.236 HD
ENDBRANCH  51  54
ENDBRANCH  50  51
ENDBRANCH   8  50
TORSDOF 19
ENDMDL
MODEL 47
REMARK VINA RESULT:    -6.422     17.520     20.767
REMARK INTER + INTRA:         -16.483
REMARK INTER:                 -14.366
REMARK INTRA:                  -2.117
REMARK UNBOUND:                -3.491
REMARK SMILES CC[C@@H](C)[C@@H](NC(=O)[C@@H](O)Cc1ccc(O)c(Cl)c1)C(=O)N1[C@H](C(=O)NCCCCN=C(N)N)C[C@H]2CC[C@H](OS(=O)(=O)O)C[C@@H]21
REMARK SMILES IDX 22 1 36 2 46 3 35 4 23 5 45 6 37 7 39 8 38 9 20 10 21 11
REMARK SMILES IDX 5 12 6 13 7 14 8 15 9 17 11 18 12 19 17 20 19 21 15 22 14 23
REMARK SMILES IDX 13 24 18 25 16 26 10 28 3 30 4 31 2 32 1 33 24 34 25 35
REMARK SMILES IDX 26 36 27 38 28 39 29 40 30 41 31 42 32 43 33 44 34 45 40 50
REMARK SMILES IDX 41 51 42 52 43 53 44 54
REMARK H PARENT 6 16 16 27 10 29 26 37 33 46 33 47 34 48 34 49 44 55
ROOT
ATOM      1  N   UNL     1     -15.600  -4.886   2.419  1.00  0.00    -0.326 N 
ATOM      2  C   UNL     1     -17.215  -6.467   3.078  1.00  0.00     0.014 C 
ATOM      3  C   UNL     1     -16.996  -5.257   2.166  1.00  0.00     0.091 C 
ATOM      4  C   UNL     1     -16.358  -6.134   4.289  1.00  0.00     0.041 C 
ATOM      5  C   UNL     1     -15.080  -5.636   3.589  1.00  0.00     0.175 C 
ATOM      6  C   UNL     1     -17.396  -5.645   0.744  1.00  0.00     0.059 C 
ATOM      7  C   UNL     1     -18.694  -6.742   3.267  1.00  0.00     0.008 C 
ATOM      8  C   UNL     1     -18.540  -6.679   0.680  1.00  0.00     0.143 C 
ATOM      9  C   UNL     1     -19.447  -6.617   1.926  1.00  0.00     0.034 C 
ENDROOT
BRANCH   1  10
ATOM     10  C   UNL     1     -14.847  -3.851   1.892  1.00  0.00     0.246 C 
ATOM     11  O   UNL     1     -14.001  -4.103   1.027  1.00  0.00    -0.272 OA
BRANCH  10  12
ATOM     12  C   UNL     1     -15.110  -2.392   2.366  1.00  0.00     0.174 C 
BRANCH  12  13
ATOM     13  N   UNL     1     -14.963  -1.469   1.241  1.00  0.00    -0.342 N 
ATOM     14  C   UNL     1     -15.664  -0.294   1.086  1.00  0.00     0.249 C 
ATOM     15  O   UNL     1     -16.480   0.125   1.898  1.00  0.00    -0.272 OA
ATOM     16  H   UNL     1     -14.441  -1.757   0.417  1.00  0.00     0.164 HD
BRANCH  14  17
ATOM     17  C   UNL     1     -15.297   0.452  -0.214  1.00  0.00     0.207 C 
BRANCH  17  18
ATOM     18  C   UNL     1     -15.962  -0.217  -1.421  1.00  0.00     0.077 C 
BRANCH  18  19
ATOM     19  C   UNL     1     -16.890   0.730  -2.148  1.00  0.00    -0.043 A 
ATOM     20  C   UNL     1     -17.577   1.850  -4.187  1.00  0.00     0.083 A 
ATOM     21  C   UNL     1     -16.751   0.938  -3.529  1.00  0.00     0.028 A 
ATOM     22  C   UNL     1     -18.543   2.559  -3.473  1.00  0.00     0.134 A 
ATOM     23  C   UNL     1     -18.691   2.363  -2.105  1.00  0.00     0.048 A 
ATOM     24  C   UNL     1     -17.865   1.453  -1.443  1.00  0.00     0.008 A 
ATOM     25  Cl  UNL     1     -17.391   2.091  -5.885  1.00  0.00    -0.080 Cl
BRANCH  22  26
ATOM     26  O   UNL     1     -19.368   3.471  -4.073  1.00  0.00    -0.506 OA
ATOM     27  H   UNL     1     -20.120   2.970  -4.440  1.00  0.00     0.293 HD
ENDBRANCH  22  26
ENDBRANCH  18  19
ENDBRANCH  17  18
BRANCH  17  28
ATOM     28  O   UNL     1     -13.874   0.481  -0.409  1.00  0.00    -0.383 OA
ATOM     29  H   UNL     1     -13.734   0.652  -1.368  1.00  0.00     0.211 HD
ENDBRANCH  17  28
ENDBRANCH  14  17
ENDBRANCH  12  13
BRANCH  12  30
ATOM     30  C   UNL     1     -14.234  -1.990   3.582  1.00  0.00     0.018 C 
ATOM     31  C   UNL     1     -12.854  -2.662   3.508  1.00  0.00     0.010 C 
BRANCH  30  32
ATOM     32  C   UNL     1     -14.897  -2.284   4.950  1.00  0.00     0.002 C 
ATOM     33  C   UNL     1     -15.810  -1.187   5.481  1.00  0.00     0.004 C 
ENDBRANCH  30  32
ENDBRANCH  12  30
ENDBRANCH  10  12
ENDBRANCH   1  10
BRANCH   5  34
ATOM     34  C   UNL     1     -14.181  -6.816   3.131  1.00  0.00     0.242 C 
ATOM     35  O   UNL     1     -13.897  -7.006   1.949  1.00  0.00    -0.273 OA
ATOM     36  N   UNL     1     -13.771  -7.663   4.136  1.00  0.00    -0.354 N 
ATOM     37  H   UNL     1     -14.137  -7.522   5.078  1.00  0.00     0.163 HD
BRANCH  36  38
ATOM     38  C   UNL     1     -12.762  -8.681   3.925  1.00  0.00     0.116 C 
BRANCH  38  39
ATOM     39  C   UNL     1     -13.159  -9.963   4.651  1.00  0.00     0.023 C 
BRANCH  39  40
ATOM     40  C   UNL     1     -14.640  -9.993   5.013  1.00  0.00     0.026 C 
BRANCH  40  41
ATOM     41  C   UNL     1     -14.874 -10.824   6.275  1.00  0.00     0.146 C 
BRANCH  41  42
ATOM     42  N   UNL     1     -16.125 -10.423   6.905  1.00  0.00    -0.254 NA
ATOM     43  C   UNL     1     -16.238 -10.475   8.179  1.00  0.00     0.185 C 
ATOM     44  N   UNL     1     -15.347 -10.859   9.111  1.00  0.00    -0.370 N 
ATOM     45  N   UNL     1     -17.401 -10.105   8.739  1.00  0.00    -0.370 N 
ATOM     46  H   UNL     1     -15.647 -11.082  10.045  1.00  0.00     0.159 HD
ATOM     47  H   UNL     1     -14.409 -11.158   8.862  1.00  0.00     0.159 HD
ATOM     48  H   UNL     1     -18.124  -9.793   8.106  1.00  0.00     0.159 HD
ATOM     49  H   UNL     1     -17.490  -9.893   9.717  1.00  0.00     0.159 HD
ENDBRANCH  41  42
ENDBRANCH  40  41
ENDBRANCH  39  40
ENDBRANCH  38  39
ENDBRANCH  36  38
ENDBRANCH   5  34
BRANCH   8  50
ATOM     50  O   UNL     1     -18.004  -7.998   0.575  1.00  0.00    -0.245 OA
BRANCH  50  51
ATOM     51  S   UNL     1     -18.927  -9.195  -0.026  1.00  0.00     0.397 S 
ATOM     52  O   UNL     1     -19.826  -8.618  -1.000  1.00  0.00    -0.169 OA
ATOM     53  O   UNL     1     -19.411 -10.026   1.056  1.00  0.00    -0.169 OA
BRANCH  51  54
ATOM     54  O   UNL     1     -17.858 -10.051  -0.869  1.00  0.00    -0.264 OA
ATOM     55  H   UNL     1     -17.876 -10.969  -0.529  1.00  0.00     0.236 HD
ENDBRANCH  51  54
ENDBRANCH  50  51
ENDBRANCH   8  50
TORSDOF 19
ENDMDL
MODEL 48
REMARK VINA RESULT:    -6.422      4.628      9.277
REMARK INTER + INTRA:         -16.483
REMARK INTER:                 -13.724
REMARK INTRA:                  -2.758
REMARK UNBOUND:                -3.491
REMARK SMILES CC[C@@H](C)[C@@H](NC(=O)[C@@H](O)Cc1ccc(O)c(Cl)c1)C(=O)N1[C@H](C(=O)NCCCCN=C(N)N)C[C@H]2CC[C@H](OS(=O)(=O)O)C[C@@H]21
REMARK SMILES IDX 22 1 36 2 46 3 35 4 23 5 45 6 37 7 39 8 38 9 20 10 21 11
REMARK SMILES IDX 5 12 6 13 7 14 8 15 9 17 11 18 12 19 17 20 19 21 15 22 14 23
REMARK SMILES IDX 13 24 18 25 16 26 10 28 3 30 4 31 2 32 1 33 24 34 25 35
REMARK SMILES IDX 26 36 27 38 28 39 29 40 30 41 31 42 32 43 33 44 34 45 40 50
REMARK SMILES IDX 41 51 42 52 43 53 44 54
REMARK H PARENT 6 16 16 27 10 29 26 37 33 46 33 47 34 48 34 49 44 55
ROOT
ATOM      1  N   UNL     1       0.724  -8.818  -4.069  1.00  0.00    -0.326 N 
ATOM      2  C   UNL     1      -1.453  -9.664  -4.368  1.00  0.00     0.014 C 
ATOM      3  C   UNL     1      -0.354  -9.469  -3.319  1.00  0.00     0.091 C 
ATOM      4  C   UNL     1      -0.660  -9.940  -5.636  1.00  0.00     0.041 C 
ATOM      5  C   UNL     1       0.424  -8.852  -5.522  1.00  0.00     0.175 C 
ATOM      6  C   UNL     1      -0.953  -8.730  -2.123  1.00  0.00     0.059 C 
ATOM      7  C   UNL     1      -2.478 -10.677  -3.897  1.00  0.00     0.008 C 
ATOM      8  C   UNL     1      -2.445  -9.048  -1.880  1.00  0.00     0.143 C 
ATOM      9  C   UNL     1      -2.834 -10.442  -2.414  1.00  0.00     0.034 C 
ENDROOT
BRANCH   1  10
ATOM     10  C   UNL     1       1.980  -8.414  -3.649  1.00  0.00     0.246 C 
ATOM     11  O   UNL     1       2.896  -9.242  -3.612  1.00  0.00    -0.272 OA
BRANCH  10  12
ATOM     12  C   UNL     1       2.221  -6.923  -3.274  1.00  0.00     0.174 C 
BRANCH  12  13
ATOM     13  N   UNL     1       0.962  -6.302  -2.864  1.00  0.00    -0.342 N 
ATOM     14  C   UNL     1       0.798  -5.510  -1.750  1.00  0.00     0.249 C 
ATOM     15  O   UNL     1       1.706  -5.212  -0.985  1.00  0.00    -0.272 OA
ATOM     16  H   UNL     1       0.092  -6.585  -3.309  1.00  0.00     0.164 HD
BRANCH  14  17
ATOM     17  C   UNL     1      -0.655  -5.018  -1.578  1.00  0.00     0.207 C 
BRANCH  17  18
ATOM     18  C   UNL     1      -1.269  -5.597  -0.299  1.00  0.00     0.077 C 
BRANCH  18  19
ATOM     19  C   UNL     1      -1.153  -4.638   0.864  1.00  0.00    -0.043 A 
ATOM     20  C   UNL     1      -1.065  -4.231   3.254  1.00  0.00     0.083 A 
ATOM     21  C   UNL     1      -1.122  -5.122   2.181  1.00  0.00     0.028 A 
ATOM     22  C   UNL     1      -1.041  -2.856   3.019  1.00  0.00     0.134 A 
ATOM     23  C   UNL     1      -1.072  -2.363   1.720  1.00  0.00     0.048 A 
ATOM     24  C   UNL     1      -1.131  -3.252   0.644  1.00  0.00     0.008 A 
ATOM     25  Cl  UNL     1      -1.027  -4.845   4.865  1.00  0.00    -0.080 Cl
BRANCH  22  26
ATOM     26  O   UNL     1      -0.996  -1.944   4.039  1.00  0.00    -0.506 OA
ATOM     27  H   UNL     1      -1.025  -2.452   4.871  1.00  0.00     0.293 HD
ENDBRANCH  22  26
ENDBRANCH  18  19
ENDBRANCH  17  18
BRANCH  17  28
ATOM     28  O   UNL     1      -1.464  -5.390  -2.705  1.00  0.00    -0.383 OA
ATOM     29  H   UNL     1      -2.260  -5.835  -2.334  1.00  0.00     0.211 HD
ENDBRANCH  17  28
ENDBRANCH  14  17
ENDBRANCH  12  13
BRANCH  12  30
ATOM     30  C   UNL     1       2.933  -6.129  -4.401  1.00  0.00     0.018 C 
ATOM     31  C   UNL     1       3.729  -7.073  -5.316  1.00  0.00     0.010 C 
BRANCH  30  32
ATOM     32  C   UNL     1       3.850  -4.996  -3.880  1.00  0.00     0.002 C 
ATOM     33  C   UNL     1       4.955  -5.439  -2.929  1.00  0.00     0.004 C 
ENDBRANCH  30  32
ENDBRANCH  12  30
ENDBRANCH  10  12
ENDBRANCH   1  10
BRANCH   5  34
ATOM     34  C   UNL     1      -0.097  -7.473  -6.008  1.00  0.00     0.242 C 
ATOM     35  O   UNL     1       0.558  -6.749  -6.758  1.00  0.00    -0.273 OA
ATOM     36  N   UNL     1      -1.319  -7.095  -5.498  1.00  0.00    -0.354 N 
ATOM     37  H   UNL     1      -1.758  -7.683  -4.788  1.00  0.00     0.163 HD
BRANCH  36  38
ATOM     38  C   UNL     1      -2.049  -5.952  -6.005  1.00  0.00     0.116 C 
BRANCH  38  39
ATOM     39  C   UNL     1      -3.523  -6.068  -5.626  1.00  0.00     0.023 C 
BRANCH  39  40
ATOM     40  C   UNL     1      -4.090  -7.456  -5.907  1.00  0.00     0.026 C 
BRANCH  40  41
ATOM     41  C   UNL     1      -4.349  -7.643  -7.402  1.00  0.00     0.146 C 
BRANCH  41  42
ATOM     42  N   UNL     1      -5.693  -8.165  -7.607  1.00  0.00    -0.254 NA
ATOM     43  C   UNL     1      -5.849  -9.338  -8.098  1.00  0.00     0.185 C 
ATOM     44  N   UNL     1      -4.932 -10.242  -8.486  1.00  0.00    -0.370 N 
ATOM     45  N   UNL     1      -7.097  -9.799  -8.283  1.00  0.00    -0.370 N 
ATOM     46  H   UNL     1      -5.191 -11.015  -9.075  1.00  0.00     0.159 HD
ATOM     47  H   UNL     1      -3.936 -10.061  -8.402  1.00  0.00     0.159 HD
ATOM     48  H   UNL     1      -7.848  -9.182  -8.008  1.00  0.00     0.159 HD
ATOM     49  H   UNL     1      -7.300 -10.771  -8.433  1.00  0.00     0.159 HD
ENDBRANCH  41  42
ENDBRANCH  40  41
ENDBRANCH  39  40
ENDBRANCH  38  39
ENDBRANCH  36  38
ENDBRANCH   5  34
BRANCH   8  50
ATOM     50  O   UNL     1      -3.265  -8.072  -2.522  1.00  0.00    -0.245 OA
BRANCH  50  51
ATOM     51  S   UNL     1      -4.752  -7.763  -1.939  1.00  0.00     0.397 S 
ATOM     52  O   UNL     1      -5.186  -6.492  -2.474  1.00  0.00    -0.169 OA
ATOM     53  O   UNL     1      -4.783  -8.040  -0.517  1.00  0.00    -0.169 OA
BRANCH  51  54
ATOM     54  O   UNL     1      -5.641  -8.878  -2.681  1.00  0.00    -0.264 OA
ATOM     55  H   UNL     1      -5.527  -8.758  -3.645  1.00  0.00     0.236 HD
ENDBRANCH  51  54
ENDBRANCH  50  51
ENDBRANCH   8  50
TORSDOF 19
ENDMDL
MODEL 49
REMARK VINA RESULT:    -6.404     16.784     20.120
REMARK INTER + INTRA:         -16.446
REMARK INTER:                 -14.113
REMARK INTRA:                  -2.332
REMARK UNBOUND:                -3.491
REMARK SMILES CC[C@@H](C)[C@@H](NC(=O)[C@@H](O)Cc1ccc(O)c(Cl)c1)C(=O)N1[C@H](C(=O)NCCCCN=C(N)N)C[C@H]2CC[C@H](OS(=O)(=O)O)C[C@@H]21
REMARK SMILES IDX 22 1 36 2 46 3 35 4 23 5 45 6 37 7 39 8 38 9 20 10 21 11
REMARK SMILES IDX 5 12 6 13 7 14 8 15 9 17 11 18 12 19 17 20 19 21 15 22 14 23
REMARK SMILES IDX 13 24 18 25 16 26 10 28 3 30 4 31 2 32 1 33 24 34 25 35
REMARK SMILES IDX 26 36 27 38 28 39 29 40 30 41 31 42 32 43 33 44 34 45 40 50
REMARK SMILES IDX 41 51 42 52 43 53 44 54
REMARK H PARENT 6 16 16 27 10 29 26 37 33 46 33 47 34 48 34 49 44 55
ROOT
ATOM      1  N   UNL     1     -13.272  -7.064   1.814  1.00  0.00    -0.326 N 
ATOM      2  C   UNL     1     -13.482  -9.396   2.056  1.00  0.00     0.014 C 
ATOM      3  C   UNL     1     -12.646  -8.195   2.506  1.00  0.00     0.091 C 
ATOM      4  C   UNL     1     -13.845  -9.035   0.624  1.00  0.00     0.041 C 
ATOM      5  C   UNL     1     -14.244  -7.559   0.808  1.00  0.00     0.175 C 
ATOM      6  C   UNL     1     -12.608  -8.178   4.033  1.00  0.00     0.059 C 
ATOM      7  C   UNL     1     -12.754 -10.697   2.332  1.00  0.00     0.008 C 
ATOM      8  C   UNL     1     -12.661  -9.583   4.671  1.00  0.00     0.143 C 
ATOM      9  C   UNL     1     -12.100 -10.668   3.730  1.00  0.00     0.034 C 
ENDROOT
BRANCH   1  10
ATOM     10  C   UNL     1     -12.935  -5.721   1.822  1.00  0.00     0.246 C 
ATOM     11  O   UNL     1     -11.889  -5.361   1.272  1.00  0.00    -0.272 OA
BRANCH  10  12
ATOM     12  C   UNL     1     -13.897  -4.693   2.484  1.00  0.00     0.174 C 
BRANCH  12  13
ATOM     13  N   UNL     1     -13.683  -3.367   1.905  1.00  0.00    -0.342 N 
ATOM     14  C   UNL     1     -14.683  -2.483   1.564  1.00  0.00     0.249 C 
ATOM     15  O   UNL     1     -15.875  -2.703   1.737  1.00  0.00    -0.272 OA
ATOM     16  H   UNL     1     -12.761  -3.109   1.562  1.00  0.00     0.164 HD
BRANCH  14  17
ATOM     17  C   UNL     1     -14.138  -1.172   0.959  1.00  0.00     0.207 C 
BRANCH  17  18
ATOM     18  C   UNL     1     -14.414  -1.123  -0.547  1.00  0.00     0.077 C 
BRANCH  18  19
ATOM     19  C   UNL     1     -15.599  -0.242  -0.873  1.00  0.00    -0.043 A 
ATOM     20  C   UNL     1     -17.000   0.878  -2.506  1.00  0.00     0.083 A 
ATOM     21  C   UNL     1     -15.937   0.025  -2.209  1.00  0.00     0.028 A 
ATOM     22  C   UNL     1     -17.730   1.469  -1.474  1.00  0.00     0.134 A 
ATOM     23  C   UNL     1     -17.406   1.214  -0.147  1.00  0.00     0.048 A 
ATOM     24  C   UNL     1     -16.341   0.362   0.153  1.00  0.00     0.008 A 
ATOM     25  Cl  UNL     1     -17.400   1.194  -4.154  1.00  0.00    -0.080 Cl
BRANCH  22  26
ATOM     26  O   UNL     1     -18.774   2.321  -1.716  1.00  0.00    -0.506 OA
ATOM     27  H   UNL     1     -18.778   2.494  -2.676  1.00  0.00     0.293 HD
ENDBRANCH  22  26
ENDBRANCH  18  19
ENDBRANCH  17  18
BRANCH  17  28
ATOM     28  O   UNL     1     -12.726  -1.043   1.190  1.00  0.00    -0.383 OA
ATOM     29  H   UNL     1     -12.535  -0.078   1.178  1.00  0.00     0.211 HD
ENDBRANCH  17  28
ENDBRANCH  14  17
ENDBRANCH  12  13
BRANCH  12  30
ATOM     30  C   UNL     1     -13.794  -4.686   4.033  1.00  0.00     0.018 C 
ATOM     31  C   UNL     1     -15.117  -5.140   4.670  1.00  0.00     0.010 C 
BRANCH  30  32
ATOM     32  C   UNL     1     -13.361  -3.321   4.622  1.00  0.00     0.002 C 
ATOM     33  C   UNL     1     -14.470  -2.519   5.291  1.00  0.00     0.004 C 
ENDBRANCH  30  32
ENDBRANCH  12  30
ENDBRANCH  10  12
ENDBRANCH   1  10
BRANCH   5  34
ATOM     34  C   UNL     1     -15.698  -7.422   1.334  1.00  0.00     0.242 C 
ATOM     35  O   UNL     1     -16.473  -6.565   0.910  1.00  0.00    -0.273 OA
ATOM     36  N   UNL     1     -16.039  -8.291   2.346  1.00  0.00    -0.354 N 
ATOM     37  H   UNL     1     -15.317  -8.897   2.738  1.00  0.00     0.163 HD
BRANCH  36  38
ATOM     38  C   UNL     1     -17.405  -8.449   2.802  1.00  0.00     0.116 C 
BRANCH  38  39
ATOM     39  C   UNL     1     -17.640  -7.587   4.040  1.00  0.00     0.023 C 
BRANCH  39  40
ATOM     40  C   UNL     1     -17.165  -8.265   5.321  1.00  0.00     0.026 C 
BRANCH  40  41
ATOM     41  C   UNL     1     -18.269  -9.140   5.914  1.00  0.00     0.146 C 
BRANCH  41  42
ATOM     42  N   UNL     1     -18.879  -8.461   7.050  1.00  0.00    -0.254 NA
ATOM     43  C   UNL     1     -18.541  -8.792   8.240  1.00  0.00     0.185 C 
ATOM     44  N   UNL     1     -17.662  -9.717   8.664  1.00  0.00    -0.370 N 
ATOM     45  N   UNL     1     -19.118  -8.158   9.274  1.00  0.00    -0.370 N 
ATOM     46  H   UNL     1     -17.676 -10.039   9.617  1.00  0.00     0.159 HD
ATOM     47  H   UNL     1     -17.125 -10.281   8.013  1.00  0.00     0.159 HD
ATOM     48  H   UNL     1     -19.788  -7.437   9.041  1.00  0.00     0.159 HD
ATOM     49  H   UNL     1     -18.745  -8.187  10.206  1.00  0.00     0.159 HD
ENDBRANCH  41  42
ENDBRANCH  40  41
ENDBRANCH  39  40
ENDBRANCH  38  39
ENDBRANCH  36  38
ENDBRANCH   5  34
BRANCH   8  50
ATOM     50  O   UNL     1     -14.009  -9.921   5.001  1.00  0.00    -0.245 OA
BRANCH  50  51
ATOM     51  S   UNL     1     -14.303 -10.922   6.249  1.00  0.00     0.397 S 
ATOM     52  O   UNL     1     -14.662 -12.214   5.709  1.00  0.00    -0.169 OA
ATOM     53  O   UNL     1     -15.134 -10.250   7.226  1.00  0.00    -0.169 OA
BRANCH  51  54
ATOM     54  O   UNL     1     -12.838 -11.105   6.885  1.00  0.00    -0.264 OA
ATOM     55  H   UNL     1     -12.690 -10.366   7.510  1.00  0.00     0.236 HD
ENDBRANCH  51  54
ENDBRANCH  50  51
ENDBRANCH   8  50
TORSDOF 19
ENDMDL
MODEL 50
REMARK VINA RESULT:    -6.313     15.955     20.025
REMARK INTER + INTRA:         -16.263
REMARK INTER:                 -12.994
REMARK INTRA:                  -3.269
REMARK UNBOUND:                -3.491
REMARK SMILES CC[C@@H](C)[C@@H](NC(=O)[C@@H](O)Cc1ccc(O)c(Cl)c1)C(=O)N1[C@H](C(=O)NCCCCN=C(N)N)C[C@H]2CC[C@H](OS(=O)(=O)O)C[C@@H]21
REMARK SMILES IDX 22 1 36 2 46 3 35 4 23 5 45 6 37 7 39 8 38 9 20 10 21 11
REMARK SMILES IDX 5 12 6 13 7 14 8 15 9 17 11 18 12 19 17 20 19 21 15 22 14 23
REMARK SMILES IDX 13 24 18 25 16 26 10 28 3 30 4 31 2 32 1 33 24 34 25 35
REMARK SMILES IDX 26 36 27 38 28 39 29 40 30 41 31 42 32 43 33 44 34 45 40 50
REMARK SMILES IDX 41 51 42 52 43 53 44 54
REMARK H PARENT 6 16 16 27 10 29 26 37 33 46 33 47 34 48 34 49 44 55
ROOT
ATOM      1  N   UNL     1     -14.457  -5.985   2.799  1.00  0.00    -0.326 N 
ATOM      2  C   UNL     1     -14.323  -3.705   3.369  1.00  0.00     0.014 C 
ATOM      3  C   UNL     1     -13.616  -4.806   2.573  1.00  0.00     0.091 C 
ATOM      4  C   UNL     1     -14.875  -4.460   4.568  1.00  0.00     0.041 C 
ATOM      5  C   UNL     1     -15.450  -5.704   3.865  1.00  0.00     0.175 C 
ATOM      6  C   UNL     1     -13.425  -4.318   1.138  1.00  0.00     0.059 C 
ATOM      7  C   UNL     1     -13.401  -2.523   3.595  1.00  0.00     0.008 C 
ATOM      8  C   UNL     1     -13.222  -2.791   1.023  1.00  0.00     0.143 C 
ATOM      9  C   UNL     1     -12.618  -2.189   2.307  1.00  0.00     0.034 C 
ENDROOT
BRANCH   1  10
ATOM     10  C   UNL     1     -14.305  -7.284   2.344  1.00  0.00     0.246 C 
ATOM     11  O   UNL     1     -14.327  -8.213   3.159  1.00  0.00    -0.272 OA
BRANCH  10  12
ATOM     12  C   UNL     1     -14.154  -7.549   0.818  1.00  0.00     0.174 C 
BRANCH  12  13
ATOM     13  N   UNL     1     -15.325  -8.269   0.318  1.00  0.00    -0.342 N 
ATOM     14  C   UNL     1     -16.557  -7.702   0.076  1.00  0.00     0.249 C 
ATOM     15  O   UNL     1     -16.802  -6.512   0.228  1.00  0.00    -0.272 OA
ATOM     16  H   UNL     1     -15.320  -9.285   0.295  1.00  0.00     0.164 HD
BRANCH  14  17
ATOM     17  C   UNL     1     -17.594  -8.727  -0.430  1.00  0.00     0.207 C 
BRANCH  17  18
ATOM     18  C   UNL     1     -18.804  -8.009  -1.036  1.00  0.00     0.077 C 
BRANCH  18  19
ATOM     19  C   UNL     1     -18.533  -7.547  -2.450  1.00  0.00    -0.043 A 
ATOM     20  C   UNL     1     -17.273  -7.725  -4.516  1.00  0.00     0.083 A 
ATOM     21  C   UNL     1     -17.556  -8.186  -3.229  1.00  0.00     0.028 A 
ATOM     22  C   UNL     1     -17.961  -6.626  -5.030  1.00  0.00     0.134 A 
ATOM     23  C   UNL     1     -18.931  -5.983  -4.270  1.00  0.00     0.048 A 
ATOM     24  C   UNL     1     -19.215  -6.441  -2.981  1.00  0.00     0.008 A 
ATOM     25  Cl  UNL     1     -16.069  -8.523  -5.457  1.00  0.00    -0.080 Cl
BRANCH  22  26
ATOM     26  O   UNL     1     -17.711  -6.131  -6.282  1.00  0.00    -0.506 OA
ATOM     27  H   UNL     1     -17.621  -5.165  -6.189  1.00  0.00     0.293 HD
ENDBRANCH  22  26
ENDBRANCH  18  19
ENDBRANCH  17  18
BRANCH  17  28
ATOM     28  O   UNL     1     -18.034  -9.586   0.634  1.00  0.00    -0.383 OA
ATOM     29  H   UNL     1     -17.777 -10.499   0.370  1.00  0.00     0.211 HD
ENDBRANCH  17  28
ENDBRANCH  14  17
ENDBRANCH  12  13
BRANCH  12  30
ATOM     30  C   UNL     1     -12.823  -8.265   0.463  1.00  0.00     0.018 C 
ATOM     31  C   UNL     1     -12.957  -9.786   0.636  1.00  0.00     0.010 C 
BRANCH  30  32
ATOM     32  C   UNL     1     -11.604  -7.743   1.262  1.00  0.00     0.002 C 
ATOM     33  C   UNL     1     -10.757  -6.697   0.549  1.00  0.00     0.004 C 
ENDBRANCH  30  32
ENDBRANCH  12  30
ENDBRANCH  10  12
ENDBRANCH   1  10
BRANCH   5  34
ATOM     34  C   UNL     1     -16.848  -5.420   3.253  1.00  0.00     0.242 C 
ATOM     35  O   UNL     1     -17.134  -4.338   2.739  1.00  0.00    -0.273 OA
ATOM     36  N   UNL     1     -17.760  -6.444   3.375  1.00  0.00    -0.354 N 
ATOM     37  H   UNL     1     -17.502  -7.270   3.917  1.00  0.00     0.163 HD
BRANCH  36  38
ATOM     38  C   UNL     1     -19.030  -6.436   2.679  1.00  0.00     0.116 C 
BRANCH  38  39
ATOM     39  C   UNL     1     -19.860  -7.646   3.100  1.00  0.00     0.023 C 
BRANCH  39  40
ATOM     40  C   UNL     1     -20.223  -7.618   4.581  1.00  0.00     0.026 C 
BRANCH  40  41
ATOM     41  C   UNL     1     -19.667  -8.848   5.299  1.00  0.00     0.146 C 
BRANCH  41  42
ATOM     42  N   UNL     1     -18.239  -8.967   5.039  1.00  0.00    -0.254 NA
ATOM     43  C   UNL     1     -17.400  -8.628   5.944  1.00  0.00     0.185 C 
ATOM     44  N   UNL     1     -17.611  -8.147   7.183  1.00  0.00    -0.370 N 
ATOM     45  N   UNL     1     -16.087  -8.741   5.683  1.00  0.00    -0.370 N 
ATOM     46  H   UNL     1     -16.869  -7.696   7.691  1.00  0.00     0.159 HD
ATOM     47  H   UNL     1     -18.548  -8.011   7.550  1.00  0.00     0.159 HD
ATOM     48  H   UNL     1     -15.841  -9.104   4.772  1.00  0.00     0.159 HD
ATOM     49  H   UNL     1     -15.386  -8.725   6.402  1.00  0.00     0.159 HD
ENDBRANCH  41  42
ENDBRANCH  40  41
ENDBRANCH  39  40
ENDBRANCH  38  39
ENDBRANCH  36  38
ENDBRANCH   5  34
BRANCH   8  50
ATOM     50  O   UNL     1     -14.471  -2.149   0.764  1.00  0.00    -0.245 OA
BRANCH  50  51
ATOM     51  S   UNL     1     -14.610  -1.148  -0.511  1.00  0.00     0.397 S 
ATOM     52  O   UNL     1     -13.445  -0.293  -0.536  1.00  0.00    -0.169 OA
ATOM     53  O   UNL     1     -15.952  -0.606  -0.558  1.00  0.00    -0.169 OA
BRANCH  51  54
ATOM     54  O   UNL     1     -14.439  -2.158  -1.750  1.00  0.00    -0.264 OA
ATOM     55  H   UNL     1     -14.484  -3.071  -1.400  1.00  0.00     0.236 HD
ENDBRANCH  51  54
ENDBRANCH  50  51
ENDBRANCH   8  50
TORSDOF 19
ENDMDL
