MODEL 1
REMARK VINA RESULT:    -5.521      0.000      0.000
REMARK INTER + INTRA:         -20.621
REMARK INTER:                 -13.752
REMARK INTRA:                  -6.869
REMARK UNBOUND:                -6.869
REMARK SMILES CCCCCCC[C@H](N)[C@H](O)C(=O)N[C@H](C)C(=O)N(C)[C@H](CC(C)C)C(=O)N[C@@H](Cc1ccc(O)cc1)C(=O)N[C@@H](Cc1ccc(O)cc1)C(=O)O
REMARK SMILES IDX 18 1 17 2 15 3 16 4 14 5 12 6 13 7 10 9 11 10 8 12 9 13 7 16
REMARK SMILES IDX 6 17 5 18 4 19 3 20 2 21 1 22 19 23 20 24 21 25 22 26 23 27
REMARK SMILES IDX 24 28 25 29 26 30 27 31 28 32 29 34 30 35 31 36 32 37 37 38
REMARK SMILES IDX 33 39 36 40 34 41 35 42 38 44 39 45 40 46 41 48 42 49 43 50
REMARK SMILES IDX 44 51 49 52 45 53 48 54 46 55 47 56 50 58 51 59 52 60
REMARK H PARENT 14 8 11 11 9 14 9 15 28 33 35 43 40 47 47 57 52 61
ROOT
ATOM      1  O   UNL     1      -7.485  10.345   3.890  1.00  0.00    -0.272 OA
ATOM      2  C   UNL     1      -7.562  11.537   4.223  1.00  0.00     0.245 C 
ENDROOT
BRANCH   2   3
ATOM      3  C   UNL     1      -6.920  12.606   3.303  1.00  0.00     0.168 C 
ATOM      4  C   UNL     1      -5.621  13.128   3.906  1.00  0.00     0.041 C 
BRANCH   3   5
ATOM      5  N   UNL     1      -6.750  12.197   1.918  1.00  0.00    -0.342 N 
ATOM      6  C   UNL     1      -7.630  12.586   0.931  1.00  0.00     0.251 C 
ATOM      7  O   UNL     1      -8.632  13.260   1.145  1.00  0.00    -0.272 OA
ATOM      8  H   UNL     1      -5.974  11.608   1.624  1.00  0.00     0.164 HD
BRANCH   6   9
ATOM      9  C   UNL     1      -7.175  12.158  -0.474  1.00  0.00     0.219 C 
BRANCH   9  10
ATOM     10  O   UNL     1      -5.810  12.502  -0.741  1.00  0.00    -0.382 OA
ATOM     11  H   UNL     1      -5.304  11.956  -0.100  1.00  0.00     0.211 HD
ENDBRANCH   9  10
BRANCH   9  12
ATOM     12  C   UNL     1      -7.432  10.657  -0.766  1.00  0.00     0.089 C 
BRANCH  12  13
ATOM     13  N   UNL     1      -8.398  10.145   0.232  1.00  0.00    -0.325 NA
ATOM     14  H   UNL     1      -8.933  10.927   0.613  1.00  0.00     0.119 HD
ATOM     15  H   UNL     1      -7.881   9.763   1.028  1.00  0.00     0.119 HD
ENDBRANCH  12  13
BRANCH  12  16
ATOM     16  C   UNL     1      -7.915  10.317  -2.197  1.00  0.00     0.022 C 
BRANCH  16  17
ATOM     17  C   UNL     1      -7.019   9.465  -3.106  1.00  0.00     0.002 C 
BRANCH  17  18
ATOM     18  C   UNL     1      -7.291   9.614  -4.601  1.00  0.00     0.000 C 
BRANCH  18  19
ATOM     19  C   UNL     1      -7.582  11.054  -5.043  1.00  0.00    -0.000 C 
BRANCH  19  20
ATOM     20  C   UNL     1      -6.355  11.966  -5.135  1.00  0.00    -0.000 C 
BRANCH  20  21
ATOM     21  C   UNL     1      -6.539  13.295  -4.397  1.00  0.00    -0.003 C 
ATOM     22  C   UNL     1      -6.851  14.427  -5.363  1.00  0.00     0.004 C 
ENDBRANCH  20  21
ENDBRANCH  19  20
ENDBRANCH  18  19
ENDBRANCH  17  18
ENDBRANCH  16  17
ENDBRANCH  12  16
ENDBRANCH   9  12
ENDBRANCH   6   9
ENDBRANCH   3   5
ENDBRANCH   2   3
BRANCH   2  23
ATOM     23  N   UNL     1      -8.317  11.902   5.332  1.00  0.00    -0.332 N 
ATOM     24  C   UNL     1      -8.082  11.422   6.686  1.00  0.00     0.147 C 
BRANCH  23  25
ATOM     25  C   UNL     1      -9.373  12.945   5.212  1.00  0.00     0.174 C 
BRANCH  25  26
ATOM     26  C   UNL     1      -9.737  13.592   6.569  1.00  0.00     0.038 C 
BRANCH  26  27
ATOM     27  C   UNL     1     -11.185  14.105   6.734  1.00  0.00    -0.015 C 
ATOM     28  C   UNL     1     -12.023  13.208   7.644  1.00  0.00     0.007 C 
ATOM     29  C   UNL     1     -11.266  15.559   7.191  1.00  0.00     0.007 C 
ENDBRANCH  26  27
ENDBRANCH  25  26
BRANCH  25  30
ATOM     30  C   UNL     1     -10.591  12.382   4.445  1.00  0.00     0.243 C 
ATOM     31  O   UNL     1     -11.140  11.332   4.776  1.00  0.00    -0.273 OA
ATOM     32  N   UNL     1     -11.013  13.127   3.373  1.00  0.00    -0.342 N 
ATOM     33  H   UNL     1     -10.598  14.054   3.248  1.00  0.00     0.164 HD
BRANCH  32  34
ATOM     34  C   UNL     1     -12.133  12.733   2.515  1.00  0.00     0.175 C 
BRANCH  34  35
ATOM     35  C   UNL     1     -12.927  13.959   2.036  1.00  0.00     0.070 C 
BRANCH  35  36
ATOM     36  C   UNL     1     -13.798  14.552   3.121  1.00  0.00    -0.045 A 
ATOM     37  C   UNL     1     -13.290  15.558   3.957  1.00  0.00     0.007 A 
ATOM     38  C   UNL     1     -15.106  14.093   3.324  1.00  0.00     0.007 A 
ATOM     39  C   UNL     1     -14.082  16.102   4.969  1.00  0.00     0.046 A 
ATOM     40  C   UNL     1     -15.899  14.636   4.338  1.00  0.00     0.046 A 
ATOM     41  C   UNL     1     -15.379  15.637   5.152  1.00  0.00     0.115 A 
BRANCH  41  42
ATOM     42  O   UNL     1     -16.117  16.192   6.154  1.00  0.00    -0.508 OA
ATOM     43  H   UNL     1     -15.922  15.714   6.977  1.00  0.00     0.293 HD
ENDBRANCH  41  42
ENDBRANCH  35  36
ENDBRANCH  34  35
BRANCH  34  44
ATOM     44  C   UNL     1     -11.567  11.915   1.333  1.00  0.00     0.243 C 
ATOM     45  O   UNL     1     -11.055  10.804   1.440  1.00  0.00    -0.273 OA
ATOM     46  N   UNL     1     -11.568  12.604   0.138  1.00  0.00    -0.341 N 
ATOM     47  H   UNL     1     -11.896  13.566   0.123  1.00  0.00     0.164 HD
BRANCH  46  48
ATOM     48  C   UNL     1     -11.019  12.059  -1.106  1.00  0.00     0.196 C 
BRANCH  48  49
ATOM     49  C   UNL     1     -12.082  11.272  -1.890  1.00  0.00     0.072 C 
BRANCH  49  50
ATOM     50  C   UNL     1     -11.551   9.969  -2.443  1.00  0.00    -0.045 A 
ATOM     51  C   UNL     1     -11.308   8.890  -1.581  1.00  0.00     0.007 A 
ATOM     52  C   UNL     1     -11.275   9.825  -3.809  1.00  0.00     0.007 A 
ATOM     53  C   UNL     1     -10.805   7.688  -2.078  1.00  0.00     0.046 A 
ATOM     54  C   UNL     1     -10.770   8.622  -4.307  1.00  0.00     0.046 A 
ATOM     55  C   UNL     1     -10.540   7.562  -3.436  1.00  0.00     0.115 A 
BRANCH  55  56
ATOM     56  O   UNL     1     -10.048   6.371  -3.882  1.00  0.00    -0.508 OA
ATOM     57  H   UNL     1     -10.263   5.688  -3.228  1.00  0.00     0.293 HD
ENDBRANCH  55  56
ENDBRANCH  49  50
ENDBRANCH  48  49
BRANCH  48  58
ATOM     58  C   UNL     1     -10.496  13.216  -1.969  1.00  0.00     0.326 C 
ATOM     59  O   UNL     1     -10.258  13.197  -3.166  1.00  0.00    -0.250 OA
BRANCH  58  60
ATOM     60  O   UNL     1     -10.306  14.366  -1.275  1.00  0.00    -0.480 OA
ATOM     61  H   UNL     1      -9.645  14.851  -1.816  1.00  0.00     0.296 HD
ENDBRANCH  58  60
ENDBRANCH  48  58
ENDBRANCH  46  48
ENDBRANCH  34  44
ENDBRANCH  32  34
ENDBRANCH  25  30
ENDBRANCH  23  25
ENDBRANCH   2  23
TORSDOF 28
ENDMDL
MODEL 2
REMARK VINA RESULT:    -5.161      9.740     14.388
REMARK INTER + INTRA:         -19.724
REMARK INTER:                 -13.866
REMARK INTRA:                  -5.858
REMARK UNBOUND:                -6.869
REMARK SMILES CCCCCCC[C@H](N)[C@H](O)C(=O)N[C@H](C)C(=O)N(C)[C@H](CC(C)C)C(=O)N[C@@H](Cc1ccc(O)cc1)C(=O)N[C@@H](Cc1ccc(O)cc1)C(=O)O
REMARK SMILES IDX 18 1 17 2 15 3 16 4 14 5 12 6 13 7 10 9 11 10 8 12 9 13 7 16
REMARK SMILES IDX 6 17 5 18 4 19 3 20 2 21 1 22 19 23 20 24 21 25 22 26 23 27
REMARK SMILES IDX 24 28 25 29 26 30 27 31 28 32 29 34 30 35 31 36 32 37 37 38
REMARK SMILES IDX 33 39 36 40 34 41 35 42 38 44 39 45 40 46 41 48 42 49 43 50
REMARK SMILES IDX 44 51 49 52 45 53 48 54 46 55 47 56 50 58 51 59 52 60
REMARK H PARENT 14 8 11 11 9 14 9 15 28 33 35 43 40 47 47 57 52 61
ROOT
ATOM      1  O   UNL     1       0.513   3.248   2.614  1.00  0.00    -0.272 OA
ATOM      2  C   UNL     1       0.507   3.032   3.835  1.00  0.00     0.245 C 
ENDROOT
BRANCH   2   3
ATOM      3  C   UNL     1       1.840   2.654   4.528  1.00  0.00     0.168 C 
ATOM      4  C   UNL     1       2.705   1.801   3.607  1.00  0.00     0.041 C 
BRANCH   3   5
ATOM      5  N   UNL     1       2.580   3.777   5.082  1.00  0.00    -0.342 N 
ATOM      6  C   UNL     1       3.623   3.596   5.966  1.00  0.00     0.251 C 
ATOM      7  O   UNL     1       3.974   2.497   6.382  1.00  0.00    -0.272 OA
ATOM      8  H   UNL     1       2.357   4.739   4.838  1.00  0.00     0.164 HD
BRANCH   6   9
ATOM      9  C   UNL     1       4.348   4.908   6.307  1.00  0.00     0.219 C 
BRANCH   9  10
ATOM     10  O   UNL     1       4.788   5.615   5.141  1.00  0.00    -0.382 OA
ATOM     11  H   UNL     1       3.956   5.975   4.761  1.00  0.00     0.211 HD
ENDBRANCH   9  10
BRANCH   9  12
ATOM     12  C   UNL     1       3.523   5.837   7.235  1.00  0.00     0.089 C 
BRANCH  12  13
ATOM     13  N   UNL     1       2.720   4.991   8.148  1.00  0.00    -0.325 NA
ATOM     14  H   UNL     1       1.901   5.517   8.459  1.00  0.00     0.119 HD
ATOM     15  H   UNL     1       3.261   4.814   8.997  1.00  0.00     0.119 HD
ENDBRANCH  12  13
BRANCH  12  16
ATOM     16  C   UNL     1       4.332   6.876   8.047  1.00  0.00     0.022 C 
BRANCH  16  17
ATOM     17  C   UNL     1       3.580   7.930   8.871  1.00  0.00     0.002 C 
BRANCH  17  18
ATOM     18  C   UNL     1       4.117   9.354   8.741  1.00  0.00     0.000 C 
BRANCH  18  19
ATOM     19  C   UNL     1       3.304  10.243   7.792  1.00  0.00    -0.000 C 
BRANCH  19  20
ATOM     20  C   UNL     1       2.407  11.278   8.478  1.00  0.00    -0.000 C 
BRANCH  20  21
ATOM     21  C   UNL     1       1.522  10.673   9.571  1.00  0.00    -0.003 C 
ATOM     22  C   UNL     1       1.232  11.682  10.671  1.00  0.00     0.004 C 
ENDBRANCH  20  21
ENDBRANCH  19  20
ENDBRANCH  18  19
ENDBRANCH  17  18
ENDBRANCH  16  17
ENDBRANCH  12  16
ENDBRANCH   9  12
ENDBRANCH   6   9
ENDBRANCH   3   5
ENDBRANCH   2   3
BRANCH   2  23
ATOM     23  N   UNL     1      -0.652   3.249   4.574  1.00  0.00    -0.332 N 
ATOM     24  C   UNL     1      -1.574   2.203   4.990  1.00  0.00     0.147 C 
BRANCH  23  25
ATOM     25  C   UNL     1      -0.958   4.604   5.110  1.00  0.00     0.174 C 
BRANCH  25  26
ATOM     26  C   UNL     1      -0.317   5.740   4.278  1.00  0.00     0.038 C 
BRANCH  26  27
ATOM     27  C   UNL     1      -1.279   6.673   3.509  1.00  0.00    -0.015 C 
ATOM     28  C   UNL     1      -2.387   7.233   4.401  1.00  0.00     0.007 C 
ATOM     29  C   UNL     1      -0.567   7.800   2.766  1.00  0.00     0.007 C 
ENDBRANCH  26  27
ENDBRANCH  25  26
BRANCH  25  30
ATOM     30  C   UNL     1      -0.619   4.669   6.617  1.00  0.00     0.243 C 
ATOM     31  O   UNL     1       0.241   3.949   7.121  1.00  0.00    -0.273 OA
ATOM     32  N   UNL     1      -1.342   5.576   7.349  1.00  0.00    -0.342 N 
ATOM     33  H   UNL     1      -1.934   6.234   6.836  1.00  0.00     0.164 HD
BRANCH  32  34
ATOM     34  C   UNL     1      -1.174   5.756   8.793  1.00  0.00     0.175 C 
BRANCH  34  35
ATOM     35  C   UNL     1      -0.316   6.991   9.107  1.00  0.00     0.070 C 
BRANCH  35  36
ATOM     36  C   UNL     1      -0.426   8.064   8.047  1.00  0.00    -0.045 A 
ATOM     37  C   UNL     1      -1.479   8.990   8.093  1.00  0.00     0.007 A 
ATOM     38  C   UNL     1       0.501   8.136   6.999  1.00  0.00     0.007 A 
ATOM     39  C   UNL     1      -1.596   9.975   7.112  1.00  0.00     0.046 A 
ATOM     40  C   UNL     1       0.383   9.122   6.015  1.00  0.00     0.046 A 
ATOM     41  C   UNL     1      -0.665  10.034   6.082  1.00  0.00     0.115 A 
BRANCH  41  42
ATOM     42  O   UNL     1      -0.818  11.010   5.142  1.00  0.00    -0.508 OA
ATOM     43  H   UNL     1      -1.766  11.109   4.957  1.00  0.00     0.293 HD
ENDBRANCH  41  42
ENDBRANCH  35  36
ENDBRANCH  34  35
BRANCH  34  44
ATOM     44  C   UNL     1      -2.579   5.853   9.430  1.00  0.00     0.243 C 
ATOM     45  O   UNL     1      -2.860   6.570  10.386  1.00  0.00    -0.273 OA
ATOM     46  N   UNL     1      -3.482   4.952   8.906  1.00  0.00    -0.341 N 
ATOM     47  H   UNL     1      -3.170   4.297   8.193  1.00  0.00     0.164 HD
BRANCH  46  48
ATOM     48  C   UNL     1      -4.855   4.810   9.395  1.00  0.00     0.196 C 
BRANCH  48  49
ATOM     49  C   UNL     1      -5.805   4.356   8.275  1.00  0.00     0.072 C 
BRANCH  49  50
ATOM     50  C   UNL     1      -7.003   5.267   8.122  1.00  0.00    -0.045 A 
ATOM     51  C   UNL     1      -7.706   5.693   9.258  1.00  0.00     0.007 A 
ATOM     52  C   UNL     1      -7.438   5.679   6.856  1.00  0.00     0.007 A 
ATOM     53  C   UNL     1      -8.820   6.522   9.129  1.00  0.00     0.046 A 
ATOM     54  C   UNL     1      -8.555   6.509   6.727  1.00  0.00     0.046 A 
ATOM     55  C   UNL     1      -9.236   6.924   7.866  1.00  0.00     0.115 A 
BRANCH  55  56
ATOM     56  O   UNL     1     -10.330   7.733   7.783  1.00  0.00    -0.508 OA
ATOM     57  H   UNL     1     -10.657   7.899   8.681  1.00  0.00     0.293 HD
ENDBRANCH  55  56
ENDBRANCH  49  50
ENDBRANCH  48  49
BRANCH  48  58
ATOM     58  C   UNL     1      -4.875   3.782  10.535  1.00  0.00     0.326 C 
ATOM     59  O   UNL     1      -5.620   3.766  11.502  1.00  0.00    -0.250 OA
BRANCH  58  60
ATOM     60  O   UNL     1      -3.951   2.799  10.394  1.00  0.00    -0.480 OA
ATOM     61  H   UNL     1      -4.460   2.069   9.978  1.00  0.00     0.296 HD
ENDBRANCH  58  60
ENDBRANCH  48  58
ENDBRANCH  46  48
ENDBRANCH  34  44
ENDBRANCH  32  34
ENDBRANCH  25  30
ENDBRANCH  23  25
ENDBRANCH   2  23
TORSDOF 28
ENDMDL
MODEL 3
REMARK VINA RESULT:    -5.066      2.366      8.035
REMARK INTER + INTRA:         -19.487
REMARK INTER:                 -15.364
REMARK INTRA:                  -4.122
REMARK UNBOUND:                -6.869
REMARK SMILES CCCCCCC[C@H](N)[C@H](O)C(=O)N[C@H](C)C(=O)N(C)[C@H](CC(C)C)C(=O)N[C@@H](Cc1ccc(O)cc1)C(=O)N[C@@H](Cc1ccc(O)cc1)C(=O)O
REMARK SMILES IDX 18 1 17 2 15 3 16 4 14 5 12 6 13 7 10 9 11 10 8 12 9 13 7 16
REMARK SMILES IDX 6 17 5 18 4 19 3 20 2 21 1 22 19 23 20 24 21 25 22 26 23 27
REMARK SMILES IDX 24 28 25 29 26 30 27 31 28 32 29 34 30 35 31 36 32 37 37 38
REMARK SMILES IDX 33 39 36 40 34 41 35 42 38 44 39 45 40 46 41 48 42 49 43 50
REMARK SMILES IDX 44 51 49 52 45 53 48 54 46 55 47 56 50 58 51 59 52 60
REMARK H PARENT 14 8 11 11 9 14 9 15 28 33 35 43 40 47 47 57 52 61
ROOT
ATOM      1  O   UNL     1     -10.755   9.872   1.535  1.00  0.00    -0.272 OA
ATOM      2  C   UNL     1     -10.532  10.590   2.520  1.00  0.00     0.245 C 
ENDROOT
BRANCH   2   3
ATOM      3  C   UNL     1     -10.523   9.938   3.926  1.00  0.00     0.168 C 
ATOM      4  C   UNL     1      -9.111   9.520   4.320  1.00  0.00     0.041 C 
BRANCH   3   5
ATOM      5  N   UNL     1     -11.167  10.723   4.967  1.00  0.00    -0.342 N 
ATOM      6  C   UNL     1     -12.475  10.499   5.344  1.00  0.00     0.251 C 
ATOM      7  O   UNL     1     -13.199   9.664   4.812  1.00  0.00    -0.272 OA
ATOM      8  H   UNL     1     -10.678  11.468   5.458  1.00  0.00     0.164 HD
BRANCH   6   9
ATOM      9  C   UNL     1     -12.897  11.345   6.556  1.00  0.00     0.219 C 
BRANCH   9  10
ATOM     10  O   UNL     1     -14.310  11.581   6.599  1.00  0.00    -0.382 OA
ATOM     11  H   UNL     1     -14.524  11.527   7.557  1.00  0.00     0.211 HD
ENDBRANCH   9  10
BRANCH   9  12
ATOM     12  C   UNL     1     -12.393  10.772   7.905  1.00  0.00     0.089 C 
BRANCH  12  13
ATOM     13  N   UNL     1     -11.655   9.517   7.633  1.00  0.00    -0.325 NA
ATOM     14  H   UNL     1     -10.962   9.687   6.901  1.00  0.00     0.119 HD
ATOM     15  H   UNL     1     -12.302   8.832   7.235  1.00  0.00     0.119 HD
ENDBRANCH  12  13
BRANCH  12  16
ATOM     16  C   UNL     1     -11.525  11.722   8.765  1.00  0.00     0.022 C 
BRANCH  16  17
ATOM     17  C   UNL     1     -10.015  11.799   8.501  1.00  0.00     0.002 C 
BRANCH  17  18
ATOM     18  C   UNL     1      -9.573  12.963   7.617  1.00  0.00     0.000 C 
BRANCH  18  19
ATOM     19  C   UNL     1     -10.224  14.304   7.980  1.00  0.00    -0.000 C 
BRANCH  19  20
ATOM     20  C   UNL     1      -9.848  14.859   9.357  1.00  0.00    -0.000 C 
BRANCH  20  21
ATOM     21  C   UNL     1      -9.279  16.279   9.296  1.00  0.00    -0.003 C 
ATOM     22  C   UNL     1      -8.071  16.354   8.375  1.00  0.00     0.004 C 
ENDBRANCH  20  21
ENDBRANCH  19  20
ENDBRANCH  18  19
ENDBRANCH  17  18
ENDBRANCH  16  17
ENDBRANCH  12  16
ENDBRANCH   9  12
ENDBRANCH   6   9
ENDBRANCH   3   5
ENDBRANCH   2   3
BRANCH   2  23
ATOM     23  N   UNL     1     -10.178  11.923   2.344  1.00  0.00    -0.332 N 
ATOM     24  C   UNL     1      -8.829  12.447   2.500  1.00  0.00     0.147 C 
BRANCH  23  25
ATOM     25  C   UNL     1     -11.177  12.906   1.842  1.00  0.00     0.174 C 
BRANCH  25  26
ATOM     26  C   UNL     1     -12.574  12.724   2.482  1.00  0.00     0.038 C 
BRANCH  26  27
ATOM     27  C   UNL     1     -12.976  13.733   3.581  1.00  0.00    -0.015 C 
ATOM     28  C   UNL     1     -11.766  14.376   4.256  1.00  0.00     0.007 C 
ATOM     29  C   UNL     1     -13.952  14.802   3.096  1.00  0.00     0.007 C 
ENDBRANCH  26  27
ENDBRANCH  25  26
BRANCH  25  30
ATOM     30  C   UNL     1     -11.196  12.903   0.296  1.00  0.00     0.243 C 
ATOM     31  O   UNL     1     -12.046  13.520  -0.344  1.00  0.00    -0.273 OA
ATOM     32  N   UNL     1     -10.212  12.165  -0.308  1.00  0.00    -0.342 N 
ATOM     33  H   UNL     1      -9.462  11.799   0.285  1.00  0.00     0.164 HD
BRANCH  32  34
ATOM     34  C   UNL     1     -10.092  12.026  -1.762  1.00  0.00     0.175 C 
BRANCH  34  35
ATOM     35  C   UNL     1      -8.677  11.584  -2.166  1.00  0.00     0.070 C 
BRANCH  35  36
ATOM     36  C   UNL     1      -8.025  12.535  -3.144  1.00  0.00    -0.045 A 
ATOM     37  C   UNL     1      -8.813  13.420  -3.895  1.00  0.00     0.007 A 
ATOM     38  C   UNL     1      -6.636  12.532  -3.333  1.00  0.00     0.007 A 
ATOM     39  C   UNL     1      -8.222  14.292  -4.810  1.00  0.00     0.046 A 
ATOM     40  C   UNL     1      -6.043  13.404  -4.250  1.00  0.00     0.046 A 
ATOM     41  C   UNL     1      -6.843  14.277  -4.980  1.00  0.00     0.115 A 
BRANCH  41  42
ATOM     42  O   UNL     1      -6.305  15.142  -5.886  1.00  0.00    -0.508 OA
ATOM     43  H   UNL     1      -6.562  14.850  -6.776  1.00  0.00     0.293 HD
ENDBRANCH  41  42
ENDBRANCH  35  36
ENDBRANCH  34  35
BRANCH  34  44
ATOM     44  C   UNL     1     -11.167  11.023  -2.237  1.00  0.00     0.243 C 
ATOM     45  O   UNL     1     -12.130  11.320  -2.940  1.00  0.00    -0.273 OA
ATOM     46  N   UNL     1     -11.026   9.766  -1.690  1.00  0.00    -0.341 N 
ATOM     47  H   UNL     1     -10.278   9.600  -1.020  1.00  0.00     0.164 HD
BRANCH  46  48
ATOM     48  C   UNL     1     -11.963   8.668  -1.938  1.00  0.00     0.196 C 
BRANCH  48  49
ATOM     49  C   UNL     1     -11.247   7.307  -1.930  1.00  0.00     0.072 C 
BRANCH  49  50
ATOM     50  C   UNL     1     -10.128   7.233  -2.945  1.00  0.00    -0.045 A 
ATOM     51  C   UNL     1      -8.944   6.549  -2.631  1.00  0.00     0.007 A 
ATOM     52  C   UNL     1     -10.245   7.856  -4.193  1.00  0.00     0.007 A 
ATOM     53  C   UNL     1      -7.900   6.484  -3.553  1.00  0.00     0.046 A 
ATOM     54  C   UNL     1      -9.199   7.793  -5.117  1.00  0.00     0.046 A 
ATOM     55  C   UNL     1      -8.035   7.106  -4.789  1.00  0.00     0.115 A 
BRANCH  55  56
ATOM     56  O   UNL     1      -6.991   7.021  -5.662  1.00  0.00    -0.508 OA
ATOM     57  H   UNL     1      -6.407   6.303  -5.371  1.00  0.00     0.293 HD
ENDBRANCH  55  56
ENDBRANCH  49  50
ENDBRANCH  48  49
BRANCH  48  58
ATOM     58  C   UNL     1     -13.050   8.685  -0.855  1.00  0.00     0.326 C 
ATOM     59  O   UNL     1     -13.547   9.663  -0.321  1.00  0.00    -0.250 OA
BRANCH  58  60
ATOM     60  O   UNL     1     -13.477   7.447  -0.498  1.00  0.00    -0.480 OA
ATOM     61  H   UNL     1     -14.432   7.464  -0.725  1.00  0.00     0.296 HD
ENDBRANCH  58  60
ENDBRANCH  48  58
ENDBRANCH  46  48
ENDBRANCH  34  44
ENDBRANCH  32  34
ENDBRANCH  25  30
ENDBRANCH  23  25
ENDBRANCH   2  23
TORSDOF 28
ENDMDL
MODEL 4
REMARK VINA RESULT:    -5.022      9.897     13.158
REMARK INTER + INTRA:         -19.378
REMARK INTER:                 -14.425
REMARK INTRA:                  -4.953
REMARK UNBOUND:                -6.869
REMARK SMILES CCCCCCC[C@H](N)[C@H](O)C(=O)N[C@H](C)C(=O)N(C)[C@H](CC(C)C)C(=O)N[C@@H](Cc1ccc(O)cc1)C(=O)N[C@@H](Cc1ccc(O)cc1)C(=O)O
REMARK SMILES IDX 18 1 17 2 15 3 16 4 14 5 12 6 13 7 10 9 11 10 8 12 9 13 7 16
REMARK SMILES IDX 6 17 5 18 4 19 3 20 2 21 1 22 19 23 20 24 21 25 22 26 23 27
REMARK SMILES IDX 24 28 25 29 26 30 27 31 28 32 29 34 30 35 31 36 32 37 37 38
REMARK SMILES IDX 33 39 36 40 34 41 35 42 38 44 39 45 40 46 41 48 42 49 43 50
REMARK SMILES IDX 44 51 49 52 45 53 48 54 46 55 47 56 50 58 51 59 52 60
REMARK H PARENT 14 8 11 11 9 14 9 15 28 33 35 43 40 47 47 57 52 61
ROOT
ATOM      1  O   UNL     1      -1.413   3.112   8.110  1.00  0.00    -0.272 OA
ATOM      2  C   UNL     1      -0.823   4.170   7.846  1.00  0.00     0.245 C 
ENDROOT
BRANCH   2   3
ATOM      3  C   UNL     1       0.517   4.098   7.071  1.00  0.00     0.168 C 
ATOM      4  C   UNL     1       0.313   4.452   5.602  1.00  0.00     0.041 C 
BRANCH   3   5
ATOM      5  N   UNL     1       1.607   4.856   7.665  1.00  0.00    -0.342 N 
ATOM      6  C   UNL     1       2.920   4.447   7.560  1.00  0.00     0.251 C 
ATOM      7  O   UNL     1       3.262   3.409   7.003  1.00  0.00    -0.272 OA
ATOM      8  H   UNL     1       1.443   5.716   8.182  1.00  0.00     0.164 HD
BRANCH   6   9
ATOM      9  C   UNL     1       3.910   5.471   8.137  1.00  0.00     0.219 C 
BRANCH   9  10
ATOM     10  O   UNL     1       4.812   4.893   9.087  1.00  0.00    -0.382 OA
ATOM     11  H   UNL     1       4.344   4.083   9.388  1.00  0.00     0.211 HD
ENDBRANCH   9  10
BRANCH   9  12
ATOM     12  C   UNL     1       4.687   6.250   7.043  1.00  0.00     0.089 C 
BRANCH  12  13
ATOM     13  N   UNL     1       3.818   6.372   5.850  1.00  0.00    -0.325 NA
ATOM     14  H   UNL     1       3.105   7.083   6.024  1.00  0.00     0.119 HD
ATOM     15  H   UNL     1       3.299   5.499   5.728  1.00  0.00     0.119 HD
ENDBRANCH  12  13
BRANCH  12  16
ATOM     16  C   UNL     1       5.223   7.643   7.454  1.00  0.00     0.022 C 
BRANCH  16  17
ATOM     17  C   UNL     1       4.255   8.833   7.500  1.00  0.00     0.002 C 
BRANCH  17  18
ATOM     18  C   UNL     1       3.554   9.043   8.840  1.00  0.00     0.000 C 
BRANCH  18  19
ATOM     19  C   UNL     1       2.112   8.521   8.880  1.00  0.00    -0.000 C 
BRANCH  19  20
ATOM     20  C   UNL     1       1.313   8.721   7.589  1.00  0.00    -0.000 C 
BRANCH  20  21
ATOM     21  C   UNL     1       0.577  10.062   7.541  1.00  0.00    -0.003 C 
ATOM     22  C   UNL     1      -0.311  10.252   8.761  1.00  0.00     0.004 C 
ENDBRANCH  20  21
ENDBRANCH  19  20
ENDBRANCH  18  19
ENDBRANCH  17  18
ENDBRANCH  16  17
ENDBRANCH  12  16
ENDBRANCH   9  12
ENDBRANCH   6   9
ENDBRANCH   3   5
ENDBRANCH   2   3
BRANCH   2  23
ATOM     23  N   UNL     1      -1.422   5.391   8.134  1.00  0.00    -0.332 N 
ATOM     24  C   UNL     1      -1.060   6.245   9.256  1.00  0.00     0.147 C 
BRANCH  23  25
ATOM     25  C   UNL     1      -2.424   5.975   7.200  1.00  0.00     0.174 C 
BRANCH  25  26
ATOM     26  C   UNL     1      -2.409   7.522   7.193  1.00  0.00     0.038 C 
BRANCH  26  27
ATOM     27  C   UNL     1      -2.473   8.216   5.814  1.00  0.00    -0.015 C 
ATOM     28  C   UNL     1      -2.749   9.715   5.926  1.00  0.00     0.007 C 
ATOM     29  C   UNL     1      -1.242   7.960   4.948  1.00  0.00     0.007 C 
ENDBRANCH  26  27
ENDBRANCH  25  26
BRANCH  25  30
ATOM     30  C   UNL     1      -3.820   5.368   7.469  1.00  0.00     0.243 C 
ATOM     31  O   UNL     1      -4.192   5.070   8.603  1.00  0.00    -0.273 OA
ATOM     32  N   UNL     1      -4.608   5.180   6.363  1.00  0.00    -0.342 N 
ATOM     33  H   UNL     1      -4.286   5.582   5.478  1.00  0.00     0.164 HD
BRANCH  32  34
ATOM     34  C   UNL     1      -5.949   4.592   6.424  1.00  0.00     0.175 C 
BRANCH  34  35
ATOM     35  C   UNL     1      -7.016   5.580   5.930  1.00  0.00     0.070 C 
BRANCH  35  36
ATOM     36  C   UNL     1      -7.866   6.132   7.052  1.00  0.00    -0.045 A 
ATOM     37  C   UNL     1      -7.699   5.653   8.361  1.00  0.00     0.007 A 
ATOM     38  C   UNL     1      -8.842   7.106   6.803  1.00  0.00     0.007 A 
ATOM     39  C   UNL     1      -8.488   6.146   9.400  1.00  0.00     0.046 A 
ATOM     40  C   UNL     1      -9.633   7.600   7.843  1.00  0.00     0.046 A 
ATOM     41  C   UNL     1      -9.447   7.115   9.134  1.00  0.00     0.115 A 
BRANCH  41  42
ATOM     42  O   UNL     1     -10.200   7.569  10.177  1.00  0.00    -0.508 OA
ATOM     43  H   UNL     1      -9.950   8.491  10.354  1.00  0.00     0.293 HD
ENDBRANCH  41  42
ENDBRANCH  35  36
ENDBRANCH  34  35
BRANCH  34  44
ATOM     44  C   UNL     1      -5.939   3.290   5.592  1.00  0.00     0.243 C 
ATOM     45  O   UNL     1      -5.915   3.250   4.365  1.00  0.00    -0.273 OA
ATOM     46  N   UNL     1      -6.092   2.150   6.354  1.00  0.00    -0.341 N 
ATOM     47  H   UNL     1      -6.225   2.242   7.358  1.00  0.00     0.164 HD
BRANCH  46  48
ATOM     48  C   UNL     1      -6.180   0.805   5.783  1.00  0.00     0.196 C 
BRANCH  48  49
ATOM     49  C   UNL     1      -4.925  -0.024   6.106  1.00  0.00     0.072 C 
BRANCH  49  50
ATOM     50  C   UNL     1      -3.797   0.224   5.130  1.00  0.00    -0.045 A 
ATOM     51  C   UNL     1      -3.727  -0.515   3.940  1.00  0.00     0.007 A 
ATOM     52  C   UNL     1      -2.802   1.170   5.405  1.00  0.00     0.007 A 
ATOM     53  C   UNL     1      -2.683  -0.304   3.039  1.00  0.00     0.046 A 
ATOM     54  C   UNL     1      -1.756   1.381   4.503  1.00  0.00     0.046 A 
ATOM     55  C   UNL     1      -1.707   0.641   3.326  1.00  0.00     0.115 A 
BRANCH  55  56
ATOM     56  O   UNL     1      -0.703   0.816   2.420  1.00  0.00    -0.508 OA
ATOM     57  H   UNL     1      -0.279  -0.043   2.263  1.00  0.00     0.293 HD
ENDBRANCH  55  56
ENDBRANCH  49  50
ENDBRANCH  48  49
BRANCH  48  58
ATOM     58  C   UNL     1      -7.421   0.102   6.349  1.00  0.00     0.326 C 
ATOM     59  O   UNL     1      -8.446  -0.183   5.752  1.00  0.00    -0.250 OA
BRANCH  58  60
ATOM     60  O   UNL     1      -7.305  -0.227   7.661  1.00  0.00    -0.480 OA
ATOM     61  H   UNL     1      -6.710  -1.008   7.646  1.00  0.00     0.296 HD
ENDBRANCH  58  60
ENDBRANCH  48  58
ENDBRANCH  46  48
ENDBRANCH  34  44
ENDBRANCH  32  34
ENDBRANCH  25  30
ENDBRANCH  23  25
ENDBRANCH   2  23
TORSDOF 28
ENDMDL
MODEL 5
REMARK VINA RESULT:    -4.981     11.202     13.737
REMARK INTER + INTRA:         -19.274
REMARK INTER:                 -13.318
REMARK INTRA:                  -5.957
REMARK UNBOUND:                -6.869
REMARK SMILES CCCCCCC[C@H](N)[C@H](O)C(=O)N[C@H](C)C(=O)N(C)[C@H](CC(C)C)C(=O)N[C@@H](Cc1ccc(O)cc1)C(=O)N[C@@H](Cc1ccc(O)cc1)C(=O)O
REMARK SMILES IDX 18 1 17 2 15 3 16 4 14 5 12 6 13 7 10 9 11 10 8 12 9 13 7 16
REMARK SMILES IDX 6 17 5 18 4 19 3 20 2 21 1 22 19 23 20 24 21 25 22 26 23 27
REMARK SMILES IDX 24 28 25 29 26 30 27 31 28 32 29 34 30 35 31 36 32 37 37 38
REMARK SMILES IDX 33 39 36 40 34 41 35 42 38 44 39 45 40 46 41 48 42 49 43 50
REMARK SMILES IDX 44 51 49 52 45 53 48 54 46 55 47 56 50 58 51 59 52 60
REMARK H PARENT 14 8 11 11 9 14 9 15 28 33 35 43 40 47 47 57 52 61
ROOT
ATOM      1  O   UNL     1      -2.127   8.455   6.815  1.00  0.00    -0.272 OA
ATOM      2  C   UNL     1      -1.177   9.145   7.213  1.00  0.00     0.245 C 
ENDROOT
BRANCH   2   3
ATOM      3  C   UNL     1      -0.669  10.297   6.310  1.00  0.00     0.168 C 
ATOM      4  C   UNL     1      -1.701  11.416   6.229  1.00  0.00     0.041 C 
BRANCH   3   5
ATOM      5  N   UNL     1       0.652  10.802   6.650  1.00  0.00    -0.342 N 
ATOM      6  C   UNL     1       1.793  10.321   6.044  1.00  0.00     0.251 C 
ATOM      7  O   UNL     1       1.789   9.415   5.217  1.00  0.00    -0.272 OA
ATOM      8  H   UNL     1       0.785  11.530   7.348  1.00  0.00     0.164 HD
BRANCH   6   9
ATOM      9  C   UNL     1       3.056  11.097   6.453  1.00  0.00     0.219 C 
BRANCH   9  10
ATOM     10  O   UNL     1       2.815  12.500   6.609  1.00  0.00    -0.382 OA
ATOM     11  H   UNL     1       3.458  12.769   7.302  1.00  0.00     0.211 HD
ENDBRANCH   9  10
BRANCH   9  12
ATOM     12  C   UNL     1       3.749  10.513   7.712  1.00  0.00     0.089 C 
BRANCH  12  13
ATOM     13  N   UNL     1       2.701  10.090   8.668  1.00  0.00    -0.325 NA
ATOM     14  H   UNL     1       2.498   9.099   8.528  1.00  0.00     0.119 HD
ATOM     15  H   UNL     1       1.830  10.575   8.441  1.00  0.00     0.119 HD
ENDBRANCH  12  13
BRANCH  12  16
ATOM     16  C   UNL     1       4.741   9.352   7.462  1.00  0.00     0.022 C 
BRANCH  16  17
ATOM     17  C   UNL     1       5.238   9.087   6.034  1.00  0.00     0.002 C 
BRANCH  17  18
ATOM     18  C   UNL     1       4.803   7.750   5.438  1.00  0.00     0.000 C 
BRANCH  18  19
ATOM     19  C   UNL     1       5.677   6.563   5.864  1.00  0.00    -0.000 C 
BRANCH  19  20
ATOM     20  C   UNL     1       5.196   5.193   5.376  1.00  0.00    -0.000 C 
BRANCH  20  21
ATOM     21  C   UNL     1       4.050   5.286   4.365  1.00  0.00    -0.003 C 
ATOM     22  C   UNL     1       3.497   3.910   4.026  1.00  0.00     0.004 C 
ENDBRANCH  20  21
ENDBRANCH  19  20
ENDBRANCH  18  19
ENDBRANCH  17  18
ENDBRANCH  16  17
ENDBRANCH  12  16
ENDBRANCH   9  12
ENDBRANCH   6   9
ENDBRANCH   3   5
ENDBRANCH   2   3
BRANCH   2  23
ATOM     23  N   UNL     1      -0.670   8.958   8.494  1.00  0.00    -0.332 N 
ATOM     24  C   UNL     1      -0.792   9.919   9.580  1.00  0.00     0.147 C 
BRANCH  23  25
ATOM     25  C   UNL     1      -0.058   7.656   8.876  1.00  0.00     0.174 C 
BRANCH  25  26
ATOM     26  C   UNL     1       0.900   7.100   7.796  1.00  0.00     0.038 C 
BRANCH  26  27
ATOM     27  C   UNL     1       1.732   5.854   8.172  1.00  0.00    -0.015 C 
ATOM     28  C   UNL     1       1.598   4.730   7.145  1.00  0.00     0.007 C 
ATOM     29  C   UNL     1       3.202   6.164   8.440  1.00  0.00     0.007 C 
ENDBRANCH  26  27
ENDBRANCH  25  26
BRANCH  25  30
ATOM     30  C   UNL     1      -1.157   6.657   9.306  1.00  0.00     0.243 C 
ATOM     31  O   UNL     1      -1.513   6.548  10.479  1.00  0.00    -0.273 OA
ATOM     32  N   UNL     1      -1.699   5.901   8.299  1.00  0.00    -0.342 N 
ATOM     33  H   UNL     1      -1.453   6.148   7.337  1.00  0.00     0.164 HD
BRANCH  32  34
ATOM     34  C   UNL     1      -2.731   4.886   8.524  1.00  0.00     0.175 C 
BRANCH  34  35
ATOM     35  C   UNL     1      -4.104   5.365   8.028  1.00  0.00     0.070 C 
BRANCH  35  36
ATOM     36  C   UNL     1      -5.244   4.858   8.882  1.00  0.00    -0.045 A 
ATOM     37  C   UNL     1      -6.530   5.396   8.726  1.00  0.00     0.007 A 
ATOM     38  C   UNL     1      -5.032   3.867   9.849  1.00  0.00     0.007 A 
ATOM     39  C   UNL     1      -7.586   4.945   9.519  1.00  0.00     0.046 A 
ATOM     40  C   UNL     1      -6.088   3.415  10.645  1.00  0.00     0.046 A 
ATOM     41  C   UNL     1      -7.357   3.958  10.471  1.00  0.00     0.115 A 
BRANCH  41  42
ATOM     42  O   UNL     1      -8.414   3.547  11.227  1.00  0.00    -0.508 OA
ATOM     43  H   UNL     1      -8.147   3.567  12.161  1.00  0.00     0.293 HD
ENDBRANCH  41  42
ENDBRANCH  35  36
ENDBRANCH  34  35
BRANCH  34  44
ATOM     44  C   UNL     1      -2.284   3.585   7.821  1.00  0.00     0.243 C 
ATOM     45  O   UNL     1      -1.284   2.940   8.124  1.00  0.00    -0.273 OA
ATOM     46  N   UNL     1      -3.047   3.268   6.716  1.00  0.00    -0.341 N 
ATOM     47  H   UNL     1      -3.795   3.898   6.436  1.00  0.00     0.164 HD
BRANCH  46  48
ATOM     48  C   UNL     1      -2.774   2.119   5.851  1.00  0.00     0.196 C 
BRANCH  48  49
ATOM     49  C   UNL     1      -4.071   1.540   5.262  1.00  0.00     0.072 C 
BRANCH  49  50
ATOM     50  C   UNL     1      -5.118   1.267   6.318  1.00  0.00    -0.045 A 
ATOM     51  C   UNL     1      -6.243   2.098   6.418  1.00  0.00     0.007 A 
ATOM     52  C   UNL     1      -4.973   0.204   7.218  1.00  0.00     0.007 A 
ATOM     53  C   UNL     1      -7.209   1.863   7.397  1.00  0.00     0.046 A 
ATOM     54  C   UNL     1      -5.940  -0.031   8.199  1.00  0.00     0.046 A 
ATOM     55  C   UNL     1      -7.051   0.801   8.279  1.00  0.00     0.115 A 
BRANCH  55  56
ATOM     56  O   UNL     1      -8.016   0.608   9.222  1.00  0.00    -0.508 OA
ATOM     57  H   UNL     1      -7.963  -0.311   9.530  1.00  0.00     0.293 HD
ENDBRANCH  55  56
ENDBRANCH  49  50
ENDBRANCH  48  49
BRANCH  48  58
ATOM     58  C   UNL     1      -1.844   2.562   4.712  1.00  0.00     0.326 C 
ATOM     59  O   UNL     1      -2.152   2.793   3.554  1.00  0.00    -0.250 OA
BRANCH  58  60
ATOM     60  O   UNL     1      -0.551   2.709   5.095  1.00  0.00    -0.480 OA
ATOM     61  H   UNL     1      -0.059   2.684   4.246  1.00  0.00     0.296 HD
ENDBRANCH  58  60
ENDBRANCH  48  58
ENDBRANCH  46  48
ENDBRANCH  34  44
ENDBRANCH  32  34
ENDBRANCH  25  30
ENDBRANCH  23  25
ENDBRANCH   2  23
TORSDOF 28
ENDMDL
MODEL 6
REMARK VINA RESULT:    -4.957     13.518     17.602
REMARK INTER + INTRA:         -19.215
REMARK INTER:                 -12.213
REMARK INTRA:                  -7.002
REMARK UNBOUND:                -6.869
REMARK SMILES CCCCCCC[C@H](N)[C@H](O)C(=O)N[C@H](C)C(=O)N(C)[C@H](CC(C)C)C(=O)N[C@@H](Cc1ccc(O)cc1)C(=O)N[C@@H](Cc1ccc(O)cc1)C(=O)O
REMARK SMILES IDX 18 1 17 2 15 3 16 4 14 5 12 6 13 7 10 9 11 10 8 12 9 13 7 16
REMARK SMILES IDX 6 17 5 18 4 19 3 20 2 21 1 22 19 23 20 24 21 25 22 26 23 27
REMARK SMILES IDX 24 28 25 29 26 30 27 31 28 32 29 34 30 35 31 36 32 37 37 38
REMARK SMILES IDX 33 39 36 40 34 41 35 42 38 44 39 45 40 46 41 48 42 49 43 50
REMARK SMILES IDX 44 51 49 52 45 53 48 54 46 55 47 56 50 58 51 59 52 60
REMARK H PARENT 14 8 11 11 9 14 9 15 28 33 35 43 40 47 47 57 52 61
ROOT
ATOM      1  O   UNL     1       3.302   5.689  -0.123  1.00  0.00    -0.272 OA
ATOM      2  C   UNL     1       3.408   4.600   0.461  1.00  0.00     0.245 C 
ENDROOT
BRANCH   2   3
ATOM      3  C   UNL     1       4.441   3.574  -0.066  1.00  0.00     0.168 C 
ATOM      4  C   UNL     1       3.880   2.802  -1.255  1.00  0.00     0.041 C 
BRANCH   3   5
ATOM      5  N   UNL     1       5.758   4.123  -0.350  1.00  0.00    -0.342 N 
ATOM      6  C   UNL     1       6.738   4.202   0.618  1.00  0.00     0.251 C 
ATOM      7  O   UNL     1       6.566   3.861   1.783  1.00  0.00    -0.272 OA
ATOM      8  H   UNL     1       6.007   4.471  -1.273  1.00  0.00     0.164 HD
BRANCH   6   9
ATOM      9  C   UNL     1       8.087   4.681   0.059  1.00  0.00     0.219 C 
BRANCH   9  10
ATOM     10  O   UNL     1       8.552   3.875  -1.030  1.00  0.00    -0.382 OA
ATOM     11  H   UNL     1       9.514   4.070  -1.068  1.00  0.00     0.211 HD
ENDBRANCH   9  10
BRANCH   9  12
ATOM     12  C   UNL     1       8.087   6.183  -0.328  1.00  0.00     0.089 C 
BRANCH  12  13
ATOM     13  N   UNL     1       7.353   6.337  -1.605  1.00  0.00    -0.325 NA
ATOM     14  H   UNL     1       6.960   7.279  -1.655  1.00  0.00     0.119 HD
ATOM     15  H   UNL     1       6.544   5.711  -1.598  1.00  0.00     0.119 HD
ENDBRANCH  12  13
BRANCH  12  16
ATOM     16  C   UNL     1       7.520   7.157   0.732  1.00  0.00     0.022 C 
BRANCH  16  17
ATOM     17  C   UNL     1       7.741   8.665   0.555  1.00  0.00     0.002 C 
BRANCH  17  18
ATOM     18  C   UNL     1       6.516   9.445   0.082  1.00  0.00     0.000 C 
BRANCH  18  19
ATOM     19  C   UNL     1       5.199   8.664   0.188  1.00  0.00    -0.000 C 
BRANCH  19  20
ATOM     20  C   UNL     1       3.930   9.503   0.018  1.00  0.00    -0.000 C 
BRANCH  20  21
ATOM     21  C   UNL     1       2.775   9.029   0.904  1.00  0.00    -0.003 C 
ATOM     22  C   UNL     1       2.220  10.167   1.747  1.00  0.00     0.004 C 
ENDBRANCH  20  21
ENDBRANCH  19  20
ENDBRANCH  18  19
ENDBRANCH  17  18
ENDBRANCH  16  17
ENDBRANCH  12  16
ENDBRANCH   9  12
ENDBRANCH   6   9
ENDBRANCH   3   5
ENDBRANCH   2   3
BRANCH   2  23
ATOM     23  N   UNL     1       2.696   4.368   1.633  1.00  0.00    -0.332 N 
ATOM     24  C   UNL     1       1.248   4.445   1.749  1.00  0.00     0.147 C 
BRANCH  23  25
ATOM     25  C   UNL     1       3.398   3.886   2.854  1.00  0.00     0.174 C 
BRANCH  25  26
ATOM     26  C   UNL     1       2.616   2.780   3.601  1.00  0.00     0.038 C 
BRANCH  26  27
ATOM     27  C   UNL     1       3.446   1.650   4.249  1.00  0.00    -0.015 C 
ATOM     28  C   UNL     1       4.604   1.193   3.361  1.00  0.00     0.007 C 
ATOM     29  C   UNL     1       3.947   1.990   5.650  1.00  0.00     0.007 C 
ENDBRANCH  26  27
ENDBRANCH  25  26
BRANCH  25  30
ATOM     30  C   UNL     1       3.792   5.082   3.750  1.00  0.00     0.243 C 
ATOM     31  O   UNL     1       2.954   5.724   4.382  1.00  0.00    -0.273 OA
ATOM     32  N   UNL     1       5.129   5.382   3.786  1.00  0.00    -0.342 N 
ATOM     33  H   UNL     1       5.775   4.719   3.350  1.00  0.00     0.164 HD
BRANCH  32  34
ATOM     34  C   UNL     1       5.680   6.498   4.559  1.00  0.00     0.175 C 
BRANCH  34  35
ATOM     35  C   UNL     1       4.959   7.814   4.232  1.00  0.00     0.070 C 
BRANCH  35  36
ATOM     36  C   UNL     1       5.914   8.959   3.980  1.00  0.00    -0.045 A 
ATOM     37  C   UNL     1       7.273   8.823   4.305  1.00  0.00     0.007 A 
ATOM     38  C   UNL     1       5.460  10.171   3.444  1.00  0.00     0.007 A 
ATOM     39  C   UNL     1       8.159   9.878   4.089  1.00  0.00     0.046 A 
ATOM     40  C   UNL     1       6.347  11.228   3.229  1.00  0.00     0.046 A 
ATOM     41  C   UNL     1       7.690  11.071   3.553  1.00  0.00     0.115 A 
BRANCH  41  42
ATOM     42  O   UNL     1       8.589  12.078   3.360  1.00  0.00    -0.508 OA
ATOM     43  H   UNL     1       8.351  12.815   3.947  1.00  0.00     0.293 HD
ENDBRANCH  41  42
ENDBRANCH  35  36
ENDBRANCH  34  35
BRANCH  34  44
ATOM     44  C   UNL     1       5.576   6.140   6.059  1.00  0.00     0.243 C 
ATOM     45  O   UNL     1       6.224   5.252   6.606  1.00  0.00    -0.273 OA
ATOM     46  N   UNL     1       4.581   6.828   6.720  1.00  0.00    -0.341 N 
ATOM     47  H   UNL     1       3.992   7.471   6.195  1.00  0.00     0.164 HD
BRANCH  46  48
ATOM     48  C   UNL     1       4.249   6.609   8.129  1.00  0.00     0.196 C 
BRANCH  48  49
ATOM     49  C   UNL     1       3.586   7.851   8.748  1.00  0.00     0.072 C 
BRANCH  49  50
ATOM     50  C   UNL     1       3.241   8.901   7.717  1.00  0.00    -0.045 A 
ATOM     51  C   UNL     1       2.053   8.793   6.979  1.00  0.00     0.007 A 
ATOM     52  C   UNL     1       4.102   9.977   7.468  1.00  0.00     0.007 A 
ATOM     53  C   UNL     1       1.731   9.749   6.015  1.00  0.00     0.046 A 
ATOM     54  C   UNL     1       3.780  10.934   6.502  1.00  0.00     0.046 A 
ATOM     55  C   UNL     1       2.596  10.811   5.784  1.00  0.00     0.115 A 
BRANCH  55  56
ATOM     56  O   UNL     1       2.245  11.723   4.833  1.00  0.00    -0.508 OA
ATOM     57  H   UNL     1       2.013  11.244   4.021  1.00  0.00     0.293 HD
ENDBRANCH  55  56
ENDBRANCH  49  50
ENDBRANCH  48  49
BRANCH  48  58
ATOM     58  C   UNL     1       3.297   5.410   8.237  1.00  0.00     0.326 C 
ATOM     59  O   UNL     1       2.080   5.422   8.153  1.00  0.00    -0.250 OA
BRANCH  58  60
ATOM     60  O   UNL     1       3.935   4.228   8.434  1.00  0.00    -0.480 OA
ATOM     61  H   UNL     1       3.515   3.632   7.777  1.00  0.00     0.296 HD
ENDBRANCH  58  60
ENDBRANCH  48  58
ENDBRANCH  46  48
ENDBRANCH  34  44
ENDBRANCH  32  34
ENDBRANCH  25  30
ENDBRANCH  23  25
ENDBRANCH   2  23
TORSDOF 28
ENDMDL
MODEL 7
REMARK VINA RESULT:    -4.904      2.172      6.855
REMARK INTER + INTRA:         -19.083
REMARK INTER:                 -14.300
REMARK INTRA:                  -4.783
REMARK UNBOUND:                -6.869
REMARK SMILES CCCCCCC[C@H](N)[C@H](O)C(=O)N[C@H](C)C(=O)N(C)[C@H](CC(C)C)C(=O)N[C@@H](Cc1ccc(O)cc1)C(=O)N[C@@H](Cc1ccc(O)cc1)C(=O)O
REMARK SMILES IDX 18 1 17 2 15 3 16 4 14 5 12 6 13 7 10 9 11 10 8 12 9 13 7 16
REMARK SMILES IDX 6 17 5 18 4 19 3 20 2 21 1 22 19 23 20 24 21 25 22 26 23 27
REMARK SMILES IDX 24 28 25 29 26 30 27 31 28 32 29 34 30 35 31 36 32 37 37 38
REMARK SMILES IDX 33 39 36 40 34 41 35 42 38 44 39 45 40 46 41 48 42 49 43 50
REMARK SMILES IDX 44 51 49 52 45 53 48 54 46 55 47 56 50 58 51 59 52 60
REMARK H PARENT 14 8 11 11 9 14 9 15 28 33 35 43 40 47 47 57 52 61
ROOT
ATOM      1  O   UNL     1     -11.943   7.940  -3.644  1.00  0.00    -0.272 OA
ATOM      2  C   UNL     1     -11.556   8.897  -2.958  1.00  0.00     0.245 C 
ENDROOT
BRANCH   2   3
ATOM      3  C   UNL     1     -11.093  10.187  -3.681  1.00  0.00     0.168 C 
ATOM      4  C   UNL     1     -12.102  11.313  -3.478  1.00  0.00     0.041 C 
BRANCH   3   5
ATOM      5  N   UNL     1      -9.737  10.611  -3.366  1.00  0.00    -0.342 N 
ATOM      6  C   UNL     1      -8.651  10.175  -4.095  1.00  0.00     0.251 C 
ATOM      7  O   UNL     1      -8.735   9.376  -5.022  1.00  0.00    -0.272 OA
ATOM      8  H   UNL     1      -9.539  11.245  -2.596  1.00  0.00     0.164 HD
BRANCH   6   9
ATOM      9  C   UNL     1      -7.341  10.861  -3.677  1.00  0.00     0.219 C 
BRANCH   9  10
ATOM     10  O   UNL     1      -6.284  10.657  -4.623  1.00  0.00    -0.382 OA
ATOM     11  H   UNL     1      -5.567  10.255  -4.085  1.00  0.00     0.211 HD
ENDBRANCH   9  10
BRANCH   9  12
ATOM     12  C   UNL     1      -7.516  12.370  -3.363  1.00  0.00     0.089 C 
BRANCH  12  13
ATOM     13  N   UNL     1      -7.881  12.511  -1.935  1.00  0.00    -0.325 NA
ATOM     14  H   UNL     1      -8.302  13.429  -1.785  1.00  0.00     0.119 HD
ATOM     15  H   UNL     1      -7.026  12.515  -1.374  1.00  0.00     0.119 HD
ENDBRANCH  12  13
BRANCH  12  16
ATOM     16  C   UNL     1      -6.307  13.276  -3.695  1.00  0.00     0.022 C 
BRANCH  16  17
ATOM     17  C   UNL     1      -6.461  14.365  -4.766  1.00  0.00     0.002 C 
BRANCH  17  18
ATOM     18  C   UNL     1      -7.494  14.061  -5.850  1.00  0.00     0.000 C 
BRANCH  18  19
ATOM     19  C   UNL     1      -6.950  13.223  -7.014  1.00  0.00    -0.000 C 
BRANCH  19  20
ATOM     20  C   UNL     1      -5.539  13.596  -7.479  1.00  0.00    -0.000 C 
BRANCH  20  21
ATOM     21  C   UNL     1      -5.284  13.258  -8.951  1.00  0.00    -0.003 C 
ATOM     22  C   UNL     1      -4.247  14.187  -9.561  1.00  0.00     0.004 C 
ENDBRANCH  20  21
ENDBRANCH  19  20
ENDBRANCH  18  19
ENDBRANCH  17  18
ENDBRANCH  16  17
ENDBRANCH  12  16
ENDBRANCH   9  12
ENDBRANCH   6   9
ENDBRANCH   3   5
ENDBRANCH   2   3
BRANCH   2  23
ATOM     23  N   UNL     1     -11.656   8.846  -1.572  1.00  0.00    -0.332 N 
ATOM     24  C   UNL     1     -12.909   8.757  -0.837  1.00  0.00     0.147 C 
BRANCH  23  25
ATOM     25  C   UNL     1     -10.429   8.748  -0.733  1.00  0.00     0.174 C 
BRANCH  25  26
ATOM     26  C   UNL     1     -10.151   7.308  -0.240  1.00  0.00     0.038 C 
BRANCH  26  27
ATOM     27  C   UNL     1      -9.383   6.375  -1.203  1.00  0.00    -0.015 C 
ATOM     28  C   UNL     1      -8.364   7.128  -2.058  1.00  0.00     0.007 C 
ATOM     29  C   UNL     1      -8.724   5.189  -0.502  1.00  0.00     0.007 C 
ENDBRANCH  26  27
ENDBRANCH  25  26
BRANCH  25  30
ATOM     30  C   UNL     1     -10.476   9.796   0.402  1.00  0.00     0.243 C 
ATOM     31  O   UNL     1      -9.951   9.593   1.496  1.00  0.00    -0.273 OA
ATOM     32  N   UNL     1     -11.145  10.957   0.111  1.00  0.00    -0.342 N 
ATOM     33  H   UNL     1     -11.429  11.109  -0.860  1.00  0.00     0.164 HD
BRANCH  32  34
ATOM     34  C   UNL     1     -11.313  12.049   1.074  1.00  0.00     0.175 C 
BRANCH  34  35
ATOM     35  C   UNL     1     -11.781  11.522   2.439  1.00  0.00     0.070 C 
BRANCH  35  36
ATOM     36  C   UNL     1     -12.868  12.375   3.054  1.00  0.00    -0.045 A 
ATOM     37  C   UNL     1     -12.911  13.753   2.792  1.00  0.00     0.007 A 
ATOM     38  C   UNL     1     -13.828  11.813   3.905  1.00  0.00     0.007 A 
ATOM     39  C   UNL     1     -13.901  14.551   3.365  1.00  0.00     0.046 A 
ATOM     40  C   UNL     1     -14.820  12.611   4.480  1.00  0.00     0.046 A 
ATOM     41  C   UNL     1     -14.848  13.974   4.203  1.00  0.00     0.115 A 
BRANCH  41  42
ATOM     42  O   UNL     1     -15.798  14.789   4.745  1.00  0.00    -0.508 OA
ATOM     43  H   UNL     1     -16.100  15.404   4.057  1.00  0.00     0.293 HD
ENDBRANCH  41  42
ENDBRANCH  35  36
ENDBRANCH  34  35
BRANCH  34  44
ATOM     44  C   UNL     1      -9.970  12.807   1.177  1.00  0.00     0.243 C 
ATOM     45  O   UNL     1      -9.495  13.502   0.283  1.00  0.00    -0.273 OA
ATOM     46  N   UNL     1      -9.271  12.530   2.333  1.00  0.00    -0.341 N 
ATOM     47  H   UNL     1      -9.652  11.855   2.991  1.00  0.00     0.164 HD
BRANCH  46  48
ATOM     48  C   UNL     1      -7.943  13.077   2.622  1.00  0.00     0.196 C 
BRANCH  48  49
ATOM     49  C   UNL     1      -7.727  13.251   4.135  1.00  0.00     0.072 C 
BRANCH  49  50
ATOM     50  C   UNL     1      -9.024  13.263   4.911  1.00  0.00    -0.045 A 
ATOM     51  C   UNL     1      -9.520  12.072   5.463  1.00  0.00     0.007 A 
ATOM     52  C   UNL     1      -9.757  14.446   5.072  1.00  0.00     0.007 A 
ATOM     53  C   UNL     1     -10.723  12.069   6.169  1.00  0.00     0.046 A 
ATOM     54  C   UNL     1     -10.962  14.442   5.778  1.00  0.00     0.046 A 
ATOM     55  C   UNL     1     -11.434  13.253   6.322  1.00  0.00     0.115 A 
BRANCH  55  56
ATOM     56  O   UNL     1     -12.606  13.206   7.018  1.00  0.00    -0.508 OA
ATOM     57  H   UNL     1     -12.584  13.896   7.700  1.00  0.00     0.293 HD
ENDBRANCH  55  56
ENDBRANCH  49  50
ENDBRANCH  48  49
BRANCH  48  58
ATOM     58  C   UNL     1      -6.878  12.128   2.055  1.00  0.00     0.326 C 
ATOM     59  O   UNL     1      -6.201  11.322   2.673  1.00  0.00    -0.250 OA
BRANCH  58  60
ATOM     60  O   UNL     1      -6.722  12.231   0.711  1.00  0.00    -0.480 OA
ATOM     61  H   UNL     1      -7.339  11.554   0.360  1.00  0.00     0.296 HD
ENDBRANCH  58  60
ENDBRANCH  48  58
ENDBRANCH  46  48
ENDBRANCH  34  44
ENDBRANCH  32  34
ENDBRANCH  25  30
ENDBRANCH  23  25
ENDBRANCH   2  23
TORSDOF 28
ENDMDL
MODEL 8
REMARK VINA RESULT:    -4.795     11.869     14.883
REMARK INTER + INTRA:         -18.811
REMARK INTER:                 -11.743
REMARK INTRA:                  -7.068
REMARK UNBOUND:                -6.869
REMARK SMILES CCCCCCC[C@H](N)[C@H](O)C(=O)N[C@H](C)C(=O)N(C)[C@H](CC(C)C)C(=O)N[C@@H](Cc1ccc(O)cc1)C(=O)N[C@@H](Cc1ccc(O)cc1)C(=O)O
REMARK SMILES IDX 18 1 17 2 15 3 16 4 14 5 12 6 13 7 10 9 11 10 8 12 9 13 7 16
REMARK SMILES IDX 6 17 5 18 4 19 3 20 2 21 1 22 19 23 20 24 21 25 22 26 23 27
REMARK SMILES IDX 24 28 25 29 26 30 27 31 28 32 29 34 30 35 31 36 32 37 37 38
REMARK SMILES IDX 33 39 36 40 34 41 35 42 38 44 39 45 40 46 41 48 42 49 43 50
REMARK SMILES IDX 44 51 49 52 45 53 48 54 46 55 47 56 50 58 51 59 52 60
REMARK H PARENT 14 8 11 11 9 14 9 15 28 33 35 43 40 47 47 57 52 61
ROOT
ATOM      1  O   UNL     1       4.346   9.947   5.878  1.00  0.00    -0.272 OA
ATOM      2  C   UNL     1       4.333   8.848   6.452  1.00  0.00     0.245 C 
ENDROOT
BRANCH   2   3
ATOM      3  C   UNL     1       5.258   7.724   5.922  1.00  0.00     0.168 C 
ATOM      4  C   UNL     1       6.722   8.059   6.187  1.00  0.00     0.041 C 
BRANCH   3   5
ATOM      5  N   UNL     1       4.917   6.386   6.377  1.00  0.00    -0.342 N 
ATOM      6  C   UNL     1       4.746   5.339   5.497  1.00  0.00     0.251 C 
ATOM      7  O   UNL     1       4.826   5.459   4.279  1.00  0.00    -0.272 OA
ATOM      8  H   UNL     1       4.791   6.171   7.364  1.00  0.00     0.164 HD
BRANCH   6   9
ATOM      9  C   UNL     1       4.533   3.993   6.208  1.00  0.00     0.219 C 
BRANCH   9  10
ATOM     10  O   UNL     1       3.757   4.118   7.406  1.00  0.00    -0.382 OA
ATOM     11  H   UNL     1       4.430   4.093   8.121  1.00  0.00     0.211 HD
ENDBRANCH   9  10
BRANCH   9  12
ATOM     12  C   UNL     1       3.941   2.901   5.280  1.00  0.00     0.089 C 
BRANCH  12  13
ATOM     13  N   UNL     1       4.320   1.574   5.818  1.00  0.00    -0.325 NA
ATOM     14  H   UNL     1       4.544   1.666   6.810  1.00  0.00     0.119 HD
ATOM     15  H   UNL     1       5.191   1.273   5.374  1.00  0.00     0.119 HD
ENDBRANCH  12  13
BRANCH  12  16
ATOM     16  C   UNL     1       2.412   2.963   5.048  1.00  0.00     0.022 C 
BRANCH  16  17
ATOM     17  C   UNL     1       1.766   1.989   4.054  1.00  0.00     0.002 C 
BRANCH  17  18
ATOM     18  C   UNL     1       0.314   2.299   3.697  1.00  0.00     0.000 C 
BRANCH  18  19
ATOM     19  C   UNL     1      -0.567   1.055   3.527  1.00  0.00    -0.000 C 
BRANCH  19  20
ATOM     20  C   UNL     1      -2.001   1.332   3.064  1.00  0.00    -0.000 C 
BRANCH  20  21
ATOM     21  C   UNL     1      -2.622   2.558   3.739  1.00  0.00    -0.003 C 
ATOM     22  C   UNL     1      -3.464   2.162   4.941  1.00  0.00     0.004 C 
ENDBRANCH  20  21
ENDBRANCH  19  20
ENDBRANCH  18  19
ENDBRANCH  17  18
ENDBRANCH  16  17
ENDBRANCH  12  16
ENDBRANCH   9  12
ENDBRANCH   6   9
ENDBRANCH   3   5
ENDBRANCH   2   3
BRANCH   2  23
ATOM     23  N   UNL     1       3.592   8.680   7.617  1.00  0.00    -0.332 N 
ATOM     24  C   UNL     1       4.146   8.727   8.962  1.00  0.00     0.147 C 
BRANCH  23  25
ATOM     25  C   UNL     1       2.109   8.563   7.554  1.00  0.00     0.174 C 
BRANCH  25  26
ATOM     26  C   UNL     1       1.427   8.804   8.921  1.00  0.00     0.038 C 
BRANCH  26  27
ATOM     27  C   UNL     1      -0.117   8.776   8.948  1.00  0.00    -0.015 C 
ATOM     28  C   UNL     1      -0.667   7.931  10.097  1.00  0.00     0.007 C 
ATOM     29  C   UNL     1      -0.750  10.165   8.953  1.00  0.00     0.007 C 
ENDBRANCH  26  27
ENDBRANCH  25  26
BRANCH  25  30
ATOM     30  C   UNL     1       1.709   7.227   6.887  1.00  0.00     0.243 C 
ATOM     31  O   UNL     1       1.906   6.143   7.434  1.00  0.00    -0.273 OA
ATOM     32  N   UNL     1       1.128   7.332   5.649  1.00  0.00    -0.342 N 
ATOM     33  H   UNL     1       0.870   8.267   5.325  1.00  0.00     0.164 HD
BRANCH  32  34
ATOM     34  C   UNL     1       0.710   6.171   4.858  1.00  0.00     0.175 C 
BRANCH  34  35
ATOM     35  C   UNL     1      -0.821   6.086   4.757  1.00  0.00     0.070 C 
BRANCH  35  36
ATOM     36  C   UNL     1      -1.446   5.378   5.938  1.00  0.00    -0.045 A 
ATOM     37  C   UNL     1      -0.801   4.274   6.517  1.00  0.00     0.007 A 
ATOM     38  C   UNL     1      -2.680   5.794   6.454  1.00  0.00     0.007 A 
ATOM     39  C   UNL     1      -1.377   3.606   7.598  1.00  0.00     0.046 A 
ATOM     40  C   UNL     1      -3.258   5.125   7.536  1.00  0.00     0.046 A 
ATOM     41  C   UNL     1      -2.600   4.037   8.099  1.00  0.00     0.115 A 
BRANCH  41  42
ATOM     42  O   UNL     1      -3.130   3.355   9.154  1.00  0.00    -0.508 OA
ATOM     43  H   UNL     1      -2.645   2.518   9.250  1.00  0.00     0.293 HD
ENDBRANCH  41  42
ENDBRANCH  35  36
ENDBRANCH  34  35
BRANCH  34  44
ATOM     44  C   UNL     1       1.376   6.275   3.468  1.00  0.00     0.243 C 
ATOM     45  O   UNL     1       2.230   7.104   3.167  1.00  0.00    -0.273 OA
ATOM     46  N   UNL     1       0.828   5.422   2.532  1.00  0.00    -0.341 N 
ATOM     47  H   UNL     1       0.042   4.835   2.800  1.00  0.00     0.164 HD
BRANCH  46  48
ATOM     48  C   UNL     1       1.248   5.388   1.130  1.00  0.00     0.196 C 
BRANCH  48  49
ATOM     49  C   UNL     1       1.865   4.028   0.763  1.00  0.00     0.072 C 
BRANCH  49  50
ATOM     50  C   UNL     1       3.364   3.997   0.958  1.00  0.00    -0.045 A 
ATOM     51  C   UNL     1       3.980   2.841   1.459  1.00  0.00     0.007 A 
ATOM     52  C   UNL     1       4.152   5.117   0.665  1.00  0.00     0.007 A 
ATOM     53  C   UNL     1       5.360   2.805   1.656  1.00  0.00     0.046 A 
ATOM     54  C   UNL     1       5.534   5.082   0.862  1.00  0.00     0.046 A 
ATOM     55  C   UNL     1       6.127   3.925   1.356  1.00  0.00     0.115 A 
BRANCH  55  56
ATOM     56  O   UNL     1       7.472   3.850   1.564  1.00  0.00    -0.508 OA
ATOM     57  H   UNL     1       7.699   4.425   2.312  1.00  0.00     0.293 HD
ENDBRANCH  55  56
ENDBRANCH  49  50
ENDBRANCH  48  49
BRANCH  48  58
ATOM     58  C   UNL     1       0.029   5.658   0.237  1.00  0.00     0.326 C 
ATOM     59  O   UNL     1      -0.125   6.584  -0.543  1.00  0.00    -0.250 OA
BRANCH  58  60
ATOM     60  O   UNL     1      -0.949   4.725   0.359  1.00  0.00    -0.480 OA
ATOM     61  H   UNL     1      -0.882   4.217  -0.478  1.00  0.00     0.296 HD
ENDBRANCH  58  60
ENDBRANCH  48  58
ENDBRANCH  46  48
ENDBRANCH  34  44
ENDBRANCH  32  34
ENDBRANCH  25  30
ENDBRANCH  23  25
ENDBRANCH   2  23
TORSDOF 28
ENDMDL
MODEL 9
REMARK VINA RESULT:    -4.777      2.686      7.287
REMARK INTER + INTRA:         -18.766
REMARK INTER:                 -14.159
REMARK INTRA:                  -4.608
REMARK UNBOUND:                -6.869
REMARK SMILES CCCCCCC[C@H](N)[C@H](O)C(=O)N[C@H](C)C(=O)N(C)[C@H](CC(C)C)C(=O)N[C@@H](Cc1ccc(O)cc1)C(=O)N[C@@H](Cc1ccc(O)cc1)C(=O)O
REMARK SMILES IDX 18 1 17 2 15 3 16 4 14 5 12 6 13 7 10 9 11 10 8 12 9 13 7 16
REMARK SMILES IDX 6 17 5 18 4 19 3 20 2 21 1 22 19 23 20 24 21 25 22 26 23 27
REMARK SMILES IDX 24 28 25 29 26 30 27 31 28 32 29 34 30 35 31 36 32 37 37 38
REMARK SMILES IDX 33 39 36 40 34 41 35 42 38 44 39 45 40 46 41 48 42 49 43 50
REMARK SMILES IDX 44 51 49 52 45 53 48 54 46 55 47 56 50 58 51 59 52 60
REMARK H PARENT 14 8 11 11 9 14 9 15 28 33 35 43 40 47 47 57 52 61
ROOT
ATOM      1  O   UNL     1     -11.977  13.447  -0.611  1.00  0.00    -0.272 OA
ATOM      2  C   UNL     1     -11.035  12.728  -0.245  1.00  0.00     0.245 C 
ENDROOT
BRANCH   2   3
ATOM      3  C   UNL     1     -10.318  11.851  -1.301  1.00  0.00     0.168 C 
ATOM      4  C   UNL     1     -11.330  11.125  -2.180  1.00  0.00     0.041 C 
BRANCH   3   5
ATOM      5  N   UNL     1      -9.313  12.546  -2.091  1.00  0.00    -0.342 N 
ATOM      6  C   UNL     1      -8.004  12.115  -2.146  1.00  0.00     0.251 C 
ATOM      7  O   UNL     1      -7.581  11.155  -1.511  1.00  0.00    -0.272 OA
ATOM      8  H   UNL     1      -9.537  13.377  -2.633  1.00  0.00     0.164 HD
BRANCH   6   9
ATOM      9  C   UNL     1      -7.157  12.912  -3.151  1.00  0.00     0.219 C 
BRANCH   9  10
ATOM     10  O   UNL     1      -5.863  13.249  -2.638  1.00  0.00    -0.382 OA
ATOM     11  H   UNL     1      -5.932  14.211  -2.450  1.00  0.00     0.211 HD
ENDBRANCH   9  10
BRANCH   9  12
ATOM     12  C   UNL     1      -7.039  12.219  -4.533  1.00  0.00     0.089 C 
BRANCH  12  13
ATOM     13  N   UNL     1      -8.033  11.123  -4.592  1.00  0.00    -0.325 NA
ATOM     14  H   UNL     1      -8.967  11.522  -4.698  1.00  0.00     0.119 HD
ATOM     15  H   UNL     1      -8.049  10.641  -3.690  1.00  0.00     0.119 HD
ENDBRANCH  12  13
BRANCH  12  16
ATOM     16  C   UNL     1      -7.187  13.138  -5.768  1.00  0.00     0.022 C 
BRANCH  16  17
ATOM     17  C   UNL     1      -6.132  13.070  -6.881  1.00  0.00     0.002 C 
BRANCH  17  18
ATOM     18  C   UNL     1      -6.598  12.397  -8.170  1.00  0.00     0.000 C 
BRANCH  18  19
ATOM     19  C   UNL     1      -5.670  12.634  -9.369  1.00  0.00    -0.000 C 
BRANCH  19  20
ATOM     20  C   UNL     1      -4.173  12.618  -9.046  1.00  0.00    -0.000 C 
BRANCH  20  21
ATOM     21  C   UNL     1      -3.421  13.818  -9.627  1.00  0.00    -0.003 C 
ATOM     22  C   UNL     1      -4.315  15.045  -9.711  1.00  0.00     0.004 C 
ENDBRANCH  20  21
ENDBRANCH  19  20
ENDBRANCH  18  19
ENDBRANCH  17  18
ENDBRANCH  16  17
ENDBRANCH  12  16
ENDBRANCH   9  12
ENDBRANCH   6   9
ENDBRANCH   3   5
ENDBRANCH   2   3
BRANCH   2  23
ATOM     23  N   UNL     1     -10.565  12.811   1.062  1.00  0.00    -0.332 N 
ATOM     24  C   UNL     1      -9.172  13.023   1.426  1.00  0.00     0.147 C 
BRANCH  23  25
ATOM     25  C   UNL     1     -11.518  12.813   2.205  1.00  0.00     0.174 C 
BRANCH  25  26
ATOM     26  C   UNL     1     -11.088  13.764   3.346  1.00  0.00     0.038 C 
BRANCH  26  27
ATOM     27  C   UNL     1     -12.214  14.381   4.206  1.00  0.00    -0.015 C 
ATOM     28  C   UNL     1     -11.738  15.587   5.015  1.00  0.00     0.007 C 
ATOM     29  C   UNL     1     -13.466  14.732   3.405  1.00  0.00     0.007 C 
ENDBRANCH  26  27
ENDBRANCH  25  26
BRANCH  25  30
ATOM     30  C   UNL     1     -11.792  11.365   2.672  1.00  0.00     0.243 C 
ATOM     31  O   UNL     1     -12.689  10.683   2.180  1.00  0.00    -0.273 OA
ATOM     32  N   UNL     1     -10.975  10.900   3.670  1.00  0.00    -0.342 N 
ATOM     33  H   UNL     1     -10.167  11.472   3.926  1.00  0.00     0.164 HD
BRANCH  32  34
ATOM     34  C   UNL     1     -11.107   9.562   4.255  1.00  0.00     0.175 C 
BRANCH  34  35
ATOM     35  C   UNL     1     -10.028   8.609   3.718  1.00  0.00     0.070 C 
BRANCH  35  36
ATOM     36  C   UNL     1     -10.314   8.135   2.311  1.00  0.00    -0.045 A 
ATOM     37  C   UNL     1     -11.245   7.109   2.092  1.00  0.00     0.007 A 
ATOM     38  C   UNL     1      -9.642   8.691   1.214  1.00  0.00     0.007 A 
ATOM     39  C   UNL     1     -11.506   6.655   0.799  1.00  0.00     0.046 A 
ATOM     40  C   UNL     1      -9.901   8.236  -0.081  1.00  0.00     0.046 A 
ATOM     41  C   UNL     1     -10.833   7.222  -0.277  1.00  0.00     0.115 A 
BRANCH  41  42
ATOM     42  O   UNL     1     -11.114   6.748  -1.524  1.00  0.00    -0.508 OA
ATOM     43  H   UNL     1     -10.291   6.411  -1.914  1.00  0.00     0.293 HD
ENDBRANCH  41  42
ENDBRANCH  35  36
ENDBRANCH  34  35
BRANCH  34  44
ATOM     44  C   UNL     1     -11.039   9.704   5.792  1.00  0.00     0.243 C 
ATOM     45  O   UNL     1     -11.338   8.814   6.584  1.00  0.00    -0.273 OA
ATOM     46  N   UNL     1     -10.732  10.980   6.213  1.00  0.00    -0.341 N 
ATOM     47  H   UNL     1     -10.607  11.713   5.519  1.00  0.00     0.164 HD
BRANCH  46  48
ATOM     48  C   UNL     1     -10.678  11.373   7.623  1.00  0.00     0.196 C 
BRANCH  48  49
ATOM     49  C   UNL     1      -9.278  11.880   8.010  1.00  0.00     0.072 C 
BRANCH  49  50
ATOM     50  C   UNL     1      -8.582  12.591   6.871  1.00  0.00    -0.045 A 
ATOM     51  C   UNL     1      -7.651  11.901   6.081  1.00  0.00     0.007 A 
ATOM     52  C   UNL     1      -8.837  13.942   6.602  1.00  0.00     0.007 A 
ATOM     53  C   UNL     1      -6.993  12.550   5.036  1.00  0.00     0.046 A 
ATOM     54  C   UNL     1      -8.177  14.592   5.557  1.00  0.00     0.046 A 
ATOM     55  C   UNL     1      -7.261  13.890   4.782  1.00  0.00     0.115 A 
BRANCH  55  56
ATOM     56  O   UNL     1      -6.595  14.488   3.753  1.00  0.00    -0.508 OA
ATOM     57  H   UNL     1      -5.769  14.862   4.100  1.00  0.00     0.293 HD
ENDBRANCH  55  56
ENDBRANCH  49  50
ENDBRANCH  48  49
BRANCH  48  58
ATOM     58  C   UNL     1     -11.713  12.478   7.874  1.00  0.00     0.326 C 
ATOM     59  O   UNL     1     -11.640  13.389   8.683  1.00  0.00    -0.250 OA
BRANCH  58  60
ATOM     60  O   UNL     1     -12.804  12.390   7.072  1.00  0.00    -0.480 OA
ATOM     61  H   UNL     1     -13.346  13.163   7.342  1.00  0.00     0.296 HD
ENDBRANCH  58  60
ENDBRANCH  48  58
ENDBRANCH  46  48
ENDBRANCH  34  44
ENDBRANCH  32  34
ENDBRANCH  25  30
ENDBRANCH  23  25
ENDBRANCH   2  23
TORSDOF 28
ENDMDL
MODEL 10
REMARK VINA RESULT:    -4.702      9.261     14.157
REMARK INTER + INTRA:         -18.580
REMARK INTER:                 -14.247
REMARK INTRA:                  -4.333
REMARK UNBOUND:                -6.869
REMARK SMILES CCCCCCC[C@H](N)[C@H](O)C(=O)N[C@H](C)C(=O)N(C)[C@H](CC(C)C)C(=O)N[C@@H](Cc1ccc(O)cc1)C(=O)N[C@@H](Cc1ccc(O)cc1)C(=O)O
REMARK SMILES IDX 18 1 17 2 15 3 16 4 14 5 12 6 13 7 10 9 11 10 8 12 9 13 7 16
REMARK SMILES IDX 6 17 5 18 4 19 3 20 2 21 1 22 19 23 20 24 21 25 22 26 23 27
REMARK SMILES IDX 24 28 25 29 26 30 27 31 28 32 29 34 30 35 31 36 32 37 37 38
REMARK SMILES IDX 33 39 36 40 34 41 35 42 38 44 39 45 40 46 41 48 42 49 43 50
REMARK SMILES IDX 44 51 49 52 45 53 48 54 46 55 47 56 50 58 51 59 52 60
REMARK H PARENT 14 8 11 11 9 14 9 15 28 33 35 43 40 47 47 57 52 61
ROOT
ATOM      1  O   UNL     1      -2.663   5.770   4.094  1.00  0.00    -0.272 OA
ATOM      2  C   UNL     1      -3.075   6.737   4.752  1.00  0.00     0.245 C 
ENDROOT
BRANCH   2   3
ATOM      3  C   UNL     1      -4.335   6.551   5.634  1.00  0.00     0.168 C 
ATOM      4  C   UNL     1      -5.604   6.695   4.801  1.00  0.00     0.041 C 
BRANCH   3   5
ATOM      5  N   UNL     1      -4.346   5.337   6.435  1.00  0.00    -0.342 N 
ATOM      6  C   UNL     1      -3.632   5.234   7.610  1.00  0.00     0.251 C 
ATOM      7  O   UNL     1      -2.910   6.125   8.043  1.00  0.00    -0.272 OA
ATOM      8  H   UNL     1      -4.881   4.518   6.158  1.00  0.00     0.164 HD
BRANCH   6   9
ATOM      9  C   UNL     1      -3.905   3.919   8.358  1.00  0.00     0.219 C 
BRANCH   9  10
ATOM     10  O   UNL     1      -2.711   3.316   8.870  1.00  0.00    -0.382 OA
ATOM     11  H   UNL     1      -2.681   3.620   9.804  1.00  0.00     0.211 HD
ENDBRANCH   9  10
BRANCH   9  12
ATOM     12  C   UNL     1      -4.972   4.064   9.474  1.00  0.00     0.089 C 
BRANCH  12  13
ATOM     13  N   UNL     1      -4.677   5.294  10.245  1.00  0.00    -0.325 NA
ATOM     14  H   UNL     1      -3.718   5.590  10.051  1.00  0.00     0.119 HD
ATOM     15  H   UNL     1      -4.689   5.070  11.243  1.00  0.00     0.119 HD
ENDBRANCH  12  13
BRANCH  12  16
ATOM     16  C   UNL     1      -6.447   4.071   9.007  1.00  0.00     0.022 C 
BRANCH  16  17
ATOM     17  C   UNL     1      -7.512   4.714   9.905  1.00  0.00     0.002 C 
BRANCH  17  18
ATOM     18  C   UNL     1      -8.303   5.849   9.257  1.00  0.00     0.000 C 
BRANCH  18  19
ATOM     19  C   UNL     1      -7.859   6.182   7.826  1.00  0.00    -0.000 C 
BRANCH  19  20
ATOM     20  C   UNL     1      -8.973   6.670   6.897  1.00  0.00    -0.000 C 
BRANCH  20  21
ATOM     21  C   UNL     1      -8.662   8.021   6.246  1.00  0.00    -0.003 C 
ATOM     22  C   UNL     1      -8.783   9.159   7.247  1.00  0.00     0.004 C 
ENDBRANCH  20  21
ENDBRANCH  19  20
ENDBRANCH  18  19
ENDBRANCH  17  18
ENDBRANCH  16  17
ENDBRANCH  12  16
ENDBRANCH   9  12
ENDBRANCH   6   9
ENDBRANCH   3   5
ENDBRANCH   2   3
BRANCH   2  23
ATOM     23  N   UNL     1      -2.342   7.919   4.784  1.00  0.00    -0.332 N 
ATOM     24  C   UNL     1      -1.270   8.252   3.858  1.00  0.00     0.147 C 
BRANCH  23  25
ATOM     25  C   UNL     1      -2.713   9.007   5.730  1.00  0.00     0.174 C 
BRANCH  25  26
ATOM     26  C   UNL     1      -3.388  10.210   5.029  1.00  0.00     0.038 C 
BRANCH  26  27
ATOM     27  C   UNL     1      -4.087  11.247   5.936  1.00  0.00    -0.015 C 
ATOM     28  C   UNL     1      -3.558  12.664   5.718  1.00  0.00     0.007 C 
ATOM     29  C   UNL     1      -5.609  11.220   5.829  1.00  0.00     0.007 C 
ENDBRANCH  26  27
ENDBRANCH  25  26
BRANCH  25  30
ATOM     30  C   UNL     1      -1.494   9.398   6.597  1.00  0.00     0.243 C 
ATOM     31  O   UNL     1      -0.792  10.371   6.330  1.00  0.00    -0.273 OA
ATOM     32  N   UNL     1      -1.248   8.585   7.674  1.00  0.00    -0.342 N 
ATOM     33  H   UNL     1      -1.955   7.884   7.910  1.00  0.00     0.164 HD
BRANCH  32  34
ATOM     34  C   UNL     1      -0.121   8.787   8.589  1.00  0.00     0.175 C 
BRANCH  34  35
ATOM     35  C   UNL     1      -0.600   8.925  10.043  1.00  0.00     0.070 C 
BRANCH  35  36
ATOM     36  C   UNL     1      -0.201  10.243  10.667  1.00  0.00    -0.045 A 
ATOM     37  C   UNL     1      -1.102  10.928  11.495  1.00  0.00     0.007 A 
ATOM     38  C   UNL     1       1.056  10.808  10.412  1.00  0.00     0.007 A 
ATOM     39  C   UNL     1      -0.748  12.152  12.065  1.00  0.00     0.046 A 
ATOM     40  C   UNL     1       1.410  12.034  10.981  1.00  0.00     0.046 A 
ATOM     41  C   UNL     1       0.504  12.694  11.804  1.00  0.00     0.115 A 
BRANCH  41  42
ATOM     42  O   UNL     1       0.810  13.893  12.378  1.00  0.00    -0.508 OA
ATOM     43  H   UNL     1       1.190  14.469  11.694  1.00  0.00     0.293 HD
ENDBRANCH  41  42
ENDBRANCH  35  36
ENDBRANCH  34  35
BRANCH  34  44
ATOM     44  C   UNL     1       0.856   7.603   8.413  1.00  0.00     0.243 C 
ATOM     45  O   UNL     1       0.616   6.448   8.755  1.00  0.00    -0.273 OA
ATOM     46  N   UNL     1       2.098   7.981   7.948  1.00  0.00    -0.341 N 
ATOM     47  H   UNL     1       2.286   8.968   7.789  1.00  0.00     0.164 HD
BRANCH  46  48
ATOM     48  C   UNL     1       3.209   7.045   7.765  1.00  0.00     0.196 C 
BRANCH  48  49
ATOM     49  C   UNL     1       3.379   6.658   6.287  1.00  0.00     0.072 C 
BRANCH  49  50
ATOM     50  C   UNL     1       3.666   5.185   6.100  1.00  0.00    -0.045 A 
ATOM     51  C   UNL     1       4.575   4.769   5.117  1.00  0.00     0.007 A 
ATOM     52  C   UNL     1       3.020   4.220   6.884  1.00  0.00     0.007 A 
ATOM     53  C   UNL     1       4.839   3.413   4.927  1.00  0.00     0.046 A 
ATOM     54  C   UNL     1       3.283   2.861   6.692  1.00  0.00     0.046 A 
ATOM     55  C   UNL     1       4.191   2.469   5.716  1.00  0.00     0.115 A 
BRANCH  55  56
ATOM     56  O   UNL     1       4.475   1.154   5.497  1.00  0.00    -0.508 OA
ATOM     57  H   UNL     1       3.641   0.658   5.492  1.00  0.00     0.293 HD
ENDBRANCH  55  56
ENDBRANCH  49  50
ENDBRANCH  48  49
BRANCH  48  58
ATOM     58  C   UNL     1       4.501   7.698   8.278  1.00  0.00     0.326 C 
ATOM     59  O   UNL     1       4.616   8.476   9.210  1.00  0.00    -0.250 OA
BRANCH  58  60
ATOM     60  O   UNL     1       5.608   7.321   7.589  1.00  0.00    -0.480 OA
ATOM     61  H   UNL     1       5.487   7.752   6.715  1.00  0.00     0.296 HD
ENDBRANCH  58  60
ENDBRANCH  48  58
ENDBRANCH  46  48
ENDBRANCH  34  44
ENDBRANCH  32  34
ENDBRANCH  25  30
ENDBRANCH  23  25
ENDBRANCH   2  23
TORSDOF 28
ENDMDL
