MODEL 1
REMARK VINA RESULT:    -6.473      0.000      0.000
REMARK INTER + INTRA:         -22.573
REMARK INTER:                 -16.122
REMARK INTRA:                  -6.451
REMARK UNBOUND:                -6.451
REMARK SMILES CCCCCCC[C@H](N)[C@H](O)C(=O)N[C@H](C)C(=O)N(C)[C@H](CC(C)C)C(=O)N[C@@H](Cc1ccc(O)cc1)C(=O)N[C@@H](Cc1ccc(O)cc1)C(=O)O
REMARK SMILES IDX 18 1 17 2 15 3 16 4 14 5 12 6 13 7 10 9 11 10 8 12 9 13 7 16
REMARK SMILES IDX 6 17 5 18 4 19 3 20 2 21 1 22 19 23 20 24 21 25 22 26 23 27
REMARK SMILES IDX 24 28 25 29 26 30 27 31 28 32 29 34 30 35 31 36 32 37 37 38
REMARK SMILES IDX 33 39 36 40 34 41 35 42 38 44 39 45 40 46 41 48 42 49 43 50
REMARK SMILES IDX 44 51 49 52 45 53 48 54 46 55 47 56 50 58 51 59 52 60
REMARK H PARENT 14 8 11 11 9 14 9 15 28 33 35 43 40 47 47 57 52 61
ROOT
ATOM      1  O   UNL     1      -2.005  12.675   8.867  1.00  0.00    -0.272 OA
ATOM      2  C   UNL     1      -3.097  12.089   8.914  1.00  0.00     0.245 C 
ENDROOT
BRANCH   2   3
ATOM      3  C   UNL     1      -3.452  11.094   7.780  1.00  0.00     0.168 C 
ATOM      4  C   UNL     1      -3.510  11.806   6.433  1.00  0.00     0.041 C 
BRANCH   3   5
ATOM      5  N   UNL     1      -2.618   9.903   7.728  1.00  0.00    -0.342 N 
ATOM      6  C   UNL     1      -2.938   8.760   8.429  1.00  0.00     0.251 C 
ATOM      7  O   UNL     1      -3.910   8.671   9.172  1.00  0.00    -0.272 OA
ATOM      8  H   UNL     1      -1.766   9.869   7.173  1.00  0.00     0.164 HD
BRANCH   6   9
ATOM      9  C   UNL     1      -1.996   7.586   8.113  1.00  0.00     0.219 C 
BRANCH   9  10
ATOM     10  O   UNL     1      -1.571   6.887   9.289  1.00  0.00    -0.382 OA
ATOM     11  H   UNL     1      -1.350   5.989   8.956  1.00  0.00     0.211 HD
ENDBRANCH   9  10
BRANCH   9  12
ATOM     12  C   UNL     1      -2.581   6.601   7.067  1.00  0.00     0.089 C 
BRANCH  12  13
ATOM     13  N   UNL     1      -3.693   7.277   6.359  1.00  0.00    -0.325 NA
ATOM     14  H   UNL     1      -4.524   6.685   6.398  1.00  0.00     0.119 HD
ATOM     15  H   UNL     1      -3.460   7.345   5.366  1.00  0.00     0.119 HD
ENDBRANCH  12  13
BRANCH  12  16
ATOM     16  C   UNL     1      -1.574   6.021   6.045  1.00  0.00     0.022 C 
BRANCH  16  17
ATOM     17  C   UNL     1      -0.721   4.809   6.443  1.00  0.00     0.002 C 
BRANCH  17  18
ATOM     18  C   UNL     1      -1.384   3.849   7.428  1.00  0.00     0.000 C 
BRANCH  18  19
ATOM     19  C   UNL     1      -2.122   2.681   6.761  1.00  0.00    -0.000 C 
BRANCH  19  20
ATOM     20  C   UNL     1      -3.650   2.770   6.801  1.00  0.00    -0.000 C 
BRANCH  20  21
ATOM     21  C   UNL     1      -4.239   3.508   5.596  1.00  0.00    -0.003 C 
ATOM     22  C   UNL     1      -5.540   4.208   5.956  1.00  0.00     0.004 C 
ENDBRANCH  20  21
ENDBRANCH  19  20
ENDBRANCH  18  19
ENDBRANCH  17  18
ENDBRANCH  16  17
ENDBRANCH  12  16
ENDBRANCH   9  12
ENDBRANCH   6   9
ENDBRANCH   3   5
ENDBRANCH   2   3
BRANCH   2  23
ATOM     23  N   UNL     1      -3.919  12.236  10.026  1.00  0.00    -0.332 N 
ATOM     24  C   UNL     1      -4.910  13.289  10.187  1.00  0.00     0.147 C 
BRANCH  23  25
ATOM     25  C   UNL     1      -3.917  11.207  11.102  1.00  0.00     0.174 C 
BRANCH  25  26
ATOM     26  C   UNL     1      -5.068  11.397  12.118  1.00  0.00     0.038 C 
BRANCH  26  27
ATOM     27  C   UNL     1      -5.214  10.323  13.219  1.00  0.00    -0.015 C 
ATOM     28  C   UNL     1      -5.706  10.906  14.543  1.00  0.00     0.007 C 
ATOM     29  C   UNL     1      -6.081   9.138  12.799  1.00  0.00     0.007 C 
ENDBRANCH  26  27
ENDBRANCH  25  26
BRANCH  25  30
ATOM     30  C   UNL     1      -2.519  11.123  11.755  1.00  0.00     0.243 C 
ATOM     31  O   UNL     1      -2.046  12.056  12.402  1.00  0.00    -0.273 OA
ATOM     32  N   UNL     1      -1.842   9.946  11.560  1.00  0.00    -0.342 N 
ATOM     33  H   UNL     1      -2.356   9.170  11.134  1.00  0.00     0.164 HD
BRANCH  32  34
ATOM     34  C   UNL     1      -0.496   9.699  12.082  1.00  0.00     0.175 C 
BRANCH  34  35
ATOM     35  C   UNL     1      -0.337   8.245  12.552  1.00  0.00     0.070 C 
BRANCH  35  36
ATOM     36  C   UNL     1      -1.589   7.700  13.201  1.00  0.00    -0.045 A 
ATOM     37  C   UNL     1      -2.011   8.201  14.442  1.00  0.00     0.007 A 
ATOM     38  C   UNL     1      -2.329   6.679  12.591  1.00  0.00     0.007 A 
ATOM     39  C   UNL     1      -3.157   7.695  15.055  1.00  0.00     0.046 A 
ATOM     40  C   UNL     1      -3.476   6.171  13.205  1.00  0.00     0.046 A 
ATOM     41  C   UNL     1      -3.881   6.685  14.432  1.00  0.00     0.115 A 
BRANCH  41  42
ATOM     42  O   UNL     1      -4.993   6.216  15.066  1.00  0.00    -0.508 OA
ATOM     43  H   UNL     1      -5.623   6.950  15.160  1.00  0.00     0.293 HD
ENDBRANCH  41  42
ENDBRANCH  35  36
ENDBRANCH  34  35
BRANCH  34  44
ATOM     44  C   UNL     1       0.520  10.062  10.976  1.00  0.00     0.243 C 
ATOM     45  O   UNL     1       1.225  11.068  10.983  1.00  0.00    -0.273 OA
ATOM     46  N   UNL     1       0.479   9.212   9.891  1.00  0.00    -0.341 N 
ATOM     47  H   UNL     1      -0.205   8.459   9.880  1.00  0.00     0.164 HD
BRANCH  46  48
ATOM     48  C   UNL     1       1.300   9.393   8.692  1.00  0.00     0.196 C 
BRANCH  48  49
ATOM     49  C   UNL     1       1.552   8.055   7.978  1.00  0.00     0.072 C 
BRANCH  49  50
ATOM     50  C   UNL     1       3.016   7.680   7.944  1.00  0.00    -0.045 A 
ATOM     51  C   UNL     1       3.988   8.624   8.305  1.00  0.00     0.007 A 
ATOM     52  C   UNL     1       3.424   6.404   7.535  1.00  0.00     0.007 A 
ATOM     53  C   UNL     1       5.343   8.294   8.266  1.00  0.00     0.046 A 
ATOM     54  C   UNL     1       4.780   6.073   7.494  1.00  0.00     0.046 A 
ATOM     55  C   UNL     1       5.729   7.022   7.861  1.00  0.00     0.115 A 
BRANCH  55  56
ATOM     56  O   UNL     1       7.062   6.739   7.834  1.00  0.00    -0.508 OA
ATOM     57  H   UNL     1       7.195   5.937   7.305  1.00  0.00     0.293 HD
ENDBRANCH  55  56
ENDBRANCH  49  50
ENDBRANCH  48  49
BRANCH  48  58
ATOM     58  C   UNL     1       0.584  10.360   7.738  1.00  0.00     0.326 C 
ATOM     59  O   UNL     1      -0.013  10.078   6.712  1.00  0.00    -0.250 OA
BRANCH  58  60
ATOM     60  O   UNL     1       0.642  11.655   8.136  1.00  0.00    -0.480 OA
ATOM     61  H   UNL     1      -0.280  11.970   8.018  1.00  0.00     0.296 HD
ENDBRANCH  58  60
ENDBRANCH  48  58
ENDBRANCH  46  48
ENDBRANCH  34  44
ENDBRANCH  32  34
ENDBRANCH  25  30
ENDBRANCH  23  25
ENDBRANCH   2  23
TORSDOF 28
ENDMDL
MODEL 2
REMARK VINA RESULT:    -6.409      1.840      3.852
REMARK INTER + INTRA:         -22.415
REMARK INTER:                 -15.982
REMARK INTRA:                  -6.433
REMARK UNBOUND:                -6.451
REMARK SMILES CCCCCCC[C@H](N)[C@H](O)C(=O)N[C@H](C)C(=O)N(C)[C@H](CC(C)C)C(=O)N[C@@H](Cc1ccc(O)cc1)C(=O)N[C@@H](Cc1ccc(O)cc1)C(=O)O
REMARK SMILES IDX 18 1 17 2 15 3 16 4 14 5 12 6 13 7 10 9 11 10 8 12 9 13 7 16
REMARK SMILES IDX 6 17 5 18 4 19 3 20 2 21 1 22 19 23 20 24 21 25 22 26 23 27
REMARK SMILES IDX 24 28 25 29 26 30 27 31 28 32 29 34 30 35 31 36 32 37 37 38
REMARK SMILES IDX 33 39 36 40 34 41 35 42 38 44 39 45 40 46 41 48 42 49 43 50
REMARK SMILES IDX 44 51 49 52 45 53 48 54 46 55 47 56 50 58 51 59 52 60
REMARK H PARENT 14 8 11 11 9 14 9 15 28 33 35 43 40 47 47 57 52 61
ROOT
ATOM      1  O   UNL     1      -1.931  12.445   9.138  1.00  0.00    -0.272 OA
ATOM      2  C   UNL     1      -3.014  11.856   9.003  1.00  0.00     0.245 C 
ENDROOT
BRANCH   2   3
ATOM      3  C   UNL     1      -3.117  10.728   7.945  1.00  0.00     0.168 C 
ATOM      4  C   UNL     1      -3.344  11.310   6.554  1.00  0.00     0.041 C 
BRANCH   3   5
ATOM      5  N   UNL     1      -2.020   9.773   7.961  1.00  0.00    -0.342 N 
ATOM      6  C   UNL     1      -2.065   8.624   8.722  1.00  0.00     0.251 C 
ATOM      7  O   UNL     1      -2.999   8.342   9.465  1.00  0.00    -0.272 OA
ATOM      8  H   UNL     1      -1.176   9.917   7.411  1.00  0.00     0.164 HD
BRANCH   6   9
ATOM      9  C   UNL     1      -0.864   7.699   8.473  1.00  0.00     0.219 C 
BRANCH   9  10
ATOM     10  O   UNL     1      -0.336   7.141   9.682  1.00  0.00    -0.382 OA
ATOM     11  H   UNL     1       0.288   6.452   9.366  1.00  0.00     0.211 HD
ENDBRANCH   9  10
BRANCH   9  12
ATOM     12  C   UNL     1      -1.158   6.584   7.435  1.00  0.00     0.089 C 
BRANCH  12  13
ATOM     13  N   UNL     1      -1.275   7.209   6.098  1.00  0.00    -0.325 NA
ATOM     14  H   UNL     1      -0.346   7.485   5.774  1.00  0.00     0.119 HD
ATOM     15  H   UNL     1      -1.797   8.084   6.186  1.00  0.00     0.119 HD
ENDBRANCH  12  13
BRANCH  12  16
ATOM     16  C   UNL     1      -0.145   5.415   7.389  1.00  0.00     0.022 C 
BRANCH  16  17
ATOM     17  C   UNL     1       1.231   5.645   6.749  1.00  0.00     0.002 C 
BRANCH  17  18
ATOM     18  C   UNL     1       2.368   5.893   7.738  1.00  0.00     0.000 C 
BRANCH  18  19
ATOM     19  C   UNL     1       3.748   5.464   7.223  1.00  0.00    -0.000 C 
BRANCH  19  20
ATOM     20  C   UNL     1       4.609   6.593   6.651  1.00  0.00    -0.000 C 
BRANCH  20  21
ATOM     21  C   UNL     1       5.732   7.029   7.596  1.00  0.00    -0.003 C 
ATOM     22  C   UNL     1       5.324   8.240   8.421  1.00  0.00     0.004 C 
ENDBRANCH  20  21
ENDBRANCH  19  20
ENDBRANCH  18  19
ENDBRANCH  17  18
ENDBRANCH  16  17
ENDBRANCH  12  16
ENDBRANCH   9  12
ENDBRANCH   6   9
ENDBRANCH   3   5
ENDBRANCH   2   3
BRANCH   2  23
ATOM     23  N   UNL     1      -4.066  12.125   9.871  1.00  0.00    -0.332 N 
ATOM     24  C   UNL     1      -5.059  13.169   9.666  1.00  0.00     0.147 C 
BRANCH  23  25
ATOM     25  C   UNL     1      -4.317  11.243  11.044  1.00  0.00     0.174 C 
BRANCH  25  26
ATOM     26  C   UNL     1      -5.620  11.600  11.798  1.00  0.00     0.038 C 
BRANCH  26  27
ATOM     27  C   UNL     1      -6.166  10.547  12.788  1.00  0.00    -0.015 C 
ATOM     28  C   UNL     1      -5.822   9.118  12.370  1.00  0.00     0.007 C 
ATOM     29  C   UNL     1      -5.749  10.799  14.234  1.00  0.00     0.007 C 
ENDBRANCH  26  27
ENDBRANCH  25  26
BRANCH  25  30
ATOM     30  C   UNL     1      -3.067  11.195  11.951  1.00  0.00     0.243 C 
ATOM     31  O   UNL     1      -2.786  12.113  12.720  1.00  0.00    -0.273 OA
ATOM     32  N   UNL     1      -2.293  10.069  11.837  1.00  0.00    -0.342 N 
ATOM     33  H   UNL     1      -2.666   9.292  11.285  1.00  0.00     0.164 HD
BRANCH  32  34
ATOM     34  C   UNL     1      -1.058   9.863  12.598  1.00  0.00     0.175 C 
BRANCH  34  35
ATOM     35  C   UNL     1      -0.822   8.373  12.888  1.00  0.00     0.070 C 
BRANCH  35  36
ATOM     36  C   UNL     1      -2.047   7.684  13.444  1.00  0.00    -0.045 A 
ATOM     37  C   UNL     1      -2.686   6.680  12.700  1.00  0.00     0.007 A 
ATOM     38  C   UNL     1      -2.574   8.048  14.690  1.00  0.00     0.007 A 
ATOM     39  C   UNL     1      -3.825   6.048  13.198  1.00  0.00     0.046 A 
ATOM     40  C   UNL     1      -3.716   7.417  15.189  1.00  0.00     0.046 A 
ATOM     41  C   UNL     1      -4.331   6.420  14.438  1.00  0.00     0.115 A 
BRANCH  41  42
ATOM     42  O   UNL     1      -5.448   5.780  14.887  1.00  0.00    -0.508 OA
ATOM     43  H   UNL     1      -5.865   6.336  15.566  1.00  0.00     0.293 HD
ENDBRANCH  41  42
ENDBRANCH  35  36
ENDBRANCH  34  35
BRANCH  34  44
ATOM     44  C   UNL     1       0.107  10.488  11.798  1.00  0.00     0.243 C 
ATOM     45  O   UNL     1       0.310  11.694  11.696  1.00  0.00    -0.273 OA
ATOM     46  N   UNL     1       0.841   9.563  11.086  1.00  0.00    -0.341 N 
ATOM     47  H   UNL     1       0.561   8.586  11.110  1.00  0.00     0.164 HD
BRANCH  46  48
ATOM     48  C   UNL     1       1.951   9.925  10.201  1.00  0.00     0.196 C 
BRANCH  48  49
ATOM     49  C   UNL     1       1.592  11.130   9.316  1.00  0.00     0.072 C 
BRANCH  49  50
ATOM     50  C   UNL     1       1.452  10.758   7.857  1.00  0.00    -0.045 A 
ATOM     51  C   UNL     1       2.047   9.583   7.374  1.00  0.00     0.007 A 
ATOM     52  C   UNL     1       0.751  11.582   6.967  1.00  0.00     0.007 A 
ATOM     53  C   UNL     1       1.935   9.236   6.028  1.00  0.00     0.046 A 
ATOM     54  C   UNL     1       0.641  11.236   5.618  1.00  0.00     0.046 A 
ATOM     55  C   UNL     1       1.233  10.064   5.160  1.00  0.00     0.115 A 
BRANCH  55  56
ATOM     56  O   UNL     1       1.149   9.691   3.852  1.00  0.00    -0.508 OA
ATOM     57  H   UNL     1       2.030   9.774   3.453  1.00  0.00     0.293 HD
ENDBRANCH  55  56
ENDBRANCH  49  50
ENDBRANCH  48  49
BRANCH  48  58
ATOM     58  C   UNL     1       3.181  10.262  11.056  1.00  0.00     0.326 C 
ATOM     59  O   UNL     1       4.037   9.490  11.457  1.00  0.00    -0.250 OA
BRANCH  58  60
ATOM     60  O   UNL     1       3.285  11.581  11.358  1.00  0.00    -0.480 OA
ATOM     61  H   UNL     1       2.385  11.927  11.173  1.00  0.00     0.296 HD
ENDBRANCH  58  60
ENDBRANCH  48  58
ENDBRANCH  46  48
ENDBRANCH  34  44
ENDBRANCH  32  34
ENDBRANCH  25  30
ENDBRANCH  23  25
ENDBRANCH   2  23
TORSDOF 28
ENDMDL
MODEL 3
REMARK VINA RESULT:    -6.312      2.357      7.230
REMARK INTER + INTRA:         -22.173
REMARK INTER:                 -15.937
REMARK INTRA:                  -6.236
REMARK UNBOUND:                -6.451
REMARK SMILES CCCCCCC[C@H](N)[C@H](O)C(=O)N[C@H](C)C(=O)N(C)[C@H](CC(C)C)C(=O)N[C@@H](Cc1ccc(O)cc1)C(=O)N[C@@H](Cc1ccc(O)cc1)C(=O)O
REMARK SMILES IDX 18 1 17 2 15 3 16 4 14 5 12 6 13 7 10 9 11 10 8 12 9 13 7 16
REMARK SMILES IDX 6 17 5 18 4 19 3 20 2 21 1 22 19 23 20 24 21 25 22 26 23 27
REMARK SMILES IDX 24 28 25 29 26 30 27 31 28 32 29 34 30 35 31 36 32 37 37 38
REMARK SMILES IDX 33 39 36 40 34 41 35 42 38 44 39 45 40 46 41 48 42 49 43 50
REMARK SMILES IDX 44 51 49 52 45 53 48 54 46 55 47 56 50 58 51 59 52 60
REMARK H PARENT 14 8 11 11 9 14 9 15 28 33 35 43 40 47 47 57 52 61
ROOT
ATOM      1  O   UNL     1      -2.397  10.049   6.833  1.00  0.00    -0.272 OA
ATOM      2  C   UNL     1      -1.531  10.621   7.512  1.00  0.00     0.245 C 
ENDROOT
BRANCH   2   3
ATOM      3  C   UNL     1      -1.961  11.797   8.424  1.00  0.00     0.168 C 
ATOM      4  C   UNL     1      -3.040  12.638   7.751  1.00  0.00     0.041 C 
BRANCH   3   5
ATOM      5  N   UNL     1      -2.335  11.415   9.777  1.00  0.00    -0.342 N 
ATOM      6  C   UNL     1      -1.908  12.126  10.878  1.00  0.00     0.251 C 
ATOM      7  O   UNL     1      -1.158  13.093  10.810  1.00  0.00    -0.272 OA
ATOM      8  H   UNL     1      -2.927  10.608   9.962  1.00  0.00     0.164 HD
BRANCH   6   9
ATOM      9  C   UNL     1      -2.541  11.629  12.188  1.00  0.00     0.219 C 
BRANCH   9  10
ATOM     10  O   UNL     1      -1.654  11.742  13.308  1.00  0.00    -0.382 OA
ATOM     11  H   UNL     1      -1.489  10.809  13.567  1.00  0.00     0.211 HD
ENDBRANCH   9  10
BRANCH   9  12
ATOM     12  C   UNL     1      -3.906  12.297  12.497  1.00  0.00     0.089 C 
BRANCH  12  13
ATOM     13  N   UNL     1      -4.249  13.200  11.374  1.00  0.00    -0.325 NA
ATOM     14  H   UNL     1      -3.945  12.775  10.496  1.00  0.00     0.119 HD
ATOM     15  H   UNL     1      -3.698  14.058  11.459  1.00  0.00     0.119 HD
ENDBRANCH  12  13
BRANCH  12  16
ATOM     16  C   UNL     1      -5.083  11.334  12.783  1.00  0.00     0.022 C 
BRANCH  16  17
ATOM     17  C   UNL     1      -5.011  10.409  14.005  1.00  0.00     0.002 C 
BRANCH  17  18
ATOM     18  C   UNL     1      -4.409   9.032  13.737  1.00  0.00     0.000 C 
BRANCH  18  19
ATOM     19  C   UNL     1      -3.701   8.413  14.949  1.00  0.00    -0.000 C 
BRANCH  19  20
ATOM     20  C   UNL     1      -2.385   7.694  14.637  1.00  0.00    -0.000 C 
BRANCH  20  21
ATOM     21  C   UNL     1      -1.308   8.630  14.081  1.00  0.00    -0.003 C 
ATOM     22  C   UNL     1      -0.517   7.964  12.966  1.00  0.00     0.004 C 
ENDBRANCH  20  21
ENDBRANCH  19  20
ENDBRANCH  18  19
ENDBRANCH  17  18
ENDBRANCH  16  17
ENDBRANCH  12  16
ENDBRANCH   9  12
ENDBRANCH   6   9
ENDBRANCH   3   5
ENDBRANCH   2   3
BRANCH   2  23
ATOM     23  N   UNL     1      -0.230  10.128   7.538  1.00  0.00    -0.332 N 
ATOM     24  C   UNL     1       0.694  10.177   6.415  1.00  0.00     0.147 C 
BRANCH  23  25
ATOM     25  C   UNL     1       0.353   9.616   8.808  1.00  0.00     0.174 C 
BRANCH  25  26
ATOM     26  C   UNL     1       1.892   9.760   8.864  1.00  0.00     0.038 C 
BRANCH  26  27
ATOM     27  C   UNL     1       2.485  10.458  10.108  1.00  0.00    -0.015 C 
ATOM     28  C   UNL     1       1.424  10.775  11.162  1.00  0.00     0.007 C 
ATOM     29  C   UNL     1       3.652   9.698  10.733  1.00  0.00     0.007 C 
ENDBRANCH  26  27
ENDBRANCH  25  26
BRANCH  25  30
ATOM     30  C   UNL     1      -0.147   8.180   9.083  1.00  0.00     0.243 C 
ATOM     31  O   UNL     1       0.610   7.211   9.052  1.00  0.00    -0.273 OA
ATOM     32  N   UNL     1      -1.486   8.060   9.354  1.00  0.00    -0.342 N 
ATOM     33  H   UNL     1      -2.019   8.921   9.501  1.00  0.00     0.164 HD
BRANCH  32  34
ATOM     34  C   UNL     1      -2.140   6.774   9.612  1.00  0.00     0.175 C 
BRANCH  34  35
ATOM     35  C   UNL     1      -3.252   6.913  10.663  1.00  0.00     0.070 C 
BRANCH  35  36
ATOM     36  C   UNL     1      -3.299   5.745  11.623  1.00  0.00    -0.045 A 
ATOM     37  C   UNL     1      -4.278   5.700  12.626  1.00  0.00     0.007 A 
ATOM     38  C   UNL     1      -2.359   4.709  11.540  1.00  0.00     0.007 A 
ATOM     39  C   UNL     1      -4.321   4.634  13.525  1.00  0.00     0.046 A 
ATOM     40  C   UNL     1      -2.401   3.641  12.440  1.00  0.00     0.046 A 
ATOM     41  C   UNL     1      -3.384   3.613  13.424  1.00  0.00     0.115 A 
BRANCH  41  42
ATOM     42  O   UNL     1      -3.458   2.591  14.323  1.00  0.00    -0.508 OA
ATOM     43  H   UNL     1      -3.237   1.764  13.864  1.00  0.00     0.293 HD
ENDBRANCH  41  42
ENDBRANCH  35  36
ENDBRANCH  34  35
BRANCH  34  44
ATOM     44  C   UNL     1      -2.680   6.234   8.269  1.00  0.00     0.243 C 
ATOM     45  O   UNL     1      -3.510   6.811   7.572  1.00  0.00    -0.273 OA
ATOM     46  N   UNL     1      -2.239   4.961   7.972  1.00  0.00    -0.341 N 
ATOM     47  H   UNL     1      -1.643   4.477   8.638  1.00  0.00     0.164 HD
BRANCH  46  48
ATOM     48  C   UNL     1      -2.669   4.216   6.786  1.00  0.00     0.196 C 
BRANCH  48  49
ATOM     49  C   UNL     1      -4.100   3.679   6.951  1.00  0.00     0.072 C 
BRANCH  49  50
ATOM     50  C   UNL     1      -4.311   2.980   8.275  1.00  0.00    -0.045 A 
ATOM     51  C   UNL     1      -3.569   1.831   8.585  1.00  0.00     0.007 A 
ATOM     52  C   UNL     1      -5.255   3.451   9.197  1.00  0.00     0.007 A 
ATOM     53  C   UNL     1      -3.764   1.170   9.798  1.00  0.00     0.046 A 
ATOM     54  C   UNL     1      -5.451   2.789  10.411  1.00  0.00     0.046 A 
ATOM     55  C   UNL     1      -4.702   1.654  10.702  1.00  0.00     0.115 A 
BRANCH  55  56
ATOM     56  O   UNL     1      -4.864   0.978  11.875  1.00  0.00    -0.508 OA
ATOM     57  H   UNL     1      -4.227   0.246  11.896  1.00  0.00     0.293 HD
ENDBRANCH  55  56
ENDBRANCH  49  50
ENDBRANCH  48  49
BRANCH  48  58
ATOM     58  C   UNL     1      -2.603   5.141   5.564  1.00  0.00     0.326 C 
ATOM     59  O   UNL     1      -1.605   5.629   5.058  1.00  0.00    -0.250 OA
BRANCH  58  60
ATOM     60  O   UNL     1      -3.817   5.402   5.016  1.00  0.00    -0.480 OA
ATOM     61  H   UNL     1      -4.158   6.142   5.564  1.00  0.00     0.296 HD
ENDBRANCH  58  60
ENDBRANCH  48  58
ENDBRANCH  46  48
ENDBRANCH  34  44
ENDBRANCH  32  34
ENDBRANCH  25  30
ENDBRANCH  23  25
ENDBRANCH   2  23
TORSDOF 28
ENDMDL
MODEL 4
REMARK VINA RESULT:    -6.175      2.028      3.193
REMARK INTER + INTRA:         -21.832
REMARK INTER:                 -16.452
REMARK INTRA:                  -5.379
REMARK UNBOUND:                -6.451
REMARK SMILES CCCCCCC[C@H](N)[C@H](O)C(=O)N[C@H](C)C(=O)N(C)[C@H](CC(C)C)C(=O)N[C@@H](Cc1ccc(O)cc1)C(=O)N[C@@H](Cc1ccc(O)cc1)C(=O)O
REMARK SMILES IDX 18 1 17 2 15 3 16 4 14 5 12 6 13 7 10 9 11 10 8 12 9 13 7 16
REMARK SMILES IDX 6 17 5 18 4 19 3 20 2 21 1 22 19 23 20 24 21 25 22 26 23 27
REMARK SMILES IDX 24 28 25 29 26 30 27 31 28 32 29 34 30 35 31 36 32 37 37 38
REMARK SMILES IDX 33 39 36 40 34 41 35 42 38 44 39 45 40 46 41 48 42 49 43 50
REMARK SMILES IDX 44 51 49 52 45 53 48 54 46 55 47 56 50 58 51 59 52 60
REMARK H PARENT 14 8 11 11 9 14 9 15 28 33 35 43 40 47 47 57 52 61
ROOT
ATOM      1  O   UNL     1      -1.895  12.394   9.396  1.00  0.00    -0.272 OA
ATOM      2  C   UNL     1      -3.045  12.012   9.133  1.00  0.00     0.245 C 
ENDROOT
BRANCH   2   3
ATOM      3  C   UNL     1      -3.272  11.173   7.851  1.00  0.00     0.168 C 
ATOM      4  C   UNL     1      -2.093  11.314   6.895  1.00  0.00     0.041 C 
BRANCH   3   5
ATOM      5  N   UNL     1      -3.615   9.779   8.086  1.00  0.00    -0.342 N 
ATOM      6  C   UNL     1      -2.730   8.901   8.677  1.00  0.00     0.251 C 
ATOM      7  O   UNL     1      -1.589   9.210   9.006  1.00  0.00    -0.272 OA
ATOM      8  H   UNL     1      -4.520   9.397   7.824  1.00  0.00     0.164 HD
BRANCH   6   9
ATOM      9  C   UNL     1      -3.354   7.524   8.955  1.00  0.00     0.219 C 
BRANCH   9  10
ATOM     10  O   UNL     1      -4.699   7.616   9.440  1.00  0.00    -0.382 OA
ATOM     11  H   UNL     1      -4.850   8.583   9.521  1.00  0.00     0.211 HD
ENDBRANCH   9  10
BRANCH   9  12
ATOM     12  C   UNL     1      -3.270   6.561   7.742  1.00  0.00     0.089 C 
BRANCH  12  13
ATOM     13  N   UNL     1      -2.553   7.252   6.646  1.00  0.00    -0.325 NA
ATOM     14  H   UNL     1      -2.287   6.568   5.935  1.00  0.00     0.119 HD
ATOM     15  H   UNL     1      -1.670   7.619   7.007  1.00  0.00     0.119 HD
ENDBRANCH  12  13
BRANCH  12  16
ATOM     16  C   UNL     1      -2.622   5.183   8.015  1.00  0.00     0.022 C 
BRANCH  16  17
ATOM     17  C   UNL     1      -3.369   4.166   8.890  1.00  0.00     0.002 C 
BRANCH  17  18
ATOM     18  C   UNL     1      -2.476   3.167   9.623  1.00  0.00     0.000 C 
BRANCH  18  19
ATOM     19  C   UNL     1      -2.378   3.410  11.135  1.00  0.00    -0.000 C 
BRANCH  19  20
ATOM     20  C   UNL     1      -2.779   2.220  12.011  1.00  0.00    -0.000 C 
BRANCH  20  21
ATOM     21  C   UNL     1      -3.084   2.617  13.458  1.00  0.00    -0.003 C 
ATOM     22  C   UNL     1      -4.579   2.595  13.736  1.00  0.00     0.004 C 
ENDBRANCH  20  21
ENDBRANCH  19  20
ENDBRANCH  18  19
ENDBRANCH  17  18
ENDBRANCH  16  17
ENDBRANCH  12  16
ENDBRANCH   9  12
ENDBRANCH   6   9
ENDBRANCH   3   5
ENDBRANCH   2   3
BRANCH   2  23
ATOM     23  N   UNL     1      -4.077  12.235  10.039  1.00  0.00    -0.332 N 
ATOM     24  C   UNL     1      -5.071  13.290   9.916  1.00  0.00     0.147 C 
BRANCH  23  25
ATOM     25  C   UNL     1      -4.304  11.288  11.165  1.00  0.00     0.174 C 
BRANCH  25  26
ATOM     26  C   UNL     1      -5.606  11.582  11.946  1.00  0.00     0.038 C 
BRANCH  26  27
ATOM     27  C   UNL     1      -5.975  10.606  13.085  1.00  0.00    -0.015 C 
ATOM     28  C   UNL     1      -7.216  11.052  13.858  1.00  0.00     0.007 C 
ATOM     29  C   UNL     1      -6.122   9.159  12.622  1.00  0.00     0.007 C 
ENDBRANCH  26  27
ENDBRANCH  25  26
BRANCH  25  30
ATOM     30  C   UNL     1      -3.045  11.215  12.061  1.00  0.00     0.243 C 
ATOM     31  O   UNL     1      -2.767  12.103  12.864  1.00  0.00    -0.273 OA
ATOM     32  N   UNL     1      -2.263  10.101  11.894  1.00  0.00    -0.342 N 
ATOM     33  H   UNL     1      -2.633   9.345  11.313  1.00  0.00     0.164 HD
BRANCH  32  34
ATOM     34  C   UNL     1      -1.020   9.876  12.636  1.00  0.00     0.175 C 
BRANCH  34  35
ATOM     35  C   UNL     1      -0.822   8.387  12.958  1.00  0.00     0.070 C 
BRANCH  35  36
ATOM     36  C   UNL     1      -2.092   7.719  13.435  1.00  0.00    -0.045 A 
ATOM     37  C   UNL     1      -2.607   8.017  14.706  1.00  0.00     0.007 A 
ATOM     38  C   UNL     1      -2.756   6.781  12.634  1.00  0.00     0.007 A 
ATOM     39  C   UNL     1      -3.770   7.395  15.160  1.00  0.00     0.046 A 
ATOM     40  C   UNL     1      -3.920   6.157  13.089  1.00  0.00     0.046 A 
ATOM     41  C   UNL     1      -4.418   6.471  14.349  1.00  0.00     0.115 A 
BRANCH  41  42
ATOM     42  O   UNL     1      -5.549   5.884  14.832  1.00  0.00    -0.508 OA
ATOM     43  H   UNL     1      -5.428   5.724  15.783  1.00  0.00     0.293 HD
ENDBRANCH  41  42
ENDBRANCH  35  36
ENDBRANCH  34  35
BRANCH  34  44
ATOM     44  C   UNL     1       0.148  10.446  11.799  1.00  0.00     0.243 C 
ATOM     45  O   UNL     1       0.396  11.642  11.679  1.00  0.00    -0.273 OA
ATOM     46  N   UNL     1       0.825   9.486  11.078  1.00  0.00    -0.341 N 
ATOM     47  H   UNL     1       0.507   8.521  11.120  1.00  0.00     0.164 HD
BRANCH  46  48
ATOM     48  C   UNL     1       1.925   9.794  10.161  1.00  0.00     0.196 C 
BRANCH  48  49
ATOM     49  C   UNL     1       1.582  10.989   9.256  1.00  0.00     0.072 C 
BRANCH  49  50
ATOM     50  C   UNL     1       1.488  10.606   7.797  1.00  0.00    -0.045 A 
ATOM     51  C   UNL     1       1.610   9.261   7.418  1.00  0.00     0.007 A 
ATOM     52  C   UNL     1       1.302  11.579   6.807  1.00  0.00     0.007 A 
ATOM     53  C   UNL     1       1.538   8.897   6.073  1.00  0.00     0.046 A 
ATOM     54  C   UNL     1       1.231  11.215   5.460  1.00  0.00     0.046 A 
ATOM     55  C   UNL     1       1.349   9.876   5.105  1.00  0.00     0.115 A 
BRANCH  55  56
ATOM     56  O   UNL     1       1.286   9.479   3.802  1.00  0.00    -0.508 OA
ATOM     57  H   UNL     1       0.369   9.568   3.499  1.00  0.00     0.293 HD
ENDBRANCH  55  56
ENDBRANCH  49  50
ENDBRANCH  48  49
BRANCH  48  58
ATOM     58  C   UNL     1       3.184  10.113  10.980  1.00  0.00     0.326 C 
ATOM     59  O   UNL     1       4.059   9.335  11.322  1.00  0.00    -0.250 OA
BRANCH  58  60
ATOM     60  O   UNL     1       3.289  11.421  11.323  1.00  0.00    -0.480 OA
ATOM     61  H   UNL     1       3.624  11.387  12.245  1.00  0.00     0.296 HD
ENDBRANCH  58  60
ENDBRANCH  48  58
ENDBRANCH  46  48
ENDBRANCH  34  44
ENDBRANCH  32  34
ENDBRANCH  25  30
ENDBRANCH  23  25
ENDBRANCH   2  23
TORSDOF 28
ENDMDL
MODEL 5
REMARK VINA RESULT:    -6.073      2.286      5.101
REMARK INTER + INTRA:         -21.578
REMARK INTER:                 -16.057
REMARK INTRA:                  -5.521
REMARK UNBOUND:                -6.451
REMARK SMILES CCCCCCC[C@H](N)[C@H](O)C(=O)N[C@H](C)C(=O)N(C)[C@H](CC(C)C)C(=O)N[C@@H](Cc1ccc(O)cc1)C(=O)N[C@@H](Cc1ccc(O)cc1)C(=O)O
REMARK SMILES IDX 18 1 17 2 15 3 16 4 14 5 12 6 13 7 10 9 11 10 8 12 9 13 7 16
REMARK SMILES IDX 6 17 5 18 4 19 3 20 2 21 1 22 19 23 20 24 21 25 22 26 23 27
REMARK SMILES IDX 24 28 25 29 26 30 27 31 28 32 29 34 30 35 31 36 32 37 37 38
REMARK SMILES IDX 33 39 36 40 34 41 35 42 38 44 39 45 40 46 41 48 42 49 43 50
REMARK SMILES IDX 44 51 49 52 45 53 48 54 46 55 47 56 50 58 51 59 52 60
REMARK H PARENT 14 8 11 11 9 14 9 15 28 33 35 43 40 47 47 57 52 61
ROOT
ATOM      1  O   UNL     1      -2.697  12.779  12.089  1.00  0.00    -0.272 OA
ATOM      2  C   UNL     1      -3.325  11.740  11.837  1.00  0.00     0.245 C 
ENDROOT
BRANCH   2   3
ATOM      3  C   UNL     1      -4.204  11.696  10.562  1.00  0.00     0.168 C 
ATOM      4  C   UNL     1      -5.309  12.745  10.630  1.00  0.00     0.041 C 
BRANCH   3   5
ATOM      5  N   UNL     1      -3.468  11.765   9.310  1.00  0.00    -0.342 N 
ATOM      6  C   UNL     1      -2.931  10.641   8.718  1.00  0.00     0.251 C 
ATOM      7  O   UNL     1      -2.994   9.520   9.214  1.00  0.00    -0.272 OA
ATOM      8  H   UNL     1      -3.320  12.645   8.822  1.00  0.00     0.164 HD
BRANCH   6   9
ATOM      9  C   UNL     1      -2.324  10.929   7.336  1.00  0.00     0.219 C 
BRANCH   9  10
ATOM     10  O   UNL     1      -3.318  11.206   6.342  1.00  0.00    -0.382 OA
ATOM     11  H   UNL     1      -2.839  11.078   5.494  1.00  0.00     0.211 HD
ENDBRANCH   9  10
BRANCH   9  12
ATOM     12  C   UNL     1      -1.248  12.045   7.365  1.00  0.00     0.089 C 
BRANCH  12  13
ATOM     13  N   UNL     1      -1.907  13.321   7.727  1.00  0.00    -0.325 NA
ATOM     14  H   UNL     1      -2.189  13.807   6.874  1.00  0.00     0.119 HD
ATOM     15  H   UNL     1      -1.219  13.935   8.170  1.00  0.00     0.119 HD
ENDBRANCH  12  13
BRANCH  12  16
ATOM     16  C   UNL     1      -0.033  11.793   8.290  1.00  0.00     0.022 C 
BRANCH  16  17
ATOM     17  C   UNL     1       0.061  12.549   9.622  1.00  0.00     0.002 C 
BRANCH  17  18
ATOM     18  C   UNL     1       0.405  11.684  10.832  1.00  0.00     0.000 C 
BRANCH  18  19
ATOM     19  C   UNL     1       0.430  10.178  10.536  1.00  0.00    -0.000 C 
BRANCH  19  20
ATOM     20  C   UNL     1       1.817   9.531  10.578  1.00  0.00    -0.000 C 
BRANCH  20  21
ATOM     21  C   UNL     1       2.937  10.531  10.878  1.00  0.00    -0.003 C 
ATOM     22  C   UNL     1       4.177   9.831  11.413  1.00  0.00     0.004 C 
ENDBRANCH  20  21
ENDBRANCH  19  20
ENDBRANCH  18  19
ENDBRANCH  17  18
ENDBRANCH  16  17
ENDBRANCH  12  16
ENDBRANCH   9  12
ENDBRANCH   6   9
ENDBRANCH   3   5
ENDBRANCH   2   3
BRANCH   2  23
ATOM     23  N   UNL     1      -3.139  10.607  12.622  1.00  0.00    -0.332 N 
ATOM     24  C   UNL     1      -1.945  10.334  13.408  1.00  0.00     0.147 C 
BRANCH  23  25
ATOM     25  C   UNL     1      -4.249   9.632  12.808  1.00  0.00     0.174 C 
BRANCH  25  26
ATOM     26  C   UNL     1      -5.126   9.947  14.043  1.00  0.00     0.038 C 
BRANCH  26  27
ATOM     27  C   UNL     1      -6.654   9.786  13.876  1.00  0.00    -0.015 C 
ATOM     28  C   UNL     1      -7.100   9.921  12.421  1.00  0.00     0.007 C 
ATOM     29  C   UNL     1      -7.199   8.497  14.487  1.00  0.00     0.007 C 
ENDBRANCH  26  27
ENDBRANCH  25  26
BRANCH  25  30
ATOM     30  C   UNL     1      -3.697   8.188  12.789  1.00  0.00     0.243 C 
ATOM     31  O   UNL     1      -3.629   7.505  13.810  1.00  0.00    -0.273 OA
ATOM     32  N   UNL     1      -3.286   7.726  11.566  1.00  0.00    -0.342 N 
ATOM     33  H   UNL     1      -3.505   8.298  10.746  1.00  0.00     0.164 HD
BRANCH  32  34
ATOM     34  C   UNL     1      -2.711   6.394  11.364  1.00  0.00     0.175 C 
BRANCH  34  35
ATOM     35  C   UNL     1      -3.793   5.370  10.986  1.00  0.00     0.070 C 
BRANCH  35  36
ATOM     36  C   UNL     1      -3.878   4.220  11.964  1.00  0.00    -0.045 A 
ATOM     37  C   UNL     1      -4.765   3.160  11.726  1.00  0.00     0.007 A 
ATOM     38  C   UNL     1      -3.095   4.206  13.126  1.00  0.00     0.007 A 
ATOM     39  C   UNL     1      -4.860   2.101  12.629  1.00  0.00     0.046 A 
ATOM     40  C   UNL     1      -3.190   3.147  14.032  1.00  0.00     0.046 A 
ATOM     41  C   UNL     1      -4.072   2.102  13.774  1.00  0.00     0.115 A 
BRANCH  41  42
ATOM     42  O   UNL     1      -4.197   1.051  14.633  1.00  0.00    -0.508 OA
ATOM     43  H   UNL     1      -4.942   0.502  14.336  1.00  0.00     0.293 HD
ENDBRANCH  41  42
ENDBRANCH  35  36
ENDBRANCH  34  35
BRANCH  34  44
ATOM     44  C   UNL     1      -1.617   6.504  10.278  1.00  0.00     0.243 C 
ATOM     45  O   UNL     1      -0.434   6.740  10.508  1.00  0.00    -0.273 OA
ATOM     46  N   UNL     1      -2.110   6.441   8.993  1.00  0.00    -0.341 N 
ATOM     47  H   UNL     1      -3.114   6.361   8.852  1.00  0.00     0.164 HD
BRANCH  46  48
ATOM     48  C   UNL     1      -1.273   6.589   7.800  1.00  0.00     0.196 C 
BRANCH  48  49
ATOM     49  C   UNL     1      -0.446   5.320   7.535  1.00  0.00     0.072 C 
BRANCH  49  50
ATOM     50  C   UNL     1       1.044   5.571   7.608  1.00  0.00    -0.045 A 
ATOM     51  C   UNL     1       1.935   4.488   7.622  1.00  0.00     0.007 A 
ATOM     52  C   UNL     1       1.552   6.874   7.685  1.00  0.00     0.007 A 
ATOM     53  C   UNL     1       3.310   4.707   7.702  1.00  0.00     0.046 A 
ATOM     54  C   UNL     1       2.929   7.093   7.767  1.00  0.00     0.046 A 
ATOM     55  C   UNL     1       3.797   6.007   7.774  1.00  0.00     0.115 A 
BRANCH  55  56
ATOM     56  O   UNL     1       5.147   6.178   7.853  1.00  0.00    -0.508 OA
ATOM     57  H   UNL     1       5.414   6.080   8.781  1.00  0.00     0.293 HD
ENDBRANCH  55  56
ENDBRANCH  49  50
ENDBRANCH  48  49
BRANCH  48  58
ATOM     58  C   UNL     1      -2.174   6.878   6.591  1.00  0.00     0.326 C 
ATOM     59  O   UNL     1      -3.149   7.610   6.554  1.00  0.00    -0.250 OA
BRANCH  58  60
ATOM     60  O   UNL     1      -1.788   6.231   5.462  1.00  0.00    -0.480 OA
ATOM     61  H   UNL     1      -0.954   5.788   5.729  1.00  0.00     0.296 HD
ENDBRANCH  58  60
ENDBRANCH  48  58
ENDBRANCH  46  48
ENDBRANCH  34  44
ENDBRANCH  32  34
ENDBRANCH  25  30
ENDBRANCH  23  25
ENDBRANCH   2  23
TORSDOF 28
ENDMDL
MODEL 6
REMARK VINA RESULT:    -6.058      3.078      8.514
REMARK INTER + INTRA:         -21.541
REMARK INTER:                 -16.961
REMARK INTRA:                  -4.580
REMARK UNBOUND:                -6.451
REMARK SMILES CCCCCCC[C@H](N)[C@H](O)C(=O)N[C@H](C)C(=O)N(C)[C@H](CC(C)C)C(=O)N[C@@H](Cc1ccc(O)cc1)C(=O)N[C@@H](Cc1ccc(O)cc1)C(=O)O
REMARK SMILES IDX 18 1 17 2 15 3 16 4 14 5 12 6 13 7 10 9 11 10 8 12 9 13 7 16
REMARK SMILES IDX 6 17 5 18 4 19 3 20 2 21 1 22 19 23 20 24 21 25 22 26 23 27
REMARK SMILES IDX 24 28 25 29 26 30 27 31 28 32 29 34 30 35 31 36 32 37 37 38
REMARK SMILES IDX 33 39 36 40 34 41 35 42 38 44 39 45 40 46 41 48 42 49 43 50
REMARK SMILES IDX 44 51 49 52 45 53 48 54 46 55 47 56 50 58 51 59 52 60
REMARK H PARENT 14 8 11 11 9 14 9 15 28 33 35 43 40 47 47 57 52 61
ROOT
ATOM      1  O   UNL     1       0.289  10.323   8.808  1.00  0.00    -0.272 OA
ATOM      2  C   UNL     1      -0.807  10.731   9.221  1.00  0.00     0.245 C 
ENDROOT
BRANCH   2   3
ATOM      3  C   UNL     1      -0.830  11.685  10.441  1.00  0.00     0.168 C 
ATOM      4  C   UNL     1      -0.095  12.983  10.128  1.00  0.00     0.041 C 
BRANCH   3   5
ATOM      5  N   UNL     1      -2.151  11.931  11.000  1.00  0.00    -0.342 N 
ATOM      6  C   UNL     1      -2.393  11.859  12.355  1.00  0.00     0.251 C 
ATOM      7  O   UNL     1      -1.540  11.545  13.179  1.00  0.00    -0.272 OA
ATOM      8  H   UNL     1      -2.946  12.165  10.411  1.00  0.00     0.164 HD
BRANCH   6   9
ATOM      9  C   UNL     1      -3.819  12.295  12.728  1.00  0.00     0.219 C 
BRANCH   9  10
ATOM     10  O   UNL     1      -4.588  12.700  11.590  1.00  0.00    -0.382 OA
ATOM     11  H   UNL     1      -3.908  12.885  10.905  1.00  0.00     0.211 HD
ENDBRANCH   9  10
BRANCH   9  12
ATOM     12  C   UNL     1      -4.583  11.232  13.560  1.00  0.00     0.089 C 
BRANCH  12  13
ATOM     13  N   UNL     1      -5.705  11.902  14.257  1.00  0.00    -0.325 NA
ATOM     14  H   UNL     1      -6.586  11.621  13.822  1.00  0.00     0.119 HD
ATOM     15  H   UNL     1      -5.639  12.910  14.098  1.00  0.00     0.119 HD
ENDBRANCH  12  13
BRANCH  12  16
ATOM     16  C   UNL     1      -5.102  10.003  12.775  1.00  0.00     0.022 C 
BRANCH  16  17
ATOM     17  C   UNL     1      -5.158   8.639  13.476  1.00  0.00     0.002 C 
BRANCH  17  18
ATOM     18  C   UNL     1      -4.751   8.653  14.948  1.00  0.00     0.000 C 
BRANCH  18  19
ATOM     19  C   UNL     1      -3.615   7.680  15.291  1.00  0.00    -0.000 C 
BRANCH  19  20
ATOM     20  C   UNL     1      -2.588   7.459  14.176  1.00  0.00    -0.000 C 
BRANCH  20  21
ATOM     21  C   UNL     1      -1.390   8.407  14.269  1.00  0.00    -0.003 C 
ATOM     22  C   UNL     1      -0.354   8.097  13.199  1.00  0.00     0.004 C 
ENDBRANCH  20  21
ENDBRANCH  19  20
ENDBRANCH  18  19
ENDBRANCH  17  18
ENDBRANCH  16  17
ENDBRANCH  12  16
ENDBRANCH   9  12
ENDBRANCH   6   9
ENDBRANCH   3   5
ENDBRANCH   2   3
BRANCH   2  23
ATOM     23  N   UNL     1      -1.971  10.430   8.521  1.00  0.00    -0.332 N 
ATOM     24  C   UNL     1      -2.551  11.271   7.484  1.00  0.00     0.147 C 
BRANCH  23  25
ATOM     25  C   UNL     1      -2.645   9.117   8.714  1.00  0.00     0.174 C 
BRANCH  25  26
ATOM     26  C   UNL     1      -2.182   8.385   9.995  1.00  0.00     0.038 C 
BRANCH  26  27
ATOM     27  C   UNL     1      -3.176   7.385  10.627  1.00  0.00    -0.015 C 
ATOM     28  C   UNL     1      -4.579   7.501  10.033  1.00  0.00     0.007 C 
ATOM     29  C   UNL     1      -2.692   5.938  10.584  1.00  0.00     0.007 C 
ENDBRANCH  26  27
ENDBRANCH  25  26
BRANCH  25  30
ATOM     30  C   UNL     1      -2.524   8.263   7.431  1.00  0.00     0.243 C 
ATOM     31  O   UNL     1      -3.354   8.328   6.526  1.00  0.00    -0.273 OA
ATOM     32  N   UNL     1      -1.437   7.429   7.374  1.00  0.00    -0.342 N 
ATOM     33  H   UNL     1      -0.720   7.535   8.097  1.00  0.00     0.164 HD
BRANCH  32  34
ATOM     34  C   UNL     1      -1.175   6.528   6.248  1.00  0.00     0.175 C 
BRANCH  34  35
ATOM     35  C   UNL     1       0.328   6.257   6.087  1.00  0.00     0.070 C 
BRANCH  35  36
ATOM     36  C   UNL     1       0.734   6.051   4.646  1.00  0.00    -0.045 A 
ATOM     37  C   UNL     1       2.035   5.626   4.337  1.00  0.00     0.007 A 
ATOM     38  C   UNL     1      -0.167   6.300   3.602  1.00  0.00     0.007 A 
ATOM     39  C   UNL     1       2.424   5.446   3.009  1.00  0.00     0.046 A 
ATOM     40  C   UNL     1       0.222   6.122   2.272  1.00  0.00     0.046 A 
ATOM     41  C   UNL     1       1.514   5.694   1.988  1.00  0.00     0.115 A 
BRANCH  41  42
ATOM     42  O   UNL     1       1.934   5.509   0.704  1.00  0.00    -0.508 OA
ATOM     43  H   UNL     1       1.170   5.619   0.114  1.00  0.00     0.293 HD
ENDBRANCH  41  42
ENDBRANCH  35  36
ENDBRANCH  34  35
BRANCH  34  44
ATOM     44  C   UNL     1      -1.976   5.227   6.481  1.00  0.00     0.243 C 
ATOM     45  O   UNL     1      -1.488   4.100   6.463  1.00  0.00    -0.273 OA
ATOM     46  N   UNL     1      -3.335   5.430   6.585  1.00  0.00    -0.341 N 
ATOM     47  H   UNL     1      -3.704   6.372   6.477  1.00  0.00     0.164 HD
BRANCH  46  48
ATOM     48  C   UNL     1      -4.303   4.342   6.740  1.00  0.00     0.196 C 
BRANCH  48  49
ATOM     49  C   UNL     1      -5.037   4.433   8.089  1.00  0.00     0.072 C 
BRANCH  49  50
ATOM     50  C   UNL     1      -4.743   3.255   8.991  1.00  0.00    -0.045 A 
ATOM     51  C   UNL     1      -3.750   2.332   8.635  1.00  0.00     0.007 A 
ATOM     52  C   UNL     1      -5.466   3.056  10.174  1.00  0.00     0.007 A 
ATOM     53  C   UNL     1      -3.479   1.235   9.453  1.00  0.00     0.046 A 
ATOM     54  C   UNL     1      -5.196   1.957  10.993  1.00  0.00     0.046 A 
ATOM     55  C   UNL     1      -4.204   1.055  10.625  1.00  0.00     0.115 A 
BRANCH  55  56
ATOM     56  O   UNL     1      -3.910  -0.031  11.395  1.00  0.00    -0.508 OA
ATOM     57  H   UNL     1      -3.982   0.227  12.328  1.00  0.00     0.293 HD
ENDBRANCH  55  56
ENDBRANCH  49  50
ENDBRANCH  48  49
BRANCH  48  58
ATOM     58  C   UNL     1      -5.322   4.412   5.594  1.00  0.00     0.326 C 
ATOM     59  O   UNL     1      -6.539   4.421   5.687  1.00  0.00    -0.250 OA
BRANCH  58  60
ATOM     60  O   UNL     1      -4.751   4.485   4.366  1.00  0.00    -0.480 OA
ATOM     61  H   UNL     1      -4.827   3.567   4.026  1.00  0.00     0.296 HD
ENDBRANCH  58  60
ENDBRANCH  48  58
ENDBRANCH  46  48
ENDBRANCH  34  44
ENDBRANCH  32  34
ENDBRANCH  25  30
ENDBRANCH  23  25
ENDBRANCH   2  23
TORSDOF 28
ENDMDL
MODEL 7
REMARK VINA RESULT:    -6.054      2.331      7.535
REMARK INTER + INTRA:         -21.530
REMARK INTER:                 -16.157
REMARK INTRA:                  -5.373
REMARK UNBOUND:                -6.451
REMARK SMILES CCCCCCC[C@H](N)[C@H](O)C(=O)N[C@H](C)C(=O)N(C)[C@H](CC(C)C)C(=O)N[C@@H](Cc1ccc(O)cc1)C(=O)N[C@@H](Cc1ccc(O)cc1)C(=O)O
REMARK SMILES IDX 18 1 17 2 15 3 16 4 14 5 12 6 13 7 10 9 11 10 8 12 9 13 7 16
REMARK SMILES IDX 6 17 5 18 4 19 3 20 2 21 1 22 19 23 20 24 21 25 22 26 23 27
REMARK SMILES IDX 24 28 25 29 26 30 27 31 28 32 29 34 30 35 31 36 32 37 37 38
REMARK SMILES IDX 33 39 36 40 34 41 35 42 38 44 39 45 40 46 41 48 42 49 43 50
REMARK SMILES IDX 44 51 49 52 45 53 48 54 46 55 47 56 50 58 51 59 52 60
REMARK H PARENT 14 8 11 11 9 14 9 15 28 33 35 43 40 47 47 57 52 61
ROOT
ATOM      1  O   UNL     1      -3.312  10.478   6.615  1.00  0.00    -0.272 OA
ATOM      2  C   UNL     1      -2.673  11.396   7.150  1.00  0.00     0.245 C 
ENDROOT
BRANCH   2   3
ATOM      3  C   UNL     1      -3.415  12.347   8.120  1.00  0.00     0.168 C 
ATOM      4  C   UNL     1      -4.550  13.073   7.405  1.00  0.00     0.041 C 
BRANCH   3   5
ATOM      5  N   UNL     1      -3.862  11.730   9.359  1.00  0.00    -0.342 N 
ATOM      6  C   UNL     1      -3.173  11.890  10.543  1.00  0.00     0.251 C 
ATOM      7  O   UNL     1      -2.124  12.520  10.635  1.00  0.00    -0.272 OA
ATOM      8  H   UNL     1      -4.700  11.155   9.400  1.00  0.00     0.164 HD
BRANCH   6   9
ATOM      9  C   UNL     1      -3.903  11.270  11.745  1.00  0.00     0.219 C 
BRANCH   9  10
ATOM     10  O   UNL     1      -4.817  12.181  12.366  1.00  0.00    -0.382 OA
ATOM     11  H   UNL     1      -4.396  13.059  12.232  1.00  0.00     0.211 HD
ENDBRANCH   9  10
BRANCH   9  12
ATOM     12  C   UNL     1      -4.607   9.930  11.404  1.00  0.00     0.089 C 
BRANCH  12  13
ATOM     13  N   UNL     1      -3.632   9.050  10.720  1.00  0.00    -0.325 NA
ATOM     14  H   UNL     1      -3.988   8.812   9.792  1.00  0.00     0.119 HD
ATOM     15  H   UNL     1      -3.580   8.161  11.222  1.00  0.00     0.119 HD
ENDBRANCH  12  13
BRANCH  12  16
ATOM     16  C   UNL     1      -5.254   9.183  12.595  1.00  0.00     0.022 C 
BRANCH  16  17
ATOM     17  C   UNL     1      -4.492   8.024  13.252  1.00  0.00     0.002 C 
BRANCH  17  18
ATOM     18  C   UNL     1      -3.687   8.403  14.493  1.00  0.00     0.000 C 
BRANCH  18  19
ATOM     19  C   UNL     1      -2.244   7.881  14.485  1.00  0.00    -0.000 C 
BRANCH  19  20
ATOM     20  C   UNL     1      -1.199   8.869  13.958  1.00  0.00    -0.000 C 
BRANCH  20  21
ATOM     21  C   UNL     1      -0.182   8.219  13.016  1.00  0.00    -0.003 C 
ATOM     22  C   UNL     1      -0.849   7.215  12.088  1.00  0.00     0.004 C 
ENDBRANCH  20  21
ENDBRANCH  19  20
ENDBRANCH  18  19
ENDBRANCH  17  18
ENDBRANCH  16  17
ENDBRANCH  12  16
ENDBRANCH   9  12
ENDBRANCH   6   9
ENDBRANCH   3   5
ENDBRANCH   2   3
BRANCH   2  23
ATOM     23  N   UNL     1      -1.296  11.482   6.970  1.00  0.00    -0.332 N 
ATOM     24  C   UNL     1      -0.636  12.440   6.095  1.00  0.00     0.147 C 
BRANCH  23  25
ATOM     25  C   UNL     1      -0.378  10.647   7.792  1.00  0.00     0.174 C 
BRANCH  25  26
ATOM     26  C   UNL     1       1.016  11.291   7.980  1.00  0.00     0.038 C 
BRANCH  26  27
ATOM     27  C   UNL     1       1.784  10.934   9.272  1.00  0.00    -0.015 C 
ATOM     28  C   UNL     1       0.850  10.667  10.452  1.00  0.00     0.007 C 
ATOM     29  C   UNL     1       2.768   9.781   9.094  1.00  0.00     0.007 C 
ENDBRANCH  26  27
ENDBRANCH  25  26
BRANCH  25  30
ATOM     30  C   UNL     1      -0.326   9.206   7.234  1.00  0.00     0.243 C 
ATOM     31  O   UNL     1       0.271   8.933   6.194  1.00  0.00    -0.273 OA
ATOM     32  N   UNL     1      -0.992   8.260   7.971  1.00  0.00    -0.342 N 
ATOM     33  H   UNL     1      -1.341   8.537   8.892  1.00  0.00     0.164 HD
BRANCH  32  34
ATOM     34  C   UNL     1      -1.072   6.850   7.580  1.00  0.00     0.175 C 
BRANCH  34  35
ATOM     35  C   UNL     1      -0.456   5.938   8.651  1.00  0.00     0.070 C 
BRANCH  35  36
ATOM     36  C   UNL     1       0.915   5.428   8.267  1.00  0.00    -0.045 A 
ATOM     37  C   UNL     1       1.901   6.327   7.832  1.00  0.00     0.007 A 
ATOM     38  C   UNL     1       1.214   4.060   8.317  1.00  0.00     0.007 A 
ATOM     39  C   UNL     1       3.164   5.865   7.462  1.00  0.00     0.046 A 
ATOM     40  C   UNL     1       2.478   3.597   7.945  1.00  0.00     0.046 A 
ATOM     41  C   UNL     1       3.443   4.505   7.522  1.00  0.00     0.115 A 
BRANCH  41  42
ATOM     42  O   UNL     1       4.689   4.094   7.149  1.00  0.00    -0.508 OA
ATOM     43  H   UNL     1       4.592   3.347   6.536  1.00  0.00     0.293 HD
ENDBRANCH  41  42
ENDBRANCH  35  36
ENDBRANCH  34  35
BRANCH  34  44
ATOM     44  C   UNL     1      -2.557   6.510   7.317  1.00  0.00     0.243 C 
ATOM     45  O   UNL     1      -3.463   7.339   7.282  1.00  0.00    -0.273 OA
ATOM     46  N   UNL     1      -2.806   5.156   7.250  1.00  0.00    -0.341 N 
ATOM     47  H   UNL     1      -2.040   4.504   7.402  1.00  0.00     0.164 HD
BRANCH  46  48
ATOM     48  C   UNL     1      -4.146   4.591   7.076  1.00  0.00     0.196 C 
BRANCH  48  49
ATOM     49  C   UNL     1      -5.039   4.880   8.295  1.00  0.00     0.072 C 
BRANCH  49  50
ATOM     50  C   UNL     1      -4.459   4.338   9.582  1.00  0.00    -0.045 A 
ATOM     51  C   UNL     1      -4.483   2.958   9.833  1.00  0.00     0.007 A 
ATOM     52  C   UNL     1      -3.913   5.196  10.544  1.00  0.00     0.007 A 
ATOM     53  C   UNL     1      -3.964   2.448  11.023  1.00  0.00     0.046 A 
ATOM     54  C   UNL     1      -3.394   4.686  11.736  1.00  0.00     0.046 A 
ATOM     55  C   UNL     1      -3.423   3.314  11.964  1.00  0.00     0.115 A 
BRANCH  55  56
ATOM     56  O   UNL     1      -2.927   2.776  13.115  1.00  0.00    -0.508 OA
ATOM     57  H   UNL     1      -3.603   2.193  13.496  1.00  0.00     0.293 HD
ENDBRANCH  55  56
ENDBRANCH  49  50
ENDBRANCH  48  49
BRANCH  48  58
ATOM     58  C   UNL     1      -4.783   5.195   5.817  1.00  0.00     0.326 C 
ATOM     59  O   UNL     1      -4.435   5.027   4.659  1.00  0.00    -0.250 OA
BRANCH  58  60
ATOM     60  O   UNL     1      -5.854   5.985   6.078  1.00  0.00    -0.480 OA
ATOM     61  H   UNL     1      -6.159   6.256   5.185  1.00  0.00     0.296 HD
ENDBRANCH  58  60
ENDBRANCH  48  58
ENDBRANCH  46  48
ENDBRANCH  34  44
ENDBRANCH  32  34
ENDBRANCH  25  30
ENDBRANCH  23  25
ENDBRANCH   2  23
TORSDOF 28
ENDMDL
MODEL 8
REMARK VINA RESULT:    -5.980      2.875      6.765
REMARK INTER + INTRA:         -21.346
REMARK INTER:                 -15.106
REMARK INTRA:                  -6.240
REMARK UNBOUND:                -6.451
REMARK SMILES CCCCCCC[C@H](N)[C@H](O)C(=O)N[C@H](C)C(=O)N(C)[C@H](CC(C)C)C(=O)N[C@@H](Cc1ccc(O)cc1)C(=O)N[C@@H](Cc1ccc(O)cc1)C(=O)O
REMARK SMILES IDX 18 1 17 2 15 3 16 4 14 5 12 6 13 7 10 9 11 10 8 12 9 13 7 16
REMARK SMILES IDX 6 17 5 18 4 19 3 20 2 21 1 22 19 23 20 24 21 25 22 26 23 27
REMARK SMILES IDX 24 28 25 29 26 30 27 31 28 32 29 34 30 35 31 36 32 37 37 38
REMARK SMILES IDX 33 39 36 40 34 41 35 42 38 44 39 45 40 46 41 48 42 49 43 50
REMARK SMILES IDX 44 51 49 52 45 53 48 54 46 55 47 56 50 58 51 59 52 60
REMARK H PARENT 14 8 11 11 9 14 9 15 28 33 35 43 40 47 47 57 52 61
ROOT
ATOM      1  O   UNL     1      -3.695   9.008  11.998  1.00  0.00    -0.272 OA
ATOM      2  C   UNL     1      -2.814   8.513  12.717  1.00  0.00     0.245 C 
ENDROOT
BRANCH   2   3
ATOM      3  C   UNL     1      -1.382   9.099  12.644  1.00  0.00     0.168 C 
ATOM      4  C   UNL     1      -0.338   7.995  12.770  1.00  0.00     0.041 C 
BRANCH   3   5
ATOM      5  N   UNL     1      -1.130   9.956  11.495  1.00  0.00    -0.342 N 
ATOM      6  C   UNL     1      -1.228  11.329  11.575  1.00  0.00     0.251 C 
ATOM      7  O   UNL     1      -1.569  11.924  12.592  1.00  0.00    -0.272 OA
ATOM      8  H   UNL     1      -0.873   9.574  10.588  1.00  0.00     0.164 HD
BRANCH   6   9
ATOM      9  C   UNL     1      -0.780  12.033  10.284  1.00  0.00     0.219 C 
BRANCH   9  10
ATOM     10  O   UNL     1      -1.514  13.236  10.028  1.00  0.00    -0.382 OA
ATOM     11  H   UNL     1      -2.031  13.372  10.853  1.00  0.00     0.211 HD
ENDBRANCH   9  10
BRANCH   9  12
ATOM     12  C   UNL     1       0.747  12.298  10.233  1.00  0.00     0.089 C 
BRANCH  12  13
ATOM     13  N   UNL     1       1.243  12.441  11.621  1.00  0.00    -0.325 NA
ATOM     14  H   UNL     1       0.613  13.053  12.142  1.00  0.00     0.119 HD
ATOM     15  H   UNL     1       2.139  12.933  11.603  1.00  0.00     0.119 HD
ENDBRANCH  12  13
BRANCH  12  16
ATOM     16  C   UNL     1       1.592  11.249   9.472  1.00  0.00     0.022 C 
BRANCH  16  17
ATOM     17  C   UNL     1       2.237  10.098  10.255  1.00  0.00     0.002 C 
BRANCH  17  18
ATOM     18  C   UNL     1       3.156   9.195   9.435  1.00  0.00     0.000 C 
BRANCH  18  19
ATOM     19  C   UNL     1       3.040   9.398   7.919  1.00  0.00    -0.000 C 
BRANCH  19  20
ATOM     20  C   UNL     1       3.196   8.127   7.079  1.00  0.00    -0.000 C 
BRANCH  20  21
ATOM     21  C   UNL     1       2.778   6.858   7.827  1.00  0.00    -0.003 C 
ATOM     22  C   UNL     1       3.803   5.748   7.653  1.00  0.00     0.004 C 
ENDBRANCH  20  21
ENDBRANCH  19  20
ENDBRANCH  18  19
ENDBRANCH  17  18
ENDBRANCH  16  17
ENDBRANCH  12  16
ENDBRANCH   9  12
ENDBRANCH   6   9
ENDBRANCH   3   5
ENDBRANCH   2   3
BRANCH   2  23
ATOM     23  N   UNL     1      -3.145   7.538  13.652  1.00  0.00    -0.332 N 
ATOM     24  C   UNL     1      -2.765   7.578  15.056  1.00  0.00     0.147 C 
BRANCH  23  25
ATOM     25  C   UNL     1      -4.051   6.417  13.279  1.00  0.00     0.174 C 
BRANCH  25  26
ATOM     26  C   UNL     1      -4.460   5.546  14.490  1.00  0.00     0.038 C 
BRANCH  26  27
ATOM     27  C   UNL     1      -5.001   4.131  14.184  1.00  0.00    -0.015 C 
ATOM     28  C   UNL     1      -4.059   3.028  14.665  1.00  0.00     0.007 C 
ATOM     29  C   UNL     1      -6.416   3.896  14.706  1.00  0.00     0.007 C 
ENDBRANCH  26  27
ENDBRANCH  25  26
BRANCH  25  30
ATOM     30  C   UNL     1      -3.445   5.610  12.109  1.00  0.00     0.243 C 
ATOM     31  O   UNL     1      -2.351   5.056  12.199  1.00  0.00    -0.273 OA
ATOM     32  N   UNL     1      -4.204   5.559  10.968  1.00  0.00    -0.342 N 
ATOM     33  H   UNL     1      -5.159   5.923  11.017  1.00  0.00     0.164 HD
BRANCH  32  34
ATOM     34  C   UNL     1      -3.776   4.863   9.751  1.00  0.00     0.175 C 
BRANCH  34  35
ATOM     35  C   UNL     1      -4.822   3.833   9.300  1.00  0.00     0.070 C 
BRANCH  35  36
ATOM     36  C   UNL     1      -5.055   2.748  10.327  1.00  0.00    -0.045 A 
ATOM     37  C   UNL     1      -4.015   1.871  10.670  1.00  0.00     0.007 A 
ATOM     38  C   UNL     1      -6.309   2.588  10.932  1.00  0.00     0.007 A 
ATOM     39  C   UNL     1      -4.224   0.858  11.607  1.00  0.00     0.046 A 
ATOM     40  C   UNL     1      -6.520   1.573  11.869  1.00  0.00     0.046 A 
ATOM     41  C   UNL     1      -5.474   0.718  12.199  1.00  0.00     0.115 A 
BRANCH  41  42
ATOM     42  O   UNL     1      -5.638  -0.286  13.107  1.00  0.00    -0.508 OA
ATOM     43  H   UNL     1      -4.866  -0.874  13.054  1.00  0.00     0.293 HD
ENDBRANCH  41  42
ENDBRANCH  35  36
ENDBRANCH  34  35
BRANCH  34  44
ATOM     44  C   UNL     1      -3.505   5.926   8.662  1.00  0.00     0.243 C 
ATOM     45  O   UNL     1      -4.380   6.491   8.011  1.00  0.00    -0.273 OA
ATOM     46  N   UNL     1      -2.166   6.098   8.384  1.00  0.00    -0.341 N 
ATOM     47  H   UNL     1      -1.483   5.520   8.868  1.00  0.00     0.164 HD
BRANCH  46  48
ATOM     48  C   UNL     1      -1.668   7.000   7.343  1.00  0.00     0.196 C 
BRANCH  48  49
ATOM     49  C   UNL     1      -0.779   8.104   7.938  1.00  0.00     0.072 C 
BRANCH  49  50
ATOM     50  C   UNL     1      -1.251   9.493   7.570  1.00  0.00    -0.045 A 
ATOM     51  C   UNL     1      -2.573   9.876   7.841  1.00  0.00     0.007 A 
ATOM     52  C   UNL     1      -0.393  10.403   6.941  1.00  0.00     0.007 A 
ATOM     53  C   UNL     1      -3.024  11.150   7.495  1.00  0.00     0.046 A 
ATOM     54  C   UNL     1      -0.845  11.678   6.593  1.00  0.00     0.046 A 
ATOM     55  C   UNL     1      -2.157  12.041   6.874  1.00  0.00     0.115 A 
BRANCH  55  56
ATOM     56  O   UNL     1      -2.638  13.275   6.550  1.00  0.00    -0.508 OA
ATOM     57  H   UNL     1      -1.901  13.906   6.572  1.00  0.00     0.293 HD
ENDBRANCH  55  56
ENDBRANCH  49  50
ENDBRANCH  48  49
BRANCH  48  58
ATOM     58  C   UNL     1      -0.863   6.186   6.320  1.00  0.00     0.326 C 
ATOM     59  O   UNL     1      -0.015   5.340   6.551  1.00  0.00    -0.250 OA
BRANCH  58  60
ATOM     60  O   UNL     1      -1.181   6.471   5.032  1.00  0.00    -0.480 OA
ATOM     61  H   UNL     1      -1.942   5.879   4.850  1.00  0.00     0.296 HD
ENDBRANCH  58  60
ENDBRANCH  48  58
ENDBRANCH  46  48
ENDBRANCH  34  44
ENDBRANCH  32  34
ENDBRANCH  25  30
ENDBRANCH  23  25
ENDBRANCH   2  23
TORSDOF 28
ENDMDL
MODEL 9
REMARK VINA RESULT:    -5.961      2.172      7.236
REMARK INTER + INTRA:         -21.298
REMARK INTER:                 -16.323
REMARK INTRA:                  -4.975
REMARK UNBOUND:                -6.451
REMARK SMILES CCCCCCC[C@H](N)[C@H](O)C(=O)N[C@H](C)C(=O)N(C)[C@H](CC(C)C)C(=O)N[C@@H](Cc1ccc(O)cc1)C(=O)N[C@@H](Cc1ccc(O)cc1)C(=O)O
REMARK SMILES IDX 18 1 17 2 15 3 16 4 14 5 12 6 13 7 10 9 11 10 8 12 9 13 7 16
REMARK SMILES IDX 6 17 5 18 4 19 3 20 2 21 1 22 19 23 20 24 21 25 22 26 23 27
REMARK SMILES IDX 24 28 25 29 26 30 27 31 28 32 29 34 30 35 31 36 32 37 37 38
REMARK SMILES IDX 33 39 36 40 34 41 35 42 38 44 39 45 40 46 41 48 42 49 43 50
REMARK SMILES IDX 44 51 49 52 45 53 48 54 46 55 47 56 50 58 51 59 52 60
REMARK H PARENT 14 8 11 11 9 14 9 15 28 33 35 43 40 47 47 57 52 61
ROOT
ATOM      1  O   UNL     1      -3.079  10.821   6.142  1.00  0.00    -0.272 OA
ATOM      2  C   UNL     1      -2.352  11.727   6.577  1.00  0.00     0.245 C 
ENDROOT
BRANCH   2   3
ATOM      3  C   UNL     1      -3.017  12.942   7.271  1.00  0.00     0.168 C 
ATOM      4  C   UNL     1      -4.526  12.931   7.052  1.00  0.00     0.041 C 
BRANCH   3   5
ATOM      5  N   UNL     1      -2.674  13.107   8.675  1.00  0.00    -0.342 N 
ATOM      6  C   UNL     1      -2.923  12.120   9.605  1.00  0.00     0.251 C 
ATOM      7  O   UNL     1      -3.480  11.061   9.336  1.00  0.00    -0.272 OA
ATOM      8  H   UNL     1      -2.239  13.957   9.024  1.00  0.00     0.164 HD
BRANCH   6   9
ATOM      9  C   UNL     1      -2.350  12.453  10.992  1.00  0.00     0.219 C 
BRANCH   9  10
ATOM     10  O   UNL     1      -1.249  13.368  10.930  1.00  0.00    -0.382 OA
ATOM     11  H   UNL     1      -0.900  13.372  11.849  1.00  0.00     0.211 HD
ENDBRANCH   9  10
BRANCH   9  12
ATOM     12  C   UNL     1      -3.426  12.953  11.992  1.00  0.00     0.089 C 
BRANCH  12  13
ATOM     13  N   UNL     1      -4.648  13.296  11.229  1.00  0.00    -0.325 NA
ATOM     14  H   UNL     1      -4.586  14.266  10.914  1.00  0.00     0.119 HD
ATOM     15  H   UNL     1      -5.451  13.272  11.863  1.00  0.00     0.119 HD
ENDBRANCH  12  13
BRANCH  12  16
ATOM     16  C   UNL     1      -3.775  11.988  13.150  1.00  0.00     0.022 C 
BRANCH  16  17
ATOM     17  C   UNL     1      -4.536  10.691  12.838  1.00  0.00     0.002 C 
BRANCH  17  18
ATOM     18  C   UNL     1      -3.656   9.507  12.445  1.00  0.00     0.000 C 
BRANCH  18  19
ATOM     19  C   UNL     1      -2.322   9.441  13.200  1.00  0.00    -0.000 C 
BRANCH  19  20
ATOM     20  C   UNL     1      -1.935   8.053  13.717  1.00  0.00    -0.000 C 
BRANCH  20  21
ATOM     21  C   UNL     1      -2.372   6.922  12.782  1.00  0.00    -0.003 C 
ATOM     22  C   UNL     1      -1.330   6.659  11.706  1.00  0.00     0.004 C 
ENDBRANCH  20  21
ENDBRANCH  19  20
ENDBRANCH  18  19
ENDBRANCH  17  18
ENDBRANCH  16  17
ENDBRANCH  12  16
ENDBRANCH   9  12
ENDBRANCH   6   9
ENDBRANCH   3   5
ENDBRANCH   2   3
BRANCH   2  23
ATOM     23  N   UNL     1      -0.969  11.585   6.545  1.00  0.00    -0.332 N 
ATOM     24  C   UNL     1      -0.085  12.301   5.637  1.00  0.00     0.147 C 
BRANCH  23  25
ATOM     25  C   UNL     1      -0.276  10.752   7.566  1.00  0.00     0.174 C 
BRANCH  25  26
ATOM     26  C   UNL     1       0.672  11.573   8.471  1.00  0.00     0.038 C 
BRANCH  26  27
ATOM     27  C   UNL     1       1.101  10.925   9.806  1.00  0.00    -0.015 C 
ATOM     28  C   UNL     1       0.066   9.933  10.334  1.00  0.00     0.007 C 
ATOM     29  C   UNL     1       2.484  10.280   9.751  1.00  0.00     0.007 C 
ENDBRANCH  26  27
ENDBRANCH  25  26
BRANCH  25  30
ATOM     30  C   UNL     1       0.405   9.539   6.891  1.00  0.00     0.243 C 
ATOM     31  O   UNL     1       1.335   9.675   6.098  1.00  0.00    -0.273 OA
ATOM     32  N   UNL     1      -0.101   8.310   7.230  1.00  0.00    -0.342 N 
ATOM     33  H   UNL     1      -0.775   8.271   7.999  1.00  0.00     0.164 HD
BRANCH  32  34
ATOM     34  C   UNL     1       0.402   7.054   6.668  1.00  0.00     0.175 C 
BRANCH  34  35
ATOM     35  C   UNL     1       0.980   6.144   7.762  1.00  0.00     0.070 C 
BRANCH  35  36
ATOM     36  C   UNL     1       2.490   6.068   7.724  1.00  0.00    -0.045 A 
ATOM     37  C   UNL     1       3.129   4.820   7.692  1.00  0.00     0.007 A 
ATOM     38  C   UNL     1       3.268   7.233   7.743  1.00  0.00     0.007 A 
ATOM     39  C   UNL     1       4.522   4.740   7.670  1.00  0.00     0.046 A 
ATOM     40  C   UNL     1       4.663   7.154   7.723  1.00  0.00     0.046 A 
ATOM     41  C   UNL     1       5.277   5.906   7.685  1.00  0.00     0.115 A 
BRANCH  41  42
ATOM     42  O   UNL     1       6.635   5.784   7.666  1.00  0.00    -0.508 OA
ATOM     43  H   UNL     1       6.991   6.435   7.038  1.00  0.00     0.293 HD
ENDBRANCH  41  42
ENDBRANCH  35  36
ENDBRANCH  34  35
BRANCH  34  44
ATOM     44  C   UNL     1      -0.756   6.374   5.903  1.00  0.00     0.243 C 
ATOM     45  O   UNL     1      -0.910   6.428   4.686  1.00  0.00    -0.273 OA
ATOM     46  N   UNL     1      -1.695   5.797   6.730  1.00  0.00    -0.341 N 
ATOM     47  H   UNL     1      -1.584   5.879   7.738  1.00  0.00     0.164 HD
BRANCH  46  48
ATOM     48  C   UNL     1      -2.915   5.152   6.238  1.00  0.00     0.196 C 
BRANCH  48  49
ATOM     49  C   UNL     1      -3.120   3.773   6.886  1.00  0.00     0.072 C 
BRANCH  49  50
ATOM     50  C   UNL     1      -1.951   3.356   7.749  1.00  0.00    -0.045 A 
ATOM     51  C   UNL     1      -1.939   3.679   9.114  1.00  0.00     0.007 A 
ATOM     52  C   UNL     1      -0.862   2.665   7.203  1.00  0.00     0.007 A 
ATOM     53  C   UNL     1      -0.860   3.311   9.917  1.00  0.00     0.046 A 
ATOM     54  C   UNL     1       0.220   2.298   8.007  1.00  0.00     0.046 A 
ATOM     55  C   UNL     1       0.210   2.624   9.359  1.00  0.00     0.115 A 
BRANCH  55  56
ATOM     56  O   UNL     1       1.246   2.284  10.178  1.00  0.00    -0.508 OA
ATOM     57  H   UNL     1       1.808   1.645   9.712  1.00  0.00     0.293 HD
ENDBRANCH  55  56
ENDBRANCH  49  50
ENDBRANCH  48  49
BRANCH  48  58
ATOM     58  C   UNL     1      -4.117   6.053   6.554  1.00  0.00     0.326 C 
ATOM     59  O   UNL     1      -4.997   6.407   5.786  1.00  0.00    -0.250 OA
BRANCH  58  60
ATOM     60  O   UNL     1      -4.164   6.460   7.848  1.00  0.00    -0.480 OA
ATOM     61  H   UNL     1      -3.235   6.714   8.038  1.00  0.00     0.296 HD
ENDBRANCH  58  60
ENDBRANCH  48  58
ENDBRANCH  46  48
ENDBRANCH  34  44
ENDBRANCH  32  34
ENDBRANCH  25  30
ENDBRANCH  23  25
ENDBRANCH   2  23
TORSDOF 28
ENDMDL
MODEL 10
REMARK VINA RESULT:    -5.937      2.164      5.072
REMARK INTER + INTRA:         -21.238
REMARK INTER:                 -15.094
REMARK INTRA:                  -6.145
REMARK UNBOUND:                -6.451
REMARK SMILES CCCCCCC[C@H](N)[C@H](O)C(=O)N[C@H](C)C(=O)N(C)[C@H](CC(C)C)C(=O)N[C@@H](Cc1ccc(O)cc1)C(=O)N[C@@H](Cc1ccc(O)cc1)C(=O)O
REMARK SMILES IDX 18 1 17 2 15 3 16 4 14 5 12 6 13 7 10 9 11 10 8 12 9 13 7 16
REMARK SMILES IDX 6 17 5 18 4 19 3 20 2 21 1 22 19 23 20 24 21 25 22 26 23 27
REMARK SMILES IDX 24 28 25 29 26 30 27 31 28 32 29 34 30 35 31 36 32 37 37 38
REMARK SMILES IDX 33 39 36 40 34 41 35 42 38 44 39 45 40 46 41 48 42 49 43 50
REMARK SMILES IDX 44 51 49 52 45 53 48 54 46 55 47 56 50 58 51 59 52 60
REMARK H PARENT 14 8 11 11 9 14 9 15 28 33 35 43 40 47 47 57 52 61
ROOT
ATOM      1  O   UNL     1      -2.310   7.985  11.082  1.00  0.00    -0.272 OA
ATOM      2  C   UNL     1      -2.888   7.554  12.091  1.00  0.00     0.245 C 
ENDROOT
BRANCH   2   3
ATOM      3  C   UNL     1      -3.315   6.065  12.121  1.00  0.00     0.168 C 
ATOM      4  C   UNL     1      -4.237   5.790  13.304  1.00  0.00     0.041 C 
BRANCH   3   5
ATOM      5  N   UNL     1      -3.871   5.564  10.873  1.00  0.00    -0.342 N 
ATOM      6  C   UNL     1      -3.359   4.448  10.246  1.00  0.00     0.251 C 
ATOM      7  O   UNL     1      -2.387   3.825  10.659  1.00  0.00    -0.272 OA
ATOM      8  H   UNL     1      -4.657   6.018  10.416  1.00  0.00     0.164 HD
BRANCH   6   9
ATOM      9  C   UNL     1      -4.189   4.020   9.025  1.00  0.00     0.219 C 
BRANCH   9  10
ATOM     10  O   UNL     1      -5.080   5.048   8.574  1.00  0.00    -0.382 OA
ATOM     11  H   UNL     1      -4.819   5.184   7.637  1.00  0.00     0.211 HD
ENDBRANCH   9  10
BRANCH   9  12
ATOM     12  C   UNL     1      -3.321   3.491   7.853  1.00  0.00     0.089 C 
BRANCH  12  13
ATOM     13  N   UNL     1      -4.213   2.829   6.873  1.00  0.00    -0.325 NA
ATOM     14  H   UNL     1      -4.043   3.223   5.945  1.00  0.00     0.119 HD
ATOM     15  H   UNL     1      -5.182   3.070   7.092  1.00  0.00     0.119 HD
ENDBRANCH  12  13
BRANCH  12  16
ATOM     16  C   UNL     1      -2.432   4.538   7.141  1.00  0.00     0.022 C 
BRANCH  16  17
ATOM     17  C   UNL     1      -0.951   4.648   7.529  1.00  0.00     0.002 C 
BRANCH  17  18
ATOM     18  C   UNL     1      -0.052   5.277   6.467  1.00  0.00     0.000 C 
BRANCH  18  19
ATOM     19  C   UNL     1       1.379   4.722   6.452  1.00  0.00    -0.000 C 
BRANCH  19  20
ATOM     20  C   UNL     1       2.145   4.861   7.770  1.00  0.00    -0.000 C 
BRANCH  20  21
ATOM     21  C   UNL     1       3.326   5.830   7.679  1.00  0.00    -0.003 C 
ATOM     22  C   UNL     1       3.939   5.826   6.287  1.00  0.00     0.004 C 
ENDBRANCH  20  21
ENDBRANCH  19  20
ENDBRANCH  18  19
ENDBRANCH  17  18
ENDBRANCH  16  17
ENDBRANCH  12  16
ENDBRANCH   9  12
ENDBRANCH   6   9
ENDBRANCH   3   5
ENDBRANCH   2   3
BRANCH   2  23
ATOM     23  N   UNL     1      -3.031   8.366  13.211  1.00  0.00    -0.332 N 
ATOM     24  C   UNL     1      -2.127   8.369  14.351  1.00  0.00     0.147 C 
BRANCH  23  25
ATOM     25  C   UNL     1      -4.092   9.410  13.250  1.00  0.00     0.174 C 
BRANCH  25  26
ATOM     26  C   UNL     1      -5.435   8.927  12.655  1.00  0.00     0.038 C 
BRANCH  26  27
ATOM     27  C   UNL     1      -6.722   9.572  13.216  1.00  0.00    -0.015 C 
ATOM     28  C   UNL     1      -7.555  10.254  12.131  1.00  0.00     0.007 C 
ATOM     29  C   UNL     1      -7.583   8.605  14.025  1.00  0.00     0.007 C 
ENDBRANCH  26  27
ENDBRANCH  25  26
BRANCH  25  30
ATOM     30  C   UNL     1      -3.570  10.723  12.622  1.00  0.00     0.243 C 
ATOM     31  O   UNL     1      -3.539  11.778  13.254  1.00  0.00    -0.273 OA
ATOM     32  N   UNL     1      -3.152  10.632  11.320  1.00  0.00    -0.342 N 
ATOM     33  H   UNL     1      -3.075   9.697  10.911  1.00  0.00     0.164 HD
BRANCH  32  34
ATOM     34  C   UNL     1      -2.653  11.779  10.556  1.00  0.00     0.175 C 
BRANCH  34  35
ATOM     35  C   UNL     1      -1.384  12.365  11.194  1.00  0.00     0.070 C 
BRANCH  35  36
ATOM     36  C   UNL     1      -0.169  11.488  10.993  1.00  0.00    -0.045 A 
ATOM     37  C   UNL     1       0.840  11.880  10.100  1.00  0.00     0.007 A 
ATOM     38  C   UNL     1      -0.043  10.268  11.670  1.00  0.00     0.007 A 
ATOM     39  C   UNL     1       1.958  11.070   9.897  1.00  0.00     0.046 A 
ATOM     40  C   UNL     1       1.075   9.456  11.467  1.00  0.00     0.046 A 
ATOM     41  C   UNL     1       2.067   9.866  10.582  1.00  0.00     0.115 A 
BRANCH  41  42
ATOM     42  O   UNL     1       3.174   9.103  10.354  1.00  0.00    -0.508 OA
ATOM     43  H   UNL     1       3.225   8.920   9.401  1.00  0.00     0.293 HD
ENDBRANCH  41  42
ENDBRANCH  35  36
ENDBRANCH  34  35
BRANCH  34  44
ATOM     44  C   UNL     1      -2.407  11.316   9.102  1.00  0.00     0.243 C 
ATOM     45  O   UNL     1      -2.509  12.041   8.117  1.00  0.00    -0.273 OA
ATOM     46  N   UNL     1      -2.185   9.960   8.989  1.00  0.00    -0.341 N 
ATOM     47  H   UNL     1      -2.226   9.381   9.824  1.00  0.00     0.164 HD
BRANCH  46  48
ATOM     48  C   UNL     1      -1.995   9.279   7.706  1.00  0.00     0.196 C 
BRANCH  48  49
ATOM     49  C   UNL     1      -0.642   8.549   7.654  1.00  0.00     0.072 C 
BRANCH  49  50
ATOM     50  C   UNL     1       0.458   9.403   7.065  1.00  0.00    -0.045 A 
ATOM     51  C   UNL     1       0.156  10.669   6.543  1.00  0.00     0.007 A 
ATOM     52  C   UNL     1       1.779   8.941   7.012  1.00  0.00     0.007 A 
ATOM     53  C   UNL     1       1.161  11.461   5.986  1.00  0.00     0.046 A 
ATOM     54  C   UNL     1       2.784   9.732   6.452  1.00  0.00     0.046 A 
ATOM     55  C   UNL     1       2.466  10.987   5.945  1.00  0.00     0.115 A 
BRANCH  55  56
ATOM     56  O   UNL     1       3.418  11.790   5.389  1.00  0.00    -0.508 OA
ATOM     57  H   UNL     1       4.252  11.650   5.865  1.00  0.00     0.293 HD
ENDBRANCH  55  56
ENDBRANCH  49  50
ENDBRANCH  48  49
BRANCH  48  58
ATOM     58  C   UNL     1      -3.133   8.270   7.502  1.00  0.00     0.326 C 
ATOM     59  O   UNL     1      -3.519   7.794   6.447  1.00  0.00    -0.250 OA
BRANCH  58  60
ATOM     60  O   UNL     1      -3.732   7.889   8.659  1.00  0.00    -0.480 OA
ATOM     61  H   UNL     1      -3.955   6.946   8.498  1.00  0.00     0.296 HD
ENDBRANCH  58  60
ENDBRANCH  48  58
ENDBRANCH  46  48
ENDBRANCH  34  44
ENDBRANCH  32  34
ENDBRANCH  25  30
ENDBRANCH  23  25
ENDBRANCH   2  23
TORSDOF 28
ENDMDL
MODEL 11
REMARK VINA RESULT:    -5.862      2.137      7.699
REMARK INTER + INTRA:         -21.051
REMARK INTER:                 -15.582
REMARK INTRA:                  -5.469
REMARK UNBOUND:                -6.451
REMARK SMILES CCCCCCC[C@H](N)[C@H](O)C(=O)N[C@H](C)C(=O)N(C)[C@H](CC(C)C)C(=O)N[C@@H](Cc1ccc(O)cc1)C(=O)N[C@@H](Cc1ccc(O)cc1)C(=O)O
REMARK SMILES IDX 18 1 17 2 15 3 16 4 14 5 12 6 13 7 10 9 11 10 8 12 9 13 7 16
REMARK SMILES IDX 6 17 5 18 4 19 3 20 2 21 1 22 19 23 20 24 21 25 22 26 23 27
REMARK SMILES IDX 24 28 25 29 26 30 27 31 28 32 29 34 30 35 31 36 32 37 37 38
REMARK SMILES IDX 33 39 36 40 34 41 35 42 38 44 39 45 40 46 41 48 42 49 43 50
REMARK SMILES IDX 44 51 49 52 45 53 48 54 46 55 47 56 50 58 51 59 52 60
REMARK H PARENT 14 8 11 11 9 14 9 15 28 33 35 43 40 47 47 57 52 61
ROOT
ATOM      1  O   UNL     1      -3.098  10.405   6.822  1.00  0.00    -0.272 OA
ATOM      2  C   UNL     1      -2.498  11.216   7.543  1.00  0.00     0.245 C 
ENDROOT
BRANCH   2   3
ATOM      3  C   UNL     1      -3.300  11.980   8.625  1.00  0.00     0.168 C 
ATOM      4  C   UNL     1      -4.305  12.931   7.984  1.00  0.00     0.041 C 
BRANCH   3   5
ATOM      5  N   UNL     1      -3.921  11.137   9.635  1.00  0.00    -0.342 N 
ATOM      6  C   UNL     1      -4.032  11.539  10.950  1.00  0.00     0.251 C 
ATOM      7  O   UNL     1      -3.588  12.601  11.373  1.00  0.00    -0.272 OA
ATOM      8  H   UNL     1      -4.295  10.219   9.411  1.00  0.00     0.164 HD
BRANCH   6   9
ATOM      9  C   UNL     1      -4.846  10.554  11.805  1.00  0.00     0.219 C 
BRANCH   9  10
ATOM     10  O   UNL     1      -4.600   9.186  11.457  1.00  0.00    -0.382 OA
ATOM     11  H   UNL     1      -4.621   9.190  10.475  1.00  0.00     0.211 HD
ENDBRANCH   9  10
BRANCH   9  12
ATOM     12  C   UNL     1      -4.664  10.776  13.329  1.00  0.00     0.089 C 
BRANCH  12  13
ATOM     13  N   UNL     1      -5.144  12.136  13.664  1.00  0.00    -0.325 NA
ATOM     14  H   UNL     1      -6.161  12.166  13.570  1.00  0.00     0.119 HD
ATOM     15  H   UNL     1      -4.792  12.793  12.964  1.00  0.00     0.119 HD
ENDBRANCH  12  13
BRANCH  12  16
ATOM     16  C   UNL     1      -5.338   9.732  14.252  1.00  0.00     0.022 C 
BRANCH  16  17
ATOM     17  C   UNL     1      -4.831   8.284  14.236  1.00  0.00     0.002 C 
BRANCH  17  18
ATOM     18  C   UNL     1      -3.873   7.924  15.370  1.00  0.00     0.000 C 
BRANCH  18  19
ATOM     19  C   UNL     1      -2.445   7.607  14.905  1.00  0.00    -0.000 C 
BRANCH  19  20
ATOM     20  C   UNL     1      -1.867   8.579  13.872  1.00  0.00    -0.000 C 
BRANCH  20  21
ATOM     21  C   UNL     1      -0.625   8.032  13.163  1.00  0.00    -0.003 C 
ATOM     22  C   UNL     1      -0.896   7.773  11.690  1.00  0.00     0.004 C 
ENDBRANCH  20  21
ENDBRANCH  19  20
ENDBRANCH  18  19
ENDBRANCH  17  18
ENDBRANCH  16  17
ENDBRANCH  12  16
ENDBRANCH   9  12
ENDBRANCH   6   9
ENDBRANCH   3   5
ENDBRANCH   2   3
BRANCH   2  23
ATOM     23  N   UNL     1      -1.115  11.336   7.454  1.00  0.00    -0.332 N 
ATOM     24  C   UNL     1      -0.422  12.411   6.759  1.00  0.00     0.147 C 
BRANCH  23  25
ATOM     25  C   UNL     1      -0.230  10.401   8.202  1.00  0.00     0.174 C 
BRANCH  25  26
ATOM     26  C   UNL     1       1.033  11.091   8.769  1.00  0.00     0.038 C 
BRANCH  26  27
ATOM     27  C   UNL     1       1.167  11.153  10.307  1.00  0.00    -0.015 C 
ATOM     28  C   UNL     1      -0.180  11.345  11.003  1.00  0.00     0.007 C 
ATOM     29  C   UNL     1       1.913   9.961  10.900  1.00  0.00     0.007 C 
ENDBRANCH  26  27
ENDBRANCH  25  26
BRANCH  25  30
ATOM     30  C   UNL     1       0.076   9.154   7.342  1.00  0.00     0.243 C 
ATOM     31  O   UNL     1       0.216   9.225   6.122  1.00  0.00    -0.273 OA
ATOM     32  N   UNL     1       0.174   7.970   8.026  1.00  0.00    -0.342 N 
ATOM     33  H   UNL     1       0.186   8.014   9.049  1.00  0.00     0.164 HD
BRANCH  32  34
ATOM     34  C   UNL     1       0.432   6.685   7.372  1.00  0.00     0.175 C 
BRANCH  34  35
ATOM     35  C   UNL     1       1.737   6.051   7.880  1.00  0.00     0.070 C 
BRANCH  35  36
ATOM     36  C   UNL     1       2.961   6.859   7.512  1.00  0.00    -0.045 A 
ATOM     37  C   UNL     1       3.422   7.866   8.374  1.00  0.00     0.007 A 
ATOM     38  C   UNL     1       3.635   6.634   6.305  1.00  0.00     0.007 A 
ATOM     39  C   UNL     1       4.542   8.626   8.036  1.00  0.00     0.046 A 
ATOM     40  C   UNL     1       4.756   7.396   5.966  1.00  0.00     0.046 A 
ATOM     41  C   UNL     1       5.200   8.385   6.837  1.00  0.00     0.115 A 
BRANCH  41  42
ATOM     42  O   UNL     1       6.289   9.152   6.543  1.00  0.00    -0.508 OA
ATOM     43  H   UNL     1       6.952   9.019   7.241  1.00  0.00     0.293 HD
ENDBRANCH  41  42
ENDBRANCH  35  36
ENDBRANCH  34  35
BRANCH  34  44
ATOM     44  C   UNL     1      -0.788   5.769   7.618  1.00  0.00     0.243 C 
ATOM     45  O   UNL     1      -0.872   4.607   7.232  1.00  0.00    -0.273 OA
ATOM     46  N   UNL     1      -1.852   6.418   8.208  1.00  0.00    -0.341 N 
ATOM     47  H   UNL     1      -1.776   7.413   8.404  1.00  0.00     0.164 HD
BRANCH  46  48
ATOM     48  C   UNL     1      -3.140   5.775   8.478  1.00  0.00     0.196 C 
BRANCH  48  49
ATOM     49  C   UNL     1      -3.710   6.213   9.838  1.00  0.00     0.072 C 
BRANCH  49  50
ATOM     50  C   UNL     1      -3.462   5.194  10.927  1.00  0.00    -0.045 A 
ATOM     51  C   UNL     1      -2.911   3.946  10.605  1.00  0.00     0.007 A 
ATOM     52  C   UNL     1      -3.795   5.469  12.260  1.00  0.00     0.007 A 
ATOM     53  C   UNL     1      -2.690   2.993  11.600  1.00  0.00     0.046 A 
ATOM     54  C   UNL     1      -3.575   4.515  13.256  1.00  0.00     0.046 A 
ATOM     55  C   UNL     1      -3.023   3.285  12.917  1.00  0.00     0.115 A 
BRANCH  55  56
ATOM     56  O   UNL     1      -2.793   2.326  13.859  1.00  0.00    -0.508 OA
ATOM     57  H   UNL     1      -2.146   2.671  14.495  1.00  0.00     0.293 HD
ENDBRANCH  55  56
ENDBRANCH  49  50
ENDBRANCH  48  49
BRANCH  48  58
ATOM     58  C   UNL     1      -4.126   6.146   7.362  1.00  0.00     0.326 C 
ATOM     59  O   UNL     1      -3.926   6.889   6.416  1.00  0.00    -0.250 OA
BRANCH  58  60
ATOM     60  O   UNL     1      -5.335   5.541   7.485  1.00  0.00    -0.480 OA
ATOM     61  H   UNL     1      -5.138   4.752   8.035  1.00  0.00     0.296 HD
ENDBRANCH  58  60
ENDBRANCH  48  58
ENDBRANCH  46  48
ENDBRANCH  34  44
ENDBRANCH  32  34
ENDBRANCH  25  30
ENDBRANCH  23  25
ENDBRANCH   2  23
TORSDOF 28
ENDMDL
MODEL 12
REMARK VINA RESULT:    -5.843      2.213      7.812
REMARK INTER + INTRA:         -21.006
REMARK INTER:                 -16.119
REMARK INTRA:                  -4.886
REMARK UNBOUND:                -6.451
REMARK SMILES CCCCCCC[C@H](N)[C@H](O)C(=O)N[C@H](C)C(=O)N(C)[C@H](CC(C)C)C(=O)N[C@@H](Cc1ccc(O)cc1)C(=O)N[C@@H](Cc1ccc(O)cc1)C(=O)O
REMARK SMILES IDX 18 1 17 2 15 3 16 4 14 5 12 6 13 7 10 9 11 10 8 12 9 13 7 16
REMARK SMILES IDX 6 17 5 18 4 19 3 20 2 21 1 22 19 23 20 24 21 25 22 26 23 27
REMARK SMILES IDX 24 28 25 29 26 30 27 31 28 32 29 34 30 35 31 36 32 37 37 38
REMARK SMILES IDX 33 39 36 40 34 41 35 42 38 44 39 45 40 46 41 48 42 49 43 50
REMARK SMILES IDX 44 51 49 52 45 53 48 54 46 55 47 56 50 58 51 59 52 60
REMARK H PARENT 14 8 11 11 9 14 9 15 28 33 35 43 40 47 47 57 52 61
ROOT
ATOM      1  O   UNL     1       1.285  11.351   8.375  1.00  0.00    -0.272 OA
ATOM      2  C   UNL     1       2.052  10.674   9.075  1.00  0.00     0.245 C 
ENDROOT
BRANCH   2   3
ATOM      3  C   UNL     1       2.195  11.029  10.576  1.00  0.00     0.168 C 
ATOM      4  C   UNL     1       1.702  12.447  10.846  1.00  0.00     0.041 C 
BRANCH   3   5
ATOM      5  N   UNL     1       1.603  10.066  11.491  1.00  0.00    -0.342 N 
ATOM      6  C   UNL     1       0.257   9.766  11.462  1.00  0.00     0.251 C 
ATOM      7  O   UNL     1      -0.541  10.310  10.705  1.00  0.00    -0.272 OA
ATOM      8  H   UNL     1       2.159   9.576  12.187  1.00  0.00     0.164 HD
BRANCH   6   9
ATOM      9  C   UNL     1      -0.117   8.622  12.417  1.00  0.00     0.219 C 
BRANCH   9  10
ATOM     10  O   UNL     1       1.029   7.931  12.929  1.00  0.00    -0.382 OA
ATOM     11  H   UNL     1       1.437   8.583  13.540  1.00  0.00     0.211 HD
ENDBRANCH   9  10
BRANCH   9  12
ATOM     12  C   UNL     1      -1.049   9.073  13.572  1.00  0.00     0.089 C 
BRANCH  12  13
ATOM     13  N   UNL     1      -1.316  10.521  13.419  1.00  0.00    -0.325 NA
ATOM     14  H   UNL     1      -0.586  11.050  13.899  1.00  0.00     0.119 HD
ATOM     15  H   UNL     1      -2.181  10.753  13.913  1.00  0.00     0.119 HD
ENDBRANCH  12  13
BRANCH  12  16
ATOM     16  C   UNL     1      -2.382   8.298  13.709  1.00  0.00     0.022 C 
BRANCH  16  17
ATOM     17  C   UNL     1      -2.732   7.647  15.054  1.00  0.00     0.002 C 
BRANCH  17  18
ATOM     18  C   UNL     1      -4.066   6.902  15.082  1.00  0.00     0.000 C 
BRANCH  18  19
ATOM     19  C   UNL     1      -3.954   5.409  14.749  1.00  0.00    -0.000 C 
BRANCH  19  20
ATOM     20  C   UNL     1      -4.192   5.051  13.279  1.00  0.00    -0.000 C 
BRANCH  20  21
ATOM     21  C   UNL     1      -2.925   4.570  12.566  1.00  0.00    -0.003 C 
ATOM     22  C   UNL     1      -2.973   3.074  12.300  1.00  0.00     0.004 C 
ENDBRANCH  20  21
ENDBRANCH  19  20
ENDBRANCH  18  19
ENDBRANCH  17  18
ENDBRANCH  16  17
ENDBRANCH  12  16
ENDBRANCH   9  12
ENDBRANCH   6   9
ENDBRANCH   3   5
ENDBRANCH   2   3
BRANCH   2  23
ATOM     23  N   UNL     1       2.670   9.548   8.540  1.00  0.00    -0.332 N 
ATOM     24  C   UNL     1       3.918   8.980   9.028  1.00  0.00     0.147 C 
BRANCH  23  25
ATOM     25  C   UNL     1       1.995   8.756   7.475  1.00  0.00     0.174 C 
BRANCH  25  26
ATOM     26  C   UNL     1       1.870   9.525   6.140  1.00  0.00     0.038 C 
BRANCH  26  27
ATOM     27  C   UNL     1       2.540   8.891   4.901  1.00  0.00    -0.015 C 
ATOM     28  C   UNL     1       3.214   7.557   5.220  1.00  0.00     0.007 C 
ATOM     29  C   UNL     1       1.599   8.745   3.708  1.00  0.00     0.007 C 
ENDBRANCH  26  27
ENDBRANCH  25  26
BRANCH  25  30
ATOM     30  C   UNL     1       0.652   8.197   7.999  1.00  0.00     0.243 C 
ATOM     31  O   UNL     1       0.602   7.365   8.904  1.00  0.00    -0.273 OA
ATOM     32  N   UNL     1      -0.473   8.684   7.384  1.00  0.00    -0.342 N 
ATOM     33  H   UNL     1      -0.359   9.473   6.743  1.00  0.00     0.164 HD
BRANCH  32  34
ATOM     34  C   UNL     1      -1.829   8.248   7.731  1.00  0.00     0.175 C 
BRANCH  34  35
ATOM     35  C   UNL     1      -1.850   7.504   9.075  1.00  0.00     0.070 C 
BRANCH  35  36
ATOM     36  C   UNL     1      -2.667   6.232   9.026  1.00  0.00    -0.045 A 
ATOM     37  C   UNL     1      -2.065   5.026   8.636  1.00  0.00     0.007 A 
ATOM     38  C   UNL     1      -4.031   6.242   9.345  1.00  0.00     0.007 A 
ATOM     39  C   UNL     1      -2.814   3.850   8.575  1.00  0.00     0.046 A 
ATOM     40  C   UNL     1      -4.782   5.066   9.282  1.00  0.00     0.046 A 
ATOM     41  C   UNL     1      -4.166   3.879   8.899  1.00  0.00     0.115 A 
BRANCH  41  42
ATOM     42  O   UNL     1      -4.862   2.710   8.823  1.00  0.00    -0.508 OA
ATOM     43  H   UNL     1      -5.669   2.801   9.357  1.00  0.00     0.293 HD
ENDBRANCH  41  42
ENDBRANCH  35  36
ENDBRANCH  34  35
BRANCH  34  44
ATOM     44  C   UNL     1      -2.743   9.494   7.747  1.00  0.00     0.243 C 
ATOM     45  O   UNL     1      -3.384   9.897   6.780  1.00  0.00    -0.273 OA
ATOM     46  N   UNL     1      -2.679  10.207   8.926  1.00  0.00    -0.341 N 
ATOM     47  H   UNL     1      -2.043   9.897   9.656  1.00  0.00     0.164 HD
BRANCH  46  48
ATOM     48  C   UNL     1      -3.404  11.459   9.151  1.00  0.00     0.196 C 
BRANCH  48  49
ATOM     49  C   UNL     1      -3.507  11.785  10.650  1.00  0.00     0.072 C 
BRANCH  49  50
ATOM     50  C   UNL     1      -4.659  11.072  11.322  1.00  0.00    -0.045 A 
ATOM     51  C   UNL     1      -4.573   9.697  11.583  1.00  0.00     0.007 A 
ATOM     52  C   UNL     1      -5.827  11.761  11.672  1.00  0.00     0.007 A 
ATOM     53  C   UNL     1      -5.634   9.026  12.191  1.00  0.00     0.046 A 
ATOM     54  C   UNL     1      -6.891  11.089  12.279  1.00  0.00     0.046 A 
ATOM     55  C   UNL     1      -6.784   9.726  12.534  1.00  0.00     0.115 A 
BRANCH  55  56
ATOM     56  O   UNL     1      -7.800   9.033  13.124  1.00  0.00    -0.508 OA
ATOM     57  H   UNL     1      -7.426   8.490  13.836  1.00  0.00     0.293 HD
ENDBRANCH  55  56
ENDBRANCH  49  50
ENDBRANCH  48  49
BRANCH  48  58
ATOM     58  C   UNL     1      -2.671  12.597   8.426  1.00  0.00     0.326 C 
ATOM     59  O   UNL     1      -3.128  13.352   7.583  1.00  0.00    -0.250 OA
BRANCH  58  60
ATOM     60  O   UNL     1      -1.379  12.743   8.815  1.00  0.00    -0.480 OA
ATOM     61  H   UNL     1      -0.959  11.905   8.524  1.00  0.00     0.296 HD
ENDBRANCH  58  60
ENDBRANCH  48  58
ENDBRANCH  46  48
ENDBRANCH  34  44
ENDBRANCH  32  34
ENDBRANCH  25  30
ENDBRANCH  23  25
ENDBRANCH   2  23
TORSDOF 28
ENDMDL
MODEL 13
REMARK VINA RESULT:    -5.840      3.017      6.093
REMARK INTER + INTRA:         -20.998
REMARK INTER:                 -13.829
REMARK INTRA:                  -7.169
REMARK UNBOUND:                -6.451
REMARK SMILES CCCCCCC[C@H](N)[C@H](O)C(=O)N[C@H](C)C(=O)N(C)[C@H](CC(C)C)C(=O)N[C@@H](Cc1ccc(O)cc1)C(=O)N[C@@H](Cc1ccc(O)cc1)C(=O)O
REMARK SMILES IDX 18 1 17 2 15 3 16 4 14 5 12 6 13 7 10 9 11 10 8 12 9 13 7 16
REMARK SMILES IDX 6 17 5 18 4 19 3 20 2 21 1 22 19 23 20 24 21 25 22 26 23 27
REMARK SMILES IDX 24 28 25 29 26 30 27 31 28 32 29 34 30 35 31 36 32 37 37 38
REMARK SMILES IDX 33 39 36 40 34 41 35 42 38 44 39 45 40 46 41 48 42 49 43 50
REMARK SMILES IDX 44 51 49 52 45 53 48 54 46 55 47 56 50 58 51 59 52 60
REMARK H PARENT 14 8 11 11 9 14 9 15 28 33 35 43 40 47 47 57 52 61
ROOT
ATOM      1  O   UNL     1      -3.091  10.908   6.582  1.00  0.00    -0.272 OA
ATOM      2  C   UNL     1      -2.290  10.729   7.511  1.00  0.00     0.245 C 
ENDROOT
BRANCH   2   3
ATOM      3  C   UNL     1      -2.704   9.797   8.677  1.00  0.00     0.168 C 
ATOM      4  C   UNL     1      -3.593  10.535   9.671  1.00  0.00     0.041 C 
BRANCH   3   5
ATOM      5  N   UNL     1      -3.285   8.528   8.267  1.00  0.00    -0.342 N 
ATOM      6  C   UNL     1      -2.601   7.338   8.396  1.00  0.00     0.251 C 
ATOM      7  O   UNL     1      -1.452   7.261   8.819  1.00  0.00    -0.272 OA
ATOM      8  H   UNL     1      -4.220   8.470   7.870  1.00  0.00     0.164 HD
BRANCH   6   9
ATOM      9  C   UNL     1      -3.460   6.116   8.035  1.00  0.00     0.219 C 
BRANCH   9  10
ATOM     10  O   UNL     1      -4.836   6.282   8.397  1.00  0.00    -0.382 OA
ATOM     11  H   UNL     1      -4.793   6.644   9.309  1.00  0.00     0.211 HD
ENDBRANCH   9  10
BRANCH   9  12
ATOM     12  C   UNL     1      -3.329   5.697   6.548  1.00  0.00     0.089 C 
BRANCH  12  13
ATOM     13  N   UNL     1      -2.263   6.515   5.924  1.00  0.00    -0.325 NA
ATOM     14  H   UNL     1      -2.481   6.652   4.935  1.00  0.00     0.119 HD
ATOM     15  H   UNL     1      -1.389   5.984   5.934  1.00  0.00     0.119 HD
ENDBRANCH  12  13
BRANCH  12  16
ATOM     16  C   UNL     1      -3.066   4.194   6.287  1.00  0.00     0.022 C 
BRANCH  16  17
ATOM     17  C   UNL     1      -2.553   3.315   7.437  1.00  0.00     0.002 C 
BRANCH  17  18
ATOM     18  C   UNL     1      -1.041   3.348   7.648  1.00  0.00     0.000 C 
BRANCH  18  19
ATOM     19  C   UNL     1      -0.613   3.919   9.006  1.00  0.00    -0.000 C 
BRANCH  19  20
ATOM     20  C   UNL     1       0.368   3.048   9.797  1.00  0.00    -0.000 C 
BRANCH  20  21
ATOM     21  C   UNL     1       0.710   1.735   9.088  1.00  0.00    -0.003 C 
ATOM     22  C   UNL     1       1.958   1.095   9.678  1.00  0.00     0.004 C 
ENDBRANCH  20  21
ENDBRANCH  19  20
ENDBRANCH  18  19
ENDBRANCH  17  18
ENDBRANCH  16  17
ENDBRANCH  12  16
ENDBRANCH   9  12
ENDBRANCH   6   9
ENDBRANCH   3   5
ENDBRANCH   2   3
BRANCH   2  23
ATOM     23  N   UNL     1      -1.006  11.260   7.435  1.00  0.00    -0.332 N 
ATOM     24  C   UNL     1      -0.604  12.320   6.523  1.00  0.00     0.147 C 
BRANCH  23  25
ATOM     25  C   UNL     1       0.038  10.841   8.410  1.00  0.00     0.174 C 
BRANCH  25  26
ATOM     26  C   UNL     1       0.587  12.020   9.248  1.00  0.00     0.038 C 
BRANCH  26  27
ATOM     27  C   UNL     1       0.745  11.786  10.767  1.00  0.00    -0.015 C 
ATOM     28  C   UNL     1       0.388  10.358  11.178  1.00  0.00     0.007 C 
ATOM     29  C   UNL     1       2.124  12.169  11.299  1.00  0.00     0.007 C 
ENDBRANCH  26  27
ENDBRANCH  25  26
BRANCH  25  30
ATOM     30  C   UNL     1       1.137  10.023   7.694  1.00  0.00     0.243 C 
ATOM     31  O   UNL     1       2.280  10.456   7.550  1.00  0.00    -0.273 OA
ATOM     32  N   UNL     1       0.752   8.793   7.228  1.00  0.00    -0.342 N 
ATOM     33  H   UNL     1      -0.169   8.447   7.509  1.00  0.00     0.164 HD
BRANCH  32  34
ATOM     34  C   UNL     1       1.652   7.893   6.501  1.00  0.00     0.175 C 
BRANCH  34  35
ATOM     35  C   UNL     1       1.490   6.440   6.974  1.00  0.00     0.070 C 
BRANCH  35  36
ATOM     36  C   UNL     1       2.807   5.794   7.341  1.00  0.00    -0.045 A 
ATOM     37  C   UNL     1       2.862   4.419   7.614  1.00  0.00     0.007 A 
ATOM     38  C   UNL     1       3.979   6.555   7.436  1.00  0.00     0.007 A 
ATOM     39  C   UNL     1       4.070   3.816   7.967  1.00  0.00     0.046 A 
ATOM     40  C   UNL     1       5.189   5.953   7.790  1.00  0.00     0.046 A 
ATOM     41  C   UNL     1       5.223   4.587   8.052  1.00  0.00     0.115 A 
BRANCH  41  42
ATOM     42  O   UNL     1       6.382   3.961   8.403  1.00  0.00    -0.508 OA
ATOM     43  H   UNL     1       6.271   3.591   9.294  1.00  0.00     0.293 HD
ENDBRANCH  41  42
ENDBRANCH  35  36
ENDBRANCH  34  35
BRANCH  34  44
ATOM     44  C   UNL     1       1.365   8.045   4.991  1.00  0.00     0.243 C 
ATOM     45  O   UNL     1       1.052   9.100   4.447  1.00  0.00    -0.273 OA
ATOM     46  N   UNL     1       1.362   6.846   4.309  1.00  0.00    -0.341 N 
ATOM     47  H   UNL     1       1.512   5.983   4.827  1.00  0.00     0.164 HD
BRANCH  46  48
ATOM     48  C   UNL     1       1.049   6.730   2.884  1.00  0.00     0.196 C 
BRANCH  48  49
ATOM     49  C   UNL     1       1.928   5.669   2.201  1.00  0.00     0.072 C 
BRANCH  49  50
ATOM     50  C   UNL     1       3.218   5.414   2.948  1.00  0.00    -0.045 A 
ATOM     51  C   UNL     1       4.241   6.373   2.924  1.00  0.00     0.007 A 
ATOM     52  C   UNL     1       3.419   4.220   3.652  1.00  0.00     0.007 A 
ATOM     53  C   UNL     1       5.440   6.144   3.598  1.00  0.00     0.046 A 
ATOM     54  C   UNL     1       4.621   3.990   4.326  1.00  0.00     0.046 A 
ATOM     55  C   UNL     1       5.621   4.955   4.294  1.00  0.00     0.115 A 
BRANCH  55  56
ATOM     56  O   UNL     1       6.808   4.769   4.939  1.00  0.00    -0.508 OA
ATOM     57  H   UNL     1       6.930   5.494   5.571  1.00  0.00     0.293 HD
ENDBRANCH  55  56
ENDBRANCH  49  50
ENDBRANCH  48  49
BRANCH  48  58
ATOM     58  C   UNL     1      -0.431   6.351   2.727  1.00  0.00     0.326 C 
ATOM     59  O   UNL     1      -1.113   5.700   3.501  1.00  0.00    -0.250 OA
BRANCH  58  60
ATOM     60  O   UNL     1      -0.995   6.831   1.590  1.00  0.00    -0.480 OA
ATOM     61  H   UNL     1      -0.610   6.261   0.889  1.00  0.00     0.296 HD
ENDBRANCH  58  60
ENDBRANCH  48  58
ENDBRANCH  46  48
ENDBRANCH  34  44
ENDBRANCH  32  34
ENDBRANCH  25  30
ENDBRANCH  23  25
ENDBRANCH   2  23
TORSDOF 28
ENDMDL
MODEL 14
REMARK VINA RESULT:    -5.787      2.366      8.195
REMARK INTER + INTRA:         -20.864
REMARK INTER:                 -15.607
REMARK INTRA:                  -5.258
REMARK UNBOUND:                -6.451
REMARK SMILES CCCCCCC[C@H](N)[C@H](O)C(=O)N[C@H](C)C(=O)N(C)[C@H](CC(C)C)C(=O)N[C@@H](Cc1ccc(O)cc1)C(=O)N[C@@H](Cc1ccc(O)cc1)C(=O)O
REMARK SMILES IDX 18 1 17 2 15 3 16 4 14 5 12 6 13 7 10 9 11 10 8 12 9 13 7 16
REMARK SMILES IDX 6 17 5 18 4 19 3 20 2 21 1 22 19 23 20 24 21 25 22 26 23 27
REMARK SMILES IDX 24 28 25 29 26 30 27 31 28 32 29 34 30 35 31 36 32 37 37 38
REMARK SMILES IDX 33 39 36 40 34 41 35 42 38 44 39 45 40 46 41 48 42 49 43 50
REMARK SMILES IDX 44 51 49 52 45 53 48 54 46 55 47 56 50 58 51 59 52 60
REMARK H PARENT 14 8 11 11 9 14 9 15 28 33 35 43 40 47 47 57 52 61
ROOT
ATOM      1  O   UNL     1      -1.647   8.809   7.345  1.00  0.00    -0.272 OA
ATOM      2  C   UNL     1      -1.104   9.860   7.717  1.00  0.00     0.245 C 
ENDROOT
BRANCH   2   3
ATOM      3  C   UNL     1      -1.997  11.007   8.252  1.00  0.00     0.168 C 
ATOM      4  C   UNL     1      -3.156  11.279   7.300  1.00  0.00     0.041 C 
BRANCH   3   5
ATOM      5  N   UNL     1      -2.451  10.839   9.624  1.00  0.00    -0.342 N 
ATOM      6  C   UNL     1      -1.990  11.642  10.646  1.00  0.00     0.251 C 
ATOM      7  O   UNL     1      -1.145  12.517  10.491  1.00  0.00    -0.272 OA
ATOM      8  H   UNL     1      -3.125  10.123   9.882  1.00  0.00     0.164 HD
BRANCH   6   9
ATOM      9  C   UNL     1      -2.710  11.379  11.979  1.00  0.00     0.219 C 
BRANCH   9  10
ATOM     10  O   UNL     1      -1.922  11.754  13.116  1.00  0.00    -0.382 OA
ATOM     11  H   UNL     1      -1.536  12.619  12.854  1.00  0.00     0.211 HD
ENDBRANCH   9  10
BRANCH   9  12
ATOM     12  C   UNL     1      -4.118  12.025  12.047  1.00  0.00     0.089 C 
BRANCH  12  13
ATOM     13  N   UNL     1      -4.126  13.222  11.175  1.00  0.00    -0.325 NA
ATOM     14  H   UNL     1      -3.764  12.969  10.254  1.00  0.00     0.119 HD
ATOM     15  H   UNL     1      -3.461  13.906  11.545  1.00  0.00     0.119 HD
ENDBRANCH  12  13
BRANCH  12  16
ATOM     16  C   UNL     1      -5.306  11.100  11.692  1.00  0.00     0.022 C 
BRANCH  16  17
ATOM     17  C   UNL     1      -6.586  11.171  12.536  1.00  0.00     0.002 C 
BRANCH  17  18
ATOM     18  C   UNL     1      -7.361   9.859  12.643  1.00  0.00     0.000 C 
BRANCH  18  19
ATOM     19  C   UNL     1      -7.488   9.324  14.076  1.00  0.00    -0.000 C 
BRANCH  19  20
ATOM     20  C   UNL     1      -6.833   7.961  14.321  1.00  0.00    -0.000 C 
BRANCH  20  21
ATOM     21  C   UNL     1      -5.370   7.910  13.874  1.00  0.00    -0.003 C 
ATOM     22  C   UNL     1      -4.501   8.835  14.711  1.00  0.00     0.004 C 
ENDBRANCH  20  21
ENDBRANCH  19  20
ENDBRANCH  18  19
ENDBRANCH  17  18
ENDBRANCH  16  17
ENDBRANCH  12  16
ENDBRANCH   9  12
ENDBRANCH   6   9
ENDBRANCH   3   5
ENDBRANCH   2   3
BRANCH   2  23
ATOM     23  N   UNL     1       0.284   9.946   7.765  1.00  0.00    -0.332 N 
ATOM     24  C   UNL     1       1.062  11.044   7.211  1.00  0.00     0.147 C 
BRANCH  23  25
ATOM     25  C   UNL     1       1.073   8.941   8.527  1.00  0.00     0.174 C 
BRANCH  25  26
ATOM     26  C   UNL     1       2.394   9.514   9.091  1.00  0.00     0.038 C 
BRANCH  26  27
ATOM     27  C   UNL     1       2.356  10.074  10.531  1.00  0.00    -0.015 C 
ATOM     28  C   UNL     1       1.150   9.569  11.322  1.00  0.00     0.007 C 
ATOM     29  C   UNL     1       3.647   9.835  11.310  1.00  0.00     0.007 C 
ENDBRANCH  26  27
ENDBRANCH  25  26
BRANCH  25  30
ATOM     30  C   UNL     1       1.263   7.661   7.681  1.00  0.00     0.243 C 
ATOM     31  O   UNL     1       2.118   7.584   6.801  1.00  0.00    -0.273 OA
ATOM     32  N   UNL     1       0.412   6.625   7.973  1.00  0.00    -0.342 N 
ATOM     33  H   UNL     1      -0.173   6.714   8.808  1.00  0.00     0.164 HD
BRANCH  32  34
ATOM     34  C   UNL     1       0.429   5.347   7.256  1.00  0.00     0.175 C 
BRANCH  34  35
ATOM     35  C   UNL     1       1.316   4.316   7.972  1.00  0.00     0.070 C 
BRANCH  35  36
ATOM     36  C   UNL     1       2.615   4.056   7.243  1.00  0.00    -0.045 A 
ATOM     37  C   UNL     1       3.774   3.737   7.967  1.00  0.00     0.007 A 
ATOM     38  C   UNL     1       2.687   4.151   5.847  1.00  0.00     0.007 A 
ATOM     39  C   UNL     1       4.980   3.508   7.304  1.00  0.00     0.046 A 
ATOM     40  C   UNL     1       3.895   3.924   5.183  1.00  0.00     0.046 A 
ATOM     41  C   UNL     1       5.031   3.603   5.919  1.00  0.00     0.115 A 
BRANCH  41  42
ATOM     42  O   UNL     1       6.230   3.375   5.310  1.00  0.00    -0.508 OA
ATOM     43  H   UNL     1       6.798   2.886   5.929  1.00  0.00     0.293 HD
ENDBRANCH  41  42
ENDBRANCH  35  36
ENDBRANCH  34  35
BRANCH  34  44
ATOM     44  C   UNL     1      -1.030   4.857   7.118  1.00  0.00     0.243 C 
ATOM     45  O   UNL     1      -1.374   3.879   6.460  1.00  0.00    -0.273 OA
ATOM     46  N   UNL     1      -1.950   5.702   7.701  1.00  0.00    -0.341 N 
ATOM     47  H   UNL     1      -1.626   6.563   8.135  1.00  0.00     0.164 HD
BRANCH  46  48
ATOM     48  C   UNL     1      -3.397   5.482   7.641  1.00  0.00     0.196 C 
BRANCH  48  49
ATOM     49  C   UNL     1      -4.109   6.102   8.856  1.00  0.00     0.072 C 
BRANCH  49  50
ATOM     50  C   UNL     1      -3.821   5.358  10.140  1.00  0.00    -0.045 A 
ATOM     51  C   UNL     1      -4.078   3.981  10.223  1.00  0.00     0.007 A 
ATOM     52  C   UNL     1      -3.320   6.027  11.264  1.00  0.00     0.007 A 
ATOM     53  C   UNL     1      -3.829   3.287  11.407  1.00  0.00     0.046 A 
ATOM     54  C   UNL     1      -3.072   5.332  12.450  1.00  0.00     0.046 A 
ATOM     55  C   UNL     1      -3.328   3.966  12.511  1.00  0.00     0.115 A 
BRANCH  55  56
ATOM     56  O   UNL     1      -3.101   3.251  13.649  1.00  0.00    -0.508 OA
ATOM     57  H   UNL     1      -3.602   3.661  14.373  1.00  0.00     0.293 HD
ENDBRANCH  55  56
ENDBRANCH  49  50
ENDBRANCH  48  49
BRANCH  48  58
ATOM     58  C   UNL     1      -3.944   6.107   6.350  1.00  0.00     0.326 C 
ATOM     59  O   UNL     1      -4.508   5.533   5.433  1.00  0.00    -0.250 OA
BRANCH  58  60
ATOM     60  O   UNL     1      -3.765   7.450   6.281  1.00  0.00    -0.480 OA
ATOM     61  H   UNL     1      -3.764   7.628   5.315  1.00  0.00     0.296 HD
ENDBRANCH  58  60
ENDBRANCH  48  58
ENDBRANCH  46  48
ENDBRANCH  34  44
ENDBRANCH  32  34
ENDBRANCH  25  30
ENDBRANCH  23  25
ENDBRANCH   2  23
TORSDOF 28
ENDMDL
MODEL 15
REMARK VINA RESULT:    -5.785      2.794      6.281
REMARK INTER + INTRA:         -20.859
REMARK INTER:                 -14.607
REMARK INTRA:                  -6.252
REMARK UNBOUND:                -6.451
REMARK SMILES CCCCCCC[C@H](N)[C@H](O)C(=O)N[C@H](C)C(=O)N(C)[C@H](CC(C)C)C(=O)N[C@@H](Cc1ccc(O)cc1)C(=O)N[C@@H](Cc1ccc(O)cc1)C(=O)O
REMARK SMILES IDX 18 1 17 2 15 3 16 4 14 5 12 6 13 7 10 9 11 10 8 12 9 13 7 16
REMARK SMILES IDX 6 17 5 18 4 19 3 20 2 21 1 22 19 23 20 24 21 25 22 26 23 27
REMARK SMILES IDX 24 28 25 29 26 30 27 31 28 32 29 34 30 35 31 36 32 37 37 38
REMARK SMILES IDX 33 39 36 40 34 41 35 42 38 44 39 45 40 46 41 48 42 49 43 50
REMARK SMILES IDX 44 51 49 52 45 53 48 54 46 55 47 56 50 58 51 59 52 60
REMARK H PARENT 14 8 11 11 9 14 9 15 28 33 35 43 40 47 47 57 52 61
ROOT
ATOM      1  O   UNL     1      -1.756  11.526  12.441  1.00  0.00    -0.272 OA
ATOM      2  C   UNL     1      -2.620  10.646  12.308  1.00  0.00     0.245 C 
ENDROOT
BRANCH   2   3
ATOM      3  C   UNL     1      -3.624  10.765  11.135  1.00  0.00     0.168 C 
ATOM      4  C   UNL     1      -4.408  12.071  11.223  1.00  0.00     0.041 C 
BRANCH   3   5
ATOM      5  N   UNL     1      -3.047  10.568   9.814  1.00  0.00    -0.342 N 
ATOM      6  C   UNL     1      -3.233   9.400   9.106  1.00  0.00     0.251 C 
ATOM      7  O   UNL     1      -3.854   8.436   9.542  1.00  0.00    -0.272 OA
ATOM      8  H   UNL     1      -2.483  11.284   9.363  1.00  0.00     0.164 HD
BRANCH   6   9
ATOM      9  C   UNL     1      -2.656   9.469   7.683  1.00  0.00     0.219 C 
BRANCH   9  10
ATOM     10  O   UNL     1      -3.371  10.380   6.840  1.00  0.00    -0.382 OA
ATOM     11  H   UNL     1      -4.304  10.279   7.129  1.00  0.00     0.211 HD
ENDBRANCH   9  10
BRANCH   9  12
ATOM     12  C   UNL     1      -1.135   9.772   7.657  1.00  0.00     0.089 C 
BRANCH  12  13
ATOM     13  N   UNL     1      -0.478   8.792   6.763  1.00  0.00    -0.325 NA
ATOM     14  H   UNL     1      -1.069   8.635   5.944  1.00  0.00     0.119 HD
ATOM     15  H   UNL     1      -0.435   7.887   7.238  1.00  0.00     0.119 HD
ENDBRANCH  12  13
BRANCH  12  16
ATOM     16  C   UNL     1      -0.738  11.212   7.251  1.00  0.00     0.022 C 
BRANCH  16  17
ATOM     17  C   UNL     1      -0.111  12.138   8.303  1.00  0.00     0.002 C 
BRANCH  17  18
ATOM     18  C   UNL     1       0.294  11.453   9.606  1.00  0.00     0.000 C 
BRANCH  18  19
ATOM     19  C   UNL     1       1.811  11.327   9.799  1.00  0.00    -0.000 C 
BRANCH  19  20
ATOM     20  C   UNL     1       2.490  10.258   8.938  1.00  0.00    -0.000 C 
BRANCH  20  21
ATOM     21  C   UNL     1       3.165   9.161   9.765  1.00  0.00    -0.003 C 
ATOM     22  C   UNL     1       3.259   9.551  11.232  1.00  0.00     0.004 C 
ENDBRANCH  20  21
ENDBRANCH  19  20
ENDBRANCH  18  19
ENDBRANCH  17  18
ENDBRANCH  16  17
ENDBRANCH  12  16
ENDBRANCH   9  12
ENDBRANCH   6   9
ENDBRANCH   3   5
ENDBRANCH   2   3
BRANCH   2  23
ATOM     23  N   UNL     1      -2.599   9.521  13.126  1.00  0.00    -0.332 N 
ATOM     24  C   UNL     1      -1.463   9.111  13.938  1.00  0.00     0.147 C 
BRANCH  23  25
ATOM     25  C   UNL     1      -3.832   8.711  13.320  1.00  0.00     0.174 C 
BRANCH  25  26
ATOM     26  C   UNL     1      -4.589   9.067  14.621  1.00  0.00     0.038 C 
BRANCH  26  27
ATOM     27  C   UNL     1      -5.956   9.771  14.465  1.00  0.00    -0.015 C 
ATOM     28  C   UNL     1      -5.852  11.289  14.615  1.00  0.00     0.007 C 
ATOM     29  C   UNL     1      -6.682   9.408  13.172  1.00  0.00     0.007 C 
ENDBRANCH  26  27
ENDBRANCH  25  26
BRANCH  25  30
ATOM     30  C   UNL     1      -3.507   7.205  13.183  1.00  0.00     0.243 C 
ATOM     31  O   UNL     1      -3.509   6.449  14.153  1.00  0.00    -0.273 OA
ATOM     32  N   UNL     1      -3.211   6.775  11.915  1.00  0.00    -0.342 N 
ATOM     33  H   UNL     1      -3.368   7.429  11.144  1.00  0.00     0.164 HD
BRANCH  32  34
ATOM     34  C   UNL     1      -2.853   5.389  11.602  1.00  0.00     0.175 C 
BRANCH  34  35
ATOM     35  C   UNL     1      -4.103   4.517  11.415  1.00  0.00     0.070 C 
BRANCH  35  36
ATOM     36  C   UNL     1      -4.098   3.290  12.299  1.00  0.00    -0.045 A 
ATOM     37  C   UNL     1      -2.957   2.972  13.052  1.00  0.00     0.007 A 
ATOM     38  C   UNL     1      -5.213   2.444  12.361  1.00  0.00     0.007 A 
ATOM     39  C   UNL     1      -2.938   1.835  13.860  1.00  0.00     0.046 A 
ATOM     40  C   UNL     1      -5.194   1.304  13.169  1.00  0.00     0.046 A 
ATOM     41  C   UNL     1      -4.055   1.010  13.912  1.00  0.00     0.115 A 
BRANCH  41  42
ATOM     42  O   UNL     1      -3.994  -0.093  14.711  1.00  0.00    -0.508 OA
ATOM     43  H   UNL     1      -4.019  -0.881  14.143  1.00  0.00     0.293 HD
ENDBRANCH  41  42
ENDBRANCH  35  36
ENDBRANCH  34  35
BRANCH  34  44
ATOM     44  C   UNL     1      -1.962   5.399  10.340  1.00  0.00     0.243 C 
ATOM     45  O   UNL     1      -0.797   5.786  10.315  1.00  0.00    -0.273 OA
ATOM     46  N   UNL     1      -2.636   5.049   9.189  1.00  0.00    -0.341 N 
ATOM     47  H   UNL     1      -3.632   4.848   9.242  1.00  0.00     0.164 HD
BRANCH  46  48
ATOM     48  C   UNL     1      -2.019   5.051   7.861  1.00  0.00     0.196 C 
BRANCH  48  49
ATOM     49  C   UNL     1      -2.023   3.644   7.239  1.00  0.00     0.072 C 
BRANCH  49  50
ATOM     50  C   UNL     1      -2.151   2.551   8.275  1.00  0.00    -0.045 A 
ATOM     51  C   UNL     1      -3.390   1.929   8.487  1.00  0.00     0.007 A 
ATOM     52  C   UNL     1      -1.050   2.159   9.048  1.00  0.00     0.007 A 
ATOM     53  C   UNL     1      -3.522   0.928   9.449  1.00  0.00     0.046 A 
ATOM     54  C   UNL     1      -1.183   1.157  10.013  1.00  0.00     0.046 A 
ATOM     55  C   UNL     1      -2.419   0.549  10.204  1.00  0.00     0.115 A 
BRANCH  55  56
ATOM     56  O   UNL     1      -2.591  -0.432  11.136  1.00  0.00    -0.508 OA
ATOM     57  H   UNL     1      -2.380  -0.065  12.009  1.00  0.00     0.293 HD
ENDBRANCH  55  56
ENDBRANCH  49  50
ENDBRANCH  48  49
BRANCH  48  58
ATOM     58  C   UNL     1      -2.792   6.018   6.953  1.00  0.00     0.326 C 
ATOM     59  O   UNL     1      -2.399   6.536   5.921  1.00  0.00    -0.250 OA
BRANCH  58  60
ATOM     60  O   UNL     1      -4.051   6.278   7.387  1.00  0.00    -0.480 OA
ATOM     61  H   UNL     1      -4.617   5.920   6.668  1.00  0.00     0.296 HD
ENDBRANCH  58  60
ENDBRANCH  48  58
ENDBRANCH  46  48
ENDBRANCH  34  44
ENDBRANCH  32  34
ENDBRANCH  25  30
ENDBRANCH  23  25
ENDBRANCH   2  23
TORSDOF 28
ENDMDL
MODEL 16
REMARK VINA RESULT:    -5.733      2.272      4.145
REMARK INTER + INTRA:         -20.731
REMARK INTER:                 -15.692
REMARK INTRA:                  -5.039
REMARK UNBOUND:                -6.451
REMARK SMILES CCCCCCC[C@H](N)[C@H](O)C(=O)N[C@H](C)C(=O)N(C)[C@H](CC(C)C)C(=O)N[C@@H](Cc1ccc(O)cc1)C(=O)N[C@@H](Cc1ccc(O)cc1)C(=O)O
REMARK SMILES IDX 18 1 17 2 15 3 16 4 14 5 12 6 13 7 10 9 11 10 8 12 9 13 7 16
REMARK SMILES IDX 6 17 5 18 4 19 3 20 2 21 1 22 19 23 20 24 21 25 22 26 23 27
REMARK SMILES IDX 24 28 25 29 26 30 27 31 28 32 29 34 30 35 31 36 32 37 37 38
REMARK SMILES IDX 33 39 36 40 34 41 35 42 38 44 39 45 40 46 41 48 42 49 43 50
REMARK SMILES IDX 44 51 49 52 45 53 48 54 46 55 47 56 50 58 51 59 52 60
REMARK H PARENT 14 8 11 11 9 14 9 15 28 33 35 43 40 47 47 57 52 61
ROOT
ATOM      1  O   UNL     1      -4.632   8.154  10.495  1.00  0.00    -0.272 OA
ATOM      2  C   UNL     1      -3.833   8.527   9.624  1.00  0.00     0.245 C 
ENDROOT
BRANCH   2   3
ATOM      3  C   UNL     1      -3.344   7.495   8.576  1.00  0.00     0.168 C 
ATOM      4  C   UNL     1      -1.948   6.990   8.924  1.00  0.00     0.041 C 
BRANCH   3   5
ATOM      5  N   UNL     1      -4.268   6.402   8.319  1.00  0.00    -0.342 N 
ATOM      6  C   UNL     1      -4.522   5.949   7.042  1.00  0.00     0.251 C 
ATOM      7  O   UNL     1      -4.032   6.451   6.036  1.00  0.00    -0.272 OA
ATOM      8  H   UNL     1      -4.762   5.929   9.072  1.00  0.00     0.164 HD
BRANCH   6   9
ATOM      9  C   UNL     1      -5.416   4.698   7.021  1.00  0.00     0.219 C 
BRANCH   9  10
ATOM     10  O   UNL     1      -6.044   4.489   5.751  1.00  0.00    -0.382 OA
ATOM     11  H   UNL     1      -5.804   5.292   5.239  1.00  0.00     0.211 HD
ENDBRANCH   9  10
BRANCH   9  12
ATOM     12  C   UNL     1      -4.679   3.416   7.489  1.00  0.00     0.089 C 
BRANCH  12  13
ATOM     13  N   UNL     1      -3.255   3.526   7.099  1.00  0.00    -0.325 NA
ATOM     14  H   UNL     1      -2.856   2.589   7.016  1.00  0.00     0.119 HD
ATOM     15  H   UNL     1      -2.736   3.971   7.859  1.00  0.00     0.119 HD
ENDBRANCH  12  13
BRANCH  12  16
ATOM     16  C   UNL     1      -4.792   3.081   8.996  1.00  0.00     0.022 C 
BRANCH  16  17
ATOM     17  C   UNL     1      -3.535   3.153   9.874  1.00  0.00     0.002 C 
BRANCH  17  18
ATOM     18  C   UNL     1      -3.628   4.117  11.054  1.00  0.00     0.000 C 
BRANCH  18  19
ATOM     19  C   UNL     1      -4.243   3.501  12.318  1.00  0.00    -0.000 C 
BRANCH  19  20
ATOM     20  C   UNL     1      -3.237   2.901  13.304  1.00  0.00    -0.000 C 
BRANCH  20  21
ATOM     21  C   UNL     1      -3.362   3.481  14.715  1.00  0.00    -0.003 C 
ATOM     22  C   UNL     1      -4.667   3.061  15.373  1.00  0.00     0.004 C 
ENDBRANCH  20  21
ENDBRANCH  19  20
ENDBRANCH  18  19
ENDBRANCH  17  18
ENDBRANCH  16  17
ENDBRANCH  12  16
ENDBRANCH   9  12
ENDBRANCH   6   9
ENDBRANCH   3   5
ENDBRANCH   2   3
BRANCH   2  23
ATOM     23  N   UNL     1      -3.487   9.871   9.526  1.00  0.00    -0.332 N 
ATOM     24  C   UNL     1      -2.954  10.501   8.327  1.00  0.00     0.147 C 
BRANCH  23  25
ATOM     25  C   UNL     1      -3.773  10.804  10.650  1.00  0.00     0.174 C 
BRANCH  25  26
ATOM     26  C   UNL     1      -4.153  12.225  10.171  1.00  0.00     0.038 C 
BRANCH  26  27
ATOM     27  C   UNL     1      -5.424  12.854  10.784  1.00  0.00    -0.015 C 
ATOM     28  C   UNL     1      -6.274  13.584   9.745  1.00  0.00     0.007 C 
ATOM     29  C   UNL     1      -6.275  11.860  11.570  1.00  0.00     0.007 C 
ENDBRANCH  26  27
ENDBRANCH  25  26
BRANCH  25  30
ATOM     30  C   UNL     1      -2.611  10.781  11.669  1.00  0.00     0.243 C 
ATOM     31  O   UNL     1      -2.016  11.805  11.999  1.00  0.00    -0.273 OA
ATOM     32  N   UNL     1      -2.287   9.547  12.172  1.00  0.00    -0.342 N 
ATOM     33  H   UNL     1      -2.917   8.769  11.959  1.00  0.00     0.164 HD
BRANCH  32  34
ATOM     34  C   UNL     1      -1.197   9.331  13.127  1.00  0.00     0.175 C 
BRANCH  34  35
ATOM     35  C   UNL     1      -1.619   8.372  14.250  1.00  0.00     0.070 C 
BRANCH  35  36
ATOM     36  C   UNL     1      -3.114   8.151  14.300  1.00  0.00    -0.045 A 
ATOM     37  C   UNL     1      -3.655   6.915  13.914  1.00  0.00     0.007 A 
ATOM     38  C   UNL     1      -3.978   9.176  14.706  1.00  0.00     0.007 A 
ATOM     39  C   UNL     1      -5.034   6.707  13.944  1.00  0.00     0.046 A 
ATOM     40  C   UNL     1      -5.360   8.969  14.735  1.00  0.00     0.046 A 
ATOM     41  C   UNL     1      -5.875   7.735  14.354  1.00  0.00     0.115 A 
BRANCH  41  42
ATOM     42  O   UNL     1      -7.217   7.492  14.366  1.00  0.00    -0.508 OA
ATOM     43  H   UNL     1      -7.362   6.574  14.080  1.00  0.00     0.293 HD
ENDBRANCH  41  42
ENDBRANCH  35  36
ENDBRANCH  34  35
BRANCH  34  44
ATOM     44  C   UNL     1       0.027   8.803  12.345  1.00  0.00     0.243 C 
ATOM     45  O   UNL     1       0.836   7.992  12.788  1.00  0.00    -0.273 OA
ATOM     46  N   UNL     1       0.213   9.427  11.130  1.00  0.00    -0.341 N 
ATOM     47  H   UNL     1      -0.419  10.176  10.857  1.00  0.00     0.164 HD
BRANCH  46  48
ATOM     48  C   UNL     1       1.342   9.142  10.242  1.00  0.00     0.196 C 
BRANCH  48  49
ATOM     49  C   UNL     1       1.040   9.570   8.796  1.00  0.00     0.072 C 
BRANCH  49  50
ATOM     50  C   UNL     1       1.152   8.425   7.815  1.00  0.00    -0.045 A 
ATOM     51  C   UNL     1       0.687   8.581   6.501  1.00  0.00     0.007 A 
ATOM     52  C   UNL     1       1.698   7.194   8.203  1.00  0.00     0.007 A 
ATOM     53  C   UNL     1       0.773   7.528   5.591  1.00  0.00     0.046 A 
ATOM     54  C   UNL     1       1.783   6.139   7.292  1.00  0.00     0.046 A 
ATOM     55  C   UNL     1       1.321   6.315   5.993  1.00  0.00     0.115 A 
BRANCH  55  56
ATOM     56  O   UNL     1       1.385   5.310   5.074  1.00  0.00    -0.508 OA
ATOM     57  H   UNL     1       2.288   5.276   4.720  1.00  0.00     0.293 HD
ENDBRANCH  55  56
ENDBRANCH  49  50
ENDBRANCH  48  49
BRANCH  48  58
ATOM     58  C   UNL     1       2.580   9.893  10.753  1.00  0.00     0.326 C 
ATOM     59  O   UNL     1       2.872  11.060  10.550  1.00  0.00    -0.250 OA
BRANCH  58  60
ATOM     60  O   UNL     1       3.398   9.129  11.520  1.00  0.00    -0.480 OA
ATOM     61  H   UNL     1       4.031   8.752  10.870  1.00  0.00     0.296 HD
ENDBRANCH  58  60
ENDBRANCH  48  58
ENDBRANCH  46  48
ENDBRANCH  34  44
ENDBRANCH  32  34
ENDBRANCH  25  30
ENDBRANCH  23  25
ENDBRANCH   2  23
TORSDOF 28
ENDMDL
MODEL 17
REMARK VINA RESULT:    -5.730      1.870      3.152
REMARK INTER + INTRA:         -20.724
REMARK INTER:                 -15.503
REMARK INTRA:                  -5.221
REMARK UNBOUND:                -6.451
REMARK SMILES CCCCCCC[C@H](N)[C@H](O)C(=O)N[C@H](C)C(=O)N(C)[C@H](CC(C)C)C(=O)N[C@@H](Cc1ccc(O)cc1)C(=O)N[C@@H](Cc1ccc(O)cc1)C(=O)O
REMARK SMILES IDX 18 1 17 2 15 3 16 4 14 5 12 6 13 7 10 9 11 10 8 12 9 13 7 16
REMARK SMILES IDX 6 17 5 18 4 19 3 20 2 21 1 22 19 23 20 24 21 25 22 26 23 27
REMARK SMILES IDX 24 28 25 29 26 30 27 31 28 32 29 34 30 35 31 36 32 37 37 38
REMARK SMILES IDX 33 39 36 40 34 41 35 42 38 44 39 45 40 46 41 48 42 49 43 50
REMARK SMILES IDX 44 51 49 52 45 53 48 54 46 55 47 56 50 58 51 59 52 60
REMARK H PARENT 14 8 11 11 9 14 9 15 28 33 35 43 40 47 47 57 52 61
ROOT
ATOM      1  O   UNL     1      -4.520   8.308  10.146  1.00  0.00    -0.272 OA
ATOM      2  C   UNL     1      -3.526   8.487   9.426  1.00  0.00     0.245 C 
ENDROOT
BRANCH   2   3
ATOM      3  C   UNL     1      -3.030   7.314   8.543  1.00  0.00     0.168 C 
ATOM      4  C   UNL     1      -1.838   6.616   9.189  1.00  0.00     0.041 C 
BRANCH   3   5
ATOM      5  N   UNL     1      -4.062   6.369   8.146  1.00  0.00    -0.342 N 
ATOM      6  C   UNL     1      -4.518   6.293   6.847  1.00  0.00     0.251 C 
ATOM      7  O   UNL     1      -4.127   7.031   5.948  1.00  0.00    -0.272 OA
ATOM      8  H   UNL     1      -4.487   5.729   8.812  1.00  0.00     0.164 HD
BRANCH   6   9
ATOM      9  C   UNL     1      -5.500   5.131   6.629  1.00  0.00     0.219 C 
BRANCH   9  10
ATOM     10  O   UNL     1      -6.735   5.555   6.039  1.00  0.00    -0.382 OA
ATOM     11  H   UNL     1      -6.733   5.117   5.159  1.00  0.00     0.211 HD
ENDBRANCH   9  10
BRANCH   9  12
ATOM     12  C   UNL     1      -4.884   3.953   5.830  1.00  0.00     0.089 C 
BRANCH  12  13
ATOM     13  N   UNL     1      -4.230   4.501   4.620  1.00  0.00    -0.325 NA
ATOM     14  H   UNL     1      -3.216   4.482   4.748  1.00  0.00     0.119 HD
ATOM     15  H   UNL     1      -4.469   5.492   4.534  1.00  0.00     0.119 HD
ENDBRANCH  12  13
BRANCH  12  16
ATOM     16  C   UNL     1      -3.895   3.052   6.607  1.00  0.00     0.022 C 
BRANCH  16  17
ATOM     17  C   UNL     1      -2.392   3.171   6.320  1.00  0.00     0.002 C 
BRANCH  17  18
ATOM     18  C   UNL     1      -1.521   3.440   7.545  1.00  0.00     0.000 C 
BRANCH  18  19
ATOM     19  C   UNL     1      -1.861   2.565   8.758  1.00  0.00    -0.000 C 
BRANCH  19  20
ATOM     20  C   UNL     1      -1.461   3.151  10.115  1.00  0.00    -0.000 C 
BRANCH  20  21
ATOM     21  C   UNL     1      -2.635   3.256  11.093  1.00  0.00    -0.003 C 
ATOM     22  C   UNL     1      -2.801   1.977  11.898  1.00  0.00     0.004 C 
ENDBRANCH  20  21
ENDBRANCH  19  20
ENDBRANCH  18  19
ENDBRANCH  17  18
ENDBRANCH  16  17
ENDBRANCH  12  16
ENDBRANCH   9  12
ENDBRANCH   6   9
ENDBRANCH   3   5
ENDBRANCH   2   3
BRANCH   2  23
ATOM     23  N   UNL     1      -2.955   9.751   9.331  1.00  0.00    -0.332 N 
ATOM     24  C   UNL     1      -2.309  10.278   8.137  1.00  0.00     0.147 C 
BRANCH  23  25
ATOM     25  C   UNL     1      -3.089  10.722  10.451  1.00  0.00     0.174 C 
BRANCH  25  26
ATOM     26  C   UNL     1      -3.403  12.158   9.969  1.00  0.00     0.038 C 
BRANCH  26  27
ATOM     27  C   UNL     1      -4.641  12.848  10.583  1.00  0.00    -0.015 C 
ATOM     28  C   UNL     1      -5.502  13.548   9.531  1.00  0.00     0.007 C 
ATOM     29  C   UNL     1      -5.493  11.915  11.440  1.00  0.00     0.007 C 
ENDBRANCH  26  27
ENDBRANCH  25  26
BRANCH  25  30
ATOM     30  C   UNL     1      -1.858  10.634  11.382  1.00  0.00     0.243 C 
ATOM     31  O   UNL     1      -1.514  11.576  12.095  1.00  0.00    -0.273 OA
ATOM     32  N   UNL     1      -1.176   9.445  11.353  1.00  0.00    -0.342 N 
ATOM     33  H   UNL     1      -1.603   8.666  10.845  1.00  0.00     0.164 HD
BRANCH  32  34
ATOM     34  C   UNL     1       0.029   9.192  12.148  1.00  0.00     0.175 C 
BRANCH  34  35
ATOM     35  C   UNL     1      -0.131   7.940  13.023  1.00  0.00     0.070 C 
BRANCH  35  36
ATOM     36  C   UNL     1      -1.574   7.649  13.369  1.00  0.00    -0.045 A 
ATOM     37  C   UNL     1      -2.209   8.368  14.393  1.00  0.00     0.007 A 
ATOM     38  C   UNL     1      -2.288   6.650  12.694  1.00  0.00     0.007 A 
ATOM     39  C   UNL     1      -3.536   8.097  14.729  1.00  0.00     0.046 A 
ATOM     40  C   UNL     1      -3.616   6.377  13.030  1.00  0.00     0.046 A 
ATOM     41  C   UNL     1      -4.229   7.105  14.045  1.00  0.00     0.115 A 
BRANCH  41  42
ATOM     42  O   UNL     1      -5.522   6.870  14.406  1.00  0.00    -0.508 OA
ATOM     43  H   UNL     1      -5.652   5.909  14.466  1.00  0.00     0.293 HD
ENDBRANCH  41  42
ENDBRANCH  35  36
ENDBRANCH  34  35
BRANCH  34  44
ATOM     44  C   UNL     1       1.225   9.069  11.177  1.00  0.00     0.243 C 
ATOM     45  O   UNL     1       2.403   9.062  11.525  1.00  0.00    -0.273 OA
ATOM     46  N   UNL     1       0.859   9.098   9.848  1.00  0.00    -0.341 N 
ATOM     47  H   UNL     1      -0.121   9.223   9.609  1.00  0.00     0.164 HD
BRANCH  46  48
ATOM     48  C   UNL     1       1.823   9.064   8.746  1.00  0.00     0.196 C 
BRANCH  48  49
ATOM     49  C   UNL     1       1.402   8.055   7.665  1.00  0.00     0.072 C 
BRANCH  49  50
ATOM     50  C   UNL     1       2.180   6.761   7.741  1.00  0.00    -0.045 A 
ATOM     51  C   UNL     1       3.582   6.786   7.693  1.00  0.00     0.007 A 
ATOM     52  C   UNL     1       1.523   5.529   7.837  1.00  0.00     0.007 A 
ATOM     53  C   UNL     1       4.311   5.598   7.749  1.00  0.00     0.046 A 
ATOM     54  C   UNL     1       2.253   4.339   7.892  1.00  0.00     0.046 A 
ATOM     55  C   UNL     1       3.642   4.384   7.849  1.00  0.00     0.115 A 
BRANCH  55  56
ATOM     56  O   UNL     1       4.391   3.246   7.899  1.00  0.00    -0.508 OA
ATOM     57  H   UNL     1       4.021   2.666   8.583  1.00  0.00     0.293 HD
ENDBRANCH  55  56
ENDBRANCH  49  50
ENDBRANCH  48  49
BRANCH  48  58
ATOM     58  C   UNL     1       1.926  10.466   8.130  1.00  0.00     0.326 C 
ATOM     59  O   UNL     1       1.193  11.420   8.336  1.00  0.00    -0.250 OA
BRANCH  58  60
ATOM     60  O   UNL     1       2.974  10.608   7.280  1.00  0.00    -0.480 OA
ATOM     61  H   UNL     1       3.637   9.974   7.630  1.00  0.00     0.296 HD
ENDBRANCH  58  60
ENDBRANCH  48  58
ENDBRANCH  46  48
ENDBRANCH  34  44
ENDBRANCH  32  34
ENDBRANCH  25  30
ENDBRANCH  23  25
ENDBRANCH   2  23
TORSDOF 28
ENDMDL
MODEL 18
REMARK VINA RESULT:    -5.729      2.867      8.392
REMARK INTER + INTRA:         -20.721
REMARK INTER:                 -16.414
REMARK INTRA:                  -4.307
REMARK UNBOUND:                -6.451
REMARK SMILES CCCCCCC[C@H](N)[C@H](O)C(=O)N[C@H](C)C(=O)N(C)[C@H](CC(C)C)C(=O)N[C@@H](Cc1ccc(O)cc1)C(=O)N[C@@H](Cc1ccc(O)cc1)C(=O)O
REMARK SMILES IDX 18 1 17 2 15 3 16 4 14 5 12 6 13 7 10 9 11 10 8 12 9 13 7 16
REMARK SMILES IDX 6 17 5 18 4 19 3 20 2 21 1 22 19 23 20 24 21 25 22 26 23 27
REMARK SMILES IDX 24 28 25 29 26 30 27 31 28 32 29 34 30 35 31 36 32 37 37 38
REMARK SMILES IDX 33 39 36 40 34 41 35 42 38 44 39 45 40 46 41 48 42 49 43 50
REMARK SMILES IDX 44 51 49 52 45 53 48 54 46 55 47 56 50 58 51 59 52 60
REMARK H PARENT 14 8 11 11 9 14 9 15 28 33 35 43 40 47 47 57 52 61
ROOT
ATOM      1  O   UNL     1      -2.464   9.873  10.096  1.00  0.00    -0.272 OA
ATOM      2  C   UNL     1      -2.295  11.027   9.676  1.00  0.00     0.245 C 
ENDROOT
BRANCH   2   3
ATOM      3  C   UNL     1      -3.468  12.033   9.780  1.00  0.00     0.168 C 
ATOM      4  C   UNL     1      -3.925  12.478   8.394  1.00  0.00     0.041 C 
BRANCH   3   5
ATOM      5  N   UNL     1      -4.584  11.588  10.601  1.00  0.00    -0.342 N 
ATOM      6  C   UNL     1      -4.535  11.629  11.978  1.00  0.00     0.251 C 
ATOM      7  O   UNL     1      -3.551  11.998  12.610  1.00  0.00    -0.272 OA
ATOM      8  H   UNL     1      -5.442  11.229  10.190  1.00  0.00     0.164 HD
BRANCH   6   9
ATOM      9  C   UNL     1      -5.873  11.247  12.631  1.00  0.00     0.219 C 
BRANCH   9  10
ATOM     10  O   UNL     1      -6.996  11.869  11.996  1.00  0.00    -0.382 OA
ATOM     11  H   UNL     1      -7.481  11.115  11.594  1.00  0.00     0.211 HD
ENDBRANCH   9  10
BRANCH   9  12
ATOM     12  C   UNL     1      -6.082   9.714  12.740  1.00  0.00     0.089 C 
BRANCH  12  13
ATOM     13  N   UNL     1      -5.064   9.043  11.899  1.00  0.00    -0.325 NA
ATOM     14  H   UNL     1      -4.150   9.460  12.082  1.00  0.00     0.119 HD
ATOM     15  H   UNL     1      -5.259   9.248  10.917  1.00  0.00     0.119 HD
ENDBRANCH  12  13
BRANCH  12  16
ATOM     16  C   UNL     1      -6.060   9.127  14.172  1.00  0.00     0.022 C 
BRANCH  16  17
ATOM     17  C   UNL     1      -4.745   9.138  14.964  1.00  0.00     0.002 C 
BRANCH  17  18
ATOM     18  C   UNL     1      -4.242   7.763  15.397  1.00  0.00     0.000 C 
BRANCH  18  19
ATOM     19  C   UNL     1      -2.765   7.505  15.068  1.00  0.00    -0.000 C 
BRANCH  19  20
ATOM     20  C   UNL     1      -2.463   7.256  13.588  1.00  0.00    -0.000 C 
BRANCH  20  21
ATOM     21  C   UNL     1      -1.208   7.986  13.101  1.00  0.00    -0.003 C 
ATOM     22  C   UNL     1      -1.238   9.457  13.486  1.00  0.00     0.004 C 
ENDBRANCH  20  21
ENDBRANCH  19  20
ENDBRANCH  18  19
ENDBRANCH  17  18
ENDBRANCH  16  17
ENDBRANCH  12  16
ENDBRANCH   9  12
ENDBRANCH   6   9
ENDBRANCH   3   5
ENDBRANCH   2   3
BRANCH   2  23
ATOM     23  N   UNL     1      -1.038  11.430   9.237  1.00  0.00    -0.332 N 
ATOM     24  C   UNL     1      -0.576  12.810   9.211  1.00  0.00     0.147 C 
BRANCH  23  25
ATOM     25  C   UNL     1      -0.009  10.418   8.873  1.00  0.00     0.174 C 
BRANCH  25  26
ATOM     26  C   UNL     1       1.401  11.029   8.696  1.00  0.00     0.038 C 
BRANCH  26  27
ATOM     27  C   UNL     1       2.481  10.604   9.716  1.00  0.00    -0.015 C 
ATOM     28  C   UNL     1       2.246  11.206  11.101  1.00  0.00     0.007 C 
ATOM     29  C   UNL     1       2.663   9.091   9.812  1.00  0.00     0.007 C 
ENDBRANCH  26  27
ENDBRANCH  25  26
BRANCH  25  30
ATOM     30  C   UNL     1      -0.485   9.590   7.657  1.00  0.00     0.243 C 
ATOM     31  O   UNL     1      -1.090  10.104   6.717  1.00  0.00    -0.273 OA
ATOM     32  N   UNL     1      -0.193   8.251   7.700  1.00  0.00    -0.342 N 
ATOM     33  H   UNL     1       0.433   7.926   8.441  1.00  0.00     0.164 HD
BRANCH  32  34
ATOM     34  C   UNL     1      -0.589   7.310   6.649  1.00  0.00     0.175 C 
BRANCH  34  35
ATOM     35  C   UNL     1       0.637   6.715   5.940  1.00  0.00     0.070 C 
BRANCH  35  36
ATOM     36  C   UNL     1       0.641   6.987   4.452  1.00  0.00    -0.045 A 
ATOM     37  C   UNL     1      -0.104   6.171   3.587  1.00  0.00     0.007 A 
ATOM     38  C   UNL     1       1.401   8.035   3.915  1.00  0.00     0.007 A 
ATOM     39  C   UNL     1      -0.096   6.406   2.212  1.00  0.00     0.046 A 
ATOM     40  C   UNL     1       1.411   8.269   2.538  1.00  0.00     0.046 A 
ATOM     41  C   UNL     1       0.661   7.452   1.698  1.00  0.00     0.115 A 
BRANCH  41  42
ATOM     42  O   UNL     1       0.644   7.646   0.349  1.00  0.00    -0.508 OA
ATOM     43  H   UNL     1       0.042   6.992  -0.045  1.00  0.00     0.293 HD
ENDBRANCH  41  42
ENDBRANCH  35  36
ENDBRANCH  34  35
BRANCH  34  44
ATOM     44  C   UNL     1      -1.470   6.216   7.294  1.00  0.00     0.243 C 
ATOM     45  O   UNL     1      -1.150   5.560   8.281  1.00  0.00    -0.273 OA
ATOM     46  N   UNL     1      -2.615   5.940   6.577  1.00  0.00    -0.341 N 
ATOM     47  H   UNL     1      -2.779   6.429   5.700  1.00  0.00     0.164 HD
BRANCH  46  48
ATOM     48  C   UNL     1      -3.570   4.896   6.954  1.00  0.00     0.196 C 
BRANCH  48  49
ATOM     49  C   UNL     1      -4.603   5.421   7.966  1.00  0.00     0.072 C 
BRANCH  49  50
ATOM     50  C   UNL     1      -4.576   4.659   9.272  1.00  0.00    -0.045 A 
ATOM     51  C   UNL     1      -3.865   5.173  10.366  1.00  0.00     0.007 A 
ATOM     52  C   UNL     1      -5.236   3.431   9.404  1.00  0.00     0.007 A 
ATOM     53  C   UNL     1      -3.822   4.474  11.572  1.00  0.00     0.046 A 
ATOM     54  C   UNL     1      -5.192   2.730  10.611  1.00  0.00     0.046 A 
ATOM     55  C   UNL     1      -4.486   3.258  11.686  1.00  0.00     0.115 A 
BRANCH  55  56
ATOM     56  O   UNL     1      -4.418   2.605  12.881  1.00  0.00    -0.508 OA
ATOM     57  H   UNL     1      -4.061   1.716  12.724  1.00  0.00     0.293 HD
ENDBRANCH  55  56
ENDBRANCH  49  50
ENDBRANCH  48  49
BRANCH  48  58
ATOM     58  C   UNL     1      -4.291   4.400   5.693  1.00  0.00     0.326 C 
ATOM     59  O   UNL     1      -4.591   5.054   4.708  1.00  0.00    -0.250 OA
BRANCH  58  60
ATOM     60  O   UNL     1      -4.592   3.077   5.727  1.00  0.00    -0.480 OA
ATOM     61  H   UNL     1      -4.206   2.736   4.892  1.00  0.00     0.296 HD
ENDBRANCH  58  60
ENDBRANCH  48  58
ENDBRANCH  46  48
ENDBRANCH  34  44
ENDBRANCH  32  34
ENDBRANCH  25  30
ENDBRANCH  23  25
ENDBRANCH   2  23
TORSDOF 28
ENDMDL
MODEL 19
REMARK VINA RESULT:    -5.718      2.962      6.259
REMARK INTER + INTRA:         -20.693
REMARK INTER:                 -16.062
REMARK INTRA:                  -4.631
REMARK UNBOUND:                -6.451
REMARK SMILES CCCCCCC[C@H](N)[C@H](O)C(=O)N[C@H](C)C(=O)N(C)[C@H](CC(C)C)C(=O)N[C@@H](Cc1ccc(O)cc1)C(=O)N[C@@H](Cc1ccc(O)cc1)C(=O)O
REMARK SMILES IDX 18 1 17 2 15 3 16 4 14 5 12 6 13 7 10 9 11 10 8 12 9 13 7 16
REMARK SMILES IDX 6 17 5 18 4 19 3 20 2 21 1 22 19 23 20 24 21 25 22 26 23 27
REMARK SMILES IDX 24 28 25 29 26 30 27 31 28 32 29 34 30 35 31 36 32 37 37 38
REMARK SMILES IDX 33 39 36 40 34 41 35 42 38 44 39 45 40 46 41 48 42 49 43 50
REMARK SMILES IDX 44 51 49 52 45 53 48 54 46 55 47 56 50 58 51 59 52 60
REMARK H PARENT 14 8 11 11 9 14 9 15 28 33 35 43 40 47 47 57 52 61
ROOT
ATOM      1  O   UNL     1      -0.456  12.358  11.233  1.00  0.00    -0.272 OA
ATOM      2  C   UNL     1      -0.116  12.043  10.083  1.00  0.00     0.245 C 
ENDROOT
BRANCH   2   3
ATOM      3  C   UNL     1       1.328  11.533   9.851  1.00  0.00     0.168 C 
ATOM      4  C   UNL     1       2.142  11.606  11.138  1.00  0.00     0.041 C 
BRANCH   3   5
ATOM      5  N   UNL     1       1.420  10.223   9.226  1.00  0.00    -0.342 N 
ATOM      6  C   UNL     1       1.937  10.055   7.959  1.00  0.00     0.251 C 
ATOM      7  O   UNL     1       2.316  10.986   7.255  1.00  0.00    -0.272 OA
ATOM      8  H   UNL     1       1.104   9.379   9.699  1.00  0.00     0.164 HD
BRANCH   6   9
ATOM      9  C   UNL     1       2.068   8.576   7.560  1.00  0.00     0.219 C 
BRANCH   9  10
ATOM     10  O   UNL     1       2.416   7.735   8.667  1.00  0.00    -0.382 OA
ATOM     11  H   UNL     1       2.897   6.988   8.247  1.00  0.00     0.211 HD
ENDBRANCH   9  10
BRANCH   9  12
ATOM     12  C   UNL     1       0.817   8.030   6.826  1.00  0.00     0.089 C 
BRANCH  12  13
ATOM     13  N   UNL     1      -0.113   9.158   6.586  1.00  0.00    -0.325 NA
ATOM     14  H   UNL     1      -0.163   9.737   7.426  1.00  0.00     0.119 HD
ATOM     15  H   UNL     1      -1.058   8.787   6.461  1.00  0.00     0.119 HD
ENDBRANCH  12  13
BRANCH  12  16
ATOM     16  C   UNL     1       1.084   7.271   5.504  1.00  0.00     0.022 C 
BRANCH  16  17
ATOM     17  C   UNL     1       2.030   7.889   4.465  1.00  0.00     0.002 C 
BRANCH  17  18
ATOM     18  C   UNL     1       1.340   8.489   3.242  1.00  0.00     0.000 C 
BRANCH  18  19
ATOM     19  C   UNL     1       2.082   8.238   1.922  1.00  0.00    -0.000 C 
BRANCH  19  20
ATOM     20  C   UNL     1       1.497   7.124   1.049  1.00  0.00    -0.000 C 
BRANCH  20  21
ATOM     21  C   UNL     1       0.332   6.389   1.716  1.00  0.00    -0.003 C 
ATOM     22  C   UNL     1      -0.811   6.160   0.739  1.00  0.00     0.004 C 
ENDBRANCH  20  21
ENDBRANCH  19  20
ENDBRANCH  18  19
ENDBRANCH  17  18
ENDBRANCH  16  17
ENDBRANCH  12  16
ENDBRANCH   9  12
ENDBRANCH   6   9
ENDBRANCH   3   5
ENDBRANCH   2   3
BRANCH   2  23
ATOM     23  N   UNL     1      -1.056  12.035   9.058  1.00  0.00    -0.332 N 
ATOM     24  C   UNL     1      -0.830  12.581   7.727  1.00  0.00     0.147 C 
BRANCH  23  25
ATOM     25  C   UNL     1      -2.353  11.327   9.233  1.00  0.00     0.174 C 
BRANCH  25  26
ATOM     26  C   UNL     1      -3.389  12.156  10.027  1.00  0.00     0.038 C 
BRANCH  26  27
ATOM     27  C   UNL     1      -4.684  12.556   9.285  1.00  0.00    -0.015 C 
ATOM     28  C   UNL     1      -5.642  13.355  10.168  1.00  0.00     0.007 C 
ATOM     29  C   UNL     1      -4.428  13.289   7.970  1.00  0.00     0.007 C 
ENDBRANCH  26  27
ENDBRANCH  25  26
BRANCH  25  30
ATOM     30  C   UNL     1      -2.114   9.913   9.811  1.00  0.00     0.243 C 
ATOM     31  O   UNL     1      -1.196   9.196   9.416  1.00  0.00    -0.273 OA
ATOM     32  N   UNL     1      -2.993   9.513  10.784  1.00  0.00    -0.342 N 
ATOM     33  H   UNL     1      -3.638  10.215  11.157  1.00  0.00     0.164 HD
BRANCH  32  34
ATOM     34  C   UNL     1      -2.936   8.197  11.425  1.00  0.00     0.175 C 
BRANCH  34  35
ATOM     35  C   UNL     1      -3.606   8.218  12.807  1.00  0.00     0.070 C 
BRANCH  35  36
ATOM     36  C   UNL     1      -4.697   9.260  12.912  1.00  0.00    -0.045 A 
ATOM     37  C   UNL     1      -5.966   9.004  12.370  1.00  0.00     0.007 A 
ATOM     38  C   UNL     1      -4.454  10.496  13.525  1.00  0.00     0.007 A 
ATOM     39  C   UNL     1      -6.975   9.965  12.450  1.00  0.00     0.046 A 
ATOM     40  C   UNL     1      -5.463  11.459  13.604  1.00  0.00     0.046 A 
ATOM     41  C   UNL     1      -6.716  11.183  13.066  1.00  0.00     0.115 A 
BRANCH  41  42
ATOM     42  O   UNL     1      -7.728  12.096  13.120  1.00  0.00    -0.508 OA
ATOM     43  H   UNL     1      -8.410  11.833  12.480  1.00  0.00     0.293 HD
ENDBRANCH  41  42
ENDBRANCH  35  36
ENDBRANCH  34  35
BRANCH  34  44
ATOM     44  C   UNL     1      -3.600   7.173  10.477  1.00  0.00     0.243 C 
ATOM     45  O   UNL     1      -4.473   7.450   9.659  1.00  0.00    -0.273 OA
ATOM     46  N   UNL     1      -3.216   5.871  10.718  1.00  0.00    -0.341 N 
ATOM     47  H   UNL     1      -2.576   5.679  11.485  1.00  0.00     0.164 HD
BRANCH  46  48
ATOM     48  C   UNL     1      -3.762   4.722   9.992  1.00  0.00     0.196 C 
BRANCH  48  49
ATOM     49  C   UNL     1      -2.732   4.139   9.011  1.00  0.00     0.072 C 
BRANCH  49  50
ATOM     50  C   UNL     1      -3.137   4.323   7.565  1.00  0.00    -0.045 A 
ATOM     51  C   UNL     1      -4.398   3.888   7.132  1.00  0.00     0.007 A 
ATOM     52  C   UNL     1      -2.261   4.905   6.640  1.00  0.00     0.007 A 
ATOM     53  C   UNL     1      -4.777   4.040   5.799  1.00  0.00     0.046 A 
ATOM     54  C   UNL     1      -2.640   5.056   5.304  1.00  0.00     0.046 A 
ATOM     55  C   UNL     1      -3.897   4.623   4.895  1.00  0.00     0.115 A 
BRANCH  55  56
ATOM     56  O   UNL     1      -4.305   4.751   3.601  1.00  0.00    -0.508 OA
ATOM     57  H   UNL     1      -3.927   5.569   3.240  1.00  0.00     0.293 HD
ENDBRANCH  55  56
ENDBRANCH  49  50
ENDBRANCH  48  49
BRANCH  48  58
ATOM     58  C   UNL     1      -4.176   3.645  11.004  1.00  0.00     0.326 C 
ATOM     59  O   UNL     1      -4.637   3.817  12.120  1.00  0.00    -0.250 OA
BRANCH  58  60
ATOM     60  O   UNL     1      -4.002   2.379  10.547  1.00  0.00    -0.480 OA
ATOM     61  H   UNL     1      -3.598   1.916  11.313  1.00  0.00     0.296 HD
ENDBRANCH  58  60
ENDBRANCH  48  58
ENDBRANCH  46  48
ENDBRANCH  34  44
ENDBRANCH  32  34
ENDBRANCH  25  30
ENDBRANCH  23  25
ENDBRANCH   2  23
TORSDOF 28
ENDMDL
MODEL 20
REMARK VINA RESULT:    -5.715      2.512      6.110
REMARK INTER + INTRA:         -20.686
REMARK INTER:                 -15.177
REMARK INTRA:                  -5.509
REMARK UNBOUND:                -6.451
REMARK SMILES CCCCCCC[C@H](N)[C@H](O)C(=O)N[C@H](C)C(=O)N(C)[C@H](CC(C)C)C(=O)N[C@@H](Cc1ccc(O)cc1)C(=O)N[C@@H](Cc1ccc(O)cc1)C(=O)O
REMARK SMILES IDX 18 1 17 2 15 3 16 4 14 5 12 6 13 7 10 9 11 10 8 12 9 13 7 16
REMARK SMILES IDX 6 17 5 18 4 19 3 20 2 21 1 22 19 23 20 24 21 25 22 26 23 27
REMARK SMILES IDX 24 28 25 29 26 30 27 31 28 32 29 34 30 35 31 36 32 37 37 38
REMARK SMILES IDX 33 39 36 40 34 41 35 42 38 44 39 45 40 46 41 48 42 49 43 50
REMARK SMILES IDX 44 51 49 52 45 53 48 54 46 55 47 56 50 58 51 59 52 60
REMARK H PARENT 14 8 11 11 9 14 9 15 28 33 35 43 40 47 47 57 52 61
ROOT
ATOM      1  O   UNL     1      -3.000   6.869   6.093  1.00  0.00    -0.272 OA
ATOM      2  C   UNL     1      -2.720   6.137   7.054  1.00  0.00     0.245 C 
ENDROOT
BRANCH   2   3
ATOM      3  C   UNL     1      -1.233   5.987   7.463  1.00  0.00     0.168 C 
ATOM      4  C   UNL     1      -0.471   5.156   6.437  1.00  0.00     0.041 C 
BRANCH   3   5
ATOM      5  N   UNL     1      -0.553   7.238   7.762  1.00  0.00    -0.342 N 
ATOM      6  C   UNL     1      -0.085   7.527   9.026  1.00  0.00     0.251 C 
ATOM      7  O   UNL     1      -0.239   6.786   9.991  1.00  0.00    -0.272 OA
ATOM      8  H   UNL     1      -0.396   7.947   7.049  1.00  0.00     0.164 HD
BRANCH   6   9
ATOM      9  C   UNL     1       0.724   8.834   9.076  1.00  0.00     0.219 C 
BRANCH   9  10
ATOM     10  O   UNL     1       0.832   9.367  10.401  1.00  0.00    -0.382 OA
ATOM     11  H   UNL     1       0.201  10.120  10.400  1.00  0.00     0.211 HD
ENDBRANCH   9  10
BRANCH   9  12
ATOM     12  C   UNL     1       2.122   8.711   8.416  1.00  0.00     0.089 C 
BRANCH  12  13
ATOM     13  N   UNL     1       2.469   7.274   8.323  1.00  0.00    -0.325 NA
ATOM     14  H   UNL     1       3.481   7.166   8.420  1.00  0.00     0.119 HD
ATOM     15  H   UNL     1       2.255   6.942   7.380  1.00  0.00     0.119 HD
ENDBRANCH  12  13
BRANCH  12  16
ATOM     16  C   UNL     1       2.281   9.387   7.033  1.00  0.00     0.022 C 
BRANCH  16  17
ATOM     17  C   UNL     1       1.803   8.643   5.779  1.00  0.00     0.002 C 
BRANCH  17  18
ATOM     18  C   UNL     1       1.714   9.499   4.517  1.00  0.00     0.000 C 
BRANCH  18  19
ATOM     19  C   UNL     1       1.456   8.696   3.235  1.00  0.00    -0.000 C 
BRANCH  19  20
ATOM     20  C   UNL     1       2.330   7.450   3.060  1.00  0.00    -0.000 C 
BRANCH  20  21
ATOM     21  C   UNL     1       1.516   6.159   2.940  1.00  0.00    -0.003 C 
ATOM     22  C   UNL     1       0.024   6.433   3.040  1.00  0.00     0.004 C 
ENDBRANCH  20  21
ENDBRANCH  19  20
ENDBRANCH  18  19
ENDBRANCH  17  18
ENDBRANCH  16  17
ENDBRANCH  12  16
ENDBRANCH   9  12
ENDBRANCH   6   9
ENDBRANCH   3   5
ENDBRANCH   2   3
BRANCH   2  23
ATOM     23  N   UNL     1      -3.736   5.569   7.815  1.00  0.00    -0.332 N 
ATOM     24  C   UNL     1      -4.982   5.048   7.272  1.00  0.00     0.147 C 
BRANCH  23  25
ATOM     25  C   UNL     1      -3.544   5.338   9.273  1.00  0.00     0.174 C 
BRANCH  25  26
ATOM     26  C   UNL     1      -4.311   4.100   9.793  1.00  0.00     0.038 C 
BRANCH  26  27
ATOM     27  C   UNL     1      -3.472   2.849  10.136  1.00  0.00    -0.015 C 
ATOM     28  C   UNL     1      -2.469   2.499   9.038  1.00  0.00     0.007 C 
ATOM     29  C   UNL     1      -2.775   2.938  11.491  1.00  0.00     0.007 C 
ENDBRANCH  26  27
ENDBRANCH  25  26
BRANCH  25  30
ATOM     30  C   UNL     1      -3.846   6.633  10.061  1.00  0.00     0.243 C 
ATOM     31  O   UNL     1      -4.578   7.513   9.610  1.00  0.00    -0.273 OA
ATOM     32  N   UNL     1      -3.241   6.736  11.287  1.00  0.00    -0.342 N 
ATOM     33  H   UNL     1      -2.764   5.907  11.652  1.00  0.00     0.164 HD
BRANCH  32  34
ATOM     34  C   UNL     1      -3.391   7.904  12.160  1.00  0.00     0.175 C 
BRANCH  34  35
ATOM     35  C   UNL     1      -3.258   7.516  13.640  1.00  0.00     0.070 C 
BRANCH  35  36
ATOM     36  C   UNL     1      -4.333   6.553  14.092  1.00  0.00    -0.045 A 
ATOM     37  C   UNL     1      -5.515   7.041  14.670  1.00  0.00     0.007 A 
ATOM     38  C   UNL     1      -4.159   5.169  13.963  1.00  0.00     0.007 A 
ATOM     39  C   UNL     1      -6.506   6.160  15.102  1.00  0.00     0.046 A 
ATOM     40  C   UNL     1      -5.151   4.286  14.396  1.00  0.00     0.046 A 
ATOM     41  C   UNL     1      -6.317   4.791  14.961  1.00  0.00     0.115 A 
BRANCH  41  42
ATOM     42  O   UNL     1      -7.309   3.964  15.399  1.00  0.00    -0.508 OA
ATOM     43  H   UNL     1      -8.150   4.448  15.357  1.00  0.00     0.293 HD
ENDBRANCH  41  42
ENDBRANCH  35  36
ENDBRANCH  34  35
BRANCH  34  44
ATOM     44  C   UNL     1      -2.337   8.954  11.741  1.00  0.00     0.243 C 
ATOM     45  O   UNL     1      -1.204   9.023  12.207  1.00  0.00    -0.273 OA
ATOM     46  N   UNL     1      -2.828   9.908  10.874  1.00  0.00    -0.341 N 
ATOM     47  H   UNL     1      -3.808   9.875  10.607  1.00  0.00     0.164 HD
BRANCH  46  48
ATOM     48  C   UNL     1      -2.035  11.041  10.392  1.00  0.00     0.196 C 
BRANCH  48  49
ATOM     49  C   UNL     1      -2.898  12.022   9.581  1.00  0.00     0.072 C 
BRANCH  49  50
ATOM     50  C   UNL     1      -2.331  12.295   8.205  1.00  0.00    -0.045 A 
ATOM     51  C   UNL     1      -3.154  12.833   7.205  1.00  0.00     0.007 A 
ATOM     52  C   UNL     1      -0.996  11.997   7.904  1.00  0.00     0.007 A 
ATOM     53  C   UNL     1      -2.646  13.077   5.929  1.00  0.00     0.046 A 
ATOM     54  C   UNL     1      -0.488  12.240   6.626  1.00  0.00     0.046 A 
ATOM     55  C   UNL     1      -1.318  12.779   5.649  1.00  0.00     0.115 A 
BRANCH  55  56
ATOM     56  O   UNL     1      -0.861  13.030   4.389  1.00  0.00    -0.508 OA
ATOM     57  H   UNL     1      -0.559  13.951   4.351  1.00  0.00     0.293 HD
ENDBRANCH  55  56
ENDBRANCH  49  50
ENDBRANCH  48  49
BRANCH  48  58
ATOM     58  C   UNL     1      -1.421  11.769  11.596  1.00  0.00     0.326 C 
ATOM     59  O   UNL     1      -0.256  12.101  11.743  1.00  0.00    -0.250 OA
BRANCH  58  60
ATOM     60  O   UNL     1      -2.322  12.063  12.567  1.00  0.00    -0.480 OA
ATOM     61  H   UNL     1      -1.944  11.630  13.364  1.00  0.00     0.296 HD
ENDBRANCH  58  60
ENDBRANCH  48  58
ENDBRANCH  46  48
ENDBRANCH  34  44
ENDBRANCH  32  34
ENDBRANCH  25  30
ENDBRANCH  23  25
ENDBRANCH   2  23
TORSDOF 28
ENDMDL
MODEL 21
REMARK VINA RESULT:    -5.690      2.271      5.566
REMARK INTER + INTRA:         -20.623
REMARK INTER:                 -15.106
REMARK INTRA:                  -5.517
REMARK UNBOUND:                -6.451
REMARK SMILES CCCCCCC[C@H](N)[C@H](O)C(=O)N[C@H](C)C(=O)N(C)[C@H](CC(C)C)C(=O)N[C@@H](Cc1ccc(O)cc1)C(=O)N[C@@H](Cc1ccc(O)cc1)C(=O)O
REMARK SMILES IDX 18 1 17 2 15 3 16 4 14 5 12 6 13 7 10 9 11 10 8 12 9 13 7 16
REMARK SMILES IDX 6 17 5 18 4 19 3 20 2 21 1 22 19 23 20 24 21 25 22 26 23 27
REMARK SMILES IDX 24 28 25 29 26 30 27 31 28 32 29 34 30 35 31 36 32 37 37 38
REMARK SMILES IDX 33 39 36 40 34 41 35 42 38 44 39 45 40 46 41 48 42 49 43 50
REMARK SMILES IDX 44 51 49 52 45 53 48 54 46 55 47 56 50 58 51 59 52 60
REMARK H PARENT 14 8 11 11 9 14 9 15 28 33 35 43 40 47 47 57 52 61
ROOT
ATOM      1  O   UNL     1      -3.473   9.976   6.868  1.00  0.00    -0.272 OA
ATOM      2  C   UNL     1      -2.999  11.074   7.194  1.00  0.00     0.245 C 
ENDROOT
BRANCH   2   3
ATOM      3  C   UNL     1      -1.952  11.735   6.263  1.00  0.00     0.168 C 
ATOM      4  C   UNL     1      -2.411  13.124   5.832  1.00  0.00     0.041 C 
BRANCH   3   5
ATOM      5  N   UNL     1      -0.594  11.749   6.783  1.00  0.00    -0.342 N 
ATOM      6  C   UNL     1       0.194  10.618   6.793  1.00  0.00     0.251 C 
ATOM      7  O   UNL     1      -0.194   9.520   6.410  1.00  0.00    -0.272 OA
ATOM      8  H   UNL     1      -0.173  12.595   7.160  1.00  0.00     0.164 HD
BRANCH   6   9
ATOM      9  C   UNL     1       1.634  10.900   7.253  1.00  0.00     0.219 C 
BRANCH   9  10
ATOM     10  O   UNL     1       1.802  10.746   8.667  1.00  0.00    -0.382 OA
ATOM     11  H   UNL     1       2.744  10.484   8.761  1.00  0.00     0.211 HD
ENDBRANCH   9  10
BRANCH   9  12
ATOM     12  C   UNL     1       2.693  10.073   6.479  1.00  0.00     0.089 C 
BRANCH  12  13
ATOM     13  N   UNL     1       3.771  10.989   6.040  1.00  0.00    -0.325 NA
ATOM     14  H   UNL     1       3.851  11.759   6.707  1.00  0.00     0.119 HD
ATOM     15  H   UNL     1       3.495  11.427   5.159  1.00  0.00     0.119 HD
ENDBRANCH  12  13
BRANCH  12  16
ATOM     16  C   UNL     1       3.297   8.866   7.237  1.00  0.00     0.022 C 
BRANCH  16  17
ATOM     17  C   UNL     1       2.670   7.478   7.051  1.00  0.00     0.002 C 
BRANCH  17  18
ATOM     18  C   UNL     1       3.280   6.374   7.912  1.00  0.00     0.000 C 
BRANCH  18  19
ATOM     19  C   UNL     1       3.998   5.281   7.110  1.00  0.00    -0.000 C 
BRANCH  19  20
ATOM     20  C   UNL     1       4.548   4.119   7.942  1.00  0.00    -0.000 C 
BRANCH  20  21
ATOM     21  C   UNL     1       6.078   4.089   7.992  1.00  0.00    -0.003 C 
ATOM     22  C   UNL     1       6.685   5.082   7.013  1.00  0.00     0.004 C 
ENDBRANCH  20  21
ENDBRANCH  19  20
ENDBRANCH  18  19
ENDBRANCH  17  18
ENDBRANCH  16  17
ENDBRANCH  12  16
ENDBRANCH   9  12
ENDBRANCH   6   9
ENDBRANCH   3   5
ENDBRANCH   2   3
BRANCH   2  23
ATOM     23  N   UNL     1      -3.494  11.742   8.309  1.00  0.00    -0.332 N 
ATOM     24  C   UNL     1      -4.236  12.993   8.259  1.00  0.00     0.147 C 
BRANCH  23  25
ATOM     25  C   UNL     1      -3.397  11.124   9.660  1.00  0.00     0.174 C 
BRANCH  25  26
ATOM     26  C   UNL     1      -3.848  12.077  10.791  1.00  0.00     0.038 C 
BRANCH  26  27
ATOM     27  C   UNL     1      -4.792  11.491  11.865  1.00  0.00    -0.015 C 
ATOM     28  C   UNL     1      -5.081  10.007  11.642  1.00  0.00     0.007 C 
ATOM     29  C   UNL     1      -4.313  11.736  13.294  1.00  0.00     0.007 C 
ENDBRANCH  26  27
ENDBRANCH  25  26
BRANCH  25  30
ATOM     30  C   UNL     1      -1.985  10.531   9.873  1.00  0.00     0.243 C 
ATOM     31  O   UNL     1      -0.974  11.230   9.838  1.00  0.00    -0.273 OA
ATOM     32  N   UNL     1      -1.938   9.179  10.096  1.00  0.00    -0.342 N 
ATOM     33  H   UNL     1      -2.825   8.693  10.251  1.00  0.00     0.164 HD
BRANCH  32  34
ATOM     34  C   UNL     1      -0.686   8.442  10.291  1.00  0.00     0.175 C 
BRANCH  34  35
ATOM     35  C   UNL     1      -0.397   8.218  11.784  1.00  0.00     0.070 C 
BRANCH  35  36
ATOM     36  C   UNL     1      -1.626   7.807  12.563  1.00  0.00    -0.045 A 
ATOM     37  C   UNL     1      -2.143   8.654  13.555  1.00  0.00     0.007 A 
ATOM     38  C   UNL     1      -2.250   6.576  12.324  1.00  0.00     0.007 A 
ATOM     39  C   UNL     1      -3.268   8.277  14.289  1.00  0.00     0.046 A 
ATOM     40  C   UNL     1      -3.376   6.197  13.059  1.00  0.00     0.046 A 
ATOM     41  C   UNL     1      -3.876   7.053  14.035  1.00  0.00     0.115 A 
BRANCH  41  42
ATOM     42  O   UNL     1      -4.971   6.722  14.776  1.00  0.00    -0.508 OA
ATOM     43  H   UNL     1      -4.990   5.756  14.877  1.00  0.00     0.293 HD
ENDBRANCH  41  42
ENDBRANCH  35  36
ENDBRANCH  34  35
BRANCH  34  44
ATOM     44  C   UNL     1      -0.790   7.108   9.517  1.00  0.00     0.243 C 
ATOM     45  O   UNL     1       0.130   6.305   9.394  1.00  0.00    -0.273 OA
ATOM     46  N   UNL     1      -1.988   6.951   8.853  1.00  0.00    -0.341 N 
ATOM     47  H   UNL     1      -2.675   7.699   8.891  1.00  0.00     0.164 HD
BRANCH  46  48
ATOM     48  C   UNL     1      -2.291   5.800   7.999  1.00  0.00     0.196 C 
BRANCH  48  49
ATOM     49  C   UNL     1      -3.603   5.119   8.422  1.00  0.00     0.072 C 
BRANCH  49  50
ATOM     50  C   UNL     1      -3.421   4.184   9.597  1.00  0.00    -0.045 A 
ATOM     51  C   UNL     1      -2.156   3.645   9.872  1.00  0.00     0.007 A 
ATOM     52  C   UNL     1      -4.505   3.828  10.409  1.00  0.00     0.007 A 
ATOM     53  C   UNL     1      -1.979   2.771  10.944  1.00  0.00     0.046 A 
ATOM     54  C   UNL     1      -4.328   2.952  11.482  1.00  0.00     0.046 A 
ATOM     55  C   UNL     1      -3.065   2.432  11.741  1.00  0.00     0.115 A 
BRANCH  55  56
ATOM     56  O   UNL     1      -2.850   1.573  12.778  1.00  0.00    -0.508 OA
ATOM     57  H   UNL     1      -3.513   1.749  13.464  1.00  0.00     0.293 HD
ENDBRANCH  55  56
ENDBRANCH  49  50
ENDBRANCH  48  49
BRANCH  48  58
ATOM     58  C   UNL     1      -2.403   6.274   6.544  1.00  0.00     0.326 C 
ATOM     59  O   UNL     1      -2.630   5.590   5.559  1.00  0.00    -0.250 OA
BRANCH  58  60
ATOM     60  O   UNL     1      -2.235   7.613   6.396  1.00  0.00    -0.480 OA
ATOM     61  H   UNL     1      -2.424   7.964   7.293  1.00  0.00     0.296 HD
ENDBRANCH  58  60
ENDBRANCH  48  58
ENDBRANCH  46  48
ENDBRANCH  34  44
ENDBRANCH  32  34
ENDBRANCH  25  30
ENDBRANCH  23  25
ENDBRANCH   2  23
TORSDOF 28
ENDMDL
MODEL 22
REMARK VINA RESULT:    -5.683      4.630      8.025
REMARK INTER + INTRA:         -20.606
REMARK INTER:                 -16.668
REMARK INTRA:                  -3.938
REMARK UNBOUND:                -6.451
REMARK SMILES CCCCCCC[C@H](N)[C@H](O)C(=O)N[C@H](C)C(=O)N(C)[C@H](CC(C)C)C(=O)N[C@@H](Cc1ccc(O)cc1)C(=O)N[C@@H](Cc1ccc(O)cc1)C(=O)O
REMARK SMILES IDX 18 1 17 2 15 3 16 4 14 5 12 6 13 7 10 9 11 10 8 12 9 13 7 16
REMARK SMILES IDX 6 17 5 18 4 19 3 20 2 21 1 22 19 23 20 24 21 25 22 26 23 27
REMARK SMILES IDX 24 28 25 29 26 30 27 31 28 32 29 34 30 35 31 36 32 37 37 38
REMARK SMILES IDX 33 39 36 40 34 41 35 42 38 44 39 45 40 46 41 48 42 49 43 50
REMARK SMILES IDX 44 51 49 52 45 53 48 54 46 55 47 56 50 58 51 59 52 60
REMARK H PARENT 14 8 11 11 9 14 9 15 28 33 35 43 40 47 47 57 52 61
ROOT
ATOM      1  O   UNL     1       1.011   9.290   5.073  1.00  0.00    -0.272 OA
ATOM      2  C   UNL     1       0.590   8.317   5.715  1.00  0.00     0.245 C 
ENDROOT
BRANCH   2   3
ATOM      3  C   UNL     1       0.665   6.912   5.067  1.00  0.00     0.168 C 
ATOM      4  C   UNL     1      -0.433   6.005   5.610  1.00  0.00     0.041 C 
BRANCH   3   5
ATOM      5  N   UNL     1       0.698   6.912   3.612  1.00  0.00    -0.342 N 
ATOM      6  C   UNL     1       1.882   7.000   2.911  1.00  0.00     0.251 C 
ATOM      7  O   UNL     1       2.978   7.125   3.447  1.00  0.00    -0.272 OA
ATOM      8  H   UNL     1      -0.152   6.848   3.057  1.00  0.00     0.164 HD
BRANCH   6   9
ATOM      9  C   UNL     1       1.688   6.837   1.395  1.00  0.00     0.219 C 
BRANCH   9  10
ATOM     10  O   UNL     1       0.933   5.667   1.057  1.00  0.00    -0.382 OA
ATOM     11  H   UNL     1       0.460   5.448   1.890  1.00  0.00     0.211 HD
ENDBRANCH   9  10
BRANCH   9  12
ATOM     12  C   UNL     1       1.085   8.096   0.719  1.00  0.00     0.089 C 
BRANCH  12  13
ATOM     13  N   UNL     1       0.898   9.138   1.755  1.00  0.00    -0.325 NA
ATOM     14  H   UNL     1       1.083   8.734   2.675  1.00  0.00     0.119 HD
ATOM     15  H   UNL     1      -0.088   9.409   1.777  1.00  0.00     0.119 HD
ENDBRANCH  12  13
BRANCH  12  16
ATOM     16  C   UNL     1       1.883   8.672  -0.475  1.00  0.00     0.022 C 
BRANCH  16  17
ATOM     17  C   UNL     1       3.171   9.461  -0.202  1.00  0.00     0.002 C 
BRANCH  17  18
ATOM     18  C   UNL     1       4.374   9.043  -1.045  1.00  0.00     0.000 C 
BRANCH  18  19
ATOM     19  C   UNL     1       5.530  10.052  -1.028  1.00  0.00    -0.000 C 
BRANCH  19  20
ATOM     20  C   UNL     1       6.116  10.391  -2.402  1.00  0.00    -0.000 C 
BRANCH  20  21
ATOM     21  C   UNL     1       6.333   9.158  -3.283  1.00  0.00    -0.003 C 
ATOM     22  C   UNL     1       7.803   8.772  -3.344  1.00  0.00     0.004 C 
ENDBRANCH  20  21
ENDBRANCH  19  20
ENDBRANCH  18  19
ENDBRANCH  17  18
ENDBRANCH  16  17
ENDBRANCH  12  16
ENDBRANCH   9  12
ENDBRANCH   6   9
ENDBRANCH   3   5
ENDBRANCH   2   3
BRANCH   2  23
ATOM     23  N   UNL     1       0.176   8.479   7.033  1.00  0.00    -0.332 N 
ATOM     24  C   UNL     1       0.829   7.874   8.184  1.00  0.00     0.147 C 
BRANCH  23  25
ATOM     25  C   UNL     1      -0.928   9.422   7.363  1.00  0.00     0.174 C 
BRANCH  25  26
ATOM     26  C   UNL     1      -0.536  10.451   8.450  1.00  0.00     0.038 C 
BRANCH  26  27
ATOM     27  C   UNL     1      -1.087  11.885   8.287  1.00  0.00    -0.015 C 
ATOM     28  C   UNL     1      -0.552  12.842   9.352  1.00  0.00     0.007 C 
ATOM     29  C   UNL     1      -0.872  12.463   6.890  1.00  0.00     0.007 C 
ENDBRANCH  26  27
ENDBRANCH  25  26
BRANCH  25  30
ATOM     30  C   UNL     1      -2.219   8.637   7.688  1.00  0.00     0.243 C 
ATOM     31  O   UNL     1      -2.910   8.130   6.806  1.00  0.00    -0.273 OA
ATOM     32  N   UNL     1      -2.543   8.550   9.017  1.00  0.00    -0.342 N 
ATOM     33  H   UNL     1      -1.848   8.873   9.696  1.00  0.00     0.164 HD
BRANCH  32  34
ATOM     34  C   UNL     1      -3.744   7.869   9.507  1.00  0.00     0.175 C 
BRANCH  34  35
ATOM     35  C   UNL     1      -3.411   6.468  10.045  1.00  0.00     0.070 C 
BRANCH  35  36
ATOM     36  C   UNL     1      -3.639   5.379   9.021  1.00  0.00    -0.045 A 
ATOM     37  C   UNL     1      -2.548   4.669   8.499  1.00  0.00     0.007 A 
ATOM     38  C   UNL     1      -4.929   5.080   8.564  1.00  0.00     0.007 A 
ATOM     39  C   UNL     1      -2.746   3.671   7.544  1.00  0.00     0.046 A 
ATOM     40  C   UNL     1      -5.129   4.083   7.607  1.00  0.00     0.046 A 
ATOM     41  C   UNL     1      -4.034   3.386   7.106  1.00  0.00     0.115 A 
BRANCH  41  42
ATOM     42  O   UNL     1      -4.185   2.407   6.169  1.00  0.00    -0.508 OA
ATOM     43  H   UNL     1      -4.624   2.792   5.393  1.00  0.00     0.293 HD
ENDBRANCH  41  42
ENDBRANCH  35  36
ENDBRANCH  34  35
BRANCH  34  44
ATOM     44  C   UNL     1      -4.395   8.763  10.587  1.00  0.00     0.243 C 
ATOM     45  O   UNL     1      -5.351   8.428  11.280  1.00  0.00    -0.273 OA
ATOM     46  N   UNL     1      -3.884  10.043  10.620  1.00  0.00    -0.341 N 
ATOM     47  H   UNL     1      -3.171  10.308   9.946  1.00  0.00     0.164 HD
BRANCH  46  48
ATOM     48  C   UNL     1      -4.388  11.089  11.513  1.00  0.00     0.196 C 
BRANCH  48  49
ATOM     49  C   UNL     1      -3.648  11.079  12.861  1.00  0.00     0.072 C 
BRANCH  49  50
ATOM     50  C   UNL     1      -2.414  10.206  12.841  1.00  0.00    -0.045 A 
ATOM     51  C   UNL     1      -2.385   9.019  13.588  1.00  0.00     0.007 A 
ATOM     52  C   UNL     1      -1.283  10.575  12.102  1.00  0.00     0.007 A 
ATOM     53  C   UNL     1      -1.246   8.213  13.587  1.00  0.00     0.046 A 
ATOM     54  C   UNL     1      -0.142   9.768  12.102  1.00  0.00     0.046 A 
ATOM     55  C   UNL     1      -0.135   8.593  12.845  1.00  0.00     0.115 A 
BRANCH  55  56
ATOM     56  O   UNL     1       0.958   7.778  12.873  1.00  0.00    -0.508 OA
ATOM     57  H   UNL     1       0.656   6.866  13.010  1.00  0.00     0.293 HD
ENDBRANCH  55  56
ENDBRANCH  49  50
ENDBRANCH  48  49
BRANCH  48  58
ATOM     58  C   UNL     1      -4.206  12.454  10.836  1.00  0.00     0.326 C 
ATOM     59  O   UNL     1      -4.287  12.705   9.644  1.00  0.00    -0.250 OA
BRANCH  58  60
ATOM     60  O   UNL     1      -3.940  13.459  11.707  1.00  0.00    -0.480 OA
ATOM     61  H   UNL     1      -3.490  13.002  12.450  1.00  0.00     0.296 HD
ENDBRANCH  58  60
ENDBRANCH  48  58
ENDBRANCH  46  48
ENDBRANCH  34  44
ENDBRANCH  32  34
ENDBRANCH  25  30
ENDBRANCH  23  25
ENDBRANCH   2  23
TORSDOF 28
ENDMDL
MODEL 23
REMARK VINA RESULT:    -5.661      2.793      5.664
REMARK INTER + INTRA:         -20.552
REMARK INTER:                 -15.115
REMARK INTRA:                  -5.437
REMARK UNBOUND:                -6.451
REMARK SMILES CCCCCCC[C@H](N)[C@H](O)C(=O)N[C@H](C)C(=O)N(C)[C@H](CC(C)C)C(=O)N[C@@H](Cc1ccc(O)cc1)C(=O)N[C@@H](Cc1ccc(O)cc1)C(=O)O
REMARK SMILES IDX 18 1 17 2 15 3 16 4 14 5 12 6 13 7 10 9 11 10 8 12 9 13 7 16
REMARK SMILES IDX 6 17 5 18 4 19 3 20 2 21 1 22 19 23 20 24 21 25 22 26 23 27
REMARK SMILES IDX 24 28 25 29 26 30 27 31 28 32 29 34 30 35 31 36 32 37 37 38
REMARK SMILES IDX 33 39 36 40 34 41 35 42 38 44 39 45 40 46 41 48 42 49 43 50
REMARK SMILES IDX 44 51 49 52 45 53 48 54 46 55 47 56 50 58 51 59 52 60
REMARK H PARENT 14 8 11 11 9 14 9 15 28 33 35 43 40 47 47 57 52 61
ROOT
ATOM      1  O   UNL     1      -3.453   9.632   8.359  1.00  0.00    -0.272 OA
ATOM      2  C   UNL     1      -3.037  10.695   8.842  1.00  0.00     0.245 C 
ENDROOT
BRANCH   2   3
ATOM      3  C   UNL     1      -1.718  11.294   8.291  1.00  0.00     0.168 C 
ATOM      4  C   UNL     1      -1.259  12.470   9.145  1.00  0.00     0.041 C 
BRANCH   3   5
ATOM      5  N   UNL     1      -0.651  10.328   8.078  1.00  0.00    -0.342 N 
ATOM      6  C   UNL     1       0.027  10.245   6.880  1.00  0.00     0.251 C 
ATOM      7  O   UNL     1      -0.239  10.936   5.903  1.00  0.00    -0.272 OA
ATOM      8  H   UNL     1      -0.364   9.677   8.805  1.00  0.00     0.164 HD
BRANCH   6   9
ATOM      9  C   UNL     1       1.203   9.256   6.931  1.00  0.00     0.219 C 
BRANCH   9  10
ATOM     10  O   UNL     1       1.694   9.048   8.261  1.00  0.00    -0.382 OA
ATOM     11  H   UNL     1       1.745   9.956   8.633  1.00  0.00     0.211 HD
ENDBRANCH   9  10
BRANCH   9  12
ATOM     12  C   UNL     1       0.892   7.903   6.241  1.00  0.00     0.089 C 
BRANCH  12  13
ATOM     13  N   UNL     1      -0.579   7.753   6.148  1.00  0.00    -0.325 NA
ATOM     14  H   UNL     1      -0.954   7.541   7.074  1.00  0.00     0.119 HD
ATOM     15  H   UNL     1      -0.793   6.932   5.578  1.00  0.00     0.119 HD
ENDBRANCH  12  13
BRANCH  12  16
ATOM     16  C   UNL     1       1.537   7.685   4.852  1.00  0.00     0.022 C 
BRANCH  16  17
ATOM     17  C   UNL     1       1.651   8.873   3.887  1.00  0.00     0.002 C 
BRANCH  17  18
ATOM     18  C   UNL     1       1.483   8.523   2.410  1.00  0.00     0.000 C 
BRANCH  18  19
ATOM     19  C   UNL     1       2.306   7.308   1.959  1.00  0.00    -0.000 C 
BRANCH  19  20
ATOM     20  C   UNL     1       1.515   6.225   1.220  1.00  0.00    -0.000 C 
BRANCH  20  21
ATOM     21  C   UNL     1       0.084   6.067   1.741  1.00  0.00    -0.003 C 
ATOM     22  C   UNL     1      -0.931   6.161   0.612  1.00  0.00     0.004 C 
ENDBRANCH  20  21
ENDBRANCH  19  20
ENDBRANCH  18  19
ENDBRANCH  17  18
ENDBRANCH  16  17
ENDBRANCH  12  16
ENDBRANCH   9  12
ENDBRANCH   6   9
ENDBRANCH   3   5
ENDBRANCH   2   3
BRANCH   2  23
ATOM     23  N   UNL     1      -3.809  11.387   9.769  1.00  0.00    -0.332 N 
ATOM     24  C   UNL     1      -4.464  12.661   9.511  1.00  0.00     0.147 C 
BRANCH  23  25
ATOM     25  C   UNL     1      -4.124  10.776  11.089  1.00  0.00     0.174 C 
BRANCH  25  26
ATOM     26  C   UNL     1      -4.931  11.720  12.012  1.00  0.00     0.038 C 
BRANCH  26  27
ATOM     27  C   UNL     1      -6.166  11.119  12.720  1.00  0.00    -0.015 C 
ATOM     28  C   UNL     1      -6.407   9.659  12.336  1.00  0.00     0.007 C 
ATOM     29  C   UNL     1      -6.131  11.275  14.238  1.00  0.00     0.007 C 
ENDBRANCH  26  27
ENDBRANCH  25  26
BRANCH  25  30
ATOM     30  C   UNL     1      -2.836  10.222  11.740  1.00  0.00     0.243 C 
ATOM     31  O   UNL     1      -1.930  10.963  12.121  1.00  0.00    -0.273 OA
ATOM     32  N   UNL     1      -2.770   8.858  11.858  1.00  0.00    -0.342 N 
ATOM     33  H   UNL     1      -3.617   8.323  11.650  1.00  0.00     0.164 HD
BRANCH  32  34
ATOM     34  C   UNL     1      -1.615   8.157  12.425  1.00  0.00     0.175 C 
BRANCH  34  35
ATOM     35  C   UNL     1      -1.759   7.979  13.944  1.00  0.00     0.070 C 
BRANCH  35  36
ATOM     36  C   UNL     1      -3.128   7.478  14.347  1.00  0.00    -0.045 A 
ATOM     37  C   UNL     1      -3.494   6.149  14.084  1.00  0.00     0.007 A 
ATOM     38  C   UNL     1      -4.053   8.331  14.962  1.00  0.00     0.007 A 
ATOM     39  C   UNL     1      -4.760   5.682  14.439  1.00  0.00     0.046 A 
ATOM     40  C   UNL     1      -5.321   7.864  15.317  1.00  0.00     0.046 A 
ATOM     41  C   UNL     1      -5.662   6.542  15.053  1.00  0.00     0.115 A 
BRANCH  41  42
ATOM     42  O   UNL     1      -6.890   6.046  15.381  1.00  0.00    -0.508 OA
ATOM     43  H   UNL     1      -6.999   6.116  16.344  1.00  0.00     0.293 HD
ENDBRANCH  41  42
ENDBRANCH  35  36
ENDBRANCH  34  35
BRANCH  34  44
ATOM     44  C   UNL     1      -1.472   6.802  11.696  1.00  0.00     0.243 C 
ATOM     45  O   UNL     1      -0.491   6.068  11.781  1.00  0.00    -0.273 OA
ATOM     46  N   UNL     1      -2.505   6.538  10.821  1.00  0.00    -0.341 N 
ATOM     47  H   UNL     1      -3.238   7.232  10.698  1.00  0.00     0.164 HD
BRANCH  46  48
ATOM     48  C   UNL     1      -2.555   5.348   9.969  1.00  0.00     0.196 C 
BRANCH  48  49
ATOM     49  C   UNL     1      -3.918   4.644  10.070  1.00  0.00     0.072 C 
BRANCH  49  50
ATOM     50  C   UNL     1      -3.995   3.690  11.240  1.00  0.00    -0.045 A 
ATOM     51  C   UNL     1      -5.231   3.142  11.615  1.00  0.00     0.007 A 
ATOM     52  C   UNL     1      -2.850   3.357  11.975  1.00  0.00     0.007 A 
ATOM     53  C   UNL     1      -5.316   2.271  12.701  1.00  0.00     0.046 A 
ATOM     54  C   UNL     1      -2.936   2.486  13.064  1.00  0.00     0.046 A 
ATOM     55  C   UNL     1      -4.169   1.949  13.417  1.00  0.00     0.115 A 
BRANCH  55  56
ATOM     56  O   UNL     1      -4.296   1.096  14.473  1.00  0.00    -0.508 OA
ATOM     57  H   UNL     1      -3.510   1.186  15.035  1.00  0.00     0.293 HD
ENDBRANCH  55  56
ENDBRANCH  49  50
ENDBRANCH  48  49
BRANCH  48  58
ATOM     58  C   UNL     1      -2.297   5.764   8.514  1.00  0.00     0.326 C 
ATOM     59  O   UNL     1      -1.673   5.145   7.668  1.00  0.00    -0.250 OA
BRANCH  58  60
ATOM     60  O   UNL     1      -2.858   6.954   8.184  1.00  0.00    -0.480 OA
ATOM     61  H   UNL     1      -3.559   7.069   8.861  1.00  0.00     0.296 HD
ENDBRANCH  58  60
ENDBRANCH  48  58
ENDBRANCH  46  48
ENDBRANCH  34  44
ENDBRANCH  32  34
ENDBRANCH  25  30
ENDBRANCH  23  25
ENDBRANCH   2  23
TORSDOF 28
ENDMDL
MODEL 24
REMARK VINA RESULT:    -5.647      2.859      6.520
REMARK INTER + INTRA:         -20.515
REMARK INTER:                 -15.071
REMARK INTRA:                  -5.444
REMARK UNBOUND:                -6.451
REMARK SMILES CCCCCCC[C@H](N)[C@H](O)C(=O)N[C@H](C)C(=O)N(C)[C@H](CC(C)C)C(=O)N[C@@H](Cc1ccc(O)cc1)C(=O)N[C@@H](Cc1ccc(O)cc1)C(=O)O
REMARK SMILES IDX 18 1 17 2 15 3 16 4 14 5 12 6 13 7 10 9 11 10 8 12 9 13 7 16
REMARK SMILES IDX 6 17 5 18 4 19 3 20 2 21 1 22 19 23 20 24 21 25 22 26 23 27
REMARK SMILES IDX 24 28 25 29 26 30 27 31 28 32 29 34 30 35 31 36 32 37 37 38
REMARK SMILES IDX 33 39 36 40 34 41 35 42 38 44 39 45 40 46 41 48 42 49 43 50
REMARK SMILES IDX 44 51 49 52 45 53 48 54 46 55 47 56 50 58 51 59 52 60
REMARK H PARENT 14 8 11 11 9 14 9 15 28 33 35 43 40 47 47 57 52 61
ROOT
ATOM      1  O   UNL     1      -0.446   8.309  11.053  1.00  0.00    -0.272 OA
ATOM      2  C   UNL     1      -1.297   8.977  11.658  1.00  0.00     0.245 C 
ENDROOT
BRANCH   2   3
ATOM      3  C   UNL     1      -1.787  10.303  11.025  1.00  0.00     0.168 C 
ATOM      4  C   UNL     1      -1.083  11.498  11.658  1.00  0.00     0.041 C 
BRANCH   3   5
ATOM      5  N   UNL     1      -1.725  10.346   9.572  1.00  0.00    -0.342 N 
ATOM      6  C   UNL     1      -2.761  10.849   8.814  1.00  0.00     0.251 C 
ATOM      7  O   UNL     1      -3.815  11.254   9.293  1.00  0.00    -0.272 OA
ATOM      8  H   UNL     1      -0.915  10.005   9.060  1.00  0.00     0.164 HD
BRANCH   6   9
ATOM      9  C   UNL     1      -2.419  10.926   7.317  1.00  0.00     0.219 C 
BRANCH   9  10
ATOM     10  O   UNL     1      -3.528  10.583   6.478  1.00  0.00    -0.382 OA
ATOM     11  H   UNL     1      -4.270  11.111   6.848  1.00  0.00     0.211 HD
ENDBRANCH   9  10
BRANCH   9  12
ATOM     12  C   UNL     1      -1.816  12.293   6.900  1.00  0.00     0.089 C 
BRANCH  12  13
ATOM     13  N   UNL     1      -2.020  13.252   8.010  1.00  0.00    -0.325 NA
ATOM     14  H   UNL     1      -1.173  13.290   8.581  1.00  0.00     0.119 HD
ATOM     15  H   UNL     1      -2.745  12.888   8.632  1.00  0.00     0.119 HD
ENDBRANCH  12  13
BRANCH  12  16
ATOM     16  C   UNL     1      -0.327  12.277   6.478  1.00  0.00     0.022 C 
BRANCH  16  17
ATOM     17  C   UNL     1       0.687  11.516   7.345  1.00  0.00     0.002 C 
BRANCH  17  18
ATOM     18  C   UNL     1       1.710  10.693   6.566  1.00  0.00     0.000 C 
BRANCH  18  19
ATOM     19  C   UNL     1       2.721   9.953   7.452  1.00  0.00    -0.000 C 
BRANCH  19  20
ATOM     20  C   UNL     1       2.549  10.174   8.958  1.00  0.00    -0.000 C 
BRANCH  20  21
ATOM     21  C   UNL     1       3.634   9.487   9.792  1.00  0.00    -0.003 C 
ATOM     22  C   UNL     1       3.292   9.511  11.274  1.00  0.00     0.004 C 
ENDBRANCH  20  21
ENDBRANCH  19  20
ENDBRANCH  18  19
ENDBRANCH  17  18
ENDBRANCH  16  17
ENDBRANCH  12  16
ENDBRANCH   9  12
ENDBRANCH   6   9
ENDBRANCH   3   5
ENDBRANCH   2   3
BRANCH   2  23
ATOM     23  N   UNL     1      -1.881   8.474  12.816  1.00  0.00    -0.332 N 
ATOM     24  C   UNL     1      -1.290   8.560  14.143  1.00  0.00     0.147 C 
BRANCH  23  25
ATOM     25  C   UNL     1      -3.258   7.909  12.779  1.00  0.00     0.174 C 
BRANCH  25  26
ATOM     26  C   UNL     1      -4.105   8.305  14.011  1.00  0.00     0.038 C 
BRANCH  26  27
ATOM     27  C   UNL     1      -5.487   8.938  13.737  1.00  0.00    -0.015 C 
ATOM     28  C   UNL     1      -5.668   9.335  12.272  1.00  0.00     0.007 C 
ATOM     29  C   UNL     1      -6.655   8.074  14.207  1.00  0.00     0.007 C 
ENDBRANCH  26  27
ENDBRANCH  25  26
BRANCH  25  30
ATOM     30  C   UNL     1      -3.201   6.385  12.527  1.00  0.00     0.243 C 
ATOM     31  O   UNL     1      -3.579   5.573  13.370  1.00  0.00    -0.273 OA
ATOM     32  N   UNL     1      -2.697   6.003  11.311  1.00  0.00    -0.342 N 
ATOM     33  H   UNL     1      -2.538   6.734  10.613  1.00  0.00     0.164 HD
BRANCH  32  34
ATOM     34  C   UNL     1      -2.544   4.602  10.911  1.00  0.00     0.175 C 
BRANCH  34  35
ATOM     35  C   UNL     1      -3.848   4.043  10.322  1.00  0.00     0.070 C 
BRANCH  35  36
ATOM     36  C   UNL     1      -4.411   2.895  11.130  1.00  0.00    -0.045 A 
ATOM     37  C   UNL     1      -5.747   2.503  10.957  1.00  0.00     0.007 A 
ATOM     38  C   UNL     1      -3.621   2.226  12.074  1.00  0.00     0.007 A 
ATOM     39  C   UNL     1      -6.279   1.455  11.708  1.00  0.00     0.046 A 
ATOM     40  C   UNL     1      -4.153   1.177  12.827  1.00  0.00     0.046 A 
ATOM     41  C   UNL     1      -5.478   0.800  12.636  1.00  0.00     0.115 A 
BRANCH  41  42
ATOM     42  O   UNL     1      -6.037  -0.217  13.352  1.00  0.00    -0.508 OA
ATOM     43  H   UNL     1      -5.752  -0.131  14.277  1.00  0.00     0.293 HD
ENDBRANCH  41  42
ENDBRANCH  35  36
ENDBRANCH  34  35
BRANCH  34  44
ATOM     44  C   UNL     1      -1.373   4.516   9.906  1.00  0.00     0.243 C 
ATOM     45  O   UNL     1      -0.381   3.808  10.055  1.00  0.00    -0.273 OA
ATOM     46  N   UNL     1      -1.475   5.416   8.866  1.00  0.00    -0.341 N 
ATOM     47  H   UNL     1      -2.260   6.063   8.849  1.00  0.00     0.164 HD
BRANCH  46  48
ATOM     48  C   UNL     1      -0.453   5.567   7.828  1.00  0.00     0.196 C 
BRANCH  48  49
ATOM     49  C   UNL     1      -1.089   5.789   6.445  1.00  0.00     0.072 C 
BRANCH  49  50
ATOM     50  C   UNL     1      -2.480   5.206   6.344  1.00  0.00    -0.045 A 
ATOM     51  C   UNL     1      -3.599   6.044   6.457  1.00  0.00     0.007 A 
ATOM     52  C   UNL     1      -2.674   3.831   6.158  1.00  0.00     0.007 A 
ATOM     53  C   UNL     1      -4.888   5.515   6.379  1.00  0.00     0.046 A 
ATOM     54  C   UNL     1      -3.964   3.302   6.080  1.00  0.00     0.046 A 
ATOM     55  C   UNL     1      -5.061   4.149   6.191  1.00  0.00     0.115 A 
BRANCH  55  56
ATOM     56  O   UNL     1      -6.336   3.673   6.121  1.00  0.00    -0.508 OA
ATOM     57  H   UNL     1      -6.301   2.703   6.121  1.00  0.00     0.293 HD
ENDBRANCH  55  56
ENDBRANCH  49  50
ENDBRANCH  48  49
BRANCH  48  58
ATOM     58  C   UNL     1       0.443   6.763   8.180  1.00  0.00     0.326 C 
ATOM     59  O   UNL     1       1.637   6.743   8.429  1.00  0.00    -0.250 OA
BRANCH  58  60
ATOM     60  O   UNL     1      -0.216   7.949   8.188  1.00  0.00    -0.480 OA
ATOM     61  H   UNL     1      -0.149   8.238   9.124  1.00  0.00     0.296 HD
ENDBRANCH  58  60
ENDBRANCH  48  58
ENDBRANCH  46  48
ENDBRANCH  34  44
ENDBRANCH  32  34
ENDBRANCH  25  30
ENDBRANCH  23  25
ENDBRANCH   2  23
TORSDOF 28
ENDMDL
MODEL 25
REMARK VINA RESULT:    -5.634      2.517      5.716
REMARK INTER + INTRA:         -20.483
REMARK INTER:                 -15.063
REMARK INTRA:                  -5.419
REMARK UNBOUND:                -6.451
REMARK SMILES CCCCCCC[C@H](N)[C@H](O)C(=O)N[C@H](C)C(=O)N(C)[C@H](CC(C)C)C(=O)N[C@@H](Cc1ccc(O)cc1)C(=O)N[C@@H](Cc1ccc(O)cc1)C(=O)O
REMARK SMILES IDX 18 1 17 2 15 3 16 4 14 5 12 6 13 7 10 9 11 10 8 12 9 13 7 16
REMARK SMILES IDX 6 17 5 18 4 19 3 20 2 21 1 22 19 23 20 24 21 25 22 26 23 27
REMARK SMILES IDX 24 28 25 29 26 30 27 31 28 32 29 34 30 35 31 36 32 37 37 38
REMARK SMILES IDX 33 39 36 40 34 41 35 42 38 44 39 45 40 46 41 48 42 49 43 50
REMARK SMILES IDX 44 51 49 52 45 53 48 54 46 55 47 56 50 58 51 59 52 60
REMARK H PARENT 14 8 11 11 9 14 9 15 28 33 35 43 40 47 47 57 52 61
ROOT
ATOM      1  O   UNL     1      -0.088   7.206   5.168  1.00  0.00    -0.272 OA
ATOM      2  C   UNL     1      -0.609   6.887   6.247  1.00  0.00     0.245 C 
ENDROOT
BRANCH   2   3
ATOM      3  C   UNL     1      -1.244   5.480   6.376  1.00  0.00     0.168 C 
ATOM      4  C   UNL     1      -0.342   4.549   7.180  1.00  0.00     0.041 C 
BRANCH   3   5
ATOM      5  N   UNL     1      -2.612   5.470   6.872  1.00  0.00    -0.342 N 
ATOM      6  C   UNL     1      -3.691   5.325   6.026  1.00  0.00     0.251 C 
ATOM      7  O   UNL     1      -3.589   5.236   4.807  1.00  0.00    -0.272 OA
ATOM      8  H   UNL     1      -2.824   5.571   7.861  1.00  0.00     0.164 HD
BRANCH   6   9
ATOM      9  C   UNL     1      -5.025   5.200   6.781  1.00  0.00     0.219 C 
BRANCH   9  10
ATOM     10  O   UNL     1      -6.133   5.716   6.034  1.00  0.00    -0.382 OA
ATOM     11  H   UNL     1      -6.612   6.273   6.686  1.00  0.00     0.211 HD
ENDBRANCH   9  10
BRANCH   9  12
ATOM     12  C   UNL     1      -5.314   3.757   7.270  1.00  0.00     0.089 C 
BRANCH  12  13
ATOM     13  N   UNL     1      -4.600   2.810   6.383  1.00  0.00    -0.325 NA
ATOM     14  H   UNL     1      -5.283   2.262   5.857  1.00  0.00     0.119 HD
ATOM     15  H   UNL     1      -4.098   2.131   6.960  1.00  0.00     0.119 HD
ENDBRANCH  12  13
BRANCH  12  16
ATOM     16  C   UNL     1      -4.972   3.461   8.750  1.00  0.00     0.022 C 
BRANCH  16  17
ATOM     17  C   UNL     1      -3.899   2.412   9.072  1.00  0.00     0.002 C 
BRANCH  17  18
ATOM     18  C   UNL     1      -2.579   2.978   9.591  1.00  0.00     0.000 C 
BRANCH  18  19
ATOM     19  C   UNL     1      -1.798   2.015  10.495  1.00  0.00    -0.000 C 
BRANCH  19  20
ATOM     20  C   UNL     1      -1.214   0.789   9.787  1.00  0.00    -0.000 C 
BRANCH  20  21
ATOM     21  C   UNL     1      -0.091   1.139   8.808  1.00  0.00    -0.003 C 
ATOM     22  C   UNL     1       1.080   1.798   9.521  1.00  0.00     0.004 C 
ENDBRANCH  20  21
ENDBRANCH  19  20
ENDBRANCH  18  19
ENDBRANCH  17  18
ENDBRANCH  16  17
ENDBRANCH  12  16
ENDBRANCH   9  12
ENDBRANCH   6   9
ENDBRANCH   3   5
ENDBRANCH   2   3
BRANCH   2  23
ATOM     23  N   UNL     1      -0.508   7.734   7.346  1.00  0.00    -0.332 N 
ATOM     24  C   UNL     1       0.638   7.792   8.241  1.00  0.00     0.147 C 
BRANCH  23  25
ATOM     25  C   UNL     1      -1.557   8.758   7.603  1.00  0.00     0.174 C 
BRANCH  25  26
ATOM     26  C   UNL     1      -0.972  10.124   8.034  1.00  0.00     0.038 C 
BRANCH  26  27
ATOM     27  C   UNL     1      -0.605  11.116   6.908  1.00  0.00    -0.015 C 
ATOM     28  C   UNL     1      -1.277  12.477   7.086  1.00  0.00     0.007 C 
ATOM     29  C   UNL     1       0.900  11.281   6.711  1.00  0.00     0.007 C 
ENDBRANCH  26  27
ENDBRANCH  25  26
BRANCH  25  30
ATOM     30  C   UNL     1      -2.618   8.201   8.579  1.00  0.00     0.243 C 
ATOM     31  O   UNL     1      -3.787   8.028   8.238  1.00  0.00    -0.273 OA
ATOM     32  N   UNL     1      -2.170   7.919   9.844  1.00  0.00    -0.342 N 
ATOM     33  H   UNL     1      -1.161   7.955  10.008  1.00  0.00     0.164 HD
BRANCH  32  34
ATOM     34  C   UNL     1      -3.041   7.410  10.907  1.00  0.00     0.175 C 
BRANCH  34  35
ATOM     35  C   UNL     1      -2.244   6.600  11.941  1.00  0.00     0.070 C 
BRANCH  35  36
ATOM     36  C   UNL     1      -3.128   5.752  12.828  1.00  0.00    -0.045 A 
ATOM     37  C   UNL     1      -3.788   4.633  12.297  1.00  0.00     0.007 A 
ATOM     38  C   UNL     1      -3.320   6.080  14.176  1.00  0.00     0.007 A 
ATOM     39  C   UNL     1      -4.618   3.853  13.103  1.00  0.00     0.046 A 
ATOM     40  C   UNL     1      -4.151   5.300  14.984  1.00  0.00     0.046 A 
ATOM     41  C   UNL     1      -4.792   4.192  14.440  1.00  0.00     0.115 A 
BRANCH  41  42
ATOM     42  O   UNL     1      -5.613   3.405  15.192  1.00  0.00    -0.508 OA
ATOM     43  H   UNL     1      -5.323   2.483  15.096  1.00  0.00     0.293 HD
ENDBRANCH  41  42
ENDBRANCH  35  36
ENDBRANCH  34  35
BRANCH  34  44
ATOM     44  C   UNL     1      -3.765   8.613  11.551  1.00  0.00     0.243 C 
ATOM     45  O   UNL     1      -4.870   8.554  12.084  1.00  0.00    -0.273 OA
ATOM     46  N   UNL     1      -3.112   9.813  11.360  1.00  0.00    -0.341 N 
ATOM     47  H   UNL     1      -2.257   9.828  10.810  1.00  0.00     0.164 HD
BRANCH  46  48
ATOM     48  C   UNL     1      -3.640  11.100  11.819  1.00  0.00     0.196 C 
BRANCH  48  49
ATOM     49  C   UNL     1      -2.532  11.973  12.431  1.00  0.00     0.072 C 
BRANCH  49  50
ATOM     50  C   UNL     1      -1.200  11.791  11.739  1.00  0.00    -0.045 A 
ATOM     51  C   UNL     1      -0.469  10.609  11.929  1.00  0.00     0.007 A 
ATOM     52  C   UNL     1      -0.668  12.797  10.923  1.00  0.00     0.007 A 
ATOM     53  C   UNL     1       0.767  10.435  11.307  1.00  0.00     0.046 A 
ATOM     54  C   UNL     1       0.571  12.624  10.301  1.00  0.00     0.046 A 
ATOM     55  C   UNL     1       1.278  11.442  10.498  1.00  0.00     0.115 A 
BRANCH  55  56
ATOM     56  O   UNL     1       2.490  11.234   9.910  1.00  0.00    -0.508 OA
ATOM     57  H   UNL     1       2.388  10.543   9.236  1.00  0.00     0.293 HD
ENDBRANCH  55  56
ENDBRANCH  49  50
ENDBRANCH  48  49
BRANCH  48  58
ATOM     58  C   UNL     1      -4.276  11.832  10.630  1.00  0.00     0.326 C 
ATOM     59  O   UNL     1      -3.928  11.784   9.461  1.00  0.00    -0.250 OA
BRANCH  58  60
ATOM     60  O   UNL     1      -5.346  12.592  10.972  1.00  0.00    -0.480 OA
ATOM     61  H   UNL     1      -5.500  12.356  11.912  1.00  0.00     0.296 HD
ENDBRANCH  58  60
ENDBRANCH  48  58
ENDBRANCH  46  48
ENDBRANCH  34  44
ENDBRANCH  32  34
ENDBRANCH  25  30
ENDBRANCH  23  25
ENDBRANCH   2  23
TORSDOF 28
ENDMDL
MODEL 26
REMARK VINA RESULT:    -5.626      3.091      7.180
REMARK INTER + INTRA:         -20.465
REMARK INTER:                 -15.190
REMARK INTRA:                  -5.275
REMARK UNBOUND:                -6.451
REMARK SMILES CCCCCCC[C@H](N)[C@H](O)C(=O)N[C@H](C)C(=O)N(C)[C@H](CC(C)C)C(=O)N[C@@H](Cc1ccc(O)cc1)C(=O)N[C@@H](Cc1ccc(O)cc1)C(=O)O
REMARK SMILES IDX 18 1 17 2 15 3 16 4 14 5 12 6 13 7 10 9 11 10 8 12 9 13 7 16
REMARK SMILES IDX 6 17 5 18 4 19 3 20 2 21 1 22 19 23 20 24 21 25 22 26 23 27
REMARK SMILES IDX 24 28 25 29 26 30 27 31 28 32 29 34 30 35 31 36 32 37 37 38
REMARK SMILES IDX 33 39 36 40 34 41 35 42 38 44 39 45 40 46 41 48 42 49 43 50
REMARK SMILES IDX 44 51 49 52 45 53 48 54 46 55 47 56 50 58 51 59 52 60
REMARK H PARENT 14 8 11 11 9 14 9 15 28 33 35 43 40 47 47 57 52 61
ROOT
ATOM      1  O   UNL     1      -1.768   2.037   7.906  1.00  0.00    -0.272 OA
ATOM      2  C   UNL     1      -1.870   2.866   8.823  1.00  0.00     0.245 C 
ENDROOT
BRANCH   2   3
ATOM      3  C   UNL     1      -0.691   3.840   9.075  1.00  0.00     0.168 C 
ATOM      4  C   UNL     1       0.638   3.093   9.073  1.00  0.00     0.041 C 
BRANCH   3   5
ATOM      5  N   UNL     1      -0.662   5.003   8.202  1.00  0.00    -0.342 N 
ATOM      6  C   UNL     1      -0.524   6.282   8.698  1.00  0.00     0.251 C 
ATOM      7  O   UNL     1      -0.459   6.540   9.895  1.00  0.00    -0.272 OA
ATOM      8  H   UNL     1      -0.742   4.917   7.192  1.00  0.00     0.164 HD
BRANCH   6   9
ATOM      9  C   UNL     1      -0.374   7.336   7.590  1.00  0.00     0.219 C 
BRANCH   9  10
ATOM     10  O   UNL     1      -1.065   8.555   7.889  1.00  0.00    -0.382 OA
ATOM     11  H   UNL     1      -0.356   9.147   8.222  1.00  0.00     0.211 HD
ENDBRANCH   9  10
BRANCH   9  12
ATOM     12  C   UNL     1       1.104   7.619   7.214  1.00  0.00     0.089 C 
BRANCH  12  13
ATOM     13  N   UNL     1       1.969   7.108   8.302  1.00  0.00    -0.325 NA
ATOM     14  H   UNL     1       1.433   6.458   8.880  1.00  0.00     0.119 HD
ATOM     15  H   UNL     1       2.210   7.882   8.925  1.00  0.00     0.119 HD
ENDBRANCH  12  13
BRANCH  12  16
ATOM     16  C   UNL     1       1.577   7.059   5.851  1.00  0.00     0.022 C 
BRANCH  16  17
ATOM     17  C   UNL     1       0.639   6.141   5.055  1.00  0.00     0.002 C 
BRANCH  17  18
ATOM     18  C   UNL     1       0.420   6.549   3.600  1.00  0.00     0.000 C 
BRANCH  18  19
ATOM     19  C   UNL     1       1.568   7.375   3.004  1.00  0.00    -0.000 C 
BRANCH  19  20
ATOM     20  C   UNL     1       1.146   8.429   1.976  1.00  0.00    -0.000 C 
BRANCH  20  21
ATOM     21  C   UNL     1       1.535   8.059   0.543  1.00  0.00    -0.003 C 
ATOM     22  C   UNL     1       2.116   9.252  -0.200  1.00  0.00     0.004 C 
ENDBRANCH  20  21
ENDBRANCH  19  20
ENDBRANCH  18  19
ENDBRANCH  17  18
ENDBRANCH  16  17
ENDBRANCH  12  16
ENDBRANCH   9  12
ENDBRANCH   6   9
ENDBRANCH   3   5
ENDBRANCH   2   3
BRANCH   2  23
ATOM     23  N   UNL     1      -3.068   2.991   9.518  1.00  0.00    -0.332 N 
ATOM     24  C   UNL     1      -4.332   2.406   9.096  1.00  0.00     0.147 C 
BRANCH  23  25
ATOM     25  C   UNL     1      -3.096   3.651  10.852  1.00  0.00     0.174 C 
BRANCH  25  26
ATOM     26  C   UNL     1      -3.685   2.745  11.959  1.00  0.00     0.038 C 
BRANCH  26  27
ATOM     27  C   UNL     1      -2.884   2.638  13.276  1.00  0.00    -0.015 C 
ATOM     28  C   UNL     1      -3.478   3.495  14.393  1.00  0.00     0.007 C 
ATOM     29  C   UNL     1      -2.684   1.201  13.750  1.00  0.00     0.007 C 
ENDBRANCH  26  27
ENDBRANCH  25  26
BRANCH  25  30
ATOM     30  C   UNL     1      -3.784   5.031  10.748  1.00  0.00     0.243 C 
ATOM     31  O   UNL     1      -4.480   5.340   9.782  1.00  0.00    -0.273 OA
ATOM     32  N   UNL     1      -3.560   5.886  11.797  1.00  0.00    -0.342 N 
ATOM     33  H   UNL     1      -3.090   5.508  12.624  1.00  0.00     0.164 HD
BRANCH  32  34
ATOM     34  C   UNL     1      -4.108   7.244  11.856  1.00  0.00     0.175 C 
BRANCH  34  35
ATOM     35  C   UNL     1      -4.238   7.731  13.307  1.00  0.00     0.070 C 
BRANCH  35  36
ATOM     36  C   UNL     1      -5.148   8.931  13.442  1.00  0.00    -0.045 A 
ATOM     37  C   UNL     1      -6.245   9.080  12.579  1.00  0.00     0.007 A 
ATOM     38  C   UNL     1      -4.901   9.917  14.406  1.00  0.00     0.007 A 
ATOM     39  C   UNL     1      -7.083  10.191  12.687  1.00  0.00     0.046 A 
ATOM     40  C   UNL     1      -5.738  11.030  14.513  1.00  0.00     0.046 A 
ATOM     41  C   UNL     1      -6.823  11.156  13.652  1.00  0.00     0.115 A 
BRANCH  41  42
ATOM     42  O   UNL     1      -7.663  12.228  13.722  1.00  0.00    -0.508 OA
ATOM     43  H   UNL     1      -7.853  12.406  14.658  1.00  0.00     0.293 HD
ENDBRANCH  41  42
ENDBRANCH  35  36
ENDBRANCH  34  35
BRANCH  34  44
ATOM     44  C   UNL     1      -3.195   8.165  11.017  1.00  0.00     0.243 C 
ATOM     45  O   UNL     1      -3.354   8.398   9.822  1.00  0.00    -0.273 OA
ATOM     46  N   UNL     1      -2.087   8.613  11.704  1.00  0.00    -0.341 N 
ATOM     47  H   UNL     1      -1.937   8.298  12.659  1.00  0.00     0.164 HD
BRANCH  46  48
ATOM     48  C   UNL     1      -1.044   9.444  11.098  1.00  0.00     0.196 C 
BRANCH  48  49
ATOM     49  C   UNL     1      -1.201  10.921  11.498  1.00  0.00     0.072 C 
BRANCH  49  50
ATOM     50  C   UNL     1      -2.385  11.581  10.828  1.00  0.00    -0.045 A 
ATOM     51  C   UNL     1      -2.351  11.845   9.451  1.00  0.00     0.007 A 
ATOM     52  C   UNL     1      -3.514  11.957  11.566  1.00  0.00     0.007 A 
ATOM     53  C   UNL     1      -3.432  12.466   8.824  1.00  0.00     0.046 A 
ATOM     54  C   UNL     1      -4.596  12.580  10.939  1.00  0.00     0.046 A 
ATOM     55  C   UNL     1      -4.545  12.829   9.572  1.00  0.00     0.115 A 
BRANCH  55  56
ATOM     56  O   UNL     1      -5.579  13.435   8.923  1.00  0.00    -0.508 OA
ATOM     57  H   UNL     1      -6.040  12.768   8.389  1.00  0.00     0.293 HD
ENDBRANCH  55  56
ENDBRANCH  49  50
ENDBRANCH  48  49
BRANCH  48  58
ATOM     58  C   UNL     1       0.330   8.931  11.553  1.00  0.00     0.326 C 
ATOM     59  O   UNL     1       0.605   8.400  12.616  1.00  0.00    -0.250 OA
BRANCH  58  60
ATOM     60  O   UNL     1       1.305   9.102  10.625  1.00  0.00    -0.480 OA
ATOM     61  H   UNL     1       1.381  10.078  10.554  1.00  0.00     0.296 HD
ENDBRANCH  58  60
ENDBRANCH  48  58
ENDBRANCH  46  48
ENDBRANCH  34  44
ENDBRANCH  32  34
ENDBRANCH  25  30
ENDBRANCH  23  25
ENDBRANCH   2  23
TORSDOF 28
ENDMDL
MODEL 27
REMARK VINA RESULT:    -5.622      2.653      8.001
REMARK INTER + INTRA:         -20.453
REMARK INTER:                 -14.402
REMARK INTRA:                  -6.051
REMARK UNBOUND:                -6.451
REMARK SMILES CCCCCCC[C@H](N)[C@H](O)C(=O)N[C@H](C)C(=O)N(C)[C@H](CC(C)C)C(=O)N[C@@H](Cc1ccc(O)cc1)C(=O)N[C@@H](Cc1ccc(O)cc1)C(=O)O
REMARK SMILES IDX 18 1 17 2 15 3 16 4 14 5 12 6 13 7 10 9 11 10 8 12 9 13 7 16
REMARK SMILES IDX 6 17 5 18 4 19 3 20 2 21 1 22 19 23 20 24 21 25 22 26 23 27
REMARK SMILES IDX 24 28 25 29 26 30 27 31 28 32 29 34 30 35 31 36 32 37 37 38
REMARK SMILES IDX 33 39 36 40 34 41 35 42 38 44 39 45 40 46 41 48 42 49 43 50
REMARK SMILES IDX 44 51 49 52 45 53 48 54 46 55 47 56 50 58 51 59 52 60
REMARK H PARENT 14 8 11 11 9 14 9 15 28 33 35 43 40 47 47 57 52 61
ROOT
ATOM      1  O   UNL     1       0.320   9.565   5.422  1.00  0.00    -0.272 OA
ATOM      2  C   UNL     1       1.235   9.657   6.254  1.00  0.00     0.245 C 
ENDROOT
BRANCH   2   3
ATOM      3  C   UNL     1       1.078  10.666   7.420  1.00  0.00     0.168 C 
ATOM      4  C   UNL     1       0.280  11.887   6.976  1.00  0.00     0.041 C 
BRANCH   3   5
ATOM      5  N   UNL     1       0.557  10.097   8.653  1.00  0.00    -0.342 N 
ATOM      6  C   UNL     1       1.290  10.097   9.821  1.00  0.00     0.251 C 
ATOM      7  O   UNL     1       2.435  10.530   9.901  1.00  0.00    -0.272 OA
ATOM      8  H   UNL     1      -0.368   9.677   8.701  1.00  0.00     0.164 HD
BRANCH   6   9
ATOM      9  C   UNL     1       0.489   9.577  11.025  1.00  0.00     0.219 C 
BRANCH   9  10
ATOM     10  O   UNL     1       1.295   8.826  11.942  1.00  0.00    -0.382 OA
ATOM     11  H   UNL     1       0.696   8.106  12.239  1.00  0.00     0.211 HD
ENDBRANCH   9  10
BRANCH   9  12
ATOM     12  C   UNL     1      -0.292  10.694  11.766  1.00  0.00     0.089 C 
BRANCH  12  13
ATOM     13  N   UNL     1       0.263  12.004  11.354  1.00  0.00    -0.325 NA
ATOM     14  H   UNL     1      -0.389  12.744  11.619  1.00  0.00     0.119 HD
ATOM     15  H   UNL     1       0.306  12.039  10.333  1.00  0.00     0.119 HD
ENDBRANCH  12  13
BRANCH  12  16
ATOM     16  C   UNL     1      -1.828  10.685  11.580  1.00  0.00     0.022 C 
BRANCH  16  17
ATOM     17  C   UNL     1      -2.730  10.811  12.815  1.00  0.00     0.002 C 
BRANCH  17  18
ATOM     18  C   UNL     1      -4.069  11.503  12.567  1.00  0.00     0.000 C 
BRANCH  18  19
ATOM     19  C   UNL     1      -5.196  11.033  13.496  1.00  0.00    -0.000 C 
BRANCH  19  20
ATOM     20  C   UNL     1      -6.613  11.210  12.941  1.00  0.00    -0.000 C 
BRANCH  20  21
ATOM     21  C   UNL     1      -7.252   9.890  12.499  1.00  0.00    -0.003 C 
ATOM     22  C   UNL     1      -7.530   8.984  13.689  1.00  0.00     0.004 C 
ENDBRANCH  20  21
ENDBRANCH  19  20
ENDBRANCH  18  19
ENDBRANCH  17  18
ENDBRANCH  16  17
ENDBRANCH  12  16
ENDBRANCH   9  12
ENDBRANCH   6   9
ENDBRANCH   3   5
ENDBRANCH   2   3
BRANCH   2  23
ATOM     23  N   UNL     1       2.315   8.783   6.200  1.00  0.00    -0.332 N 
ATOM     24  C   UNL     1       3.710   9.195   6.155  1.00  0.00     0.147 C 
BRANCH  23  25
ATOM     25  C   UNL     1       2.099   7.315   6.316  1.00  0.00     0.174 C 
BRANCH  25  26
ATOM     26  C   UNL     1       1.627   6.668   4.992  1.00  0.00     0.038 C 
BRANCH  26  27
ATOM     27  C   UNL     1       2.689   6.485   3.885  1.00  0.00    -0.015 C 
ATOM     28  C   UNL     1       3.031   5.016   3.641  1.00  0.00     0.007 C 
ATOM     29  C   UNL     1       2.325   7.176   2.574  1.00  0.00     0.007 C 
ENDBRANCH  26  27
ENDBRANCH  25  26
BRANCH  25  30
ATOM     30  C   UNL     1       1.180   7.006   7.521  1.00  0.00     0.243 C 
ATOM     31  O   UNL     1       1.607   6.983   8.674  1.00  0.00    -0.273 OA
ATOM     32  N   UNL     1      -0.133   6.754   7.216  1.00  0.00    -0.342 N 
ATOM     33  H   UNL     1      -0.439   6.930   6.256  1.00  0.00     0.164 HD
BRANCH  32  34
ATOM     34  C   UNL     1      -1.140   6.417   8.226  1.00  0.00     0.175 C 
BRANCH  34  35
ATOM     35  C   UNL     1      -2.041   7.621   8.540  1.00  0.00     0.070 C 
BRANCH  35  36
ATOM     36  C   UNL     1      -2.674   7.535   9.911  1.00  0.00    -0.045 A 
ATOM     37  C   UNL     1      -1.946   7.008  10.988  1.00  0.00     0.007 A 
ATOM     38  C   UNL     1      -3.993   7.957  10.121  1.00  0.00     0.007 A 
ATOM     39  C   UNL     1      -2.526   6.912  12.253  1.00  0.00     0.046 A 
ATOM     40  C   UNL     1      -4.575   7.860  11.387  1.00  0.00     0.046 A 
ATOM     41  C   UNL     1      -3.835   7.339  12.443  1.00  0.00     0.115 A 
BRANCH  41  42
ATOM     42  O   UNL     1      -4.366   7.226  13.694  1.00  0.00    -0.508 OA
ATOM     43  H   UNL     1      -3.810   6.615  14.206  1.00  0.00     0.293 HD
ENDBRANCH  41  42
ENDBRANCH  35  36
ENDBRANCH  34  35
BRANCH  34  44
ATOM     44  C   UNL     1      -1.951   5.208   7.708  1.00  0.00     0.243 C 
ATOM     45  O   UNL     1      -1.459   4.131   7.381  1.00  0.00    -0.273 OA
ATOM     46  N   UNL     1      -3.288   5.485   7.518  1.00  0.00    -0.341 N 
ATOM     47  H   UNL     1      -3.627   6.428   7.693  1.00  0.00     0.164 HD
BRANCH  46  48
ATOM     48  C   UNL     1      -4.241   4.517   6.971  1.00  0.00     0.196 C 
BRANCH  48  49
ATOM     49  C   UNL     1      -5.263   4.076   8.032  1.00  0.00     0.072 C 
BRANCH  49  50
ATOM     50  C   UNL     1      -4.609   3.467   9.251  1.00  0.00    -0.045 A 
ATOM     51  C   UNL     1      -4.531   4.201  10.444  1.00  0.00     0.007 A 
ATOM     52  C   UNL     1      -4.057   2.180   9.206  1.00  0.00     0.007 A 
ATOM     53  C   UNL     1      -3.918   3.654  11.571  1.00  0.00     0.046 A 
ATOM     54  C   UNL     1      -3.442   1.633  10.334  1.00  0.00     0.046 A 
ATOM     55  C   UNL     1      -3.379   2.375  11.508  1.00  0.00     0.115 A 
BRANCH  55  56
ATOM     56  O   UNL     1      -2.787   1.877  12.631  1.00  0.00    -0.508 OA
ATOM     57  H   UNL     1      -2.754   2.582  13.298  1.00  0.00     0.293 HD
ENDBRANCH  55  56
ENDBRANCH  49  50
ENDBRANCH  48  49
BRANCH  48  58
ATOM     58  C   UNL     1      -4.976   5.156   5.784  1.00  0.00     0.326 C 
ATOM     59  O   UNL     1      -4.623   5.167   4.615  1.00  0.00    -0.250 OA
BRANCH  58  60
ATOM     60  O   UNL     1      -6.147   5.749   6.127  1.00  0.00    -0.480 OA
ATOM     61  H   UNL     1      -5.941   6.707   6.068  1.00  0.00     0.296 HD
ENDBRANCH  58  60
ENDBRANCH  48  58
ENDBRANCH  46  48
ENDBRANCH  34  44
ENDBRANCH  32  34
ENDBRANCH  25  30
ENDBRANCH  23  25
ENDBRANCH   2  23
TORSDOF 28
ENDMDL
MODEL 28
REMARK VINA RESULT:    -5.577      2.170      5.129
REMARK INTER + INTRA:         -20.341
REMARK INTER:                 -13.936
REMARK INTRA:                  -6.405
REMARK UNBOUND:                -6.451
REMARK SMILES CCCCCCC[C@H](N)[C@H](O)C(=O)N[C@H](C)C(=O)N(C)[C@H](CC(C)C)C(=O)N[C@@H](Cc1ccc(O)cc1)C(=O)N[C@@H](Cc1ccc(O)cc1)C(=O)O
REMARK SMILES IDX 18 1 17 2 15 3 16 4 14 5 12 6 13 7 10 9 11 10 8 12 9 13 7 16
REMARK SMILES IDX 6 17 5 18 4 19 3 20 2 21 1 22 19 23 20 24 21 25 22 26 23 27
REMARK SMILES IDX 24 28 25 29 26 30 27 31 28 32 29 34 30 35 31 36 32 37 37 38
REMARK SMILES IDX 33 39 36 40 34 41 35 42 38 44 39 45 40 46 41 48 42 49 43 50
REMARK SMILES IDX 44 51 49 52 45 53 48 54 46 55 47 56 50 58 51 59 52 60
REMARK H PARENT 14 8 11 11 9 14 9 15 28 33 35 43 40 47 47 57 52 61
ROOT
ATOM      1  O   UNL     1      -3.040   8.095  10.836  1.00  0.00    -0.272 OA
ATOM      2  C   UNL     1      -2.638   8.393  11.970  1.00  0.00     0.245 C 
ENDROOT
BRANCH   2   3
ATOM      3  C   UNL     1      -2.195   7.255  12.923  1.00  0.00     0.168 C 
ATOM      4  C   UNL     1      -2.445   7.639  14.377  1.00  0.00     0.041 C 
BRANCH   3   5
ATOM      5  N   UNL     1      -2.742   5.945  12.606  1.00  0.00    -0.342 N 
ATOM      6  C   UNL     1      -2.074   5.054  11.793  1.00  0.00     0.251 C 
ATOM      7  O   UNL     1      -1.004   5.307  11.248  1.00  0.00    -0.272 OA
ATOM      8  H   UNL     1      -3.640   5.636  12.971  1.00  0.00     0.164 HD
BRANCH   6   9
ATOM      9  C   UNL     1      -2.769   3.686  11.713  1.00  0.00     0.219 C 
BRANCH   9  10
ATOM     10  O   UNL     1      -3.015   3.115  13.004  1.00  0.00    -0.382 OA
ATOM     11  H   UNL     1      -2.161   2.688  13.235  1.00  0.00     0.211 HD
ENDBRANCH   9  10
BRANCH   9  12
ATOM     12  C   UNL     1      -4.067   3.710  10.865  1.00  0.00     0.089 C 
BRANCH  12  13
ATOM     13  N   UNL     1      -4.136   5.007  10.153  1.00  0.00    -0.325 NA
ATOM     14  H   UNL     1      -3.624   4.935   9.272  1.00  0.00     0.119 HD
ATOM     15  H   UNL     1      -3.632   5.711  10.698  1.00  0.00     0.119 HD
ENDBRANCH  12  13
BRANCH  12  16
ATOM     16  C   UNL     1      -4.244   2.544   9.863  1.00  0.00     0.022 C 
BRANCH  16  17
ATOM     17  C   UNL     1      -3.053   2.120   8.992  1.00  0.00     0.002 C 
BRANCH  17  18
ATOM     18  C   UNL     1      -2.848   2.955   7.730  1.00  0.00     0.000 C 
BRANCH  18  19
ATOM     19  C   UNL     1      -1.495   3.677   7.672  1.00  0.00    -0.000 C 
BRANCH  19  20
ATOM     20  C   UNL     1      -0.322   2.910   8.289  1.00  0.00    -0.000 C 
BRANCH  20  21
ATOM     21  C   UNL     1       0.812   3.826   8.758  1.00  0.00    -0.003 C 
ATOM     22  C   UNL     1       2.073   3.611   7.937  1.00  0.00     0.004 C 
ENDBRANCH  20  21
ENDBRANCH  19  20
ENDBRANCH  18  19
ENDBRANCH  17  18
ENDBRANCH  16  17
ENDBRANCH  12  16
ENDBRANCH   9  12
ENDBRANCH   6   9
ENDBRANCH   3   5
ENDBRANCH   2   3
BRANCH   2  23
ATOM     23  N   UNL     1      -2.477   9.730  12.321  1.00  0.00    -0.332 N 
ATOM     24  C   UNL     1      -1.191  10.378  12.535  1.00  0.00     0.147 C 
BRANCH  23  25
ATOM     25  C   UNL     1      -3.654  10.639  12.377  1.00  0.00     0.174 C 
BRANCH  25  26
ATOM     26  C   UNL     1      -4.960   9.909  12.771  1.00  0.00     0.038 C 
BRANCH  26  27
ATOM     27  C   UNL     1      -5.304   9.852  14.276  1.00  0.00    -0.015 C 
ATOM     28  C   UNL     1      -6.012  11.117  14.762  1.00  0.00     0.007 C 
ATOM     29  C   UNL     1      -6.095   8.608  14.671  1.00  0.00     0.007 C 
ENDBRANCH  26  27
ENDBRANCH  25  26
BRANCH  25  30
ATOM     30  C   UNL     1      -3.765  11.447  11.065  1.00  0.00     0.243 C 
ATOM     31  O   UNL     1      -4.443  12.471  10.987  1.00  0.00    -0.273 OA
ATOM     32  N   UNL     1      -3.066  10.945   9.997  1.00  0.00    -0.342 N 
ATOM     33  H   UNL     1      -2.417  10.175  10.177  1.00  0.00     0.164 HD
BRANCH  32  34
ATOM     34  C   UNL     1      -3.077  11.564   8.669  1.00  0.00     0.175 C 
BRANCH  34  35
ATOM     35  C   UNL     1      -2.044  12.697   8.572  1.00  0.00     0.070 C 
BRANCH  35  36
ATOM     36  C   UNL     1      -0.721  12.339   9.212  1.00  0.00    -0.045 A 
ATOM     37  C   UNL     1      -0.261  13.061  10.324  1.00  0.00     0.007 A 
ATOM     38  C   UNL     1       0.071  11.305   8.696  1.00  0.00     0.007 A 
ATOM     39  C   UNL     1       0.964  12.747  10.912  1.00  0.00     0.046 A 
ATOM     40  C   UNL     1       1.299  10.991   9.284  1.00  0.00     0.046 A 
ATOM     41  C   UNL     1       1.733  11.715  10.389  1.00  0.00     0.115 A 
BRANCH  41  42
ATOM     42  O   UNL     1       2.926  11.443  10.991  1.00  0.00    -0.508 OA
ATOM     43  H   UNL     1       2.813  10.654  11.547  1.00  0.00     0.293 HD
ENDBRANCH  41  42
ENDBRANCH  35  36
ENDBRANCH  34  35
BRANCH  34  44
ATOM     44  C   UNL     1      -2.818  10.456   7.623  1.00  0.00     0.243 C 
ATOM     45  O   UNL     1      -2.996  10.587   6.415  1.00  0.00    -0.273 OA
ATOM     46  N   UNL     1      -2.487   9.240   8.182  1.00  0.00    -0.341 N 
ATOM     47  H   UNL     1      -2.466   9.151   9.195  1.00  0.00     0.164 HD
BRANCH  46  48
ATOM     48  C   UNL     1      -2.262   8.025   7.395  1.00  0.00     0.196 C 
BRANCH  48  49
ATOM     49  C   UNL     1      -1.154   7.156   8.011  1.00  0.00     0.072 C 
BRANCH  49  50
ATOM     50  C   UNL     1       0.230   7.585   7.578  1.00  0.00    -0.045 A 
ATOM     51  C   UNL     1       1.339   7.281   8.382  1.00  0.00     0.007 A 
ATOM     52  C   UNL     1       0.424   8.304   6.392  1.00  0.00     0.007 A 
ATOM     53  C   UNL     1       2.619   7.683   8.000  1.00  0.00     0.046 A 
ATOM     54  C   UNL     1       1.706   8.708   6.010  1.00  0.00     0.046 A 
ATOM     55  C   UNL     1       2.793   8.393   6.817  1.00  0.00     0.115 A 
BRANCH  55  56
ATOM     56  O   UNL     1       4.060   8.769   6.481  1.00  0.00    -0.508 OA
ATOM     57  H   UNL     1       4.162   9.713   6.684  1.00  0.00     0.293 HD
ENDBRANCH  55  56
ENDBRANCH  49  50
ENDBRANCH  48  49
BRANCH  48  58
ATOM     58  C   UNL     1      -3.570   7.223   7.330  1.00  0.00     0.326 C 
ATOM     59  O   UNL     1      -3.975   6.544   6.401  1.00  0.00    -0.250 OA
BRANCH  58  60
ATOM     60  O   UNL     1      -4.310   7.304   8.464  1.00  0.00    -0.480 OA
ATOM     61  H   UNL     1      -5.006   7.958   8.234  1.00  0.00     0.296 HD
ENDBRANCH  58  60
ENDBRANCH  48  58
ENDBRANCH  46  48
ENDBRANCH  34  44
ENDBRANCH  32  34
ENDBRANCH  25  30
ENDBRANCH  23  25
ENDBRANCH   2  23
TORSDOF 28
ENDMDL
MODEL 29
REMARK VINA RESULT:    -5.547      2.630      6.343
REMARK INTER + INTRA:         -20.267
REMARK INTER:                 -15.345
REMARK INTRA:                  -4.922
REMARK UNBOUND:                -6.451
REMARK SMILES CCCCCCC[C@H](N)[C@H](O)C(=O)N[C@H](C)C(=O)N(C)[C@H](CC(C)C)C(=O)N[C@@H](Cc1ccc(O)cc1)C(=O)N[C@@H](Cc1ccc(O)cc1)C(=O)O
REMARK SMILES IDX 18 1 17 2 15 3 16 4 14 5 12 6 13 7 10 9 11 10 8 12 9 13 7 16
REMARK SMILES IDX 6 17 5 18 4 19 3 20 2 21 1 22 19 23 20 24 21 25 22 26 23 27
REMARK SMILES IDX 24 28 25 29 26 30 27 31 28 32 29 34 30 35 31 36 32 37 37 38
REMARK SMILES IDX 33 39 36 40 34 41 35 42 38 44 39 45 40 46 41 48 42 49 43 50
REMARK SMILES IDX 44 51 49 52 45 53 48 54 46 55 47 56 50 58 51 59 52 60
REMARK H PARENT 14 8 11 11 9 14 9 15 28 33 35 43 40 47 47 57 52 61
ROOT
ATOM      1  O   UNL     1      -3.970   4.955   6.970  1.00  0.00    -0.272 OA
ATOM      2  C   UNL     1      -3.397   4.476   7.960  1.00  0.00     0.245 C 
ENDROOT
BRANCH   2   3
ATOM      3  C   UNL     1      -1.873   4.210   7.878  1.00  0.00     0.168 C 
ATOM      4  C   UNL     1      -1.567   3.127   6.849  1.00  0.00     0.041 C 
BRANCH   3   5
ATOM      5  N   UNL     1      -1.056   5.396   7.677  1.00  0.00    -0.342 N 
ATOM      6  C   UNL     1      -0.290   5.933   8.690  1.00  0.00     0.251 C 
ATOM      7  O   UNL     1      -0.270   5.486   9.832  1.00  0.00    -0.272 OA
ATOM      8  H   UNL     1      -1.019   5.875   6.780  1.00  0.00     0.164 HD
BRANCH   6   9
ATOM      9  C   UNL     1       0.598   7.093   8.212  1.00  0.00     0.219 C 
BRANCH   9  10
ATOM     10  O   UNL     1       1.996   6.795   8.307  1.00  0.00    -0.382 OA
ATOM     11  H   UNL     1       2.042   6.135   9.033  1.00  0.00     0.211 HD
ENDBRANCH   9  10
BRANCH   9  12
ATOM     12  C   UNL     1       0.236   7.591   6.788  1.00  0.00     0.089 C 
BRANCH  12  13
ATOM     13  N   UNL     1      -1.129   8.164   6.826  1.00  0.00    -0.325 NA
ATOM     14  H   UNL     1      -1.263   8.766   6.011  1.00  0.00     0.119 HD
ATOM     15  H   UNL     1      -1.204   8.788   7.633  1.00  0.00     0.119 HD
ENDBRANCH  12  13
BRANCH  12  16
ATOM     16  C   UNL     1       1.220   8.602   6.153  1.00  0.00     0.022 C 
BRANCH  16  17
ATOM     17  C   UNL     1       2.392   8.077   5.313  1.00  0.00     0.002 C 
BRANCH  17  18
ATOM     18  C   UNL     1       2.731   8.918   4.084  1.00  0.00     0.000 C 
BRANCH  18  19
ATOM     19  C   UNL     1       2.375   8.247   2.750  1.00  0.00    -0.000 C 
BRANCH  19  20
ATOM     20  C   UNL     1       0.901   8.345   2.346  1.00  0.00    -0.000 C 
BRANCH  20  21
ATOM     21  C   UNL     1       0.283   6.989   1.997  1.00  0.00    -0.003 C 
ATOM     22  C   UNL     1      -0.146   6.236   3.247  1.00  0.00     0.004 C 
ENDBRANCH  20  21
ENDBRANCH  19  20
ENDBRANCH  18  19
ENDBRANCH  17  18
ENDBRANCH  16  17
ENDBRANCH  12  16
ENDBRANCH   9  12
ENDBRANCH   6   9
ENDBRANCH   3   5
ENDBRANCH   2   3
BRANCH   2  23
ATOM     23  N   UNL     1      -4.095   4.302   9.151  1.00  0.00    -0.332 N 
ATOM     24  C   UNL     1      -5.293   3.488   9.294  1.00  0.00     0.147 C 
BRANCH  23  25
ATOM     25  C   UNL     1      -3.561   4.860  10.423  1.00  0.00     0.174 C 
BRANCH  25  26
ATOM     26  C   UNL     1      -4.174   4.195  11.677  1.00  0.00     0.038 C 
BRANCH  26  27
ATOM     27  C   UNL     1      -3.321   4.211  12.966  1.00  0.00    -0.015 C 
ATOM     28  C   UNL     1      -3.851   5.199  14.004  1.00  0.00     0.007 C 
ATOM     29  C   UNL     1      -3.132   2.829  13.587  1.00  0.00     0.007 C 
ENDBRANCH  26  27
ENDBRANCH  25  26
BRANCH  25  30
ATOM     30  C   UNL     1      -3.677   6.402  10.418  1.00  0.00     0.243 C 
ATOM     31  O   UNL     1      -4.615   6.981   9.872  1.00  0.00    -0.273 OA
ATOM     32  N   UNL     1      -2.666   7.076  11.053  1.00  0.00    -0.342 N 
ATOM     33  H   UNL     1      -2.001   6.524  11.602  1.00  0.00     0.164 HD
BRANCH  32  34
ATOM     34  C   UNL     1      -2.598   8.538  11.124  1.00  0.00     0.175 C 
BRANCH  34  35
ATOM     35  C   UNL     1      -3.090   9.055  12.485  1.00  0.00     0.070 C 
BRANCH  35  36
ATOM     36  C   UNL     1      -4.374   9.845  12.381  1.00  0.00    -0.045 A 
ATOM     37  C   UNL     1      -5.607   9.215  12.608  1.00  0.00     0.007 A 
ATOM     38  C   UNL     1      -4.356  11.203  12.035  1.00  0.00     0.007 A 
ATOM     39  C   UNL     1      -6.798   9.933  12.500  1.00  0.00     0.046 A 
ATOM     40  C   UNL     1      -5.549  11.923  11.926  1.00  0.00     0.046 A 
ATOM     41  C   UNL     1      -6.760  11.280  12.161  1.00  0.00     0.115 A 
BRANCH  41  42
ATOM     42  O   UNL     1      -7.946  11.945  12.063  1.00  0.00    -0.508 OA
ATOM     43  H   UNL     1      -7.829  12.688  11.449  1.00  0.00     0.293 HD
ENDBRANCH  41  42
ENDBRANCH  35  36
ENDBRANCH  34  35
BRANCH  34  44
ATOM     44  C   UNL     1      -1.140   8.963  10.838  1.00  0.00     0.243 C 
ATOM     45  O   UNL     1      -0.152   8.447  11.353  1.00  0.00    -0.273 OA
ATOM     46  N   UNL     1      -1.042  10.080  10.035  1.00  0.00    -0.341 N 
ATOM     47  H   UNL     1      -1.894  10.543   9.727  1.00  0.00     0.164 HD
BRANCH  46  48
ATOM     48  C   UNL     1       0.233  10.709   9.682  1.00  0.00     0.196 C 
BRANCH  48  49
ATOM     49  C   UNL     1       0.116  11.518   8.379  1.00  0.00     0.072 C 
BRANCH  49  50
ATOM     50  C   UNL     1      -1.316  11.857   8.032  1.00  0.00    -0.045 A 
ATOM     51  C   UNL     1      -1.810  11.575   6.750  1.00  0.00     0.007 A 
ATOM     52  C   UNL     1      -2.159  12.472   8.967  1.00  0.00     0.007 A 
ATOM     53  C   UNL     1      -3.125  11.895   6.413  1.00  0.00     0.046 A 
ATOM     54  C   UNL     1      -3.476  12.793   8.629  1.00  0.00     0.046 A 
ATOM     55  C   UNL     1      -3.948  12.501   7.355  1.00  0.00     0.115 A 
BRANCH  55  56
ATOM     56  O   UNL     1      -5.226  12.800   6.985  1.00  0.00    -0.508 OA
ATOM     57  H   UNL     1      -5.820  12.554   7.713  1.00  0.00     0.293 HD
ENDBRANCH  55  56
ENDBRANCH  49  50
ENDBRANCH  48  49
BRANCH  48  58
ATOM     58  C   UNL     1       0.666  11.636  10.826  1.00  0.00     0.326 C 
ATOM     59  O   UNL     1      -0.048  12.149  11.673  1.00  0.00    -0.250 OA
BRANCH  58  60
ATOM     60  O   UNL     1       2.003  11.864  10.861  1.00  0.00    -0.480 OA
ATOM     61  H   UNL     1       2.388  10.963  10.808  1.00  0.00     0.296 HD
ENDBRANCH  58  60
ENDBRANCH  48  58
ENDBRANCH  46  48
ENDBRANCH  34  44
ENDBRANCH  32  34
ENDBRANCH  25  30
ENDBRANCH  23  25
ENDBRANCH   2  23
TORSDOF 28
ENDMDL
MODEL 30
REMARK VINA RESULT:    -5.503      3.082      6.555
REMARK INTER + INTRA:         -20.157
REMARK INTER:                 -15.241
REMARK INTRA:                  -4.916
REMARK UNBOUND:                -6.451
REMARK SMILES CCCCCCC[C@H](N)[C@H](O)C(=O)N[C@H](C)C(=O)N(C)[C@H](CC(C)C)C(=O)N[C@@H](Cc1ccc(O)cc1)C(=O)N[C@@H](Cc1ccc(O)cc1)C(=O)O
REMARK SMILES IDX 18 1 17 2 15 3 16 4 14 5 12 6 13 7 10 9 11 10 8 12 9 13 7 16
REMARK SMILES IDX 6 17 5 18 4 19 3 20 2 21 1 22 19 23 20 24 21 25 22 26 23 27
REMARK SMILES IDX 24 28 25 29 26 30 27 31 28 32 29 34 30 35 31 36 32 37 37 38
REMARK SMILES IDX 33 39 36 40 34 41 35 42 38 44 39 45 40 46 41 48 42 49 43 50
REMARK SMILES IDX 44 51 49 52 45 53 48 54 46 55 47 56 50 58 51 59 52 60
REMARK H PARENT 14 8 11 11 9 14 9 15 28 33 35 43 40 47 47 57 52 61
ROOT
ATOM      1  O   UNL     1      -4.395   7.748   9.538  1.00  0.00    -0.272 OA
ATOM      2  C   UNL     1      -3.877   8.243  10.550  1.00  0.00     0.245 C 
ENDROOT
BRANCH   2   3
ATOM      3  C   UNL     1      -4.344   9.646  11.011  1.00  0.00     0.168 C 
ATOM      4  C   UNL     1      -5.227   9.543  12.250  1.00  0.00     0.041 C 
BRANCH   3   5
ATOM      5  N   UNL     1      -3.277  10.619  11.185  1.00  0.00    -0.342 N 
ATOM      6  C   UNL     1      -2.840  11.415  10.147  1.00  0.00     0.251 C 
ATOM      7  O   UNL     1      -3.281  11.338   9.005  1.00  0.00    -0.272 OA
ATOM      8  H   UNL     1      -2.810  10.749  12.080  1.00  0.00     0.164 HD
BRANCH   6   9
ATOM      9  C   UNL     1      -1.809  12.463  10.594  1.00  0.00     0.219 C 
BRANCH   9  10
ATOM     10  O   UNL     1      -2.253  13.229  11.721  1.00  0.00    -0.382 OA
ATOM     11  H   UNL     1      -1.523  13.870  11.866  1.00  0.00     0.211 HD
ENDBRANCH   9  10
BRANCH   9  12
ATOM     12  C   UNL     1      -0.404  11.862  10.856  1.00  0.00     0.089 C 
BRANCH  12  13
ATOM     13  N   UNL     1      -0.471  11.034  12.083  1.00  0.00    -0.325 NA
ATOM     14  H   UNL     1      -0.516  11.647  12.899  1.00  0.00     0.119 HD
ATOM     15  H   UNL     1       0.407  10.519  12.183  1.00  0.00     0.119 HD
ENDBRANCH  12  13
BRANCH  12  16
ATOM     16  C   UNL     1       0.211  11.043   9.696  1.00  0.00     0.022 C 
BRANCH  16  17
ATOM     17  C   UNL     1       0.666  11.774   8.425  1.00  0.00     0.002 C 
BRANCH  17  18
ATOM     18  C   UNL     1      -0.034  11.332   7.142  1.00  0.00     0.000 C 
BRANCH  18  19
ATOM     19  C   UNL     1       0.863  11.369   5.897  1.00  0.00    -0.000 C 
BRANCH  19  20
ATOM     20  C   UNL     1       1.080  10.016   5.212  1.00  0.00    -0.000 C 
BRANCH  20  21
ATOM     21  C   UNL     1       2.524   9.518   5.313  1.00  0.00    -0.003 C 
ATOM     22  C   UNL     1       3.469  10.636   5.723  1.00  0.00     0.004 C 
ENDBRANCH  20  21
ENDBRANCH  19  20
ENDBRANCH  18  19
ENDBRANCH  17  18
ENDBRANCH  16  17
ENDBRANCH  12  16
ENDBRANCH   9  12
ENDBRANCH   6   9
ENDBRANCH   3   5
ENDBRANCH   2   3
BRANCH   2  23
ATOM     23  N   UNL     1      -2.988   7.494  11.314  1.00  0.00    -0.332 N 
ATOM     24  C   UNL     1      -1.547   7.696  11.340  1.00  0.00     0.147 C 
BRANCH  23  25
ATOM     25  C   UNL     1      -3.497   6.484  12.282  1.00  0.00     0.174 C 
BRANCH  25  26
ATOM     26  C   UNL     1      -2.862   6.623  13.686  1.00  0.00     0.038 C 
BRANCH  26  27
ATOM     27  C   UNL     1      -3.820   6.569  14.897  1.00  0.00    -0.015 C 
ATOM     28  C   UNL     1      -4.148   7.957  15.445  1.00  0.00     0.007 C 
ATOM     29  C   UNL     1      -5.101   5.784  14.623  1.00  0.00     0.007 C 
ENDBRANCH  26  27
ENDBRANCH  25  26
BRANCH  25  30
ATOM     30  C   UNL     1      -3.378   5.064  11.684  1.00  0.00     0.243 C 
ATOM     31  O   UNL     1      -2.569   4.243  12.114  1.00  0.00    -0.273 OA
ATOM     32  N   UNL     1      -4.224   4.786  10.641  1.00  0.00    -0.342 N 
ATOM     33  H   UNL     1      -4.960   5.466  10.435  1.00  0.00     0.164 HD
BRANCH  32  34
ATOM     34  C   UNL     1      -4.232   3.503   9.935  1.00  0.00     0.175 C 
BRANCH  34  35
ATOM     35  C   UNL     1      -5.538   2.734  10.187  1.00  0.00     0.070 C 
BRANCH  35  36
ATOM     36  C   UNL     1      -5.559   2.039  11.530  1.00  0.00    -0.045 A 
ATOM     37  C   UNL     1      -5.148   0.702  11.634  1.00  0.00     0.007 A 
ATOM     38  C   UNL     1      -6.006   2.707  12.678  1.00  0.00     0.007 A 
ATOM     39  C   UNL     1      -5.176   0.048  12.867  1.00  0.00     0.046 A 
ATOM     40  C   UNL     1      -6.036   2.053  13.912  1.00  0.00     0.046 A 
ATOM     41  C   UNL     1      -5.619   0.728  13.995  1.00  0.00     0.115 A 
BRANCH  41  42
ATOM     42  O   UNL     1      -5.633   0.053  15.179  1.00  0.00    -0.508 OA
ATOM     43  H   UNL     1      -4.853  -0.526  15.210  1.00  0.00     0.293 HD
ENDBRANCH  41  42
ENDBRANCH  35  36
ENDBRANCH  34  35
BRANCH  34  44
ATOM     44  C   UNL     1      -4.007   3.782   8.432  1.00  0.00     0.243 C 
ATOM     45  O   UNL     1      -3.683   2.930   7.609  1.00  0.00    -0.273 OA
ATOM     46  N   UNL     1      -4.076   5.120   8.106  1.00  0.00    -0.341 N 
ATOM     47  H   UNL     1      -4.231   5.801   8.845  1.00  0.00     0.164 HD
BRANCH  46  48
ATOM     48  C   UNL     1      -3.830   5.635   6.757  1.00  0.00     0.196 C 
BRANCH  48  49
ATOM     49  C   UNL     1      -2.486   5.133   6.202  1.00  0.00     0.072 C 
BRANCH  49  50
ATOM     50  C   UNL     1      -1.299   5.777   6.882  1.00  0.00    -0.045 A 
ATOM     51  C   UNL     1      -1.305   7.155   7.143  1.00  0.00     0.007 A 
ATOM     52  C   UNL     1      -0.176   5.020   7.241  1.00  0.00     0.007 A 
ATOM     53  C   UNL     1      -0.210   7.762   7.758  1.00  0.00     0.046 A 
ATOM     54  C   UNL     1       0.921   5.628   7.855  1.00  0.00     0.046 A 
ATOM     55  C   UNL     1       0.893   6.995   8.109  1.00  0.00     0.115 A 
BRANCH  55  56
ATOM     56  O   UNL     1       1.944   7.627   8.707  1.00  0.00    -0.508 OA
ATOM     57  H   UNL     1       1.995   7.330   9.629  1.00  0.00     0.293 HD
ENDBRANCH  55  56
ENDBRANCH  49  50
ENDBRANCH  48  49
BRANCH  48  58
ATOM     58  C   UNL     1      -4.970   5.181   5.835  1.00  0.00     0.326 C 
ATOM     59  O   UNL     1      -4.901   4.387   4.911  1.00  0.00    -0.250 OA
BRANCH  58  60
ATOM     60  O   UNL     1      -6.166   5.747   6.134  1.00  0.00    -0.480 OA
ATOM     61  H   UNL     1      -6.619   5.790   5.264  1.00  0.00     0.296 HD
ENDBRANCH  58  60
ENDBRANCH  48  58
ENDBRANCH  46  48
ENDBRANCH  34  44
ENDBRANCH  32  34
ENDBRANCH  25  30
ENDBRANCH  23  25
ENDBRANCH   2  23
TORSDOF 28
ENDMDL
MODEL 31
REMARK VINA RESULT:    -5.488      2.526      5.728
REMARK INTER + INTRA:         -20.121
REMARK INTER:                 -14.476
REMARK INTRA:                  -5.645
REMARK UNBOUND:                -6.451
REMARK SMILES CCCCCCC[C@H](N)[C@H](O)C(=O)N[C@H](C)C(=O)N(C)[C@H](CC(C)C)C(=O)N[C@@H](Cc1ccc(O)cc1)C(=O)N[C@@H](Cc1ccc(O)cc1)C(=O)O
REMARK SMILES IDX 18 1 17 2 15 3 16 4 14 5 12 6 13 7 10 9 11 10 8 12 9 13 7 16
REMARK SMILES IDX 6 17 5 18 4 19 3 20 2 21 1 22 19 23 20 24 21 25 22 26 23 27
REMARK SMILES IDX 24 28 25 29 26 30 27 31 28 32 29 34 30 35 31 36 32 37 37 38
REMARK SMILES IDX 33 39 36 40 34 41 35 42 38 44 39 45 40 46 41 48 42 49 43 50
REMARK SMILES IDX 44 51 49 52 45 53 48 54 46 55 47 56 50 58 51 59 52 60
REMARK H PARENT 14 8 11 11 9 14 9 15 28 33 35 43 40 47 47 57 52 61
ROOT
ATOM      1  O   UNL     1      -3.274   9.399   9.104  1.00  0.00    -0.272 OA
ATOM      2  C   UNL     1      -2.922  10.337   9.835  1.00  0.00     0.245 C 
ENDROOT
BRANCH   2   3
ATOM      3  C   UNL     1      -1.687  11.175   9.421  1.00  0.00     0.168 C 
ATOM      4  C   UNL     1      -0.525  10.936  10.378  1.00  0.00     0.041 C 
BRANCH   3   5
ATOM      5  N   UNL     1      -1.284  11.025   8.031  1.00  0.00    -0.342 N 
ATOM      6  C   UNL     1      -1.030  12.114   7.225  1.00  0.00     0.251 C 
ATOM      7  O   UNL     1      -1.161  13.276   7.596  1.00  0.00    -0.272 OA
ATOM      8  H   UNL     1      -1.176  10.110   7.600  1.00  0.00     0.164 HD
BRANCH   6   9
ATOM      9  C   UNL     1      -0.483  11.717   5.844  1.00  0.00     0.219 C 
BRANCH   9  10
ATOM     10  O   UNL     1      -0.824  12.661   4.822  1.00  0.00    -0.382 OA
ATOM     11  H   UNL     1       0.045  13.020   4.540  1.00  0.00     0.211 HD
ENDBRANCH   9  10
BRANCH   9  12
ATOM     12  C   UNL     1       1.043  11.439   5.850  1.00  0.00     0.089 C 
BRANCH  12  13
ATOM     13  N   UNL     1       1.494  11.340   7.257  1.00  0.00    -0.325 NA
ATOM     14  H   UNL     1       2.054  10.493   7.371  1.00  0.00     0.119 HD
ATOM     15  H   UNL     1       0.678  11.203   7.858  1.00  0.00     0.119 HD
ENDBRANCH  12  13
BRANCH  12  16
ATOM     16  C   UNL     1       1.509  10.197   5.054  1.00  0.00     0.022 C 
BRANCH  16  17
ATOM     17  C   UNL     1       2.720   9.399   5.556  1.00  0.00     0.002 C 
BRANCH  17  18
ATOM     18  C   UNL     1       2.629   7.889   5.345  1.00  0.00     0.000 C 
BRANCH  18  19
ATOM     19  C   UNL     1       3.990   7.194   5.214  1.00  0.00    -0.000 C 
BRANCH  19  20
ATOM     20  C   UNL     1       4.823   7.148   6.499  1.00  0.00    -0.000 C 
BRANCH  20  21
ATOM     21  C   UNL     1       4.038   6.622   7.703  1.00  0.00    -0.003 C 
ATOM     22  C   UNL     1       3.828   5.118   7.615  1.00  0.00     0.004 C 
ENDBRANCH  20  21
ENDBRANCH  19  20
ENDBRANCH  18  19
ENDBRANCH  17  18
ENDBRANCH  16  17
ENDBRANCH  12  16
ENDBRANCH   9  12
ENDBRANCH   6   9
ENDBRANCH   3   5
ENDBRANCH   2   3
BRANCH   2  23
ATOM     23  N   UNL     1      -3.699  10.694  10.931  1.00  0.00    -0.332 N 
ATOM     24  C   UNL     1      -3.992  12.064  11.325  1.00  0.00     0.147 C 
BRANCH  23  25
ATOM     25  C   UNL     1      -4.408   9.650  11.722  1.00  0.00     0.174 C 
BRANCH  25  26
ATOM     26  C   UNL     1      -5.422  10.242  12.728  1.00  0.00     0.038 C 
BRANCH  26  27
ATOM     27  C   UNL     1      -6.921  10.009  12.430  1.00  0.00    -0.015 C 
ATOM     28  C   UNL     1      -7.627   9.244  13.549  1.00  0.00     0.007 C 
ATOM     29  C   UNL     1      -7.679  11.290  12.094  1.00  0.00     0.007 C 
ENDBRANCH  26  27
ENDBRANCH  25  26
BRANCH  25  30
ATOM     30  C   UNL     1      -3.385   8.685  12.365  1.00  0.00     0.243 C 
ATOM     31  O   UNL     1      -2.744   8.993  13.369  1.00  0.00    -0.273 OA
ATOM     32  N   UNL     1      -3.239   7.474  11.741  1.00  0.00    -0.342 N 
ATOM     33  H   UNL     1      -3.905   7.238  11.001  1.00  0.00     0.164 HD
BRANCH  32  34
ATOM     34  C   UNL     1      -2.297   6.447  12.194  1.00  0.00     0.175 C 
BRANCH  34  35
ATOM     35  C   UNL     1      -3.033   5.243  12.802  1.00  0.00     0.070 C 
BRANCH  35  36
ATOM     36  C   UNL     1      -3.307   4.153  11.790  1.00  0.00    -0.045 A 
ATOM     37  C   UNL     1      -4.189   4.390  10.725  1.00  0.00     0.007 A 
ATOM     38  C   UNL     1      -2.707   2.892  11.911  1.00  0.00     0.007 A 
ATOM     39  C   UNL     1      -4.459   3.386   9.794  1.00  0.00     0.046 A 
ATOM     40  C   UNL     1      -2.977   1.886  10.980  1.00  0.00     0.046 A 
ATOM     41  C   UNL     1      -3.851   2.143   9.928  1.00  0.00     0.115 A 
BRANCH  41  42
ATOM     42  O   UNL     1      -4.143   1.189   8.999  1.00  0.00    -0.508 OA
ATOM     43  H   UNL     1      -4.993   1.416   8.587  1.00  0.00     0.293 HD
ENDBRANCH  41  42
ENDBRANCH  35  36
ENDBRANCH  34  35
BRANCH  34  44
ATOM     44  C   UNL     1      -1.418   6.038  10.990  1.00  0.00     0.243 C 
ATOM     45  O   UNL     1      -0.469   5.262  11.056  1.00  0.00    -0.273 OA
ATOM     46  N   UNL     1      -1.712   6.732   9.836  1.00  0.00    -0.341 N 
ATOM     47  H   UNL     1      -2.431   7.451   9.861  1.00  0.00     0.164 HD
BRANCH  46  48
ATOM     48  C   UNL     1      -0.969   6.566   8.584  1.00  0.00     0.196 C 
BRANCH  48  49
ATOM     49  C   UNL     1      -1.904   6.631   7.365  1.00  0.00     0.072 C 
BRANCH  49  50
ATOM     50  C   UNL     1      -2.432   5.273   6.963  1.00  0.00    -0.045 A 
ATOM     51  C   UNL     1      -1.661   4.125   7.201  1.00  0.00     0.007 A 
ATOM     52  C   UNL     1      -3.677   5.140   6.335  1.00  0.00     0.007 A 
ATOM     53  C   UNL     1      -2.132   2.868   6.822  1.00  0.00     0.046 A 
ATOM     54  C   UNL     1      -4.147   3.881   5.955  1.00  0.00     0.046 A 
ATOM     55  C   UNL     1      -3.370   2.755   6.203  1.00  0.00     0.115 A 
BRANCH  55  56
ATOM     56  O   UNL     1      -3.793   1.508   5.847  1.00  0.00    -0.508 OA
ATOM     57  H   UNL     1      -3.662   1.402   4.892  1.00  0.00     0.293 HD
ENDBRANCH  55  56
ENDBRANCH  49  50
ENDBRANCH  48  49
BRANCH  48  58
ATOM     58  C   UNL     1       0.089   7.673   8.481  1.00  0.00     0.326 C 
ATOM     59  O   UNL     1       1.066   7.831   9.196  1.00  0.00    -0.250 OA
BRANCH  58  60
ATOM     60  O   UNL     1      -0.128   8.536   7.457  1.00  0.00    -0.480 OA
ATOM     61  H   UNL     1      -1.034   8.306   7.156  1.00  0.00     0.296 HD
ENDBRANCH  58  60
ENDBRANCH  48  58
ENDBRANCH  46  48
ENDBRANCH  34  44
ENDBRANCH  32  34
ENDBRANCH  25  30
ENDBRANCH  23  25
ENDBRANCH   2  23
TORSDOF 28
ENDMDL
MODEL 32
REMARK VINA RESULT:    -5.479      4.103      7.696
REMARK INTER + INTRA:         -20.097
REMARK INTER:                 -15.662
REMARK INTRA:                  -4.435
REMARK UNBOUND:                -6.451
REMARK SMILES CCCCCCC[C@H](N)[C@H](O)C(=O)N[C@H](C)C(=O)N(C)[C@H](CC(C)C)C(=O)N[C@@H](Cc1ccc(O)cc1)C(=O)N[C@@H](Cc1ccc(O)cc1)C(=O)O
REMARK SMILES IDX 18 1 17 2 15 3 16 4 14 5 12 6 13 7 10 9 11 10 8 12 9 13 7 16
REMARK SMILES IDX 6 17 5 18 4 19 3 20 2 21 1 22 19 23 20 24 21 25 22 26 23 27
REMARK SMILES IDX 24 28 25 29 26 30 27 31 28 32 29 34 30 35 31 36 32 37 37 38
REMARK SMILES IDX 33 39 36 40 34 41 35 42 38 44 39 45 40 46 41 48 42 49 43 50
REMARK SMILES IDX 44 51 49 52 45 53 48 54 46 55 47 56 50 58 51 59 52 60
REMARK H PARENT 14 8 11 11 9 14 9 15 28 33 35 43 40 47 47 57 52 61
ROOT
ATOM      1  O   UNL     1       2.674   6.556   8.251  1.00  0.00    -0.272 OA
ATOM      2  C   UNL     1       2.770   7.707   7.799  1.00  0.00     0.245 C 
ENDROOT
BRANCH   2   3
ATOM      3  C   UNL     1       3.102   7.889   6.297  1.00  0.00     0.168 C 
ATOM      4  C   UNL     1       4.610   7.856   6.068  1.00  0.00     0.041 C 
BRANCH   3   5
ATOM      5  N   UNL     1       2.398   6.984   5.402  1.00  0.00    -0.342 N 
ATOM      6  C   UNL     1       1.147   7.280   4.904  1.00  0.00     0.251 C 
ATOM      7  O   UNL     1       0.521   8.292   5.205  1.00  0.00    -0.272 OA
ATOM      8  H   UNL     1       2.802   6.098   5.109  1.00  0.00     0.164 HD
BRANCH   6   9
ATOM      9  C   UNL     1       0.660   6.253   3.870  1.00  0.00     0.219 C 
BRANCH   9  10
ATOM     10  O   UNL     1      -0.756   6.311   3.657  1.00  0.00    -0.382 OA
ATOM     11  H   UNL     1      -0.884   5.820   2.816  1.00  0.00     0.211 HD
ENDBRANCH   9  10
BRANCH   9  12
ATOM     12  C   UNL     1       1.423   6.336   2.523  1.00  0.00     0.089 C 
BRANCH  12  13
ATOM     13  N   UNL     1       1.487   4.978   1.936  1.00  0.00    -0.325 NA
ATOM     14  H   UNL     1       1.797   4.318   2.652  1.00  0.00     0.119 HD
ATOM     15  H   UNL     1       2.217   4.960   1.221  1.00  0.00     0.119 HD
ENDBRANCH  12  13
BRANCH  12  16
ATOM     16  C   UNL     1       0.860   7.337   1.485  1.00  0.00     0.022 C 
BRANCH  16  17
ATOM     17  C   UNL     1       1.723   8.530   1.053  1.00  0.00     0.002 C 
BRANCH  17  18
ATOM     18  C   UNL     1       3.088   8.163   0.476  1.00  0.00     0.000 C 
BRANCH  18  19
ATOM     19  C   UNL     1       3.473   8.962  -0.776  1.00  0.00    -0.000 C 
BRANCH  19  20
ATOM     20  C   UNL     1       4.773   8.522  -1.455  1.00  0.00    -0.000 C 
BRANCH  20  21
ATOM     21  C   UNL     1       5.500   9.670  -2.160  1.00  0.00    -0.003 C 
ATOM     22  C   UNL     1       6.240  10.551  -1.166  1.00  0.00     0.004 C 
ENDBRANCH  20  21
ENDBRANCH  19  20
ENDBRANCH  18  19
ENDBRANCH  17  18
ENDBRANCH  16  17
ENDBRANCH  12  16
ENDBRANCH   9  12
ENDBRANCH   6   9
ENDBRANCH   3   5
ENDBRANCH   2   3
BRANCH   2  23
ATOM     23  N   UNL     1       2.462   8.798   8.605  1.00  0.00    -0.332 N 
ATOM     24  C   UNL     1       3.391   9.429   9.531  1.00  0.00     0.147 C 
BRANCH  23  25
ATOM     25  C   UNL     1       1.150   9.487   8.467  1.00  0.00     0.174 C 
BRANCH  25  26
ATOM     26  C   UNL     1       1.149  10.909   9.076  1.00  0.00     0.038 C 
BRANCH  26  27
ATOM     27  C   UNL     1      -0.227  11.575   9.297  1.00  0.00    -0.015 C 
ATOM     28  C   UNL     1      -0.310  12.320  10.629  1.00  0.00     0.007 C 
ATOM     29  C   UNL     1      -0.653  12.484   8.146  1.00  0.00     0.007 C 
ENDBRANCH  26  27
ENDBRANCH  25  26
BRANCH  25  30
ATOM     30  C   UNL     1       0.015   8.582   8.999  1.00  0.00     0.243 C 
ATOM     31  O   UNL     1       0.015   8.149  10.150  1.00  0.00    -0.273 OA
ATOM     32  N   UNL     1      -0.982   8.292   8.103  1.00  0.00    -0.342 N 
ATOM     33  H   UNL     1      -0.984   8.802   7.216  1.00  0.00     0.164 HD
BRANCH  32  34
ATOM     34  C   UNL     1      -2.122   7.429   8.424  1.00  0.00     0.175 C 
BRANCH  34  35
ATOM     35  C   UNL     1      -3.315   8.248   8.939  1.00  0.00     0.070 C 
BRANCH  35  36
ATOM     36  C   UNL     1      -3.684   7.910  10.367  1.00  0.00    -0.045 A 
ATOM     37  C   UNL     1      -3.259   6.698  10.933  1.00  0.00     0.007 A 
ATOM     38  C   UNL     1      -4.468   8.782  11.133  1.00  0.00     0.007 A 
ATOM     39  C   UNL     1      -3.605   6.371  12.244  1.00  0.00     0.046 A 
ATOM     40  C   UNL     1      -4.816   8.455  12.445  1.00  0.00     0.046 A 
ATOM     41  C   UNL     1      -4.380   7.251  12.990  1.00  0.00     0.115 A 
BRANCH  41  42
ATOM     42  O   UNL     1      -4.699   6.893  14.266  1.00  0.00    -0.508 OA
ATOM     43  H   UNL     1      -4.659   5.924  14.329  1.00  0.00     0.293 HD
ENDBRANCH  41  42
ENDBRANCH  35  36
ENDBRANCH  34  35
BRANCH  34  44
ATOM     44  C   UNL     1      -2.481   6.620   7.157  1.00  0.00     0.243 C 
ATOM     45  O   UNL     1      -2.165   6.942   6.015  1.00  0.00    -0.273 OA
ATOM     46  N   UNL     1      -3.313   5.549   7.408  1.00  0.00    -0.341 N 
ATOM     47  H   UNL     1      -3.643   5.391   8.357  1.00  0.00     0.164 HD
BRANCH  46  48
ATOM     48  C   UNL     1      -3.842   4.677   6.357  1.00  0.00     0.196 C 
BRANCH  48  49
ATOM     49  C   UNL     1      -3.932   3.218   6.833  1.00  0.00     0.072 C 
BRANCH  49  50
ATOM     50  C   UNL     1      -3.870   3.092   8.339  1.00  0.00    -0.045 A 
ATOM     51  C   UNL     1      -5.027   3.298   9.105  1.00  0.00     0.007 A 
ATOM     52  C   UNL     1      -2.666   2.792   8.988  1.00  0.00     0.007 A 
ATOM     53  C   UNL     1      -4.980   3.198  10.495  1.00  0.00     0.046 A 
ATOM     54  C   UNL     1      -2.619   2.693  10.381  1.00  0.00     0.046 A 
ATOM     55  C   UNL     1      -3.777   2.896  11.123  1.00  0.00     0.115 A 
BRANCH  55  56
ATOM     56  O   UNL     1      -3.773   2.809  12.483  1.00  0.00    -0.508 OA
ATOM     57  H   UNL     1      -2.871   2.980  12.798  1.00  0.00     0.293 HD
ENDBRANCH  55  56
ENDBRANCH  49  50
ENDBRANCH  48  49
BRANCH  48  58
ATOM     58  C   UNL     1      -5.237   5.173   5.952  1.00  0.00     0.326 C 
ATOM     59  O   UNL     1      -6.276   4.533   5.946  1.00  0.00    -0.250 OA
BRANCH  58  60
ATOM     60  O   UNL     1      -5.261   6.478   5.580  1.00  0.00    -0.480 OA
ATOM     61  H   UNL     1      -4.440   6.841   5.977  1.00  0.00     0.296 HD
ENDBRANCH  58  60
ENDBRANCH  48  58
ENDBRANCH  46  48
ENDBRANCH  34  44
ENDBRANCH  32  34
ENDBRANCH  25  30
ENDBRANCH  23  25
ENDBRANCH   2  23
TORSDOF 28
ENDMDL
MODEL 33
REMARK VINA RESULT:    -5.462      2.987      5.466
REMARK INTER + INTRA:         -20.056
REMARK INTER:                 -15.998
REMARK INTRA:                  -4.058
REMARK UNBOUND:                -6.451
REMARK SMILES CCCCCCC[C@H](N)[C@H](O)C(=O)N[C@H](C)C(=O)N(C)[C@H](CC(C)C)C(=O)N[C@@H](Cc1ccc(O)cc1)C(=O)N[C@@H](Cc1ccc(O)cc1)C(=O)O
REMARK SMILES IDX 18 1 17 2 15 3 16 4 14 5 12 6 13 7 10 9 11 10 8 12 9 13 7 16
REMARK SMILES IDX 6 17 5 18 4 19 3 20 2 21 1 22 19 23 20 24 21 25 22 26 23 27
REMARK SMILES IDX 24 28 25 29 26 30 27 31 28 32 29 34 30 35 31 36 32 37 37 38
REMARK SMILES IDX 33 39 36 40 34 41 35 42 38 44 39 45 40 46 41 48 42 49 43 50
REMARK SMILES IDX 44 51 49 52 45 53 48 54 46 55 47 56 50 58 51 59 52 60
REMARK H PARENT 14 8 11 11 9 14 9 15 28 33 35 43 40 47 47 57 52 61
ROOT
ATOM      1  O   UNL     1      -2.123   6.316   7.620  1.00  0.00    -0.272 OA
ATOM      2  C   UNL     1      -1.977   5.995   8.809  1.00  0.00     0.245 C 
ENDROOT
BRANCH   2   3
ATOM      3  C   UNL     1      -0.645   5.333   9.239  1.00  0.00     0.168 C 
ATOM      4  C   UNL     1      -0.883   4.294  10.329  1.00  0.00     0.041 C 
BRANCH   3   5
ATOM      5  N   UNL     1       0.153   4.798   8.146  1.00  0.00    -0.342 N 
ATOM      6  C   UNL     1       1.359   5.359   7.782  1.00  0.00     0.251 C 
ATOM      7  O   UNL     1       1.826   6.360   8.314  1.00  0.00    -0.272 OA
ATOM      8  H   UNL     1      -0.150   3.990   7.607  1.00  0.00     0.164 HD
BRANCH   6   9
ATOM      9  C   UNL     1       2.090   4.546   6.702  1.00  0.00     0.219 C 
BRANCH   9  10
ATOM     10  O   UNL     1       1.425   3.316   6.390  1.00  0.00    -0.382 OA
ATOM     11  H   UNL     1       1.672   2.725   7.134  1.00  0.00     0.211 HD
ENDBRANCH   9  10
BRANCH   9  12
ATOM     12  C   UNL     1       2.372   5.362   5.413  1.00  0.00     0.089 C 
BRANCH  12  13
ATOM     13  N   UNL     1       2.581   4.413   4.296  1.00  0.00    -0.325 NA
ATOM     14  H   UNL     1       3.525   4.535   3.923  1.00  0.00     0.119 HD
ATOM     15  H   UNL     1       1.956   4.664   3.526  1.00  0.00     0.119 HD
ENDBRANCH  12  13
BRANCH  12  16
ATOM     16  C   UNL     1       1.302   6.411   5.026  1.00  0.00     0.022 C 
BRANCH  16  17
ATOM     17  C   UNL     1       0.049   5.954   4.267  1.00  0.00     0.002 C 
BRANCH  17  18
ATOM     18  C   UNL     1      -0.120   6.564   2.877  1.00  0.00     0.000 C 
BRANCH  18  19
ATOM     19  C   UNL     1       0.788   5.942   1.808  1.00  0.00    -0.000 C 
BRANCH  19  20
ATOM     20  C   UNL     1       1.318   6.921   0.756  1.00  0.00    -0.000 C 
BRANCH  20  21
ATOM     21  C   UNL     1       1.376   8.367   1.258  1.00  0.00    -0.003 C 
ATOM     22  C   UNL     1       2.138   9.259   0.291  1.00  0.00     0.004 C 
ENDBRANCH  20  21
ENDBRANCH  19  20
ENDBRANCH  18  19
ENDBRANCH  17  18
ENDBRANCH  16  17
ENDBRANCH  12  16
ENDBRANCH   9  12
ENDBRANCH   6   9
ENDBRANCH   3   5
ENDBRANCH   2   3
BRANCH   2  23
ATOM     23  N   UNL     1      -2.945   6.340   9.747  1.00  0.00    -0.332 N 
ATOM     24  C   UNL     1      -4.240   5.690   9.874  1.00  0.00     0.147 C 
BRANCH  23  25
ATOM     25  C   UNL     1      -2.645   7.352  10.797  1.00  0.00     0.174 C 
BRANCH  25  26
ATOM     26  C   UNL     1      -3.014   6.869  12.220  1.00  0.00     0.038 C 
BRANCH  26  27
ATOM     27  C   UNL     1      -1.960   7.089  13.328  1.00  0.00    -0.015 C 
ATOM     28  C   UNL     1      -0.642   7.637  12.782  1.00  0.00     0.007 C 
ATOM     29  C   UNL     1      -2.464   7.953  14.482  1.00  0.00     0.007 C 
ENDBRANCH  26  27
ENDBRANCH  25  26
BRANCH  25  30
ATOM     30  C   UNL     1      -3.275   8.712  10.420  1.00  0.00     0.243 C 
ATOM     31  O   UNL     1      -3.807   8.902   9.328  1.00  0.00    -0.273 OA
ATOM     32  N   UNL     1      -3.193   9.690  11.379  1.00  0.00    -0.342 N 
ATOM     33  H   UNL     1      -2.865   9.415  12.308  1.00  0.00     0.164 HD
BRANCH  32  34
ATOM     34  C   UNL     1      -3.710  11.047  11.186  1.00  0.00     0.175 C 
BRANCH  34  35
ATOM     35  C   UNL     1      -4.290  11.615  12.490  1.00  0.00     0.070 C 
BRANCH  35  36
ATOM     36  C   UNL     1      -5.419  10.775  13.043  1.00  0.00    -0.045 A 
ATOM     37  C   UNL     1      -5.297  10.179  14.307  1.00  0.00     0.007 A 
ATOM     38  C   UNL     1      -6.587  10.560  12.299  1.00  0.00     0.007 A 
ATOM     39  C   UNL     1      -6.328   9.390  14.820  1.00  0.00     0.046 A 
ATOM     40  C   UNL     1      -7.619   9.770  12.810  1.00  0.00     0.046 A 
ATOM     41  C   UNL     1      -7.480   9.193  14.068  1.00  0.00     0.115 A 
BRANCH  41  42
ATOM     42  O   UNL     1      -8.462   8.414  14.604  1.00  0.00    -0.508 OA
ATOM     43  H   UNL     1      -9.161   8.304  13.938  1.00  0.00     0.293 HD
ENDBRANCH  41  42
ENDBRANCH  35  36
ENDBRANCH  34  35
BRANCH  34  44
ATOM     44  C   UNL     1      -2.562  11.923  10.635  1.00  0.00     0.243 C 
ATOM     45  O   UNL     1      -2.019  12.828  11.261  1.00  0.00    -0.273 OA
ATOM     46  N   UNL     1      -2.279  11.684   9.307  1.00  0.00    -0.341 N 
ATOM     47  H   UNL     1      -2.837  11.003   8.797  1.00  0.00     0.164 HD
BRANCH  46  48
ATOM     48  C   UNL     1      -1.277  12.437   8.548  1.00  0.00     0.196 C 
BRANCH  48  49
ATOM     49  C   UNL     1      -0.210  11.505   7.951  1.00  0.00     0.072 C 
BRANCH  49  50
ATOM     50  C   UNL     1       0.888  11.171   8.936  1.00  0.00    -0.045 A 
ATOM     51  C   UNL     1       1.680  10.030   8.739  1.00  0.00     0.007 A 
ATOM     52  C   UNL     1       1.116  11.973  10.061  1.00  0.00     0.007 A 
ATOM     53  C   UNL     1       2.687   9.705   9.648  1.00  0.00     0.046 A 
ATOM     54  C   UNL     1       2.123  11.647  10.972  1.00  0.00     0.046 A 
ATOM     55  C   UNL     1       2.901  10.515  10.757  1.00  0.00     0.115 A 
BRANCH  55  56
ATOM     56  O   UNL     1       3.893  10.160  11.622  1.00  0.00    -0.508 OA
ATOM     57  H   UNL     1       3.506  10.056  12.506  1.00  0.00     0.293 HD
ENDBRANCH  55  56
ENDBRANCH  49  50
ENDBRANCH  48  49
BRANCH  48  58
ATOM     58  C   UNL     1      -1.979  13.205   7.420  1.00  0.00     0.326 C 
ATOM     59  O   UNL     1      -1.529  13.476   6.319  1.00  0.00    -0.250 OA
BRANCH  58  60
ATOM     60  O   UNL     1      -3.243  13.590   7.732  1.00  0.00    -0.480 OA
ATOM     61  H   UNL     1      -3.746  12.748   7.715  1.00  0.00     0.296 HD
ENDBRANCH  58  60
ENDBRANCH  48  58
ENDBRANCH  46  48
ENDBRANCH  34  44
ENDBRANCH  32  34
ENDBRANCH  25  30
ENDBRANCH  23  25
ENDBRANCH   2  23
TORSDOF 28
ENDMDL
MODEL 34
REMARK VINA RESULT:    -5.457      2.271      5.510
REMARK INTER + INTRA:         -20.042
REMARK INTER:                 -13.323
REMARK INTRA:                  -6.719
REMARK UNBOUND:                -6.451
REMARK SMILES CCCCCCC[C@H](N)[C@H](O)C(=O)N[C@H](C)C(=O)N(C)[C@H](CC(C)C)C(=O)N[C@@H](Cc1ccc(O)cc1)C(=O)N[C@@H](Cc1ccc(O)cc1)C(=O)O
REMARK SMILES IDX 18 1 17 2 15 3 16 4 14 5 12 6 13 7 10 9 11 10 8 12 9 13 7 16
REMARK SMILES IDX 6 17 5 18 4 19 3 20 2 21 1 22 19 23 20 24 21 25 22 26 23 27
REMARK SMILES IDX 24 28 25 29 26 30 27 31 28 32 29 34 30 35 31 36 32 37 37 38
REMARK SMILES IDX 33 39 36 40 34 41 35 42 38 44 39 45 40 46 41 48 42 49 43 50
REMARK SMILES IDX 44 51 49 52 45 53 48 54 46 55 47 56 50 58 51 59 52 60
REMARK H PARENT 14 8 11 11 9 14 9 15 28 33 35 43 40 47 47 57 52 61
ROOT
ATOM      1  O   UNL     1      -3.850   9.045   9.849  1.00  0.00    -0.272 OA
ATOM      2  C   UNL     1      -3.796  10.037  10.591  1.00  0.00     0.245 C 
ENDROOT
BRANCH   2   3
ATOM      3  C   UNL     1      -3.854  11.446   9.949  1.00  0.00     0.168 C 
ATOM      4  C   UNL     1      -4.407  12.468  10.936  1.00  0.00     0.041 C 
BRANCH   3   5
ATOM      5  N   UNL     1      -2.609  11.894   9.345  1.00  0.00    -0.342 N 
ATOM      6  C   UNL     1      -2.316  11.658   8.019  1.00  0.00     0.251 C 
ATOM      7  O   UNL     1      -3.049  11.025   7.267  1.00  0.00    -0.272 OA
ATOM      8  H   UNL     1      -1.905  12.400   9.879  1.00  0.00     0.164 HD
BRANCH   6   9
ATOM      9  C   UNL     1      -1.017  12.343   7.565  1.00  0.00     0.219 C 
BRANCH   9  10
ATOM     10  O   UNL     1      -0.062  12.474   8.625  1.00  0.00    -0.382 OA
ATOM     11  H   UNL     1       0.706  12.907   8.192  1.00  0.00     0.211 HD
ENDBRANCH   9  10
BRANCH   9  12
ATOM     12  C   UNL     1      -0.374  11.670   6.325  1.00  0.00     0.089 C 
BRANCH  12  13
ATOM     13  N   UNL     1      -1.198  11.993   5.138  1.00  0.00    -0.325 NA
ATOM     14  H   UNL     1      -2.081  12.406   5.444  1.00  0.00     0.119 HD
ATOM     15  H   UNL     1      -1.459  11.123   4.669  1.00  0.00     0.119 HD
ENDBRANCH  12  13
BRANCH  12  16
ATOM     16  C   UNL     1       1.109  12.022   6.055  1.00  0.00     0.022 C 
BRANCH  16  17
ATOM     17  C   UNL     1       2.158  10.902   6.078  1.00  0.00     0.002 C 
BRANCH  17  18
ATOM     18  C   UNL     1       2.313  10.191   7.420  1.00  0.00     0.000 C 
BRANCH  18  19
ATOM     19  C   UNL     1       3.606   9.375   7.550  1.00  0.00    -0.000 C 
BRANCH  19  20
ATOM     20  C   UNL     1       3.782   8.267   6.508  1.00  0.00    -0.000 C 
BRANCH  20  21
ATOM     21  C   UNL     1       4.761   7.177   6.952  1.00  0.00    -0.003 C 
ATOM     22  C   UNL     1       5.632   7.650   8.105  1.00  0.00     0.004 C 
ENDBRANCH  20  21
ENDBRANCH  19  20
ENDBRANCH  18  19
ENDBRANCH  17  18
ENDBRANCH  16  17
ENDBRANCH  12  16
ENDBRANCH   9  12
ENDBRANCH   6   9
ENDBRANCH   3   5
ENDBRANCH   2   3
BRANCH   2  23
ATOM     23  N   UNL     1      -3.807   9.875  11.972  1.00  0.00    -0.332 N 
ATOM     24  C   UNL     1      -3.197  10.798  12.917  1.00  0.00     0.147 C 
BRANCH  23  25
ATOM     25  C   UNL     1      -4.586   8.767  12.591  1.00  0.00     0.174 C 
BRANCH  25  26
ATOM     26  C   UNL     1      -5.227   9.163  13.942  1.00  0.00     0.038 C 
BRANCH  26  27
ATOM     27  C   UNL     1      -6.590   8.522  14.284  1.00  0.00    -0.015 C 
ATOM     28  C   UNL     1      -6.447   7.274  15.154  1.00  0.00     0.007 C 
ATOM     29  C   UNL     1      -7.582   9.501  14.908  1.00  0.00     0.007 C 
ENDBRANCH  26  27
ENDBRANCH  25  26
BRANCH  25  30
ATOM     30  C   UNL     1      -3.722   7.487  12.665  1.00  0.00     0.243 C 
ATOM     31  O   UNL     1      -3.142   7.152  13.697  1.00  0.00    -0.273 OA
ATOM     32  N   UNL     1      -3.642   6.758  11.506  1.00  0.00    -0.342 N 
ATOM     33  H   UNL     1      -4.263   7.022  10.737  1.00  0.00     0.164 HD
BRANCH  32  34
ATOM     34  C   UNL     1      -2.848   5.532  11.383  1.00  0.00     0.175 C 
BRANCH  34  35
ATOM     35  C   UNL     1      -3.542   4.506  10.475  1.00  0.00     0.070 C 
BRANCH  35  36
ATOM     36  C   UNL     1      -3.249   4.731   9.008  1.00  0.00    -0.045 A 
ATOM     37  C   UNL     1      -3.952   5.715   8.296  1.00  0.00     0.007 A 
ATOM     38  C   UNL     1      -2.297   3.953   8.337  1.00  0.00     0.007 A 
ATOM     39  C   UNL     1      -3.699   5.921   6.939  1.00  0.00     0.046 A 
ATOM     40  C   UNL     1      -2.044   4.158   6.979  1.00  0.00     0.046 A 
ATOM     41  C   UNL     1      -2.747   5.142   6.292  1.00  0.00     0.115 A 
BRANCH  41  42
ATOM     42  O   UNL     1      -2.533   5.373   4.965  1.00  0.00    -0.508 OA
ATOM     43  H   UNL     1      -1.846   6.056   4.883  1.00  0.00     0.293 HD
ENDBRANCH  41  42
ENDBRANCH  35  36
ENDBRANCH  34  35
BRANCH  34  44
ATOM     44  C   UNL     1      -1.449   5.919  10.854  1.00  0.00     0.243 C 
ATOM     45  O   UNL     1      -0.435   5.247  11.019  1.00  0.00    -0.273 OA
ATOM     46  N   UNL     1      -1.406   7.173  10.281  1.00  0.00    -0.341 N 
ATOM     47  H   UNL     1      -2.250   7.741  10.273  1.00  0.00     0.164 HD
BRANCH  46  48
ATOM     48  C   UNL     1      -0.177   7.783   9.770  1.00  0.00     0.196 C 
BRANCH  48  49
ATOM     49  C   UNL     1      -0.318   8.169   8.288  1.00  0.00     0.072 C 
BRANCH  49  50
ATOM     50  C   UNL     1       0.329   7.164   7.362  1.00  0.00    -0.045 A 
ATOM     51  C   UNL     1       1.037   6.076   7.895  1.00  0.00     0.007 A 
ATOM     52  C   UNL     1       0.253   7.312   5.971  1.00  0.00     0.007 A 
ATOM     53  C   UNL     1       1.649   5.150   7.050  1.00  0.00     0.046 A 
ATOM     54  C   UNL     1       0.867   6.385   5.125  1.00  0.00     0.046 A 
ATOM     55  C   UNL     1       1.560   5.311   5.673  1.00  0.00     0.115 A 
BRANCH  55  56
ATOM     56  O   UNL     1       2.174   4.385   4.883  1.00  0.00    -0.508 OA
ATOM     57  H   UNL     1       1.862   4.505   3.972  1.00  0.00     0.293 HD
ENDBRANCH  55  56
ENDBRANCH  49  50
ENDBRANCH  48  49
BRANCH  48  58
ATOM     58  C   UNL     1       0.140   9.035  10.599  1.00  0.00     0.326 C 
ATOM     59  O   UNL     1      -0.266  10.170  10.409  1.00  0.00    -0.250 OA
BRANCH  58  60
ATOM     60  O   UNL     1       0.956   8.792  11.656  1.00  0.00    -0.480 OA
ATOM     61  H   UNL     1       1.734   8.356  11.245  1.00  0.00     0.296 HD
ENDBRANCH  58  60
ENDBRANCH  48  58
ENDBRANCH  46  48
ENDBRANCH  34  44
ENDBRANCH  32  34
ENDBRANCH  25  30
ENDBRANCH  23  25
ENDBRANCH   2  23
TORSDOF 28
ENDMDL
MODEL 35
REMARK VINA RESULT:    -5.446      2.540      6.674
REMARK INTER + INTRA:         -20.016
REMARK INTER:                 -15.152
REMARK INTRA:                  -4.864
REMARK UNBOUND:                -6.451
REMARK SMILES CCCCCCC[C@H](N)[C@H](O)C(=O)N[C@H](C)C(=O)N(C)[C@H](CC(C)C)C(=O)N[C@@H](Cc1ccc(O)cc1)C(=O)N[C@@H](Cc1ccc(O)cc1)C(=O)O
REMARK SMILES IDX 18 1 17 2 15 3 16 4 14 5 12 6 13 7 10 9 11 10 8 12 9 13 7 16
REMARK SMILES IDX 6 17 5 18 4 19 3 20 2 21 1 22 19 23 20 24 21 25 22 26 23 27
REMARK SMILES IDX 24 28 25 29 26 30 27 31 28 32 29 34 30 35 31 36 32 37 37 38
REMARK SMILES IDX 33 39 36 40 34 41 35 42 38 44 39 45 40 46 41 48 42 49 43 50
REMARK SMILES IDX 44 51 49 52 45 53 48 54 46 55 47 56 50 58 51 59 52 60
REMARK H PARENT 14 8 11 11 9 14 9 15 28 33 35 43 40 47 47 57 52 61
ROOT
ATOM      1  O   UNL     1       0.819   7.590   8.681  1.00  0.00    -0.272 OA
ATOM      2  C   UNL     1       1.411   8.538   8.143  1.00  0.00     0.245 C 
ENDROOT
BRANCH   2   3
ATOM      3  C   UNL     1       2.940   8.671   8.350  1.00  0.00     0.168 C 
ATOM      4  C   UNL     1       3.249   9.439   9.631  1.00  0.00     0.041 C 
BRANCH   3   5
ATOM      5  N   UNL     1       3.678   7.419   8.278  1.00  0.00    -0.342 N 
ATOM      6  C   UNL     1       3.928   6.790   7.077  1.00  0.00     0.251 C 
ATOM      7  O   UNL     1       3.519   7.206   5.997  1.00  0.00    -0.272 OA
ATOM      8  H   UNL     1       4.037   6.959   9.111  1.00  0.00     0.164 HD
BRANCH   6   9
ATOM      9  C   UNL     1       4.842   5.564   7.227  1.00  0.00     0.219 C 
BRANCH   9  10
ATOM     10  O   UNL     1       5.877   5.762   8.198  1.00  0.00    -0.382 OA
ATOM     11  H   UNL     1       5.555   6.525   8.726  1.00  0.00     0.211 HD
ENDBRANCH   9  10
BRANCH   9  12
ATOM     12  C   UNL     1       4.062   4.254   7.512  1.00  0.00     0.089 C 
BRANCH  12  13
ATOM     13  N   UNL     1       4.758   3.523   8.596  1.00  0.00    -0.325 NA
ATOM     14  H   UNL     1       4.175   2.741   8.902  1.00  0.00     0.119 HD
ATOM     15  H   UNL     1       4.834   4.135   9.412  1.00  0.00     0.119 HD
ENDBRANCH  12  13
BRANCH  12  16
ATOM     16  C   UNL     1       2.563   4.419   7.859  1.00  0.00     0.022 C 
BRANCH  16  17
ATOM     17  C   UNL     1       1.507   4.003   6.826  1.00  0.00     0.002 C 
BRANCH  17  18
ATOM     18  C   UNL     1       0.396   3.105   7.366  1.00  0.00     0.000 C 
BRANCH  18  19
ATOM     19  C   UNL     1       0.899   1.940   8.229  1.00  0.00    -0.000 C 
BRANCH  19  20
ATOM     20  C   UNL     1       0.432   1.962   9.687  1.00  0.00    -0.000 C 
BRANCH  20  21
ATOM     21  C   UNL     1      -1.081   1.776   9.835  1.00  0.00    -0.003 C 
ATOM     22  C   UNL     1      -1.729   2.993  10.476  1.00  0.00     0.004 C 
ENDBRANCH  20  21
ENDBRANCH  19  20
ENDBRANCH  18  19
ENDBRANCH  17  18
ENDBRANCH  16  17
ENDBRANCH  12  16
ENDBRANCH   9  12
ENDBRANCH   6   9
ENDBRANCH   3   5
ENDBRANCH   2   3
BRANCH   2  23
ATOM     23  N   UNL     1       0.726   9.383   7.276  1.00  0.00    -0.332 N 
ATOM     24  C   UNL     1       0.990   9.492   5.849  1.00  0.00     0.147 C 
BRANCH  23  25
ATOM     25  C   UNL     1      -0.447  10.163   7.758  1.00  0.00     0.174 C 
BRANCH  25  26
ATOM     26  C   UNL     1      -0.155  10.949   9.058  1.00  0.00     0.038 C 
BRANCH  26  27
ATOM     27  C   UNL     1      -0.895  12.292   9.245  1.00  0.00    -0.015 C 
ATOM     28  C   UNL     1      -0.129  13.261  10.146  1.00  0.00     0.007 C 
ATOM     29  C   UNL     1      -1.271  12.967   7.928  1.00  0.00     0.007 C 
ENDBRANCH  26  27
ENDBRANCH  25  26
BRANCH  25  30
ATOM     30  C   UNL     1      -1.691   9.250   7.850  1.00  0.00     0.243 C 
ATOM     31  O   UNL     1      -2.234   8.788   6.848  1.00  0.00    -0.273 OA
ATOM     32  N   UNL     1      -2.149   8.997   9.118  1.00  0.00    -0.342 N 
ATOM     33  H   UNL     1      -1.564   9.298   9.901  1.00  0.00     0.164 HD
BRANCH  32  34
ATOM     34  C   UNL     1      -3.331   8.176   9.394  1.00  0.00     0.175 C 
BRANCH  34  35
ATOM     35  C   UNL     1      -2.937   6.747   9.799  1.00  0.00     0.070 C 
BRANCH  35  36
ATOM     36  C   UNL     1      -3.401   5.708   8.803  1.00  0.00    -0.045 A 
ATOM     37  C   UNL     1      -4.625   5.048   8.996  1.00  0.00     0.007 A 
ATOM     38  C   UNL     1      -2.614   5.373   7.693  1.00  0.00     0.007 A 
ATOM     39  C   UNL     1      -5.055   4.079   8.090  1.00  0.00     0.046 A 
ATOM     40  C   UNL     1      -3.044   4.401   6.787  1.00  0.00     0.046 A 
ATOM     41  C   UNL     1      -4.262   3.763   6.993  1.00  0.00     0.115 A 
BRANCH  41  42
ATOM     42  O   UNL     1      -4.718   2.808   6.134  1.00  0.00    -0.508 OA
ATOM     43  H   UNL     1      -5.630   3.032   5.884  1.00  0.00     0.293 HD
ENDBRANCH  41  42
ENDBRANCH  35  36
ENDBRANCH  34  35
BRANCH  34  44
ATOM     44  C   UNL     1      -4.157   8.881  10.494  1.00  0.00     0.243 C 
ATOM     45  O   UNL     1      -5.106   8.371  11.083  1.00  0.00    -0.273 OA
ATOM     46  N   UNL     1      -3.814  10.204  10.674  1.00  0.00    -0.341 N 
ATOM     47  H   UNL     1      -3.099  10.614  10.079  1.00  0.00     0.164 HD
BRANCH  46  48
ATOM     48  C   UNL     1      -4.502  11.094  11.612  1.00  0.00     0.196 C 
BRANCH  48  49
ATOM     49  C   UNL     1      -3.809  11.104  12.985  1.00  0.00     0.072 C 
BRANCH  49  50
ATOM     50  C   UNL     1      -2.589  10.212  13.028  1.00  0.00    -0.045 A 
ATOM     51  C   UNL     1      -2.650   8.976  13.687  1.00  0.00     0.007 A 
ATOM     52  C   UNL     1      -1.384  10.609  12.434  1.00  0.00     0.007 A 
ATOM     53  C   UNL     1      -1.528   8.150  13.744  1.00  0.00     0.046 A 
ATOM     54  C   UNL     1      -0.260   9.783  12.492  1.00  0.00     0.046 A 
ATOM     55  C   UNL     1      -0.342   8.559  13.147  1.00  0.00     0.115 A 
BRANCH  55  56
ATOM     56  O   UNL     1       0.733   7.723  13.227  1.00  0.00    -0.508 OA
ATOM     57  H   UNL     1       1.253   7.968  14.009  1.00  0.00     0.293 HD
ENDBRANCH  55  56
ENDBRANCH  49  50
ENDBRANCH  48  49
BRANCH  48  58
ATOM     58  C   UNL     1      -4.518  12.515  11.032  1.00  0.00     0.326 C 
ATOM     59  O   UNL     1      -5.204  12.931  10.113  1.00  0.00    -0.250 OA
BRANCH  58  60
ATOM     60  O   UNL     1      -3.664  13.364  11.658  1.00  0.00    -0.480 OA
ATOM     61  H   UNL     1      -4.228  14.141  11.864  1.00  0.00     0.296 HD
ENDBRANCH  58  60
ENDBRANCH  48  58
ENDBRANCH  46  48
ENDBRANCH  34  44
ENDBRANCH  32  34
ENDBRANCH  25  30
ENDBRANCH  23  25
ENDBRANCH   2  23
TORSDOF 28
ENDMDL
MODEL 36
REMARK VINA RESULT:    -5.429      3.336      6.987
REMARK INTER + INTRA:         -19.973
REMARK INTER:                 -15.340
REMARK INTRA:                  -4.633
REMARK UNBOUND:                -6.451
REMARK SMILES CCCCCCC[C@H](N)[C@H](O)C(=O)N[C@H](C)C(=O)N(C)[C@H](CC(C)C)C(=O)N[C@@H](Cc1ccc(O)cc1)C(=O)N[C@@H](Cc1ccc(O)cc1)C(=O)O
REMARK SMILES IDX 18 1 17 2 15 3 16 4 14 5 12 6 13 7 10 9 11 10 8 12 9 13 7 16
REMARK SMILES IDX 6 17 5 18 4 19 3 20 2 21 1 22 19 23 20 24 21 25 22 26 23 27
REMARK SMILES IDX 24 28 25 29 26 30 27 31 28 32 29 34 30 35 31 36 32 37 37 38
REMARK SMILES IDX 33 39 36 40 34 41 35 42 38 44 39 45 40 46 41 48 42 49 43 50
REMARK SMILES IDX 44 51 49 52 45 53 48 54 46 55 47 56 50 58 51 59 52 60
REMARK H PARENT 14 8 11 11 9 14 9 15 28 33 35 43 40 47 47 57 52 61
ROOT
ATOM      1  O   UNL     1      -4.649   8.009  12.347  1.00  0.00    -0.272 OA
ATOM      2  C   UNL     1      -3.586   7.731  12.920  1.00  0.00     0.245 C 
ENDROOT
BRANCH   2   3
ATOM      3  C   UNL     1      -2.291   8.455  12.472  1.00  0.00     0.168 C 
ATOM      4  C   UNL     1      -1.399   7.519  11.664  1.00  0.00     0.041 C 
BRANCH   3   5
ATOM      5  N   UNL     1      -2.505   9.723  11.791  1.00  0.00    -0.342 N 
ATOM      6  C   UNL     1      -1.932  10.895  12.238  1.00  0.00     0.251 C 
ATOM      7  O   UNL     1      -1.243  10.968  13.250  1.00  0.00    -0.272 OA
ATOM      8  H   UNL     1      -3.086   9.793  10.959  1.00  0.00     0.164 HD
BRANCH   6   9
ATOM      9  C   UNL     1      -2.177  12.076  11.286  1.00  0.00     0.219 C 
BRANCH   9  10
ATOM     10  O   UNL     1      -2.666  13.240  11.964  1.00  0.00    -0.382 OA
ATOM     11  H   UNL     1      -1.874  13.585  12.432  1.00  0.00     0.211 HD
ENDBRANCH   9  10
BRANCH   9  12
ATOM     12  C   UNL     1      -0.940  12.425  10.417  1.00  0.00     0.089 C 
BRANCH  12  13
ATOM     13  N   UNL     1       0.216  12.644  11.316  1.00  0.00    -0.325 NA
ATOM     14  H   UNL     1       0.529  13.613  11.232  1.00  0.00     0.119 HD
ATOM     15  H   UNL     1       1.003  12.080  10.986  1.00  0.00     0.119 HD
ENDBRANCH  12  13
BRANCH  12  16
ATOM     16  C   UNL     1      -0.573  11.399   9.318  1.00  0.00     0.022 C 
BRANCH  16  17
ATOM     17  C   UNL     1       0.552  11.735   8.329  1.00  0.00     0.002 C 
BRANCH  17  18
ATOM     18  C   UNL     1       0.738  10.726   7.197  1.00  0.00     0.000 C 
BRANCH  18  19
ATOM     19  C   UNL     1       2.064   9.957   7.257  1.00  0.00    -0.000 C 
BRANCH  19  20
ATOM     20  C   UNL     1       1.948   8.444   7.048  1.00  0.00    -0.000 C 
BRANCH  20  21
ATOM     21  C   UNL     1       2.876   7.639   7.962  1.00  0.00    -0.003 C 
ATOM     22  C   UNL     1       4.229   8.316   8.112  1.00  0.00     0.004 C 
ENDBRANCH  20  21
ENDBRANCH  19  20
ENDBRANCH  18  19
ENDBRANCH  17  18
ENDBRANCH  16  17
ENDBRANCH  12  16
ENDBRANCH   9  12
ENDBRANCH   6   9
ENDBRANCH   3   5
ENDBRANCH   2   3
BRANCH   2  23
ATOM     23  N   UNL     1      -3.590   6.880  14.020  1.00  0.00    -0.332 N 
ATOM     24  C   UNL     1      -3.093   7.236  15.341  1.00  0.00     0.147 C 
BRANCH  23  25
ATOM     25  C   UNL     1      -4.245   5.546  13.935  1.00  0.00     0.174 C 
BRANCH  25  26
ATOM     26  C   UNL     1      -4.141   4.739  15.250  1.00  0.00     0.038 C 
BRANCH  26  27
ATOM     27  C   UNL     1      -5.150   3.586  15.446  1.00  0.00    -0.015 C 
ATOM     28  C   UNL     1      -6.475   3.841  14.727  1.00  0.00     0.007 C 
ATOM     29  C   UNL     1      -4.590   2.217  15.070  1.00  0.00     0.007 C 
ENDBRANCH  26  27
ENDBRANCH  25  26
BRANCH  25  30
ATOM     30  C   UNL     1      -3.732   4.780  12.694  1.00  0.00     0.243 C 
ATOM     31  O   UNL     1      -2.667   4.164  12.704  1.00  0.00    -0.273 OA
ATOM     32  N   UNL     1      -4.537   4.839  11.586  1.00  0.00    -0.342 N 
ATOM     33  H   UNL     1      -5.468   5.249  11.698  1.00  0.00     0.164 HD
BRANCH  32  34
ATOM     34  C   UNL     1      -4.198   4.197  10.313  1.00  0.00     0.175 C 
BRANCH  34  35
ATOM     35  C   UNL     1      -5.262   3.164   9.908  1.00  0.00     0.070 C 
BRANCH  35  36
ATOM     36  C   UNL     1      -5.319   1.983  10.850  1.00  0.00    -0.045 A 
ATOM     37  C   UNL     1      -4.195   1.158  11.011  1.00  0.00     0.007 A 
ATOM     38  C   UNL     1      -6.492   1.682  11.555  1.00  0.00     0.007 A 
ATOM     39  C   UNL     1      -4.243   0.058  11.868  1.00  0.00     0.046 A 
ATOM     40  C   UNL     1      -6.541   0.580  12.412  1.00  0.00     0.046 A 
ATOM     41  C   UNL     1      -5.414  -0.222  12.562  1.00  0.00     0.115 A 
BRANCH  41  42
ATOM     42  O   UNL     1      -5.420  -1.308  13.386  1.00  0.00    -0.508 OA
ATOM     43  H   UNL     1      -5.534  -0.996  14.300  1.00  0.00     0.293 HD
ENDBRANCH  41  42
ENDBRANCH  35  36
ENDBRANCH  34  35
BRANCH  34  44
ATOM     44  C   UNL     1      -4.033   5.303   9.247  1.00  0.00     0.243 C 
ATOM     45  O   UNL     1      -4.103   6.507   9.480  1.00  0.00    -0.273 OA
ATOM     46  N   UNL     1      -3.925   4.816   7.962  1.00  0.00    -0.341 N 
ATOM     47  H   UNL     1      -3.990   3.813   7.807  1.00  0.00     0.164 HD
BRANCH  46  48
ATOM     48  C   UNL     1      -3.827   5.675   6.780  1.00  0.00     0.196 C 
BRANCH  48  49
ATOM     49  C   UNL     1      -2.474   5.498   6.070  1.00  0.00     0.072 C 
BRANCH  49  50
ATOM     50  C   UNL     1      -1.439   4.834   6.949  1.00  0.00    -0.045 A 
ATOM     51  C   UNL     1      -0.655   5.610   7.816  1.00  0.00     0.007 A 
ATOM     52  C   UNL     1      -1.231   3.450   6.898  1.00  0.00     0.007 A 
ATOM     53  C   UNL     1       0.312   5.010   8.621  1.00  0.00     0.046 A 
ATOM     54  C   UNL     1      -0.261   2.849   7.704  1.00  0.00     0.046 A 
ATOM     55  C   UNL     1       0.502   3.635   8.560  1.00  0.00     0.115 A 
BRANCH  55  56
ATOM     56  O   UNL     1       1.459   3.088   9.362  1.00  0.00    -0.508 OA
ATOM     57  H   UNL     1       1.098   3.010  10.260  1.00  0.00     0.293 HD
ENDBRANCH  55  56
ENDBRANCH  49  50
ENDBRANCH  48  49
BRANCH  48  58
ATOM     58  C   UNL     1      -4.966   5.324   5.812  1.00  0.00     0.326 C 
ATOM     59  O   UNL     1      -4.934   4.521   4.894  1.00  0.00    -0.250 OA
BRANCH  58  60
ATOM     60  O   UNL     1      -6.115   6.002   6.060  1.00  0.00    -0.480 OA
ATOM     61  H   UNL     1      -6.302   5.793   7.001  1.00  0.00     0.296 HD
ENDBRANCH  58  60
ENDBRANCH  48  58
ENDBRANCH  46  48
ENDBRANCH  34  44
ENDBRANCH  32  34
ENDBRANCH  25  30
ENDBRANCH  23  25
ENDBRANCH   2  23
TORSDOF 28
ENDMDL
MODEL 37
REMARK VINA RESULT:    -5.423      2.850      8.458
REMARK INTER + INTRA:         -19.959
REMARK INTER:                 -14.927
REMARK INTRA:                  -5.032
REMARK UNBOUND:                -6.451
REMARK SMILES CCCCCCC[C@H](N)[C@H](O)C(=O)N[C@H](C)C(=O)N(C)[C@H](CC(C)C)C(=O)N[C@@H](Cc1ccc(O)cc1)C(=O)N[C@@H](Cc1ccc(O)cc1)C(=O)O
REMARK SMILES IDX 18 1 17 2 15 3 16 4 14 5 12 6 13 7 10 9 11 10 8 12 9 13 7 16
REMARK SMILES IDX 6 17 5 18 4 19 3 20 2 21 1 22 19 23 20 24 21 25 22 26 23 27
REMARK SMILES IDX 24 28 25 29 26 30 27 31 28 32 29 34 30 35 31 36 32 37 37 38
REMARK SMILES IDX 33 39 36 40 34 41 35 42 38 44 39 45 40 46 41 48 42 49 43 50
REMARK SMILES IDX 44 51 49 52 45 53 48 54 46 55 47 56 50 58 51 59 52 60
REMARK H PARENT 14 8 11 11 9 14 9 15 28 33 35 43 40 47 47 57 52 61
ROOT
ATOM      1  O   UNL     1      -2.418  10.384   7.403  1.00  0.00    -0.272 OA
ATOM      2  C   UNL     1      -1.624  10.553   8.339  1.00  0.00     0.245 C 
ENDROOT
BRANCH   2   3
ATOM      3  C   UNL     1      -1.459  11.979   8.923  1.00  0.00     0.168 C 
ATOM      4  C   UNL     1      -1.405  13.018   7.808  1.00  0.00     0.041 C 
BRANCH   3   5
ATOM      5  N   UNL     1      -2.427  12.335   9.949  1.00  0.00    -0.342 N 
ATOM      6  C   UNL     1      -2.084  12.394  11.283  1.00  0.00     0.251 C 
ATOM      7  O   UNL     1      -0.968  12.115  11.708  1.00  0.00    -0.272 OA
ATOM      8  H   UNL     1      -3.394  12.553   9.721  1.00  0.00     0.164 HD
BRANCH   6   9
ATOM      9  C   UNL     1      -3.224  12.927  12.166  1.00  0.00     0.219 C 
BRANCH   9  10
ATOM     10  O   UNL     1      -4.238  13.602  11.412  1.00  0.00    -0.382 OA
ATOM     11  H   UNL     1      -4.016  13.384  10.480  1.00  0.00     0.211 HD
ENDBRANCH   9  10
BRANCH   9  12
ATOM     12  C   UNL     1      -3.848  11.839  13.079  1.00  0.00     0.089 C 
BRANCH  12  13
ATOM     13  N   UNL     1      -4.871  12.479  13.937  1.00  0.00    -0.325 NA
ATOM     14  H   UNL     1      -4.454  12.711  14.840  1.00  0.00     0.119 HD
ATOM     15  H   UNL     1      -5.601  11.795  14.147  1.00  0.00     0.119 HD
ENDBRANCH  12  13
BRANCH  12  16
ATOM     16  C   UNL     1      -4.453  10.613  12.355  1.00  0.00     0.022 C 
BRANCH  16  17
ATOM     17  C   UNL     1      -5.709   9.948  12.934  1.00  0.00     0.002 C 
BRANCH  17  18
ATOM     18  C   UNL     1      -5.678   8.422  12.959  1.00  0.00     0.000 C 
BRANCH  18  19
ATOM     19  C   UNL     1      -5.439   7.824  14.352  1.00  0.00    -0.000 C 
BRANCH  19  20
ATOM     20  C   UNL     1      -4.210   8.365  15.089  1.00  0.00    -0.000 C 
BRANCH  20  21
ATOM     21  C   UNL     1      -2.944   7.545  14.826  1.00  0.00    -0.003 C 
ATOM     22  C   UNL     1      -1.860   8.392  14.177  1.00  0.00     0.004 C 
ENDBRANCH  20  21
ENDBRANCH  19  20
ENDBRANCH  18  19
ENDBRANCH  17  18
ENDBRANCH  16  17
ENDBRANCH  12  16
ENDBRANCH   9  12
ENDBRANCH   6   9
ENDBRANCH   3   5
ENDBRANCH   2   3
BRANCH   2  23
ATOM     23  N   UNL     1      -0.994   9.460   8.923  1.00  0.00    -0.332 N 
ATOM     24  C   UNL     1       0.269   9.521   9.643  1.00  0.00     0.147 C 
BRANCH  23  25
ATOM     25  C   UNL     1      -1.669   8.133   8.954  1.00  0.00     0.174 C 
BRANCH  25  26
ATOM     26  C   UNL     1      -1.762   7.537  10.379  1.00  0.00     0.038 C 
BRANCH  26  27
ATOM     27  C   UNL     1      -3.163   7.107  10.867  1.00  0.00    -0.015 C 
ATOM     28  C   UNL     1      -4.223   7.217   9.771  1.00  0.00     0.007 C 
ATOM     29  C   UNL     1      -3.186   5.718  11.499  1.00  0.00     0.007 C 
ENDBRANCH  26  27
ENDBRANCH  25  26
BRANCH  25  30
ATOM     30  C   UNL     1      -1.017   7.181   7.924  1.00  0.00     0.243 C 
ATOM     31  O   UNL     1      -0.804   7.527   6.764  1.00  0.00    -0.273 OA
ATOM     32  N   UNL     1      -0.702   5.930   8.389  1.00  0.00    -0.342 N 
ATOM     33  H   UNL     1      -0.779   5.766   9.396  1.00  0.00     0.164 HD
BRANCH  32  34
ATOM     34  C   UNL     1      -0.105   4.889   7.548  1.00  0.00     0.175 C 
BRANCH  34  35
ATOM     35  C   UNL     1       1.226   4.393   8.134  1.00  0.00     0.070 C 
BRANCH  35  36
ATOM     36  C   UNL     1       2.423   5.120   7.564  1.00  0.00    -0.045 A 
ATOM     37  C   UNL     1       3.272   4.471   6.656  1.00  0.00     0.007 A 
ATOM     38  C   UNL     1       2.715   6.436   7.949  1.00  0.00     0.007 A 
ATOM     39  C   UNL     1       4.387   5.129   6.135  1.00  0.00     0.046 A 
ATOM     40  C   UNL     1       3.831   7.095   7.429  1.00  0.00     0.046 A 
ATOM     41  C   UNL     1       4.657   6.435   6.525  1.00  0.00     0.115 A 
BRANCH  41  42
ATOM     42  O   UNL     1       5.758   7.041   5.996  1.00  0.00    -0.508 OA
ATOM     43  H   UNL     1       5.997   6.577   5.177  1.00  0.00     0.293 HD
ENDBRANCH  41  42
ENDBRANCH  35  36
ENDBRANCH  34  35
BRANCH  34  44
ATOM     44  C   UNL     1      -1.133   3.745   7.400  1.00  0.00     0.243 C 
ATOM     45  O   UNL     1      -0.911   2.684   6.824  1.00  0.00    -0.273 OA
ATOM     46  N   UNL     1      -2.389   4.072   7.866  1.00  0.00    -0.341 N 
ATOM     47  H   UNL     1      -2.553   5.007   8.230  1.00  0.00     0.164 HD
BRANCH  46  48
ATOM     48  C   UNL     1      -3.542   3.174   7.771  1.00  0.00     0.196 C 
BRANCH  48  49
ATOM     49  C   UNL     1      -4.689   3.637   8.686  1.00  0.00     0.072 C 
BRANCH  49  50
ATOM     50  C   UNL     1      -4.935   2.687   9.836  1.00  0.00    -0.045 A 
ATOM     51  C   UNL     1      -6.080   2.836  10.633  1.00  0.00     0.007 A 
ATOM     52  C   UNL     1      -4.024   1.666  10.136  1.00  0.00     0.007 A 
ATOM     53  C   UNL     1      -6.311   1.974  11.705  1.00  0.00     0.046 A 
ATOM     54  C   UNL     1      -4.255   0.804  11.210  1.00  0.00     0.046 A 
ATOM     55  C   UNL     1      -5.398   0.965  11.985  1.00  0.00     0.115 A 
BRANCH  55  56
ATOM     56  O   UNL     1      -5.660   0.144  13.042  1.00  0.00    -0.508 OA
ATOM     57  H   UNL     1      -6.513   0.403  13.426  1.00  0.00     0.293 HD
ENDBRANCH  55  56
ENDBRANCH  49  50
ENDBRANCH  48  49
BRANCH  48  58
ATOM     58  C   UNL     1      -4.028   3.137   6.316  1.00  0.00     0.326 C 
ATOM     59  O   UNL     1      -4.526   4.052   5.679  1.00  0.00    -0.250 OA
BRANCH  58  60
ATOM     60  O   UNL     1      -3.846   1.935   5.715  1.00  0.00    -0.480 OA
ATOM     61  H   UNL     1      -3.393   1.403   6.405  1.00  0.00     0.296 HD
ENDBRANCH  58  60
ENDBRANCH  48  58
ENDBRANCH  46  48
ENDBRANCH  34  44
ENDBRANCH  32  34
ENDBRANCH  25  30
ENDBRANCH  23  25
ENDBRANCH   2  23
TORSDOF 28
ENDMDL
MODEL 38
REMARK VINA RESULT:    -5.357      2.548      7.188
REMARK INTER + INTRA:         -19.793
REMARK INTER:                 -14.922
REMARK INTRA:                  -4.871
REMARK UNBOUND:                -6.451
REMARK SMILES CCCCCCC[C@H](N)[C@H](O)C(=O)N[C@H](C)C(=O)N(C)[C@H](CC(C)C)C(=O)N[C@@H](Cc1ccc(O)cc1)C(=O)N[C@@H](Cc1ccc(O)cc1)C(=O)O
REMARK SMILES IDX 18 1 17 2 15 3 16 4 14 5 12 6 13 7 10 9 11 10 8 12 9 13 7 16
REMARK SMILES IDX 6 17 5 18 4 19 3 20 2 21 1 22 19 23 20 24 21 25 22 26 23 27
REMARK SMILES IDX 24 28 25 29 26 30 27 31 28 32 29 34 30 35 31 36 32 37 37 38
REMARK SMILES IDX 33 39 36 40 34 41 35 42 38 44 39 45 40 46 41 48 42 49 43 50
REMARK SMILES IDX 44 51 49 52 45 53 48 54 46 55 47 56 50 58 51 59 52 60
REMARK H PARENT 14 8 11 11 9 14 9 15 28 33 35 43 40 47 47 57 52 61
ROOT
ATOM      1  O   UNL     1      -1.567   2.008   8.035  1.00  0.00    -0.272 OA
ATOM      2  C   UNL     1      -1.740   2.947   8.827  1.00  0.00     0.245 C 
ENDROOT
BRANCH   2   3
ATOM      3  C   UNL     1      -0.620   4.007   8.976  1.00  0.00     0.168 C 
ATOM      4  C   UNL     1       0.755   3.346   8.971  1.00  0.00     0.041 C 
BRANCH   3   5
ATOM      5  N   UNL     1      -0.694   5.111   8.033  1.00  0.00    -0.342 N 
ATOM      6  C   UNL     1      -0.518   6.420   8.428  1.00  0.00     0.251 C 
ATOM      7  O   UNL     1      -0.329   6.755   9.593  1.00  0.00    -0.272 OA
ATOM      8  H   UNL     1      -0.880   4.960   7.044  1.00  0.00     0.164 HD
BRANCH   6   9
ATOM      9  C   UNL     1      -0.496   7.401   7.245  1.00  0.00     0.219 C 
BRANCH   9  10
ATOM     10  O   UNL     1      -1.596   8.319   7.269  1.00  0.00    -0.382 OA
ATOM     11  H   UNL     1      -1.206   9.137   7.648  1.00  0.00     0.211 HD
ENDBRANCH   9  10
BRANCH   9  12
ATOM     12  C   UNL     1       0.850   8.158   7.106  1.00  0.00     0.089 C 
BRANCH  12  13
ATOM     13  N   UNL     1       0.864   9.271   8.083  1.00  0.00    -0.325 NA
ATOM     14  H   UNL     1       0.220  10.001   7.769  1.00  0.00     0.119 HD
ATOM     15  H   UNL     1       1.788   9.709   8.073  1.00  0.00     0.119 HD
ENDBRANCH  12  13
BRANCH  12  16
ATOM     16  C   UNL     1       2.129   7.300   7.260  1.00  0.00     0.022 C 
BRANCH  16  17
ATOM     17  C   UNL     1       2.968   6.981   6.015  1.00  0.00     0.002 C 
BRANCH  17  18
ATOM     18  C   UNL     1       4.015   5.885   6.207  1.00  0.00     0.000 C 
BRANCH  18  19
ATOM     19  C   UNL     1       4.076   5.323   7.634  1.00  0.00    -0.000 C 
BRANCH  19  20
ATOM     20  C   UNL     1       4.787   3.974   7.771  1.00  0.00    -0.000 C 
BRANCH  20  21
ATOM     21  C   UNL     1       6.310   4.085   7.658  1.00  0.00    -0.003 C 
ATOM     22  C   UNL     1       6.871   3.050   6.694  1.00  0.00     0.004 C 
ENDBRANCH  20  21
ENDBRANCH  19  20
ENDBRANCH  18  19
ENDBRANCH  17  18
ENDBRANCH  16  17
ENDBRANCH  12  16
ENDBRANCH   9  12
ENDBRANCH   6   9
ENDBRANCH   3   5
ENDBRANCH   2   3
BRANCH   2  23
ATOM     23  N   UNL     1      -2.965   3.100   9.467  1.00  0.00    -0.332 N 
ATOM     24  C   UNL     1      -4.231   2.593   8.959  1.00  0.00     0.147 C 
BRANCH  23  25
ATOM     25  C   UNL     1      -3.033   3.707  10.825  1.00  0.00     0.174 C 
BRANCH  25  26
ATOM     26  C   UNL     1      -3.642   2.755  11.881  1.00  0.00     0.038 C 
BRANCH  26  27
ATOM     27  C   UNL     1      -2.889   2.623  13.223  1.00  0.00    -0.015 C 
ATOM     28  C   UNL     1      -3.542   3.434  14.342  1.00  0.00     0.007 C 
ATOM     29  C   UNL     1      -2.677   1.176  13.661  1.00  0.00     0.007 C 
ENDBRANCH  26  27
ENDBRANCH  25  26
BRANCH  25  30
ATOM     30  C   UNL     1      -3.727   5.086  10.757  1.00  0.00     0.243 C 
ATOM     31  O   UNL     1      -4.498   5.382   9.845  1.00  0.00    -0.273 OA
ATOM     32  N   UNL     1      -3.422   5.955  11.773  1.00  0.00    -0.342 N 
ATOM     33  H   UNL     1      -2.888   5.588  12.565  1.00  0.00     0.164 HD
BRANCH  32  34
ATOM     34  C   UNL     1      -3.965   7.313  11.857  1.00  0.00     0.175 C 
BRANCH  34  35
ATOM     35  C   UNL     1      -4.066   7.786  13.315  1.00  0.00     0.070 C 
BRANCH  35  36
ATOM     36  C   UNL     1      -5.016   8.950  13.488  1.00  0.00    -0.045 A 
ATOM     37  C   UNL     1      -6.367   8.811  13.135  1.00  0.00     0.007 A 
ATOM     38  C   UNL     1      -4.563  10.181  13.978  1.00  0.00     0.007 A 
ATOM     39  C   UNL     1      -7.248   9.884  13.278  1.00  0.00     0.046 A 
ATOM     40  C   UNL     1      -5.444  11.256  14.121  1.00  0.00     0.046 A 
ATOM     41  C   UNL     1      -6.780  11.096  13.770  1.00  0.00     0.115 A 
BRANCH  41  42
ATOM     42  O   UNL     1      -7.673  12.120  13.892  1.00  0.00    -0.508 OA
ATOM     43  H   UNL     1      -8.145  12.014  14.735  1.00  0.00     0.293 HD
ENDBRANCH  41  42
ENDBRANCH  35  36
ENDBRANCH  34  35
BRANCH  34  44
ATOM     44  C   UNL     1      -3.065   8.242  11.010  1.00  0.00     0.243 C 
ATOM     45  O   UNL     1      -3.202   8.429   9.805  1.00  0.00    -0.273 OA
ATOM     46  N   UNL     1      -1.993   8.754  11.710  1.00  0.00    -0.341 N 
ATOM     47  H   UNL     1      -1.857   8.476  12.679  1.00  0.00     0.164 HD
BRANCH  46  48
ATOM     48  C   UNL     1      -0.967   9.604  11.103  1.00  0.00     0.196 C 
BRANCH  48  49
ATOM     49  C   UNL     1      -1.220  11.091  11.404  1.00  0.00     0.072 C 
BRANCH  49  50
ATOM     50  C   UNL     1      -2.283  11.692  10.513  1.00  0.00    -0.045 A 
ATOM     51  C   UNL     1      -2.007  11.931   9.159  1.00  0.00     0.007 A 
ATOM     52  C   UNL     1      -3.541  12.037  11.024  1.00  0.00     0.007 A 
ATOM     53  C   UNL     1      -2.975  12.498   8.331  1.00  0.00     0.046 A 
ATOM     54  C   UNL     1      -4.510  12.605  10.194  1.00  0.00     0.046 A 
ATOM     55  C   UNL     1      -4.219  12.830   8.853  1.00  0.00     0.115 A 
BRANCH  55  56
ATOM     56  O   UNL     1      -5.137  13.384   8.011  1.00  0.00    -0.508 OA
ATOM     57  H   UNL     1      -5.468  12.689   7.420  1.00  0.00     0.293 HD
ENDBRANCH  55  56
ENDBRANCH  49  50
ENDBRANCH  48  49
BRANCH  48  58
ATOM     58  C   UNL     1       0.408   9.195  11.650  1.00  0.00     0.326 C 
ATOM     59  O   UNL     1       0.646   8.336  12.484  1.00  0.00    -0.250 OA
BRANCH  58  60
ATOM     60  O   UNL     1       1.437   9.887  11.100  1.00  0.00    -0.480 OA
ATOM     61  H   UNL     1       1.279  10.807  11.405  1.00  0.00     0.296 HD
ENDBRANCH  58  60
ENDBRANCH  48  58
ENDBRANCH  46  48
ENDBRANCH  34  44
ENDBRANCH  32  34
ENDBRANCH  25  30
ENDBRANCH  23  25
ENDBRANCH   2  23
TORSDOF 28
ENDMDL
MODEL 39
REMARK VINA RESULT:    -5.351      2.546      5.858
REMARK INTER + INTRA:         -19.779
REMARK INTER:                 -14.328
REMARK INTRA:                  -5.451
REMARK UNBOUND:                -6.451
REMARK SMILES CCCCCCC[C@H](N)[C@H](O)C(=O)N[C@H](C)C(=O)N(C)[C@H](CC(C)C)C(=O)N[C@@H](Cc1ccc(O)cc1)C(=O)N[C@@H](Cc1ccc(O)cc1)C(=O)O
REMARK SMILES IDX 18 1 17 2 15 3 16 4 14 5 12 6 13 7 10 9 11 10 8 12 9 13 7 16
REMARK SMILES IDX 6 17 5 18 4 19 3 20 2 21 1 22 19 23 20 24 21 25 22 26 23 27
REMARK SMILES IDX 24 28 25 29 26 30 27 31 28 32 29 34 30 35 31 36 32 37 37 38
REMARK SMILES IDX 33 39 36 40 34 41 35 42 38 44 39 45 40 46 41 48 42 49 43 50
REMARK SMILES IDX 44 51 49 52 45 53 48 54 46 55 47 56 50 58 51 59 52 60
REMARK H PARENT 14 8 11 11 9 14 9 15 28 33 35 43 40 47 47 57 52 61
ROOT
ATOM      1  O   UNL     1      -3.358   9.842   8.579  1.00  0.00    -0.272 OA
ATOM      2  C   UNL     1      -2.880  10.230   9.655  1.00  0.00     0.245 C 
ENDROOT
BRANCH   2   3
ATOM      3  C   UNL     1      -1.346  10.417   9.761  1.00  0.00     0.168 C 
ATOM      4  C   UNL     1      -0.869  10.182  11.190  1.00  0.00     0.041 C 
BRANCH   3   5
ATOM      5  N   UNL     1      -0.570   9.651   8.798  1.00  0.00    -0.342 N 
ATOM      6  C   UNL     1       0.101  10.258   7.757  1.00  0.00     0.251 C 
ATOM      7  O   UNL     1       0.063  11.464   7.540  1.00  0.00    -0.272 OA
ATOM      8  H   UNL     1      -0.493   8.639   8.855  1.00  0.00     0.164 HD
BRANCH   6   9
ATOM      9  C   UNL     1       0.967   9.274   6.954  1.00  0.00     0.219 C 
BRANCH   9  10
ATOM     10  O   UNL     1       0.646   9.267   5.558  1.00  0.00    -0.382 OA
ATOM     11  H   UNL     1       0.047   8.494   5.463  1.00  0.00     0.211 HD
ENDBRANCH   9  10
BRANCH   9  12
ATOM     12  C   UNL     1       2.489   9.487   7.168  1.00  0.00     0.089 C 
BRANCH  12  13
ATOM     13  N   UNL     1       2.682  10.250   8.423  1.00  0.00    -0.325 NA
ATOM     14  H   UNL     1       2.731   9.599   9.208  1.00  0.00     0.119 HD
ATOM     15  H   UNL     1       1.848  10.816   8.598  1.00  0.00     0.119 HD
ENDBRANCH  12  13
BRANCH  12  16
ATOM     16  C   UNL     1       3.357   8.206   7.186  1.00  0.00     0.022 C 
BRANCH  16  17
ATOM     17  C   UNL     1       2.703   6.856   6.863  1.00  0.00     0.002 C 
BRANCH  17  18
ATOM     18  C   UNL     1       3.283   5.662   7.617  1.00  0.00     0.000 C 
BRANCH  18  19
ATOM     19  C   UNL     1       4.790   5.765   7.886  1.00  0.00    -0.000 C 
BRANCH  19  20
ATOM     20  C   UNL     1       5.519   4.425   8.024  1.00  0.00    -0.000 C 
BRANCH  20  21
ATOM     21  C   UNL     1       6.327   4.051   6.778  1.00  0.00    -0.003 C 
ATOM     22  C   UNL     1       7.753   3.664   7.138  1.00  0.00     0.004 C 
ENDBRANCH  20  21
ENDBRANCH  19  20
ENDBRANCH  18  19
ENDBRANCH  17  18
ENDBRANCH  16  17
ENDBRANCH  12  16
ENDBRANCH   9  12
ENDBRANCH   6   9
ENDBRANCH   3   5
ENDBRANCH   2   3
BRANCH   2  23
ATOM     23  N   UNL     1      -3.724  10.604  10.696  1.00  0.00    -0.332 N 
ATOM     24  C   UNL     1      -3.915  11.973  11.152  1.00  0.00     0.147 C 
BRANCH  23  25
ATOM     25  C   UNL     1      -4.609   9.598  11.344  1.00  0.00     0.174 C 
BRANCH  25  26
ATOM     26  C   UNL     1      -5.389  10.171  12.551  1.00  0.00     0.038 C 
BRANCH  26  27
ATOM     27  C   UNL     1      -6.930  10.078  12.496  1.00  0.00    -0.015 C 
ATOM     28  C   UNL     1      -7.524   9.458  13.761  1.00  0.00     0.007 C 
ATOM     29  C   UNL     1      -7.608  11.409  12.182  1.00  0.00     0.007 C 
ENDBRANCH  26  27
ENDBRANCH  25  26
BRANCH  25  30
ATOM     30  C   UNL     1      -3.808   8.318  11.672  1.00  0.00     0.243 C 
ATOM     31  O   UNL     1      -3.313   8.127  12.782  1.00  0.00    -0.273 OA
ATOM     32  N   UNL     1      -3.682   7.417  10.646  1.00  0.00    -0.342 N 
ATOM     33  H   UNL     1      -4.238   7.579   9.802  1.00  0.00     0.164 HD
BRANCH  32  34
ATOM     34  C   UNL     1      -2.935   6.162  10.767  1.00  0.00     0.175 C 
BRANCH  34  35
ATOM     35  C   UNL     1      -3.804   4.955  10.385  1.00  0.00     0.070 C 
BRANCH  35  36
ATOM     36  C   UNL     1      -3.836   3.892  11.460  1.00  0.00    -0.045 A 
ATOM     37  C   UNL     1      -4.699   2.793  11.337  1.00  0.00     0.007 A 
ATOM     38  C   UNL     1      -3.026   3.998  12.599  1.00  0.00     0.007 A 
ATOM     39  C   UNL     1      -4.745   1.815  12.331  1.00  0.00     0.046 A 
ATOM     40  C   UNL     1      -3.073   3.020  13.595  1.00  0.00     0.046 A 
ATOM     41  C   UNL     1      -3.932   1.936  13.451  1.00  0.00     0.115 A 
BRANCH  41  42
ATOM     42  O   UNL     1      -4.009   0.960  14.400  1.00  0.00    -0.508 OA
ATOM     43  H   UNL     1      -4.276   0.133  13.966  1.00  0.00     0.293 HD
ENDBRANCH  41  42
ENDBRANCH  35  36
ENDBRANCH  34  35
BRANCH  34  44
ATOM     44  C   UNL     1      -1.673   6.269   9.881  1.00  0.00     0.243 C 
ATOM     45  O   UNL     1      -0.606   6.752  10.249  1.00  0.00    -0.273 OA
ATOM     46  N   UNL     1      -1.887   5.887   8.574  1.00  0.00    -0.341 N 
ATOM     47  H   UNL     1      -2.821   5.604   8.288  1.00  0.00     0.164 HD
BRANCH  46  48
ATOM     48  C   UNL     1      -0.859   5.965   7.533  1.00  0.00     0.196 C 
BRANCH  48  49
ATOM     49  C   UNL     1      -0.291   4.575   7.202  1.00  0.00     0.072 C 
BRANCH  49  50
ATOM     50  C   UNL     1      -1.206   3.453   7.639  1.00  0.00    -0.045 A 
ATOM     51  C   UNL     1      -2.327   3.123   6.864  1.00  0.00     0.007 A 
ATOM     52  C   UNL     1      -0.964   2.746   8.824  1.00  0.00     0.007 A 
ATOM     53  C   UNL     1      -3.186   2.099   7.265  1.00  0.00     0.046 A 
ATOM     54  C   UNL     1      -1.824   1.721   9.225  1.00  0.00     0.046 A 
ATOM     55  C   UNL     1      -2.928   1.406   8.441  1.00  0.00     0.115 A 
BRANCH  55  56
ATOM     56  O   UNL     1      -3.792   0.414   8.798  1.00  0.00    -0.508 OA
ATOM     57  H   UNL     1      -4.634   0.560   8.337  1.00  0.00     0.293 HD
ENDBRANCH  55  56
ENDBRANCH  49  50
ENDBRANCH  48  49
BRANCH  48  58
ATOM     58  C   UNL     1      -1.473   6.585   6.271  1.00  0.00     0.326 C 
ATOM     59  O   UNL     1      -0.924   6.772   5.197  1.00  0.00    -0.250 OA
BRANCH  58  60
ATOM     60  O   UNL     1      -2.776   6.933   6.417  1.00  0.00    -0.480 OA
ATOM     61  H   UNL     1      -2.876   7.033   7.389  1.00  0.00     0.296 HD
ENDBRANCH  58  60
ENDBRANCH  48  58
ENDBRANCH  46  48
ENDBRANCH  34  44
ENDBRANCH  32  34
ENDBRANCH  25  30
ENDBRANCH  23  25
ENDBRANCH   2  23
TORSDOF 28
ENDMDL
MODEL 40
REMARK VINA RESULT:    -5.344      2.447      7.701
REMARK INTER + INTRA:         -19.763
REMARK INTER:                 -15.673
REMARK INTRA:                  -4.090
REMARK UNBOUND:                -6.451
REMARK SMILES CCCCCCC[C@H](N)[C@H](O)C(=O)N[C@H](C)C(=O)N(C)[C@H](CC(C)C)C(=O)N[C@@H](Cc1ccc(O)cc1)C(=O)N[C@@H](Cc1ccc(O)cc1)C(=O)O
REMARK SMILES IDX 18 1 17 2 15 3 16 4 14 5 12 6 13 7 10 9 11 10 8 12 9 13 7 16
REMARK SMILES IDX 6 17 5 18 4 19 3 20 2 21 1 22 19 23 20 24 21 25 22 26 23 27
REMARK SMILES IDX 24 28 25 29 26 30 27 31 28 32 29 34 30 35 31 36 32 37 37 38
REMARK SMILES IDX 33 39 36 40 34 41 35 42 38 44 39 45 40 46 41 48 42 49 43 50
REMARK SMILES IDX 44 51 49 52 45 53 48 54 46 55 47 56 50 58 51 59 52 60
REMARK H PARENT 14 8 11 11 9 14 9 15 28 33 35 43 40 47 47 57 52 61
ROOT
ATOM      1  O   UNL     1      -2.550  10.254   9.516  1.00  0.00    -0.272 OA
ATOM      2  C   UNL     1      -2.150  11.356   9.920  1.00  0.00     0.245 C 
ENDROOT
BRANCH   2   3
ATOM      3  C   UNL     1      -3.196  12.391  10.406  1.00  0.00     0.168 C 
ATOM      4  C   UNL     1      -4.371  12.469   9.438  1.00  0.00     0.041 C 
BRANCH   3   5
ATOM      5  N   UNL     1      -3.637  12.214  11.781  1.00  0.00    -0.342 N 
ATOM      6  C   UNL     1      -4.594  11.284  12.124  1.00  0.00     0.251 C 
ATOM      7  O   UNL     1      -5.170  10.573  11.307  1.00  0.00    -0.272 OA
ATOM      8  H   UNL     1      -3.256  12.772  12.542  1.00  0.00     0.164 HD
BRANCH   6   9
ATOM      9  C   UNL     1      -4.798  11.174  13.644  1.00  0.00     0.219 C 
BRANCH   9  10
ATOM     10  O   UNL     1      -6.056  11.709  14.073  1.00  0.00    -0.382 OA
ATOM     11  H   UNL     1      -6.706  11.029  13.790  1.00  0.00     0.211 HD
ENDBRANCH   9  10
BRANCH   9  12
ATOM     12  C   UNL     1      -4.602   9.732  14.182  1.00  0.00     0.089 C 
BRANCH  12  13
ATOM     13  N   UNL     1      -5.770   8.918  13.776  1.00  0.00    -0.325 NA
ATOM     14  H   UNL     1      -6.241   8.566  14.611  1.00  0.00     0.119 HD
ATOM     15  H   UNL     1      -5.438   8.085  13.285  1.00  0.00     0.119 HD
ENDBRANCH  12  13
BRANCH  12  16
ATOM     16  C   UNL     1      -3.290   9.025  13.763  1.00  0.00     0.022 C 
BRANCH  16  17
ATOM     17  C   UNL     1      -2.746   7.885  14.634  1.00  0.00     0.002 C 
BRANCH  17  18
ATOM     18  C   UNL     1      -3.061   6.479  14.126  1.00  0.00     0.000 C 
BRANCH  18  19
ATOM     19  C   UNL     1      -3.611   5.535  15.203  1.00  0.00    -0.000 C 
BRANCH  19  20
ATOM     20  C   UNL     1      -3.530   4.044  14.863  1.00  0.00    -0.000 C 
BRANCH  20  21
ATOM     21  C   UNL     1      -4.733   3.246  15.374  1.00  0.00    -0.003 C 
ATOM     22  C   UNL     1      -5.827   3.157  14.322  1.00  0.00     0.004 C 
ENDBRANCH  20  21
ENDBRANCH  19  20
ENDBRANCH  18  19
ENDBRANCH  17  18
ENDBRANCH  16  17
ENDBRANCH  12  16
ENDBRANCH   9  12
ENDBRANCH   6   9
ENDBRANCH   3   5
ENDBRANCH   2   3
BRANCH   2  23
ATOM     23  N   UNL     1      -0.786  11.599  10.044  1.00  0.00    -0.332 N 
ATOM     24  C   UNL     1       0.004  11.283  11.225  1.00  0.00     0.147 C 
BRANCH  23  25
ATOM     25  C   UNL     1      -0.004  12.101   8.882  1.00  0.00     0.174 C 
BRANCH  25  26
ATOM     26  C   UNL     1      -0.872  12.869   7.858  1.00  0.00     0.038 C 
BRANCH  26  27
ATOM     27  C   UNL     1      -1.098  12.194   6.486  1.00  0.00    -0.015 C 
ATOM     28  C   UNL     1      -2.581  12.039   6.149  1.00  0.00     0.007 C 
ATOM     29  C   UNL     1      -0.356  12.880   5.342  1.00  0.00     0.007 C 
ENDBRANCH  26  27
ENDBRANCH  25  26
BRANCH  25  30
ATOM     30  C   UNL     1       0.821  10.950   8.259  1.00  0.00     0.243 C 
ATOM     31  O   UNL     1       1.939  11.137   7.781  1.00  0.00    -0.273 OA
ATOM     32  N   UNL     1       0.221   9.717   8.270  1.00  0.00    -0.342 N 
ATOM     33  H   UNL     1      -0.643   9.616   8.809  1.00  0.00     0.164 HD
BRANCH  32  34
ATOM     34  C   UNL     1       0.842   8.519   7.700  1.00  0.00     0.175 C 
BRANCH  34  35
ATOM     35  C   UNL     1       1.890   7.924   8.654  1.00  0.00     0.070 C 
BRANCH  35  36
ATOM     36  C   UNL     1       3.217   7.665   7.977  1.00  0.00    -0.045 A 
ATOM     37  C   UNL     1       4.352   8.400   8.353  1.00  0.00     0.007 A 
ATOM     38  C   UNL     1       3.329   6.713   6.956  1.00  0.00     0.007 A 
ATOM     39  C   UNL     1       5.577   8.177   7.724  1.00  0.00     0.046 A 
ATOM     40  C   UNL     1       4.555   6.490   6.325  1.00  0.00     0.046 A 
ATOM     41  C   UNL     1       5.670   7.225   6.717  1.00  0.00     0.115 A 
BRANCH  41  42
ATOM     42  O   UNL     1       6.885   7.040   6.126  1.00  0.00    -0.508 OA
ATOM     43  H   UNL     1       6.743   6.611   5.266  1.00  0.00     0.293 HD
ENDBRANCH  41  42
ENDBRANCH  35  36
ENDBRANCH  34  35
BRANCH  34  44
ATOM     44  C   UNL     1      -0.280   7.508   7.372  1.00  0.00     0.243 C 
ATOM     45  O   UNL     1      -0.281   6.766   6.394  1.00  0.00    -0.273 OA
ATOM     46  N   UNL     1      -1.366   7.601   8.218  1.00  0.00    -0.341 N 
ATOM     47  H   UNL     1      -1.367   8.313   8.944  1.00  0.00     0.164 HD
BRANCH  46  48
ATOM     48  C   UNL     1      -2.578   6.793   8.064  1.00  0.00     0.196 C 
BRANCH  48  49
ATOM     49  C   UNL     1      -3.400   6.764   9.363  1.00  0.00     0.072 C 
BRANCH  49  50
ATOM     50  C   UNL     1      -3.857   5.370   9.731  1.00  0.00    -0.045 A 
ATOM     51  C   UNL     1      -4.819   4.720   8.944  1.00  0.00     0.007 A 
ATOM     52  C   UNL     1      -3.350   4.720  10.863  1.00  0.00     0.007 A 
ATOM     53  C   UNL     1      -5.259   3.440   9.281  1.00  0.00     0.046 A 
ATOM     54  C   UNL     1      -3.791   3.439  11.201  1.00  0.00     0.046 A 
ATOM     55  C   UNL     1      -4.742   2.809  10.406  1.00  0.00     0.115 A 
BRANCH  55  56
ATOM     56  O   UNL     1      -5.199   1.559  10.702  1.00  0.00    -0.508 OA
ATOM     57  H   UNL     1      -4.450   1.023  11.006  1.00  0.00     0.293 HD
ENDBRANCH  55  56
ENDBRANCH  49  50
ENDBRANCH  48  49
BRANCH  48  58
ATOM     58  C   UNL     1      -3.428   7.380   6.929  1.00  0.00     0.326 C 
ATOM     59  O   UNL     1      -4.102   6.767   6.117  1.00  0.00    -0.250 OA
BRANCH  58  60
ATOM     60  O   UNL     1      -3.402   8.736   6.879  1.00  0.00    -0.480 OA
ATOM     61  H   UNL     1      -2.446   8.940   6.789  1.00  0.00     0.296 HD
ENDBRANCH  58  60
ENDBRANCH  48  58
ENDBRANCH  46  48
ENDBRANCH  34  44
ENDBRANCH  32  34
ENDBRANCH  25  30
ENDBRANCH  23  25
ENDBRANCH   2  23
TORSDOF 28
ENDMDL
MODEL 41
REMARK VINA RESULT:    -5.344      4.364      7.186
REMARK INTER + INTRA:         -19.762
REMARK INTER:                 -16.253
REMARK INTRA:                  -3.510
REMARK UNBOUND:                -6.451
REMARK SMILES CCCCCCC[C@H](N)[C@H](O)C(=O)N[C@H](C)C(=O)N(C)[C@H](CC(C)C)C(=O)N[C@@H](Cc1ccc(O)cc1)C(=O)N[C@@H](Cc1ccc(O)cc1)C(=O)O
REMARK SMILES IDX 18 1 17 2 15 3 16 4 14 5 12 6 13 7 10 9 11 10 8 12 9 13 7 16
REMARK SMILES IDX 6 17 5 18 4 19 3 20 2 21 1 22 19 23 20 24 21 25 22 26 23 27
REMARK SMILES IDX 24 28 25 29 26 30 27 31 28 32 29 34 30 35 31 36 32 37 37 38
REMARK SMILES IDX 33 39 36 40 34 41 35 42 38 44 39 45 40 46 41 48 42 49 43 50
REMARK SMILES IDX 44 51 49 52 45 53 48 54 46 55 47 56 50 58 51 59 52 60
REMARK H PARENT 14 8 11 11 9 14 9 15 28 33 35 43 40 47 47 57 52 61
ROOT
ATOM      1  O   UNL     1       3.074  10.260   7.372  1.00  0.00    -0.272 OA
ATOM      2  C   UNL     1       1.904  10.668   7.339  1.00  0.00     0.245 C 
ENDROOT
BRANCH   2   3
ATOM      3  C   UNL     1       1.198  10.784   5.965  1.00  0.00     0.168 C 
ATOM      4  C   UNL     1       0.820  12.231   5.671  1.00  0.00     0.041 C 
BRANCH   3   5
ATOM      5  N   UNL     1       1.915  10.174   4.856  1.00  0.00    -0.342 N 
ATOM      6  C   UNL     1       1.617   8.906   4.405  1.00  0.00     0.251 C 
ATOM      7  O   UNL     1       0.768   8.187   4.921  1.00  0.00    -0.272 OA
ATOM      8  H   UNL     1       2.665  10.661   4.371  1.00  0.00     0.164 HD
BRANCH   6   9
ATOM      9  C   UNL     1       2.401   8.526   3.139  1.00  0.00     0.219 C 
BRANCH   9  10
ATOM     10  O   UNL     1       3.101   7.283   3.274  1.00  0.00    -0.382 OA
ATOM     11  H   UNL     1       3.226   6.986   2.346  1.00  0.00     0.211 HD
ENDBRANCH   9  10
BRANCH   9  12
ATOM     12  C   UNL     1       1.526   8.528   1.858  1.00  0.00     0.089 C 
BRANCH  12  13
ATOM     13  N   UNL     1       0.250   9.213   2.165  1.00  0.00    -0.325 NA
ATOM     14  H   UNL     1       0.409  10.222   2.194  1.00  0.00     0.119 HD
ATOM     15  H   UNL     1      -0.042   8.961   3.112  1.00  0.00     0.119 HD
ENDBRANCH  12  13
BRANCH  12  16
ATOM     16  C   UNL     1       2.173   9.148   0.596  1.00  0.00     0.022 C 
BRANCH  16  17
ATOM     17  C   UNL     1       3.701   9.132   0.455  1.00  0.00     0.002 C 
BRANCH  17  18
ATOM     18  C   UNL     1       4.247   9.913  -0.738  1.00  0.00     0.000 C 
BRANCH  18  19
ATOM     19  C   UNL     1       5.755  10.189  -0.667  1.00  0.00    -0.000 C 
BRANCH  19  20
ATOM     20  C   UNL     1       6.402  10.607  -1.990  1.00  0.00    -0.000 C 
BRANCH  20  21
ATOM     21  C   UNL     1       6.242   9.559  -3.094  1.00  0.00    -0.003 C 
ATOM     22  C   UNL     1       6.831   8.220  -2.677  1.00  0.00     0.004 C 
ENDBRANCH  20  21
ENDBRANCH  19  20
ENDBRANCH  18  19
ENDBRANCH  17  18
ENDBRANCH  16  17
ENDBRANCH  12  16
ENDBRANCH   9  12
ENDBRANCH   6   9
ENDBRANCH   3   5
ENDBRANCH   2   3
BRANCH   2  23
ATOM     23  N   UNL     1       1.213  10.894   8.525  1.00  0.00    -0.332 N 
ATOM     24  C   UNL     1       1.835  11.277   9.783  1.00  0.00     0.147 C 
BRANCH  23  25
ATOM     25  C   UNL     1      -0.276  10.880   8.541  1.00  0.00     0.174 C 
BRANCH  25  26
ATOM     26  C   UNL     1      -0.880  12.041   9.365  1.00  0.00     0.038 C 
BRANCH  26  27
ATOM     27  C   UNL     1      -2.190  12.668   8.837  1.00  0.00    -0.015 C 
ATOM     28  C   UNL     1      -2.328  12.540   7.320  1.00  0.00     0.007 C 
ATOM     29  C   UNL     1      -3.440  12.141   9.537  1.00  0.00     0.007 C 
ENDBRANCH  26  27
ENDBRANCH  25  26
BRANCH  25  30
ATOM     30  C   UNL     1      -0.790   9.485   8.962  1.00  0.00     0.243 C 
ATOM     31  O   UNL     1      -0.118   8.727   9.660  1.00  0.00    -0.273 OA
ATOM     32  N   UNL     1      -2.037   9.148   8.502  1.00  0.00    -0.342 N 
ATOM     33  H   UNL     1      -2.589   9.882   8.049  1.00  0.00     0.164 HD
BRANCH  32  34
ATOM     34  C   UNL     1      -2.673   7.857   8.779  1.00  0.00     0.175 C 
BRANCH  34  35
ATOM     35  C   UNL     1      -3.818   8.004   9.793  1.00  0.00     0.070 C 
BRANCH  35  36
ATOM     36  C   UNL     1      -3.336   7.976  11.226  1.00  0.00    -0.045 A 
ATOM     37  C   UNL     1      -3.045   9.176  11.892  1.00  0.00     0.007 A 
ATOM     38  C   UNL     1      -3.153   6.760  11.899  1.00  0.00     0.007 A 
ATOM     39  C   UNL     1      -2.587   9.159  13.210  1.00  0.00     0.046 A 
ATOM     40  C   UNL     1      -2.693   6.743  13.218  1.00  0.00     0.046 A 
ATOM     41  C   UNL     1      -2.415   7.944  13.862  1.00  0.00     0.115 A 
BRANCH  41  42
ATOM     42  O   UNL     1      -1.963   7.971  15.148  1.00  0.00    -0.508 OA
ATOM     43  H   UNL     1      -2.665   8.341  15.710  1.00  0.00     0.293 HD
ENDBRANCH  41  42
ENDBRANCH  35  36
ENDBRANCH  34  35
BRANCH  34  44
ATOM     44  C   UNL     1      -3.162   7.267   7.437  1.00  0.00     0.243 C 
ATOM     45  O   UNL     1      -3.452   7.936   6.449  1.00  0.00    -0.273 OA
ATOM     46  N   UNL     1      -3.375   5.905   7.481  1.00  0.00    -0.341 N 
ATOM     47  H   UNL     1      -3.232   5.412   8.359  1.00  0.00     0.164 HD
BRANCH  46  48
ATOM     48  C   UNL     1      -3.903   5.135   6.353  1.00  0.00     0.196 C 
BRANCH  48  49
ATOM     49  C   UNL     1      -3.100   3.841   6.134  1.00  0.00     0.072 C 
BRANCH  49  50
ATOM     50  C   UNL     1      -1.962   3.690   7.118  1.00  0.00    -0.045 A 
ATOM     51  C   UNL     1      -2.148   2.948   8.293  1.00  0.00     0.007 A 
ATOM     52  C   UNL     1      -0.722   4.298   6.885  1.00  0.00     0.007 A 
ATOM     53  C   UNL     1      -1.109   2.812   9.214  1.00  0.00     0.046 A 
ATOM     54  C   UNL     1       0.318   4.163   7.808  1.00  0.00     0.046 A 
ATOM     55  C   UNL     1       0.115   3.419   8.965  1.00  0.00     0.115 A 
BRANCH  55  56
ATOM     56  O   UNL     1       1.104   3.264   9.891  1.00  0.00    -0.508 OA
ATOM     57  H   UNL     1       1.058   4.006  10.515  1.00  0.00     0.293 HD
ENDBRANCH  55  56
ENDBRANCH  49  50
ENDBRANCH  48  49
BRANCH  48  58
ATOM     58  C   UNL     1      -5.372   4.789   6.628  1.00  0.00     0.326 C 
ATOM     59  O   UNL     1      -6.281   4.722   5.816  1.00  0.00    -0.250 OA
BRANCH  58  60
ATOM     60  O   UNL     1      -5.631   4.524   7.934  1.00  0.00    -0.480 OA
ATOM     61  H   UNL     1      -5.053   5.159   8.412  1.00  0.00     0.296 HD
ENDBRANCH  58  60
ENDBRANCH  48  58
ENDBRANCH  46  48
ENDBRANCH  34  44
ENDBRANCH  32  34
ENDBRANCH  25  30
ENDBRANCH  23  25
ENDBRANCH   2  23
TORSDOF 28
ENDMDL
MODEL 42
REMARK VINA RESULT:    -5.335      3.835      7.970
REMARK INTER + INTRA:         -19.739
REMARK INTER:                 -16.012
REMARK INTRA:                  -3.727
REMARK UNBOUND:                -6.451
REMARK SMILES CCCCCCC[C@H](N)[C@H](O)C(=O)N[C@H](C)C(=O)N(C)[C@H](CC(C)C)C(=O)N[C@@H](Cc1ccc(O)cc1)C(=O)N[C@@H](Cc1ccc(O)cc1)C(=O)O
REMARK SMILES IDX 18 1 17 2 15 3 16 4 14 5 12 6 13 7 10 9 11 10 8 12 9 13 7 16
REMARK SMILES IDX 6 17 5 18 4 19 3 20 2 21 1 22 19 23 20 24 21 25 22 26 23 27
REMARK SMILES IDX 24 28 25 29 26 30 27 31 28 32 29 34 30 35 31 36 32 37 37 38
REMARK SMILES IDX 33 39 36 40 34 41 35 42 38 44 39 45 40 46 41 48 42 49 43 50
REMARK SMILES IDX 44 51 49 52 45 53 48 54 46 55 47 56 50 58 51 59 52 60
REMARK H PARENT 14 8 11 11 9 14 9 15 28 33 35 43 40 47 47 57 52 61
ROOT
ATOM      1  O   UNL     1      -0.792   7.820   9.395  1.00  0.00    -0.272 OA
ATOM      2  C   UNL     1      -1.197   8.861   8.858  1.00  0.00     0.245 C 
ENDROOT
BRANCH   2   3
ATOM      3  C   UNL     1      -2.689   9.246   9.016  1.00  0.00     0.168 C 
ATOM      4  C   UNL     1      -3.554   8.001   9.189  1.00  0.00     0.041 C 
BRANCH   3   5
ATOM      5  N   UNL     1      -2.959  10.240  10.043  1.00  0.00    -0.342 N 
ATOM      6  C   UNL     1      -3.464  11.485   9.737  1.00  0.00     0.251 C 
ATOM      7  O   UNL     1      -3.684  11.862   8.590  1.00  0.00    -0.272 OA
ATOM      8  H   UNL     1      -2.783  10.054  11.028  1.00  0.00     0.164 HD
BRANCH   6   9
ATOM      9  C   UNL     1      -3.803  12.314  10.986  1.00  0.00     0.219 C 
BRANCH   9  10
ATOM     10  O   UNL     1      -5.136  12.838  10.957  1.00  0.00    -0.382 OA
ATOM     11  H   UNL     1      -5.598  12.332  11.661  1.00  0.00     0.211 HD
ENDBRANCH   9  10
BRANCH   9  12
ATOM     12  C   UNL     1      -3.539  11.552  12.312  1.00  0.00     0.089 C 
BRANCH  12  13
ATOM     13  N   UNL     1      -2.720  12.416  13.192  1.00  0.00    -0.325 NA
ATOM     14  H   UNL     1      -2.833  12.113  14.161  1.00  0.00     0.119 HD
ATOM     15  H   UNL     1      -3.095  13.367  13.164  1.00  0.00     0.119 HD
ENDBRANCH  12  13
BRANCH  12  16
ATOM     16  C   UNL     1      -4.794  11.058  13.071  1.00  0.00     0.022 C 
BRANCH  16  17
ATOM     17  C   UNL     1      -5.017   9.549  13.241  1.00  0.00     0.002 C 
BRANCH  17  18
ATOM     18  C   UNL     1      -5.449   9.115  14.639  1.00  0.00     0.000 C 
BRANCH  18  19
ATOM     19  C   UNL     1      -4.343   8.425  15.449  1.00  0.00    -0.000 C 
BRANCH  19  20
ATOM     20  C   UNL     1      -3.426   7.502  14.642  1.00  0.00    -0.000 C 
BRANCH  20  21
ATOM     21  C   UNL     1      -2.070   8.134  14.321  1.00  0.00    -0.003 C 
ATOM     22  C   UNL     1      -1.593   7.748  12.930  1.00  0.00     0.004 C 
ENDBRANCH  20  21
ENDBRANCH  19  20
ENDBRANCH  18  19
ENDBRANCH  17  18
ENDBRANCH  16  17
ENDBRANCH  12  16
ENDBRANCH   9  12
ENDBRANCH   6   9
ENDBRANCH   3   5
ENDBRANCH   2   3
BRANCH   2  23
ATOM     23  N   UNL     1      -0.296   9.718   8.234  1.00  0.00    -0.332 N 
ATOM     24  C   UNL     1      -0.650  10.681   7.202  1.00  0.00     0.147 C 
BRANCH  23  25
ATOM     25  C   UNL     1       1.117   9.787   8.697  1.00  0.00     0.174 C 
BRANCH  25  26
ATOM     26  C   UNL     1       1.465  11.136   9.371  1.00  0.00     0.038 C 
BRANCH  26  27
ATOM     27  C   UNL     1       0.462  11.675  10.416  1.00  0.00    -0.015 C 
ATOM     28  C   UNL     1       0.259  10.709  11.583  1.00  0.00     0.007 C 
ATOM     29  C   UNL     1       0.810  13.070  10.928  1.00  0.00     0.007 C 
ENDBRANCH  26  27
ENDBRANCH  25  26
BRANCH  25  30
ATOM     30  C   UNL     1       2.074   9.404   7.545  1.00  0.00     0.243 C 
ATOM     31  O   UNL     1       3.028  10.113   7.229  1.00  0.00    -0.273 OA
ATOM     32  N   UNL     1       1.784   8.229   6.900  1.00  0.00    -0.342 N 
ATOM     33  H   UNL     1       1.064   7.629   7.310  1.00  0.00     0.164 HD
BRANCH  32  34
ATOM     34  C   UNL     1       2.566   7.722   5.768  1.00  0.00     0.175 C 
BRANCH  34  35
ATOM     35  C   UNL     1       2.729   6.196   5.841  1.00  0.00     0.070 C 
BRANCH  35  36
ATOM     36  C   UNL     1       4.071   5.778   6.397  1.00  0.00    -0.045 A 
ATOM     37  C   UNL     1       5.253   6.272   5.825  1.00  0.00     0.007 A 
ATOM     38  C   UNL     1       4.156   4.879   7.468  1.00  0.00     0.007 A 
ATOM     39  C   UNL     1       6.496   5.880   6.322  1.00  0.00     0.046 A 
ATOM     40  C   UNL     1       5.401   4.485   7.966  1.00  0.00     0.046 A 
ATOM     41  C   UNL     1       6.561   4.992   7.388  1.00  0.00     0.115 A 
BRANCH  41  42
ATOM     42  O   UNL     1       7.795   4.632   7.843  1.00  0.00    -0.508 OA
ATOM     43  H   UNL     1       7.903   3.676   7.706  1.00  0.00     0.293 HD
ENDBRANCH  41  42
ENDBRANCH  35  36
ENDBRANCH  34  35
BRANCH  34  44
ATOM     44  C   UNL     1       1.864   8.167   4.465  1.00  0.00     0.243 C 
ATOM     45  O   UNL     1       1.506   9.317   4.227  1.00  0.00    -0.273 OA
ATOM     46  N   UNL     1       1.551   7.119   3.625  1.00  0.00    -0.341 N 
ATOM     47  H   UNL     1       1.764   6.169   3.920  1.00  0.00     0.164 HD
BRANCH  46  48
ATOM     48  C   UNL     1       0.825   7.286   2.365  1.00  0.00     0.196 C 
BRANCH  48  49
ATOM     49  C   UNL     1       1.674   6.833   1.165  1.00  0.00     0.072 C 
BRANCH  49  50
ATOM     50  C   UNL     1       2.623   7.908   0.685  1.00  0.00    -0.045 A 
ATOM     51  C   UNL     1       2.114   9.098   0.143  1.00  0.00     0.007 A 
ATOM     52  C   UNL     1       4.010   7.728   0.753  1.00  0.00     0.007 A 
ATOM     53  C   UNL     1       2.980  10.091  -0.315  1.00  0.00     0.046 A 
ATOM     54  C   UNL     1       4.877   8.722   0.293  1.00  0.00     0.046 A 
ATOM     55  C   UNL     1       4.353   9.897  -0.236  1.00  0.00     0.115 A 
BRANCH  55  56
ATOM     56  O   UNL     1       5.165  10.891  -0.697  1.00  0.00    -0.508 OA
ATOM     57  H   UNL     1       6.065  10.539  -0.778  1.00  0.00     0.293 HD
ENDBRANCH  55  56
ENDBRANCH  49  50
ENDBRANCH  48  49
BRANCH  48  58
ATOM     58  C   UNL     1      -0.469   6.461   2.420  1.00  0.00     0.326 C 
ATOM     59  O   UNL     1      -0.865   5.769   3.344  1.00  0.00    -0.250 OA
BRANCH  58  60
ATOM     60  O   UNL     1      -1.222   6.559   1.296  1.00  0.00    -0.480 OA
ATOM     61  H   UNL     1      -1.127   5.674   0.882  1.00  0.00     0.296 HD
ENDBRANCH  58  60
ENDBRANCH  48  58
ENDBRANCH  46  48
ENDBRANCH  34  44
ENDBRANCH  32  34
ENDBRANCH  25  30
ENDBRANCH  23  25
ENDBRANCH   2  23
TORSDOF 28
ENDMDL
MODEL 43
REMARK VINA RESULT:    -5.329      2.551      7.617
REMARK INTER + INTRA:         -19.723
REMARK INTER:                 -15.717
REMARK INTRA:                  -4.006
REMARK UNBOUND:                -6.451
REMARK SMILES CCCCCCC[C@H](N)[C@H](O)C(=O)N[C@H](C)C(=O)N(C)[C@H](CC(C)C)C(=O)N[C@@H](Cc1ccc(O)cc1)C(=O)N[C@@H](Cc1ccc(O)cc1)C(=O)O
REMARK SMILES IDX 18 1 17 2 15 3 16 4 14 5 12 6 13 7 10 9 11 10 8 12 9 13 7 16
REMARK SMILES IDX 6 17 5 18 4 19 3 20 2 21 1 22 19 23 20 24 21 25 22 26 23 27
REMARK SMILES IDX 24 28 25 29 26 30 27 31 28 32 29 34 30 35 31 36 32 37 37 38
REMARK SMILES IDX 33 39 36 40 34 41 35 42 38 44 39 45 40 46 41 48 42 49 43 50
REMARK SMILES IDX 44 51 49 52 45 53 48 54 46 55 47 56 50 58 51 59 52 60
REMARK H PARENT 14 8 11 11 9 14 9 15 28 33 35 43 40 47 47 57 52 61
ROOT
ATOM      1  O   UNL     1       0.951   8.232   9.899  1.00  0.00    -0.272 OA
ATOM      2  C   UNL     1       1.302   9.418   9.818  1.00  0.00     0.245 C 
ENDROOT
BRANCH   2   3
ATOM      3  C   UNL     1       2.813   9.751   9.900  1.00  0.00     0.168 C 
ATOM      4  C   UNL     1       3.252   9.922  11.350  1.00  0.00     0.041 C 
BRANCH   3   5
ATOM      5  N   UNL     1       3.681   8.836   9.175  1.00  0.00    -0.342 N 
ATOM      6  C   UNL     1       4.108   9.100   7.891  1.00  0.00     0.251 C 
ATOM      7  O   UNL     1       3.764  10.090   7.254  1.00  0.00    -0.272 OA
ATOM      8  H   UNL     1       4.005   7.964   9.588  1.00  0.00     0.164 HD
BRANCH   6   9
ATOM      9  C   UNL     1       5.128   8.069   7.380  1.00  0.00     0.219 C 
BRANCH   9  10
ATOM     10  O   UNL     1       5.791   7.374   8.443  1.00  0.00    -0.382 OA
ATOM     11  H   UNL     1       5.189   6.622   8.638  1.00  0.00     0.211 HD
ENDBRANCH   9  10
BRANCH   9  12
ATOM     12  C   UNL     1       4.523   7.069   6.360  1.00  0.00     0.089 C 
BRANCH  12  13
ATOM     13  N   UNL     1       3.288   6.497   6.943  1.00  0.00    -0.325 NA
ATOM     14  H   UNL     1       3.274   6.681   7.948  1.00  0.00     0.119 HD
ATOM     15  H   UNL     1       3.323   5.478   6.859  1.00  0.00     0.119 HD
ENDBRANCH  12  13
BRANCH  12  16
ATOM     16  C   UNL     1       4.233   7.633   4.948  1.00  0.00     0.022 C 
BRANCH  16  17
ATOM     17  C   UNL     1       2.791   7.999   4.572  1.00  0.00     0.002 C 
BRANCH  17  18
ATOM     18  C   UNL     1       2.243   7.279   3.342  1.00  0.00     0.000 C 
BRANCH  18  19
ATOM     19  C   UNL     1       1.348   6.077   3.668  1.00  0.00    -0.000 C 
BRANCH  19  20
ATOM     20  C   UNL     1      -0.125   6.240   3.282  1.00  0.00    -0.000 C 
BRANCH  20  21
ATOM     21  C   UNL     1      -0.318   6.701   1.835  1.00  0.00    -0.003 C 
ATOM     22  C   UNL     1       0.330   5.736   0.855  1.00  0.00     0.004 C 
ENDBRANCH  20  21
ENDBRANCH  19  20
ENDBRANCH  18  19
ENDBRANCH  17  18
ENDBRANCH  16  17
ENDBRANCH  12  16
ENDBRANCH   9  12
ENDBRANCH   6   9
ENDBRANCH   3   5
ENDBRANCH   2   3
BRANCH   2  23
ATOM     23  N   UNL     1       0.363  10.404   9.536  1.00  0.00    -0.332 N 
ATOM     24  C   UNL     1      -0.018  11.468  10.452  1.00  0.00     0.147 C 
BRANCH  23  25
ATOM     25  C   UNL     1      -0.238  10.502   8.177  1.00  0.00     0.174 C 
BRANCH  25  26
ATOM     26  C   UNL     1      -0.466  11.963   7.724  1.00  0.00     0.038 C 
BRANCH  26  27
ATOM     27  C   UNL     1      -0.132  12.300   6.253  1.00  0.00    -0.015 C 
ATOM     28  C   UNL     1       0.810  11.277   5.619  1.00  0.00     0.007 C 
ATOM     29  C   UNL     1      -1.367  12.505   5.381  1.00  0.00     0.007 C 
ENDBRANCH  26  27
ENDBRANCH  25  26
BRANCH  25  30
ATOM     30  C   UNL     1      -1.505   9.620   8.090  1.00  0.00     0.243 C 
ATOM     31  O   UNL     1      -2.070   9.398   7.021  1.00  0.00    -0.273 OA
ATOM     32  N   UNL     1      -1.955   9.110   9.281  1.00  0.00    -0.342 N 
ATOM     33  H   UNL     1      -1.354   9.221  10.102  1.00  0.00     0.164 HD
BRANCH  32  34
ATOM     34  C   UNL     1      -3.155   8.276   9.393  1.00  0.00     0.175 C 
BRANCH  34  35
ATOM     35  C   UNL     1      -2.798   6.782   9.403  1.00  0.00     0.070 C 
BRANCH  35  36
ATOM     36  C   UNL     1      -3.666   5.967   8.469  1.00  0.00    -0.045 A 
ATOM     37  C   UNL     1      -4.475   4.941   8.980  1.00  0.00     0.007 A 
ATOM     38  C   UNL     1      -3.659   6.207   7.089  1.00  0.00     0.007 A 
ATOM     39  C   UNL     1      -5.268   4.175   8.125  1.00  0.00     0.046 A 
ATOM     40  C   UNL     1      -4.452   5.440   6.232  1.00  0.00     0.046 A 
ATOM     41  C   UNL     1      -5.251   4.431   6.759  1.00  0.00     0.115 A 
BRANCH  41  42
ATOM     42  O   UNL     1      -6.039   3.658   5.958  1.00  0.00    -0.508 OA
ATOM     43  H   UNL     1      -6.618   4.244   5.444  1.00  0.00     0.293 HD
ENDBRANCH  41  42
ENDBRANCH  35  36
ENDBRANCH  34  35
BRANCH  34  44
ATOM     44  C   UNL     1      -3.912   8.697  10.673  1.00  0.00     0.243 C 
ATOM     45  O   UNL     1      -5.092   8.441  10.897  1.00  0.00    -0.273 OA
ATOM     46  N   UNL     1      -3.173   9.512  11.505  1.00  0.00    -0.341 N 
ATOM     47  H   UNL     1      -2.238   9.792  11.219  1.00  0.00     0.164 HD
BRANCH  46  48
ATOM     48  C   UNL     1      -3.701  10.091  12.742  1.00  0.00     0.196 C 
BRANCH  48  49
ATOM     49  C   UNL     1      -3.184   9.337  13.979  1.00  0.00     0.072 C 
BRANCH  49  50
ATOM     50  C   UNL     1      -3.939   8.053  14.235  1.00  0.00    -0.045 A 
ATOM     51  C   UNL     1      -5.253   8.100  14.722  1.00  0.00     0.007 A 
ATOM     52  C   UNL     1      -3.338   6.807  14.014  1.00  0.00     0.007 A 
ATOM     53  C   UNL     1      -5.955   6.922  14.975  1.00  0.00     0.046 A 
ATOM     54  C   UNL     1      -4.041   5.627  14.269  1.00  0.00     0.046 A 
ATOM     55  C   UNL     1      -5.345   5.695  14.746  1.00  0.00     0.115 A 
BRANCH  55  56
ATOM     56  O   UNL     1      -6.064   4.567  15.008  1.00  0.00    -0.508 OA
ATOM     57  H   UNL     1      -6.271   4.133  14.165  1.00  0.00     0.293 HD
ENDBRANCH  55  56
ENDBRANCH  49  50
ENDBRANCH  48  49
BRANCH  48  58
ATOM     58  C   UNL     1      -3.279  11.565  12.823  1.00  0.00     0.326 C 
ATOM     59  O   UNL     1      -2.175  12.003  13.102  1.00  0.00    -0.250 OA
BRANCH  58  60
ATOM     60  O   UNL     1      -4.281  12.432  12.529  1.00  0.00    -0.480 OA
ATOM     61  H   UNL     1      -3.853  13.311  12.620  1.00  0.00     0.296 HD
ENDBRANCH  58  60
ENDBRANCH  48  58
ENDBRANCH  46  48
ENDBRANCH  34  44
ENDBRANCH  32  34
ENDBRANCH  25  30
ENDBRANCH  23  25
ENDBRANCH   2  23
TORSDOF 28
ENDMDL
MODEL 44
REMARK VINA RESULT:    -5.293      4.086      8.966
REMARK INTER + INTRA:         -19.635
REMARK INTER:                 -12.893
REMARK INTRA:                  -6.742
REMARK UNBOUND:                -6.451
REMARK SMILES CCCCCCC[C@H](N)[C@H](O)C(=O)N[C@H](C)C(=O)N(C)[C@H](CC(C)C)C(=O)N[C@@H](Cc1ccc(O)cc1)C(=O)N[C@@H](Cc1ccc(O)cc1)C(=O)O
REMARK SMILES IDX 18 1 17 2 15 3 16 4 14 5 12 6 13 7 10 9 11 10 8 12 9 13 7 16
REMARK SMILES IDX 6 17 5 18 4 19 3 20 2 21 1 22 19 23 20 24 21 25 22 26 23 27
REMARK SMILES IDX 24 28 25 29 26 30 27 31 28 32 29 34 30 35 31 36 32 37 37 38
REMARK SMILES IDX 33 39 36 40 34 41 35 42 38 44 39 45 40 46 41 48 42 49 43 50
REMARK SMILES IDX 44 51 49 52 45 53 48 54 46 55 47 56 50 58 51 59 52 60
REMARK H PARENT 14 8 11 11 9 14 9 15 28 33 35 43 40 47 47 57 52 61
ROOT
ATOM      1  O   UNL     1      -3.848  -0.244   8.743  1.00  0.00    -0.272 OA
ATOM      2  C   UNL     1      -3.028  -0.336   9.668  1.00  0.00     0.245 C 
ENDROOT
BRANCH   2   3
ATOM      3  C   UNL     1      -1.528  -0.494   9.315  1.00  0.00     0.168 C 
ATOM      4  C   UNL     1      -1.285  -1.786   8.544  1.00  0.00     0.041 C 
BRANCH   3   5
ATOM      5  N   UNL     1      -0.933   0.655   8.649  1.00  0.00    -0.342 N 
ATOM      6  C   UNL     1       0.214   1.257   9.121  1.00  0.00     0.251 C 
ATOM      7  O   UNL     1       0.790   0.906  10.146  1.00  0.00    -0.272 OA
ATOM      8  H   UNL     1      -1.341   1.058   7.809  1.00  0.00     0.164 HD
BRANCH   6   9
ATOM      9  C   UNL     1       0.738   2.356   8.183  1.00  0.00     0.219 C 
BRANCH   9  10
ATOM     10  O   UNL     1       0.624   2.001   6.799  1.00  0.00    -0.382 OA
ATOM     11  H   UNL     1       1.313   2.549   6.363  1.00  0.00     0.211 HD
ENDBRANCH   9  10
BRANCH   9  12
ATOM     12  C   UNL     1       0.097   3.742   8.450  1.00  0.00     0.089 C 
BRANCH  12  13
ATOM     13  N   UNL     1       0.543   4.214   9.781  1.00  0.00    -0.325 NA
ATOM     14  H   UNL     1      -0.229   4.126  10.445  1.00  0.00     0.119 HD
ATOM     15  H   UNL     1       0.737   5.217   9.729  1.00  0.00     0.119 HD
ENDBRANCH  12  13
BRANCH  12  16
ATOM     16  C   UNL     1       0.365   4.831   7.383  1.00  0.00     0.022 C 
BRANCH  16  17
ATOM     17  C   UNL     1      -0.826   5.510   6.694  1.00  0.00     0.002 C 
BRANCH  17  18
ATOM     18  C   UNL     1      -1.062   6.963   7.099  1.00  0.00     0.000 C 
BRANCH  18  19
ATOM     19  C   UNL     1      -0.274   7.402   8.340  1.00  0.00    -0.000 C 
BRANCH  19  20
ATOM     20  C   UNL     1      -1.109   8.060   9.442  1.00  0.00    -0.000 C 
BRANCH  20  21
ATOM     21  C   UNL     1      -2.608   8.067   9.134  1.00  0.00    -0.003 C 
ATOM     22  C   UNL     1      -3.101   9.469   8.810  1.00  0.00     0.004 C 
ENDBRANCH  20  21
ENDBRANCH  19  20
ENDBRANCH  18  19
ENDBRANCH  17  18
ENDBRANCH  16  17
ENDBRANCH  12  16
ENDBRANCH   9  12
ENDBRANCH   6   9
ENDBRANCH   3   5
ENDBRANCH   2   3
BRANCH   2  23
ATOM     23  N   UNL     1      -3.444  -0.176  10.986  1.00  0.00    -0.332 N 
ATOM     24  C   UNL     1      -4.459  -0.992  11.636  1.00  0.00     0.147 C 
BRANCH  23  25
ATOM     25  C   UNL     1      -2.756   0.797  11.878  1.00  0.00     0.174 C 
BRANCH  25  26
ATOM     26  C   UNL     1      -2.855   0.417  13.374  1.00  0.00     0.038 C 
BRANCH  26  27
ATOM     27  C   UNL     1      -1.768  -0.530  13.929  1.00  0.00    -0.015 C 
ATOM     28  C   UNL     1      -2.360  -1.720  14.684  1.00  0.00     0.007 C 
ATOM     29  C   UNL     1      -0.777  -1.006  12.869  1.00  0.00     0.007 C 
ENDBRANCH  26  27
ENDBRANCH  25  26
BRANCH  25  30
ATOM     30  C   UNL     1      -3.236   2.234  11.568  1.00  0.00     0.243 C 
ATOM     31  O   UNL     1      -4.241   2.711  12.093  1.00  0.00    -0.273 OA
ATOM     32  N   UNL     1      -2.472   2.934  10.669  1.00  0.00    -0.342 N 
ATOM     33  H   UNL     1      -1.578   2.524  10.387  1.00  0.00     0.164 HD
BRANCH  32  34
ATOM     34  C   UNL     1      -2.791   4.297  10.237  1.00  0.00     0.175 C 
BRANCH  34  35
ATOM     35  C   UNL     1      -4.216   4.384   9.668  1.00  0.00     0.070 C 
BRANCH  35  36
ATOM     36  C   UNL     1      -4.241   4.420   8.157  1.00  0.00    -0.045 A 
ATOM     37  C   UNL     1      -4.615   5.596   7.489  1.00  0.00     0.007 A 
ATOM     38  C   UNL     1      -3.917   3.283   7.406  1.00  0.00     0.007 A 
ATOM     39  C   UNL     1      -4.654   5.634   6.095  1.00  0.00     0.046 A 
ATOM     40  C   UNL     1      -3.957   3.320   6.010  1.00  0.00     0.046 A 
ATOM     41  C   UNL     1      -4.325   4.497   5.367  1.00  0.00     0.115 A 
BRANCH  41  42
ATOM     42  O   UNL     1      -4.379   4.575   4.006  1.00  0.00    -0.508 OA
ATOM     43  H   UNL     1      -3.532   4.262   3.649  1.00  0.00     0.293 HD
ENDBRANCH  41  42
ENDBRANCH  35  36
ENDBRANCH  34  35
BRANCH  34  44
ATOM     44  C   UNL     1      -2.593   5.241  11.444  1.00  0.00     0.243 C 
ATOM     45  O   UNL     1      -1.501   5.534  11.924  1.00  0.00    -0.273 OA
ATOM     46  N   UNL     1      -3.775   5.634  12.034  1.00  0.00    -0.341 N 
ATOM     47  H   UNL     1      -4.653   5.270  11.671  1.00  0.00     0.164 HD
BRANCH  46  48
ATOM     48  C   UNL     1      -3.838   6.473  13.233  1.00  0.00     0.196 C 
BRANCH  48  49
ATOM     49  C   UNL     1      -4.581   7.791  12.956  1.00  0.00     0.072 C 
BRANCH  49  50
ATOM     50  C   UNL     1      -3.641   8.947  12.703  1.00  0.00    -0.045 A 
ATOM     51  C   UNL     1      -2.266   8.793  12.933  1.00  0.00     0.007 A 
ATOM     52  C   UNL     1      -4.123  10.185  12.260  1.00  0.00     0.007 A 
ATOM     53  C   UNL     1      -1.390   9.856  12.716  1.00  0.00     0.046 A 
ATOM     54  C   UNL     1      -3.246  11.251  12.044  1.00  0.00     0.046 A 
ATOM     55  C   UNL     1      -1.886  11.076  12.273  1.00  0.00     0.115 A 
BRANCH  55  56
ATOM     56  O   UNL     1      -0.997  12.091  12.075  1.00  0.00    -0.508 OA
ATOM     57  H   UNL     1      -0.154  11.707  11.786  1.00  0.00     0.293 HD
ENDBRANCH  55  56
ENDBRANCH  49  50
ENDBRANCH  48  49
BRANCH  48  58
ATOM     58  C   UNL     1      -4.559   5.700  14.346  1.00  0.00     0.326 C 
ATOM     59  O   UNL     1      -5.481   6.093  15.041  1.00  0.00    -0.250 OA
BRANCH  58  60
ATOM     60  O   UNL     1      -4.086   4.441  14.524  1.00  0.00    -0.480 OA
ATOM     61  H   UNL     1      -3.742   4.201  13.637  1.00  0.00     0.296 HD
ENDBRANCH  58  60
ENDBRANCH  48  58
ENDBRANCH  46  48
ENDBRANCH  34  44
ENDBRANCH  32  34
ENDBRANCH  25  30
ENDBRANCH  23  25
ENDBRANCH   2  23
TORSDOF 28
ENDMDL
MODEL 45
REMARK VINA RESULT:    -5.293      4.285      8.531
REMARK INTER + INTRA:         -19.634
REMARK INTER:                 -15.810
REMARK INTRA:                  -3.823
REMARK UNBOUND:                -6.451
REMARK SMILES CCCCCCC[C@H](N)[C@H](O)C(=O)N[C@H](C)C(=O)N(C)[C@H](CC(C)C)C(=O)N[C@@H](Cc1ccc(O)cc1)C(=O)N[C@@H](Cc1ccc(O)cc1)C(=O)O
REMARK SMILES IDX 18 1 17 2 15 3 16 4 14 5 12 6 13 7 10 9 11 10 8 12 9 13 7 16
REMARK SMILES IDX 6 17 5 18 4 19 3 20 2 21 1 22 19 23 20 24 21 25 22 26 23 27
REMARK SMILES IDX 24 28 25 29 26 30 27 31 28 32 29 34 30 35 31 36 32 37 37 38
REMARK SMILES IDX 33 39 36 40 34 41 35 42 38 44 39 45 40 46 41 48 42 49 43 50
REMARK SMILES IDX 44 51 49 52 45 53 48 54 46 55 47 56 50 58 51 59 52 60
REMARK H PARENT 14 8 11 11 9 14 9 15 28 33 35 43 40 47 47 57 52 61
ROOT
ATOM      1  O   UNL     1      -1.186   6.838   5.611  1.00  0.00    -0.272 OA
ATOM      2  C   UNL     1      -0.123   7.148   6.168  1.00  0.00     0.245 C 
ENDROOT
BRANCH   2   3
ATOM      3  C   UNL     1       1.212   6.772   5.478  1.00  0.00     0.168 C 
ATOM      4  C   UNL     1       1.774   5.477   6.055  1.00  0.00     0.041 C 
BRANCH   3   5
ATOM      5  N   UNL     1       1.161   6.742   4.025  1.00  0.00    -0.342 N 
ATOM      6  C   UNL     1       2.096   7.395   3.250  1.00  0.00     0.251 C 
ATOM      7  O   UNL     1       3.003   8.077   3.715  1.00  0.00    -0.272 OA
ATOM      8  H   UNL     1       0.433   6.237   3.524  1.00  0.00     0.164 HD
BRANCH   6   9
ATOM      9  C   UNL     1       1.930   7.108   1.749  1.00  0.00     0.219 C 
BRANCH   9  10
ATOM     10  O   UNL     1       1.307   5.843   1.495  1.00  0.00    -0.382 OA
ATOM     11  H   UNL     1       2.066   5.240   1.334  1.00  0.00     0.211 HD
ENDBRANCH   9  10
BRANCH   9  12
ATOM     12  C   UNL     1       1.198   8.244   0.989  1.00  0.00     0.089 C 
BRANCH  12  13
ATOM     13  N   UNL     1       0.584   9.153   1.984  1.00  0.00    -0.325 NA
ATOM     14  H   UNL     1       0.435   8.643   2.857  1.00  0.00     0.119 HD
ATOM     15  H   UNL     1      -0.351   9.412   1.663  1.00  0.00     0.119 HD
ENDBRANCH  12  13
BRANCH  12  16
ATOM     16  C   UNL     1       2.058   9.054  -0.011  1.00  0.00     0.022 C 
BRANCH  16  17
ATOM     17  C   UNL     1       3.576   8.829  -0.044  1.00  0.00     0.002 C 
BRANCH  17  18
ATOM     18  C   UNL     1       4.383   9.966  -0.667  1.00  0.00     0.000 C 
BRANCH  18  19
ATOM     19  C   UNL     1       5.370  10.634   0.299  1.00  0.00    -0.000 C 
BRANCH  19  20
ATOM     20  C   UNL     1       6.835  10.228   0.116  1.00  0.00    -0.000 C 
BRANCH  20  21
ATOM     21  C   UNL     1       7.685  11.325  -0.530  1.00  0.00    -0.003 C 
ATOM     22  C   UNL     1       7.817  11.114  -2.030  1.00  0.00     0.004 C 
ENDBRANCH  20  21
ENDBRANCH  19  20
ENDBRANCH  18  19
ENDBRANCH  17  18
ENDBRANCH  16  17
ENDBRANCH  12  16
ENDBRANCH   9  12
ENDBRANCH   6   9
ENDBRANCH   3   5
ENDBRANCH   2   3
BRANCH   2  23
ATOM     23  N   UNL     1      -0.143   7.924   7.323  1.00  0.00    -0.332 N 
ATOM     24  C   UNL     1       0.684   7.681   8.495  1.00  0.00     0.147 C 
BRANCH  23  25
ATOM     25  C   UNL     1      -0.954   9.171   7.375  1.00  0.00     0.174 C 
BRANCH  25  26
ATOM     26  C   UNL     1      -0.337  10.252   8.294  1.00  0.00     0.038 C 
BRANCH  26  27
ATOM     27  C   UNL     1      -0.583  11.727   7.903  1.00  0.00    -0.015 C 
ATOM     28  C   UNL     1      -0.742  11.913   6.395  1.00  0.00     0.007 C 
ATOM     29  C   UNL     1      -1.752  12.365   8.649  1.00  0.00     0.007 C 
ENDBRANCH  26  27
ENDBRANCH  25  26
BRANCH  25  30
ATOM     30  C   UNL     1      -2.425   8.836   7.711  1.00  0.00     0.243 C 
ATOM     31  O   UNL     1      -3.322   8.936   6.875  1.00  0.00    -0.273 OA
ATOM     32  N   UNL     1      -2.661   8.428   8.999  1.00  0.00    -0.342 N 
ATOM     33  H   UNL     1      -1.849   8.234   9.591  1.00  0.00     0.164 HD
BRANCH  32  34
ATOM     34  C   UNL     1      -3.996   8.095   9.502  1.00  0.00     0.175 C 
BRANCH  34  35
ATOM     35  C   UNL     1      -4.220   6.575   9.530  1.00  0.00     0.070 C 
BRANCH  35  36
ATOM     36  C   UNL     1      -2.927   5.795   9.596  1.00  0.00    -0.045 A 
ATOM     37  C   UNL     1      -2.244   5.668  10.815  1.00  0.00     0.007 A 
ATOM     38  C   UNL     1      -2.381   5.210   8.446  1.00  0.00     0.007 A 
ATOM     39  C   UNL     1      -1.043   4.962  10.883  1.00  0.00     0.046 A 
ATOM     40  C   UNL     1      -1.178   4.503   8.512  1.00  0.00     0.046 A 
ATOM     41  C   UNL     1      -0.520   4.385   9.732  1.00  0.00     0.115 A 
BRANCH  41  42
ATOM     42  O   UNL     1       0.657   3.705   9.841  1.00  0.00    -0.508 OA
ATOM     43  H   UNL     1       0.720   3.084   9.097  1.00  0.00     0.293 HD
ENDBRANCH  41  42
ENDBRANCH  35  36
ENDBRANCH  34  35
BRANCH  34  44
ATOM     44  C   UNL     1      -4.151   8.727  10.904  1.00  0.00     0.243 C 
ATOM     45  O   UNL     1      -5.213   9.132  11.369  1.00  0.00    -0.273 OA
ATOM     46  N   UNL     1      -2.950   8.922  11.553  1.00  0.00    -0.341 N 
ATOM     47  H   UNL     1      -2.086   8.677  11.077  1.00  0.00     0.164 HD
BRANCH  46  48
ATOM     48  C   UNL     1      -2.839   9.567  12.864  1.00  0.00     0.196 C 
BRANCH  48  49
ATOM     49  C   UNL     1      -2.466   8.551  13.957  1.00  0.00     0.072 C 
BRANCH  49  50
ATOM     50  C   UNL     1      -3.618   7.646  14.328  1.00  0.00    -0.045 A 
ATOM     51  C   UNL     1      -4.757   8.181  14.947  1.00  0.00     0.007 A 
ATOM     52  C   UNL     1      -3.561   6.268  14.081  1.00  0.00     0.007 A 
ATOM     53  C   UNL     1      -5.821   7.354  15.305  1.00  0.00     0.046 A 
ATOM     54  C   UNL     1      -4.626   5.439  14.441  1.00  0.00     0.046 A 
ATOM     55  C   UNL     1      -5.748   5.990  15.049  1.00  0.00     0.115 A 
BRANCH  55  56
ATOM     56  O   UNL     1      -6.809   5.215  15.417  1.00  0.00    -0.508 OA
ATOM     57  H   UNL     1      -7.189   4.818  14.617  1.00  0.00     0.293 HD
ENDBRANCH  55  56
ENDBRANCH  49  50
ENDBRANCH  48  49
BRANCH  48  58
ATOM     58  C   UNL     1      -1.766  10.662  12.792  1.00  0.00     0.326 C 
ATOM     59  O   UNL     1      -1.942  11.870  12.786  1.00  0.00    -0.250 OA
BRANCH  58  60
ATOM     60  O   UNL     1      -0.500  10.178  12.744  1.00  0.00    -0.480 OA
ATOM     61  H   UNL     1       0.051  10.964  12.949  1.00  0.00     0.296 HD
ENDBRANCH  58  60
ENDBRANCH  48  58
ENDBRANCH  46  48
ENDBRANCH  34  44
ENDBRANCH  32  34
ENDBRANCH  25  30
ENDBRANCH  23  25
ENDBRANCH   2  23
TORSDOF 28
ENDMDL
MODEL 46
REMARK VINA RESULT:    -5.292      2.174      5.735
REMARK INTER + INTRA:         -19.632
REMARK INTER:                 -14.639
REMARK INTRA:                  -4.992
REMARK UNBOUND:                -6.451
REMARK SMILES CCCCCCC[C@H](N)[C@H](O)C(=O)N[C@H](C)C(=O)N(C)[C@H](CC(C)C)C(=O)N[C@@H](Cc1ccc(O)cc1)C(=O)N[C@@H](Cc1ccc(O)cc1)C(=O)O
REMARK SMILES IDX 18 1 17 2 15 3 16 4 14 5 12 6 13 7 10 9 11 10 8 12 9 13 7 16
REMARK SMILES IDX 6 17 5 18 4 19 3 20 2 21 1 22 19 23 20 24 21 25 22 26 23 27
REMARK SMILES IDX 24 28 25 29 26 30 27 31 28 32 29 34 30 35 31 36 32 37 37 38
REMARK SMILES IDX 33 39 36 40 34 41 35 42 38 44 39 45 40 46 41 48 42 49 43 50
REMARK SMILES IDX 44 51 49 52 45 53 48 54 46 55 47 56 50 58 51 59 52 60
REMARK H PARENT 14 8 11 11 9 14 9 15 28 33 35 43 40 47 47 57 52 61
ROOT
ATOM      1  O   UNL     1      -1.360   9.257   7.339  1.00  0.00    -0.272 OA
ATOM      2  C   UNL     1      -0.487  10.132   7.432  1.00  0.00     0.245 C 
ENDROOT
BRANCH   2   3
ATOM      3  C   UNL     1       0.975   9.695   7.699  1.00  0.00     0.168 C 
ATOM      4  C   UNL     1       1.548  10.427   8.908  1.00  0.00     0.041 C 
BRANCH   3   5
ATOM      5  N   UNL     1       1.175   8.257   7.792  1.00  0.00    -0.342 N 
ATOM      6  C   UNL     1       1.485   7.492   6.688  1.00  0.00     0.251 C 
ATOM      7  O   UNL     1       1.573   7.948   5.553  1.00  0.00    -0.272 OA
ATOM      8  H   UNL     1       1.093   7.760   8.676  1.00  0.00     0.164 HD
BRANCH   6   9
ATOM      9  C   UNL     1       1.791   6.028   7.045  1.00  0.00     0.219 C 
BRANCH   9  10
ATOM     10  O   UNL     1       1.797   5.794   8.458  1.00  0.00    -0.382 OA
ATOM     11  H   UNL     1       1.505   6.653   8.836  1.00  0.00     0.211 HD
ENDBRANCH   9  10
BRANCH   9  12
ATOM     12  C   UNL     1       0.860   5.018   6.324  1.00  0.00     0.089 C 
BRANCH  12  13
ATOM     13  N   UNL     1       1.628   3.779   6.063  1.00  0.00    -0.325 NA
ATOM     14  H   UNL     1       1.116   2.980   6.442  1.00  0.00     0.119 HD
ATOM     15  H   UNL     1       2.501   3.813   6.595  1.00  0.00     0.119 HD
ENDBRANCH  12  13
BRANCH  12  16
ATOM     16  C   UNL     1      -0.464   4.680   7.049  1.00  0.00     0.022 C 
BRANCH  16  17
ATOM     17  C   UNL     1      -1.512   5.784   7.245  1.00  0.00     0.002 C 
BRANCH  17  18
ATOM     18  C   UNL     1      -2.638   5.440   8.218  1.00  0.00     0.000 C 
BRANCH  18  19
ATOM     19  C   UNL     1      -3.110   3.982   8.135  1.00  0.00    -0.000 C 
BRANCH  19  20
ATOM     20  C   UNL     1      -4.612   3.798   7.897  1.00  0.00    -0.000 C 
BRANCH  20  21
ATOM     21  C   UNL     1      -4.971   3.662   6.415  1.00  0.00    -0.003 C 
ATOM     22  C   UNL     1      -6.223   4.455   6.073  1.00  0.00     0.004 C 
ENDBRANCH  20  21
ENDBRANCH  19  20
ENDBRANCH  18  19
ENDBRANCH  17  18
ENDBRANCH  16  17
ENDBRANCH  12  16
ENDBRANCH   9  12
ENDBRANCH   6   9
ENDBRANCH   3   5
ENDBRANCH   2   3
BRANCH   2  23
ATOM     23  N   UNL     1      -0.804  11.462   7.178  1.00  0.00    -0.332 N 
ATOM     24  C   UNL     1      -0.155  12.289   6.172  1.00  0.00     0.147 C 
BRANCH  23  25
ATOM     25  C   UNL     1      -1.960  12.103   7.864  1.00  0.00     0.174 C 
BRANCH  25  26
ATOM     26  C   UNL     1      -2.538  13.303   7.078  1.00  0.00     0.038 C 
BRANCH  26  27
ATOM     27  C   UNL     1      -4.070  13.342   6.887  1.00  0.00    -0.015 C 
ATOM     28  C   UNL     1      -4.579  12.202   6.005  1.00  0.00     0.007 C 
ATOM     29  C   UNL     1      -4.845  13.392   8.201  1.00  0.00     0.007 C 
ENDBRANCH  26  27
ENDBRANCH  25  26
BRANCH  25  30
ATOM     30  C   UNL     1      -1.590  12.439   9.328  1.00  0.00     0.243 C 
ATOM     31  O   UNL     1      -0.584  13.087   9.611  1.00  0.00    -0.273 OA
ATOM     32  N   UNL     1      -2.452  11.962  10.281  1.00  0.00    -0.342 N 
ATOM     33  H   UNL     1      -3.336  11.557   9.962  1.00  0.00     0.164 HD
BRANCH  32  34
ATOM     34  C   UNL     1      -2.247  12.161  11.719  1.00  0.00     0.175 C 
BRANCH  34  35
ATOM     35  C   UNL     1      -3.503  12.739  12.388  1.00  0.00     0.070 C 
BRANCH  35  36
ATOM     36  C   UNL     1      -4.562  11.692  12.649  1.00  0.00    -0.045 A 
ATOM     37  C   UNL     1      -5.431  11.301  11.620  1.00  0.00     0.007 A 
ATOM     38  C   UNL     1      -4.706  11.117  13.919  1.00  0.00     0.007 A 
ATOM     39  C   UNL     1      -6.420  10.346  11.855  1.00  0.00     0.046 A 
ATOM     40  C   UNL     1      -5.697  10.161  14.155  1.00  0.00     0.046 A 
ATOM     41  C   UNL     1      -6.545   9.783  13.120  1.00  0.00     0.115 A 
BRANCH  41  42
ATOM     42  O   UNL     1      -7.526   8.855  13.309  1.00  0.00    -0.508 OA
ATOM     43  H   UNL     1      -7.642   8.361  12.480  1.00  0.00     0.293 HD
ENDBRANCH  41  42
ENDBRANCH  35  36
ENDBRANCH  34  35
BRANCH  34  44
ATOM     44  C   UNL     1      -1.837  10.804  12.336  1.00  0.00     0.243 C 
ATOM     45  O   UNL     1      -1.241  10.679  13.402  1.00  0.00    -0.273 OA
ATOM     46  N   UNL     1      -2.087   9.728  11.510  1.00  0.00    -0.341 N 
ATOM     47  H   UNL     1      -2.476   9.895  10.586  1.00  0.00     0.164 HD
BRANCH  46  48
ATOM     48  C   UNL     1      -1.723   8.351  11.850  1.00  0.00     0.196 C 
BRANCH  48  49
ATOM     49  C   UNL     1      -2.720   7.344  11.251  1.00  0.00     0.072 C 
BRANCH  49  50
ATOM     50  C   UNL     1      -3.164   6.300  12.251  1.00  0.00    -0.045 A 
ATOM     51  C   UNL     1      -3.153   6.596  13.622  1.00  0.00     0.007 A 
ATOM     52  C   UNL     1      -3.569   5.027  11.832  1.00  0.00     0.007 A 
ATOM     53  C   UNL     1      -3.547   5.637  14.555  1.00  0.00     0.046 A 
ATOM     54  C   UNL     1      -3.963   4.066  12.765  1.00  0.00     0.046 A 
ATOM     55  C   UNL     1      -3.949   4.380  14.120  1.00  0.00     0.115 A 
BRANCH  55  56
ATOM     56  O   UNL     1      -4.325   3.470  15.063  1.00  0.00    -0.508 OA
ATOM     57  H   UNL     1      -3.572   2.885  15.241  1.00  0.00     0.293 HD
ENDBRANCH  55  56
ENDBRANCH  49  50
ENDBRANCH  48  49
BRANCH  48  58
ATOM     58  C   UNL     1      -0.314   8.060  11.314  1.00  0.00     0.326 C 
ATOM     59  O   UNL     1       0.750   8.352  11.836  1.00  0.00    -0.250 OA
BRANCH  58  60
ATOM     60  O   UNL     1      -0.312   7.391  10.134  1.00  0.00    -0.480 OA
ATOM     61  H   UNL     1      -1.098   6.807  10.203  1.00  0.00     0.296 HD
ENDBRANCH  58  60
ENDBRANCH  48  58
ENDBRANCH  46  48
ENDBRANCH  34  44
ENDBRANCH  32  34
ENDBRANCH  25  30
ENDBRANCH  23  25
ENDBRANCH   2  23
TORSDOF 28
ENDMDL
MODEL 47
REMARK VINA RESULT:    -5.274      2.357      6.122
REMARK INTER + INTRA:         -19.587
REMARK INTER:                 -14.844
REMARK INTRA:                  -4.743
REMARK UNBOUND:                -6.451
REMARK SMILES CCCCCCC[C@H](N)[C@H](O)C(=O)N[C@H](C)C(=O)N(C)[C@H](CC(C)C)C(=O)N[C@@H](Cc1ccc(O)cc1)C(=O)N[C@@H](Cc1ccc(O)cc1)C(=O)O
REMARK SMILES IDX 18 1 17 2 15 3 16 4 14 5 12 6 13 7 10 9 11 10 8 12 9 13 7 16
REMARK SMILES IDX 6 17 5 18 4 19 3 20 2 21 1 22 19 23 20 24 21 25 22 26 23 27
REMARK SMILES IDX 24 28 25 29 26 30 27 31 28 32 29 34 30 35 31 36 32 37 37 38
REMARK SMILES IDX 33 39 36 40 34 41 35 42 38 44 39 45 40 46 41 48 42 49 43 50
REMARK SMILES IDX 44 51 49 52 45 53 48 54 46 55 47 56 50 58 51 59 52 60
REMARK H PARENT 14 8 11 11 9 14 9 15 28 33 35 43 40 47 47 57 52 61
ROOT
ATOM      1  O   UNL     1      -0.919   9.720   6.837  1.00  0.00    -0.272 OA
ATOM      2  C   UNL     1      -0.968  10.713   7.578  1.00  0.00     0.245 C 
ENDROOT
BRANCH   2   3
ATOM      3  C   UNL     1       0.359  11.302   8.118  1.00  0.00     0.168 C 
ATOM      4  C   UNL     1       0.094  12.276   9.260  1.00  0.00     0.041 C 
BRANCH   3   5
ATOM      5  N   UNL     1       1.367  10.315   8.470  1.00  0.00    -0.342 N 
ATOM      6  C   UNL     1       2.561  10.216   7.786  1.00  0.00     0.251 C 
ATOM      7  O   UNL     1       2.844  10.913   6.817  1.00  0.00    -0.272 OA
ATOM      8  H   UNL     1       1.230   9.658   9.235  1.00  0.00     0.164 HD
BRANCH   6   9
ATOM      9  C   UNL     1       3.528   9.204   8.420  1.00  0.00     0.219 C 
BRANCH   9  10
ATOM     10  O   UNL     1       2.899   8.387   9.415  1.00  0.00    -0.382 OA
ATOM     11  H   UNL     1       2.687   9.022  10.134  1.00  0.00     0.211 HD
ENDBRANCH   9  10
BRANCH   9  12
ATOM     12  C   UNL     1       4.264   8.327   7.373  1.00  0.00     0.089 C 
BRANCH  12  13
ATOM     13  N   UNL     1       5.109   9.209   6.536  1.00  0.00    -0.325 NA
ATOM     14  H   UNL     1       5.243   8.776   5.621  1.00  0.00     0.119 HD
ATOM     15  H   UNL     1       6.044   9.259   6.947  1.00  0.00     0.119 HD
ENDBRANCH  12  13
BRANCH  12  16
ATOM     16  C   UNL     1       5.110   7.162   7.939  1.00  0.00     0.022 C 
BRANCH  16  17
ATOM     17  C   UNL     1       6.111   6.450   7.020  1.00  0.00     0.002 C 
BRANCH  17  18
ATOM     18  C   UNL     1       6.439   5.012   7.414  1.00  0.00     0.000 C 
BRANCH  18  19
ATOM     19  C   UNL     1       5.261   4.250   8.034  1.00  0.00    -0.000 C 
BRANCH  19  20
ATOM     20  C   UNL     1       4.743   3.068   7.209  1.00  0.00    -0.000 C 
BRANCH  20  21
ATOM     21  C   UNL     1       5.390   2.975   5.824  1.00  0.00    -0.003 C 
ATOM     22  C   UNL     1       6.265   1.738   5.703  1.00  0.00     0.004 C 
ENDBRANCH  20  21
ENDBRANCH  19  20
ENDBRANCH  18  19
ENDBRANCH  17  18
ENDBRANCH  16  17
ENDBRANCH  12  16
ENDBRANCH   9  12
ENDBRANCH   6   9
ENDBRANCH   3   5
ENDBRANCH   2   3
BRANCH   2  23
ATOM     23  N   UNL     1      -2.184  11.347   7.812  1.00  0.00    -0.332 N 
ATOM     24  C   UNL     1      -2.715  12.437   7.007  1.00  0.00     0.147 C 
BRANCH  23  25
ATOM     25  C   UNL     1      -3.105  10.840   8.866  1.00  0.00     0.174 C 
BRANCH  25  26
ATOM     26  C   UNL     1      -3.085  11.703  10.149  1.00  0.00     0.038 C 
BRANCH  26  27
ATOM     27  C   UNL     1      -3.880  11.172  11.363  1.00  0.00    -0.015 C 
ATOM     28  C   UNL     1      -3.129  11.359  12.680  1.00  0.00     0.007 C 
ATOM     29  C   UNL     1      -5.291  11.746  11.463  1.00  0.00     0.007 C 
ENDBRANCH  26  27
ENDBRANCH  25  26
BRANCH  25  30
ATOM     30  C   UNL     1      -2.844   9.338   9.123  1.00  0.00     0.243 C 
ATOM     31  O   UNL     1      -3.519   8.460   8.588  1.00  0.00    -0.273 OA
ATOM     32  N   UNL     1      -1.819   9.054   9.989  1.00  0.00    -0.342 N 
ATOM     33  H   UNL     1      -1.217   9.828  10.280  1.00  0.00     0.164 HD
BRANCH  32  34
ATOM     34  C   UNL     1      -1.447   7.689  10.371  1.00  0.00     0.175 C 
BRANCH  34  35
ATOM     35  C   UNL     1      -2.680   6.867  10.778  1.00  0.00     0.070 C 
BRANCH  35  36
ATOM     36  C   UNL     1      -3.349   7.396  12.027  1.00  0.00    -0.045 A 
ATOM     37  C   UNL     1      -4.679   7.839  11.976  1.00  0.00     0.007 A 
ATOM     38  C   UNL     1      -2.650   7.474  13.239  1.00  0.00     0.007 A 
ATOM     39  C   UNL     1      -5.301   8.341  13.119  1.00  0.00     0.046 A 
ATOM     40  C   UNL     1      -3.271   7.978  14.384  1.00  0.00     0.046 A 
ATOM     41  C   UNL     1      -4.593   8.406  14.314  1.00  0.00     0.115 A 
BRANCH  41  42
ATOM     42  O   UNL     1      -5.236   8.906  15.407  1.00  0.00    -0.508 OA
ATOM     43  H   UNL     1      -5.043   8.329  16.164  1.00  0.00     0.293 HD
ENDBRANCH  41  42
ENDBRANCH  35  36
ENDBRANCH  34  35
BRANCH  34  44
ATOM     44  C   UNL     1      -0.692   7.049   9.184  1.00  0.00     0.243 C 
ATOM     45  O   UNL     1       0.456   7.335   8.856  1.00  0.00    -0.273 OA
ATOM     46  N   UNL     1      -1.476   6.203   8.427  1.00  0.00    -0.341 N 
ATOM     47  H   UNL     1      -2.456   6.088   8.671  1.00  0.00     0.164 HD
BRANCH  46  48
ATOM     48  C   UNL     1      -1.000   5.534   7.215  1.00  0.00     0.196 C 
BRANCH  48  49
ATOM     49  C   UNL     1      -1.466   4.069   7.165  1.00  0.00     0.072 C 
BRANCH  49  50
ATOM     50  C   UNL     1      -2.722   3.830   7.971  1.00  0.00    -0.045 A 
ATOM     51  C   UNL     1      -2.673   3.027   9.120  1.00  0.00     0.007 A 
ATOM     52  C   UNL     1      -3.948   4.382   7.577  1.00  0.00     0.007 A 
ATOM     53  C   UNL     1      -3.829   2.789   9.865  1.00  0.00     0.046 A 
ATOM     54  C   UNL     1      -5.105   4.143   8.322  1.00  0.00     0.046 A 
ATOM     55  C   UNL     1      -5.035   3.348   9.461  1.00  0.00     0.115 A 
BRANCH  55  56
ATOM     56  O   UNL     1      -6.141   3.090  10.215  1.00  0.00    -0.508 OA
ATOM     57  H   UNL     1      -5.882   3.093  11.150  1.00  0.00     0.293 HD
ENDBRANCH  55  56
ENDBRANCH  49  50
ENDBRANCH  48  49
BRANCH  48  58
ATOM     58  C   UNL     1      -1.534   6.286   5.987  1.00  0.00     0.326 C 
ATOM     59  O   UNL     1      -1.213   6.119   4.822  1.00  0.00    -0.250 OA
BRANCH  58  60
ATOM     60  O   UNL     1      -2.472   7.218   6.289  1.00  0.00    -0.480 OA
ATOM     61  H   UNL     1      -2.244   7.968   5.697  1.00  0.00     0.296 HD
ENDBRANCH  58  60
ENDBRANCH  48  58
ENDBRANCH  46  48
ENDBRANCH  34  44
ENDBRANCH  32  34
ENDBRANCH  25  30
ENDBRANCH  23  25
ENDBRANCH   2  23
TORSDOF 28
ENDMDL
MODEL 48
REMARK VINA RESULT:    -5.264      3.009      6.692
REMARK INTER + INTRA:         -19.562
REMARK INTER:                 -13.679
REMARK INTRA:                  -5.883
REMARK UNBOUND:                -6.451
REMARK SMILES CCCCCCC[C@H](N)[C@H](O)C(=O)N[C@H](C)C(=O)N(C)[C@H](CC(C)C)C(=O)N[C@@H](Cc1ccc(O)cc1)C(=O)N[C@@H](Cc1ccc(O)cc1)C(=O)O
REMARK SMILES IDX 18 1 17 2 15 3 16 4 14 5 12 6 13 7 10 9 11 10 8 12 9 13 7 16
REMARK SMILES IDX 6 17 5 18 4 19 3 20 2 21 1 22 19 23 20 24 21 25 22 26 23 27
REMARK SMILES IDX 24 28 25 29 26 30 27 31 28 32 29 34 30 35 31 36 32 37 37 38
REMARK SMILES IDX 33 39 36 40 34 41 35 42 38 44 39 45 40 46 41 48 42 49 43 50
REMARK SMILES IDX 44 51 49 52 45 53 48 54 46 55 47 56 50 58 51 59 52 60
REMARK H PARENT 14 8 11 11 9 14 9 15 28 33 35 43 40 47 47 57 52 61
ROOT
ATOM      1  O   UNL     1       0.461   6.359   8.944  1.00  0.00    -0.272 OA
ATOM      2  C   UNL     1       0.864   6.690   7.819  1.00  0.00     0.245 C 
ENDROOT
BRANCH   2   3
ATOM      3  C   UNL     1       2.351   6.443   7.463  1.00  0.00     0.168 C 
ATOM      4  C   UNL     1       3.222   7.603   7.933  1.00  0.00     0.041 C 
BRANCH   3   5
ATOM      5  N   UNL     1       2.878   5.159   7.898  1.00  0.00    -0.342 N 
ATOM      6  C   UNL     1       2.673   4.004   7.174  1.00  0.00     0.251 C 
ATOM      7  O   UNL     1       2.006   3.960   6.145  1.00  0.00    -0.272 OA
ATOM      8  H   UNL     1       3.419   5.064   8.755  1.00  0.00     0.164 HD
BRANCH   6   9
ATOM      9  C   UNL     1       3.439   2.800   7.745  1.00  0.00     0.219 C 
BRANCH   9  10
ATOM     10  O   UNL     1       4.385   3.174   8.754  1.00  0.00    -0.382 OA
ATOM     11  H   UNL     1       3.904   3.849   9.282  1.00  0.00     0.211 HD
ENDBRANCH   9  10
BRANCH   9  12
ATOM     12  C   UNL     1       2.505   1.672   8.257  1.00  0.00     0.089 C 
BRANCH  12  13
ATOM     13  N   UNL     1       3.338   0.496   8.602  1.00  0.00    -0.325 NA
ATOM     14  H   UNL     1       2.751  -0.340   8.613  1.00  0.00     0.119 HD
ATOM     15  H   UNL     1       3.674   0.599   9.562  1.00  0.00     0.119 HD
ENDBRANCH  12  13
BRANCH  12  16
ATOM     16  C   UNL     1       1.586   2.039   9.447  1.00  0.00     0.022 C 
BRANCH  16  17
ATOM     17  C   UNL     1       0.123   2.411   9.173  1.00  0.00     0.002 C 
BRANCH  17  18
ATOM     18  C   UNL     1      -0.807   1.226   8.922  1.00  0.00     0.000 C 
BRANCH  18  19
ATOM     19  C   UNL     1      -1.697   0.866  10.119  1.00  0.00    -0.000 C 
BRANCH  19  20
ATOM     20  C   UNL     1      -3.198   1.070   9.897  1.00  0.00    -0.000 C 
BRANCH  20  21
ATOM     21  C   UNL     1      -3.780   2.206  10.744  1.00  0.00    -0.003 C 
ATOM     22  C   UNL     1      -3.075   2.314  12.087  1.00  0.00     0.004 C 
ENDBRANCH  20  21
ENDBRANCH  19  20
ENDBRANCH  18  19
ENDBRANCH  17  18
ENDBRANCH  16  17
ENDBRANCH  12  16
ENDBRANCH   9  12
ENDBRANCH   6   9
ENDBRANCH   3   5
ENDBRANCH   2   3
BRANCH   2  23
ATOM     23  N   UNL     1      -0.036   7.158   6.867  1.00  0.00    -0.332 N 
ATOM     24  C   UNL     1      -0.467   6.405   5.699  1.00  0.00     0.147 C 
BRANCH  23  25
ATOM     25  C   UNL     1      -0.732   8.458   7.067  1.00  0.00     0.174 C 
BRANCH  25  26
ATOM     26  C   UNL     1       0.066   9.438   7.958  1.00  0.00     0.038 C 
BRANCH  26  27
ATOM     27  C   UNL     1       0.402  10.820   7.353  1.00  0.00    -0.015 C 
ATOM     28  C   UNL     1       0.960  10.716   5.934  1.00  0.00     0.007 C 
ATOM     29  C   UNL     1      -0.764  11.804   7.402  1.00  0.00     0.007 C 
ENDBRANCH  26  27
ENDBRANCH  25  26
BRANCH  25  30
ATOM     30  C   UNL     1      -2.181   8.218   7.550  1.00  0.00     0.243 C 
ATOM     31  O   UNL     1      -3.146   8.343   6.798  1.00  0.00    -0.273 OA
ATOM     32  N   UNL     1      -2.315   7.863   8.868  1.00  0.00    -0.342 N 
ATOM     33  H   UNL     1      -1.462   7.641   9.388  1.00  0.00     0.164 HD
BRANCH  32  34
ATOM     34  C   UNL     1      -3.613   7.622   9.505  1.00  0.00     0.175 C 
BRANCH  34  35
ATOM     35  C   UNL     1      -3.743   6.165   9.974  1.00  0.00     0.070 C 
BRANCH  35  36
ATOM     36  C   UNL     1      -3.825   5.186   8.824  1.00  0.00    -0.045 A 
ATOM     37  C   UNL     1      -5.076   4.761   8.352  1.00  0.00     0.007 A 
ATOM     38  C   UNL     1      -2.663   4.674   8.232  1.00  0.00     0.007 A 
ATOM     39  C   UNL     1      -5.161   3.847   7.302  1.00  0.00     0.046 A 
ATOM     40  C   UNL     1      -2.748   3.758   7.181  1.00  0.00     0.046 A 
ATOM     41  C   UNL     1      -3.998   3.354   6.724  1.00  0.00     0.115 A 
BRANCH  41  42
ATOM     42  O   UNL     1      -4.125   2.460   5.702  1.00  0.00    -0.508 OA
ATOM     43  H   UNL     1      -3.395   1.822   5.762  1.00  0.00     0.293 HD
ENDBRANCH  41  42
ENDBRANCH  35  36
ENDBRANCH  34  35
BRANCH  34  44
ATOM     44  C   UNL     1      -3.764   8.621  10.674  1.00  0.00     0.243 C 
ATOM     45  O   UNL     1      -4.503   8.451  11.640  1.00  0.00    -0.273 OA
ATOM     46  N   UNL     1      -3.084   9.804  10.478  1.00  0.00    -0.341 N 
ATOM     47  H   UNL     1      -2.579   9.944   9.606  1.00  0.00     0.164 HD
BRANCH  46  48
ATOM     48  C   UNL     1      -3.132  10.927  11.416  1.00  0.00     0.196 C 
BRANCH  48  49
ATOM     49  C   UNL     1      -1.925  11.862  11.233  1.00  0.00     0.072 C 
BRANCH  49  50
ATOM     50  C   UNL     1      -0.606  11.123  11.270  1.00  0.00    -0.045 A 
ATOM     51  C   UNL     1       0.573  11.778  10.885  1.00  0.00     0.007 A 
ATOM     52  C   UNL     1      -0.543   9.781  11.663  1.00  0.00     0.007 A 
ATOM     53  C   UNL     1       1.793  11.103  10.902  1.00  0.00     0.046 A 
ATOM     54  C   UNL     1       0.679   9.104  11.679  1.00  0.00     0.046 A 
ATOM     55  C   UNL     1       1.838   9.772  11.299  1.00  0.00     0.115 A 
BRANCH  55  56
ATOM     56  O   UNL     1       3.050   9.148  11.299  1.00  0.00    -0.508 OA
ATOM     57  H   UNL     1       3.560   9.471  12.059  1.00  0.00     0.293 HD
ENDBRANCH  55  56
ENDBRANCH  49  50
ENDBRANCH  48  49
BRANCH  48  58
ATOM     58  C   UNL     1      -4.431  11.713  11.188  1.00  0.00     0.326 C 
ATOM     59  O   UNL     1      -4.667  12.507  10.292  1.00  0.00    -0.250 OA
BRANCH  58  60
ATOM     60  O   UNL     1      -5.393  11.446  12.107  1.00  0.00    -0.480 OA
ATOM     61  H   UNL     1      -5.994  10.831  11.633  1.00  0.00     0.296 HD
ENDBRANCH  58  60
ENDBRANCH  48  58
ENDBRANCH  46  48
ENDBRANCH  34  44
ENDBRANCH  32  34
ENDBRANCH  25  30
ENDBRANCH  23  25
ENDBRANCH   2  23
TORSDOF 28
ENDMDL
MODEL 49
REMARK VINA RESULT:    -5.214      2.939      6.812
REMARK INTER + INTRA:         -19.437
REMARK INTER:                 -15.585
REMARK INTRA:                  -3.852
REMARK UNBOUND:                -6.451
REMARK SMILES CCCCCCC[C@H](N)[C@H](O)C(=O)N[C@H](C)C(=O)N(C)[C@H](CC(C)C)C(=O)N[C@@H](Cc1ccc(O)cc1)C(=O)N[C@@H](Cc1ccc(O)cc1)C(=O)O
REMARK SMILES IDX 18 1 17 2 15 3 16 4 14 5 12 6 13 7 10 9 11 10 8 12 9 13 7 16
REMARK SMILES IDX 6 17 5 18 4 19 3 20 2 21 1 22 19 23 20 24 21 25 22 26 23 27
REMARK SMILES IDX 24 28 25 29 26 30 27 31 28 32 29 34 30 35 31 36 32 37 37 38
REMARK SMILES IDX 33 39 36 40 34 41 35 42 38 44 39 45 40 46 41 48 42 49 43 50
REMARK SMILES IDX 44 51 49 52 45 53 48 54 46 55 47 56 50 58 51 59 52 60
REMARK H PARENT 14 8 11 11 9 14 9 15 28 33 35 43 40 47 47 57 52 61
ROOT
ATOM      1  O   UNL     1       0.574   8.995   9.875  1.00  0.00    -0.272 OA
ATOM      2  C   UNL     1       1.033  10.088   9.512  1.00  0.00     0.245 C 
ENDROOT
BRANCH   2   3
ATOM      3  C   UNL     1       2.542  10.184   9.174  1.00  0.00     0.168 C 
ATOM      4  C   UNL     1       3.387   9.600  10.300  1.00  0.00     0.041 C 
BRANCH   3   5
ATOM      5  N   UNL     1       2.913   9.637   7.878  1.00  0.00    -0.342 N 
ATOM      6  C   UNL     1       3.036   8.280   7.668  1.00  0.00     0.251 C 
ATOM      7  O   UNL     1       2.886   7.443   8.552  1.00  0.00    -0.272 OA
ATOM      8  H   UNL     1       3.097  10.236   7.077  1.00  0.00     0.164 HD
BRANCH   6   9
ATOM      9  C   UNL     1       3.295   7.927   6.195  1.00  0.00     0.219 C 
BRANCH   9  10
ATOM     10  O   UNL     1       4.033   6.709   6.040  1.00  0.00    -0.382 OA
ATOM     11  H   UNL     1       4.938   6.948   6.338  1.00  0.00     0.211 HD
ENDBRANCH   9  10
BRANCH   9  12
ATOM     12  C   UNL     1       2.002   7.900   5.339  1.00  0.00     0.089 C 
BRANCH  12  13
ATOM     13  N   UNL     1       0.836   7.912   6.252  1.00  0.00    -0.325 NA
ATOM     14  H   UNL     1       0.831   8.788   6.778  1.00  0.00     0.119 HD
ATOM     15  H   UNL     1       0.959   7.180   6.955  1.00  0.00     0.119 HD
ENDBRANCH  12  13
BRANCH  12  16
ATOM     16  C   UNL     1       1.863   9.025   4.285  1.00  0.00     0.022 C 
BRANCH  16  17
ATOM     17  C   UNL     1       1.954   8.668   2.795  1.00  0.00     0.002 C 
BRANCH  17  18
ATOM     18  C   UNL     1       2.891   7.509   2.466  1.00  0.00     0.000 C 
BRANCH  18  19
ATOM     19  C   UNL     1       2.583   6.815   1.132  1.00  0.00    -0.000 C 
BRANCH  19  20
ATOM     20  C   UNL     1       1.619   5.628   1.225  1.00  0.00    -0.000 C 
BRANCH  20  21
ATOM     21  C   UNL     1       0.186   5.987   0.825  1.00  0.00    -0.003 C 
ATOM     22  C   UNL     1      -0.680   6.254   2.046  1.00  0.00     0.004 C 
ENDBRANCH  20  21
ENDBRANCH  19  20
ENDBRANCH  18  19
ENDBRANCH  17  18
ENDBRANCH  16  17
ENDBRANCH  12  16
ENDBRANCH   9  12
ENDBRANCH   6   9
ENDBRANCH   3   5
ENDBRANCH   2   3
BRANCH   2  23
ATOM     23  N   UNL     1       0.179  11.165   9.300  1.00  0.00    -0.332 N 
ATOM     24  C   UNL     1       0.056  12.310  10.190  1.00  0.00     0.147 C 
BRANCH  23  25
ATOM     25  C   UNL     1      -0.598  11.269   8.034  1.00  0.00     0.174 C 
BRANCH  25  26
ATOM     26  C   UNL     1      -1.311  12.633   7.875  1.00  0.00     0.038 C 
BRANCH  26  27
ATOM     27  C   UNL     1      -1.719  13.047   6.444  1.00  0.00    -0.015 C 
ATOM     28  C   UNL     1      -0.704  12.598   5.394  1.00  0.00     0.007 C 
ATOM     29  C   UNL     1      -3.126  12.595   6.060  1.00  0.00     0.007 C 
ENDBRANCH  26  27
ENDBRANCH  25  26
BRANCH  25  30
ATOM     30  C   UNL     1      -1.542  10.054   7.888  1.00  0.00     0.243 C 
ATOM     31  O   UNL     1      -1.650   9.438   6.828  1.00  0.00    -0.273 OA
ATOM     32  N   UNL     1      -2.252   9.715   9.011  1.00  0.00    -0.342 N 
ATOM     33  H   UNL     1      -2.004  10.183   9.887  1.00  0.00     0.164 HD
BRANCH  32  34
ATOM     34  C   UNL     1      -3.214   8.610   9.049  1.00  0.00     0.175 C 
BRANCH  34  35
ATOM     35  C   UNL     1      -2.500   7.252   9.141  1.00  0.00     0.070 C 
BRANCH  35  36
ATOM     36  C   UNL     1      -3.158   6.188   8.292  1.00  0.00    -0.045 A 
ATOM     37  C   UNL     1      -3.895   5.161   8.901  1.00  0.00     0.007 A 
ATOM     38  C   UNL     1      -3.024   6.196   6.898  1.00  0.00     0.007 A 
ATOM     39  C   UNL     1      -4.494   4.166   8.128  1.00  0.00     0.046 A 
ATOM     40  C   UNL     1      -3.622   5.199   6.122  1.00  0.00     0.046 A 
ATOM     41  C   UNL     1      -4.353   4.193   6.745  1.00  0.00     0.115 A 
BRANCH  41  42
ATOM     42  O   UNL     1      -4.951   3.201   6.026  1.00  0.00    -0.508 OA
ATOM     43  H   UNL     1      -4.655   2.347   6.381  1.00  0.00     0.293 HD
ENDBRANCH  41  42
ENDBRANCH  35  36
ENDBRANCH  34  35
BRANCH  34  44
ATOM     44  C   UNL     1      -4.166   8.844  10.244  1.00  0.00     0.243 C 
ATOM     45  O   UNL     1      -5.003   8.035  10.633  1.00  0.00    -0.273 OA
ATOM     46  N   UNL     1      -4.085  10.117  10.768  1.00  0.00    -0.341 N 
ATOM     47  H   UNL     1      -3.458  10.791  10.336  1.00  0.00     0.164 HD
BRANCH  46  48
ATOM     48  C   UNL     1      -4.936  10.594  11.860  1.00  0.00     0.196 C 
BRANCH  48  49
ATOM     49  C   UNL     1      -4.131  10.782  13.157  1.00  0.00     0.072 C 
BRANCH  49  50
ATOM     50  C   UNL     1      -2.874   9.943  13.188  1.00  0.00    -0.045 A 
ATOM     51  C   UNL     1      -1.648  10.506  12.806  1.00  0.00     0.007 A 
ATOM     52  C   UNL     1      -2.915   8.597  13.574  1.00  0.00     0.007 A 
ATOM     53  C   UNL     1      -0.484   9.738  12.817  1.00  0.00     0.046 A 
ATOM     54  C   UNL     1      -1.749   7.827  13.585  1.00  0.00     0.046 A 
ATOM     55  C   UNL     1      -0.542   8.406  13.207  1.00  0.00     0.115 A 
BRANCH  55  56
ATOM     56  O   UNL     1       0.618   7.689  13.203  1.00  0.00    -0.508 OA
ATOM     57  H   UNL     1       1.130   7.941  12.418  1.00  0.00     0.293 HD
ENDBRANCH  55  56
ENDBRANCH  49  50
ENDBRANCH  48  49
BRANCH  48  58
ATOM     58  C   UNL     1      -5.572  11.930  11.451  1.00  0.00     0.326 C 
ATOM     59  O   UNL     1      -5.095  12.781  10.718  1.00  0.00    -0.250 OA
BRANCH  58  60
ATOM     60  O   UNL     1      -6.805  12.128  11.981  1.00  0.00    -0.480 OA
ATOM     61  H   UNL     1      -6.791  13.075  12.238  1.00  0.00     0.296 HD
ENDBRANCH  58  60
ENDBRANCH  48  58
ENDBRANCH  46  48
ENDBRANCH  34  44
ENDBRANCH  32  34
ENDBRANCH  25  30
ENDBRANCH  23  25
ENDBRANCH   2  23
TORSDOF 28
ENDMDL
MODEL 50
REMARK VINA RESULT:    -5.202      2.848      6.483
REMARK INTER + INTRA:         -19.408
REMARK INTER:                 -14.347
REMARK INTRA:                  -5.061
REMARK UNBOUND:                -6.451
REMARK SMILES CCCCCCC[C@H](N)[C@H](O)C(=O)N[C@H](C)C(=O)N(C)[C@H](CC(C)C)C(=O)N[C@@H](Cc1ccc(O)cc1)C(=O)N[C@@H](Cc1ccc(O)cc1)C(=O)O
REMARK SMILES IDX 18 1 17 2 15 3 16 4 14 5 12 6 13 7 10 9 11 10 8 12 9 13 7 16
REMARK SMILES IDX 6 17 5 18 4 19 3 20 2 21 1 22 19 23 20 24 21 25 22 26 23 27
REMARK SMILES IDX 24 28 25 29 26 30 27 31 28 32 29 34 30 35 31 36 32 37 37 38
REMARK SMILES IDX 33 39 36 40 34 41 35 42 38 44 39 45 40 46 41 48 42 49 43 50
REMARK SMILES IDX 44 51 49 52 45 53 48 54 46 55 47 56 50 58 51 59 52 60
REMARK H PARENT 14 8 11 11 9 14 9 15 28 33 35 43 40 47 47 57 52 61
ROOT
ATOM      1  O   UNL     1      -2.766   3.709   7.952  1.00  0.00    -0.272 OA
ATOM      2  C   UNL     1      -2.713   3.314   9.126  1.00  0.00     0.245 C 
ENDROOT
BRANCH   2   3
ATOM      3  C   UNL     1      -1.383   2.713   9.645  1.00  0.00     0.168 C 
ATOM      4  C   UNL     1      -1.625   1.370  10.327  1.00  0.00     0.041 C 
BRANCH   3   5
ATOM      5  N   UNL     1      -0.320   2.634   8.655  1.00  0.00    -0.342 N 
ATOM      6  C   UNL     1       0.658   3.602   8.559  1.00  0.00     0.251 C 
ATOM      7  O   UNL     1       0.685   4.608   9.260  1.00  0.00    -0.272 OA
ATOM      8  H   UNL     1      -0.258   1.863   7.995  1.00  0.00     0.164 HD
BRANCH   6   9
ATOM      9  C   UNL     1       1.753   3.241   7.543  1.00  0.00     0.219 C 
BRANCH   9  10
ATOM     10  O   UNL     1       1.471   3.734   6.228  1.00  0.00    -0.382 OA
ATOM     11  H   UNL     1       1.550   4.708   6.324  1.00  0.00     0.211 HD
ENDBRANCH   9  10
BRANCH   9  12
ATOM     12  C   UNL     1       3.172   3.670   7.999  1.00  0.00     0.089 C 
BRANCH  12  13
ATOM     13  N   UNL     1       4.027   2.462   8.065  1.00  0.00    -0.325 NA
ATOM     14  H   UNL     1       3.945   1.945   7.188  1.00  0.00     0.119 HD
ATOM     15  H   UNL     1       3.657   1.834   8.781  1.00  0.00     0.119 HD
ENDBRANCH  12  13
BRANCH  12  16
ATOM     16  C   UNL     1       3.859   4.761   7.142  1.00  0.00     0.022 C 
BRANCH  16  17
ATOM     17  C   UNL     1       3.934   6.196   7.681  1.00  0.00     0.002 C 
BRANCH  17  18
ATOM     18  C   UNL     1       2.694   7.049   7.419  1.00  0.00     0.000 C 
BRANCH  18  19
ATOM     19  C   UNL     1       2.358   7.221   5.932  1.00  0.00    -0.000 C 
BRANCH  19  20
ATOM     20  C   UNL     1       1.365   8.343   5.616  1.00  0.00    -0.000 C 
BRANCH  20  21
ATOM     21  C   UNL     1       1.851   9.721   6.073  1.00  0.00    -0.003 C 
ATOM     22  C   UNL     1       1.048  10.836   5.422  1.00  0.00     0.004 C 
ENDBRANCH  20  21
ENDBRANCH  19  20
ENDBRANCH  18  19
ENDBRANCH  17  18
ENDBRANCH  16  17
ENDBRANCH  12  16
ENDBRANCH   9  12
ENDBRANCH   6   9
ENDBRANCH   3   5
ENDBRANCH   2   3
BRANCH   2  23
ATOM     23  N   UNL     1      -3.790   3.524   9.981  1.00  0.00    -0.332 N 
ATOM     24  C   UNL     1      -5.161   3.132   9.693  1.00  0.00     0.147 C 
BRANCH  23  25
ATOM     25  C   UNL     1      -3.568   4.072  11.347  1.00  0.00     0.174 C 
BRANCH  25  26
ATOM     26  C   UNL     1      -4.558   3.504  12.391  1.00  0.00     0.038 C 
BRANCH  26  27
ATOM     27  C   UNL     1      -4.292   3.855  13.872  1.00  0.00    -0.015 C 
ATOM     28  C   UNL     1      -5.380   4.750  14.465  1.00  0.00     0.007 C 
ATOM     29  C   UNL     1      -4.063   2.631  14.755  1.00  0.00     0.007 C 
ENDBRANCH  26  27
ENDBRANCH  25  26
BRANCH  25  30
ATOM     30  C   UNL     1      -3.530   5.616  11.302  1.00  0.00     0.243 C 
ATOM     31  O   UNL     1      -4.062   6.253  10.393  1.00  0.00    -0.273 OA
ATOM     32  N   UNL     1      -2.862   6.224  12.333  1.00  0.00    -0.342 N 
ATOM     33  H   UNL     1      -2.571   5.638  13.120  1.00  0.00     0.164 HD
BRANCH  32  34
ATOM     34  C   UNL     1      -2.702   7.677  12.440  1.00  0.00     0.175 C 
BRANCH  34  35
ATOM     35  C   UNL     1      -3.204   8.197  13.795  1.00  0.00     0.070 C 
BRANCH  35  36
ATOM     36  C   UNL     1      -4.377   9.142  13.661  1.00  0.00    -0.045 A 
ATOM     37  C   UNL     1      -4.155  10.517  13.495  1.00  0.00     0.007 A 
ATOM     38  C   UNL     1      -5.694   8.666  13.723  1.00  0.00     0.007 A 
ATOM     39  C   UNL     1      -5.231  11.398  13.384  1.00  0.00     0.046 A 
ATOM     40  C   UNL     1      -6.771   9.548  13.614  1.00  0.00     0.046 A 
ATOM     41  C   UNL     1      -6.530  10.907  13.443  1.00  0.00     0.115 A 
BRANCH  41  42
ATOM     42  O   UNL     1      -7.553  11.802  13.334  1.00  0.00    -0.508 OA
ATOM     43  H   UNL     1      -8.348  11.322  13.049  1.00  0.00     0.293 HD
ENDBRANCH  41  42
ENDBRANCH  35  36
ENDBRANCH  34  35
BRANCH  34  44
ATOM     44  C   UNL     1      -1.211   8.012  12.209  1.00  0.00     0.243 C 
ATOM     45  O   UNL     1      -0.278   7.457  12.783  1.00  0.00    -0.273 OA
ATOM     46  N   UNL     1      -1.014   9.098  11.383  1.00  0.00    -0.341 N 
ATOM     47  H   UNL     1      -1.824   9.599  11.023  1.00  0.00     0.164 HD
BRANCH  46  48
ATOM     48  C   UNL     1       0.308   9.645  11.071  1.00  0.00     0.196 C 
BRANCH  48  49
ATOM     49  C   UNL     1       0.700   9.366   9.611  1.00  0.00     0.072 C 
BRANCH  49  50
ATOM     50  C   UNL     1      -0.466   8.883   8.778  1.00  0.00    -0.045 A 
ATOM     51  C   UNL     1      -0.643   7.509   8.555  1.00  0.00     0.007 A 
ATOM     52  C   UNL     1      -1.366   9.789   8.203  1.00  0.00     0.007 A 
ATOM     53  C   UNL     1      -1.707   7.052   7.777  1.00  0.00     0.046 A 
ATOM     54  C   UNL     1      -2.431   9.331   7.424  1.00  0.00     0.046 A 
ATOM     55  C   UNL     1      -2.593   7.966   7.218  1.00  0.00     0.115 A 
BRANCH  55  56
ATOM     56  O   UNL     1      -3.618   7.478   6.463  1.00  0.00    -0.508 OA
ATOM     57  H   UNL     1      -3.964   8.200   5.915  1.00  0.00     0.293 HD
ENDBRANCH  55  56
ENDBRANCH  49  50
ENDBRANCH  48  49
BRANCH  48  58
ATOM     58  C   UNL     1       0.294  11.159  11.320  1.00  0.00     0.326 C 
ATOM     59  O   UNL     1      -0.489  11.787  12.016  1.00  0.00    -0.250 OA
BRANCH  58  60
ATOM     60  O   UNL     1       1.291  11.823  10.682  1.00  0.00    -0.480 OA
ATOM     61  H   UNL     1       1.242  11.476   9.765  1.00  0.00     0.296 HD
ENDBRANCH  58  60
ENDBRANCH  48  58
ENDBRANCH  46  48
ENDBRANCH  34  44
ENDBRANCH  32  34
ENDBRANCH  25  30
ENDBRANCH  23  25
ENDBRANCH   2  23
TORSDOF 28
ENDMDL
