MODEL 1
REMARK VINA RESULT:    -8.492      0.000      0.000
REMARK INTER + INTRA:         -20.184
REMARK INTER:                 -17.179
REMARK INTRA:                  -3.005
REMARK UNBOUND:                -3.005
REMARK SMILES CC[C@@H](C)[C@@H](NC(=O)[C@@H](O)Cc1ccc(O)c(Cl)c1)C(=O)N1[C@H](C(=O)NCCCCN=C(N)N)C[C@H]2CC[C@H](OS(=O)(=O)O)C[C@@H]21
REMARK SMILES IDX 22 1 36 2 46 3 35 4 23 5 45 6 37 7 39 8 38 9 20 10 21 11
REMARK SMILES IDX 5 12 6 13 7 14 8 15 9 17 11 18 12 19 17 20 19 21 15 22 14 23
REMARK SMILES IDX 13 24 18 25 16 26 10 28 3 30 4 31 2 32 1 33 24 34 25 35
REMARK SMILES IDX 26 36 27 38 28 39 29 40 30 41 31 42 32 43 33 44 34 45 40 50
REMARK SMILES IDX 41 51 42 52 43 53 44 54
REMARK H PARENT 6 16 16 27 10 29 26 37 33 46 33 47 34 48 34 49 44 55
ROOT
ATOM      1  N   UNL     1       4.793  11.006  -5.589  1.00  0.00    -0.326 N 
ATOM      2  C   UNL     1       6.263   9.255  -6.150  1.00  0.00     0.014 C 
ATOM      3  C   UNL     1       4.886   9.544  -5.545  1.00  0.00     0.091 C 
ATOM      4  C   UNL     1       7.094  10.435  -5.670  1.00  0.00     0.041 C 
ATOM      5  C   UNL     1       6.111  11.588  -5.942  1.00  0.00     0.175 C 
ATOM      6  C   UNL     1       3.843   8.728  -6.306  1.00  0.00     0.059 C 
ATOM      7  C   UNL     1       6.715   7.845  -5.821  1.00  0.00     0.008 C 
ATOM      8  C   UNL     1       4.376   7.380  -6.839  1.00  0.00     0.143 C 
ATOM      9  C   UNL     1       5.551   6.847  -5.993  1.00  0.00     0.034 C 
ENDROOT
BRANCH   1  10
ATOM     10  C   UNL     1       3.778  11.844  -5.160  1.00  0.00     0.246 C 
ATOM     11  O   UNL     1       3.258  12.621  -5.967  1.00  0.00    -0.272 OA
BRANCH  10  12
ATOM     12  C   UNL     1       3.287  11.760  -3.685  1.00  0.00     0.174 C 
BRANCH  12  13
ATOM     13  N   UNL     1       1.863  11.428  -3.652  1.00  0.00    -0.342 N 
ATOM     14  C   UNL     1       1.349  10.171  -3.425  1.00  0.00     0.249 C 
ATOM     15  O   UNL     1       2.038   9.185  -3.195  1.00  0.00    -0.272 OA
ATOM     16  H   UNL     1       1.180  12.107  -3.979  1.00  0.00     0.164 HD
BRANCH  14  17
ATOM     17  C   UNL     1      -0.193  10.141  -3.470  1.00  0.00     0.207 C 
BRANCH  17  18
ATOM     18  C   UNL     1      -0.726   8.897  -2.750  1.00  0.00     0.077 C 
BRANCH  18  19
ATOM     19  C   UNL     1      -1.015   9.173  -1.292  1.00  0.00    -0.043 A 
ATOM     20  C   UNL     1      -1.177  10.730   0.562  1.00  0.00     0.083 A 
ATOM     21  C   UNL     1      -0.958  10.485  -0.794  1.00  0.00     0.028 A 
ATOM     22  C   UNL     1      -1.451   9.670   1.428  1.00  0.00     0.134 A 
ATOM     23  C   UNL     1      -1.510   8.367   0.948  1.00  0.00     0.048 A 
ATOM     24  C   UNL     1      -1.290   8.118  -0.408  1.00  0.00     0.008 A 
ATOM     25  Cl  UNL     1      -1.103  12.348   1.154  1.00  0.00    -0.080 Cl
BRANCH  22  26
ATOM     26  O   UNL     1      -1.662   9.860   2.766  1.00  0.00    -0.506 OA
ATOM     27  H   UNL     1      -1.356  10.763   2.973  1.00  0.00     0.293 HD
ENDBRANCH  22  26
ENDBRANCH  18  19
ENDBRANCH  17  18
BRANCH  17  28
ATOM     28  O   UNL     1      -0.671  10.148  -4.825  1.00  0.00    -0.383 OA
ATOM     29  H   UNL     1      -0.267  10.938  -5.251  1.00  0.00     0.211 HD
ENDBRANCH  17  28
ENDBRANCH  14  17
ENDBRANCH  12  13
BRANCH  12  30
ATOM     30  C   UNL     1       3.616  13.040  -2.870  1.00  0.00     0.018 C 
ATOM     31  C   UNL     1       5.133  13.194  -2.684  1.00  0.00     0.010 C 
BRANCH  30  32
ATOM     32  C   UNL     1       2.902  13.102  -1.497  1.00  0.00     0.002 C 
ATOM     33  C   UNL     1       2.127  14.384  -1.224  1.00  0.00     0.004 C 
ENDBRANCH  30  32
ENDBRANCH  12  30
ENDBRANCH  10  12
ENDBRANCH   1  10
BRANCH   5  34
ATOM     34  C   UNL     1       6.139  12.024  -7.431  1.00  0.00     0.242 C 
ATOM     35  O   UNL     1       6.919  12.878  -7.853  1.00  0.00    -0.273 OA
ATOM     36  N   UNL     1       5.192  11.428  -8.234  1.00  0.00    -0.354 N 
ATOM     37  H   UNL     1       4.496  10.819  -7.803  1.00  0.00     0.163 HD
BRANCH  36  38
ATOM     38  C   UNL     1       5.213  11.552  -9.677  1.00  0.00     0.116 C 
BRANCH  38  39
ATOM     39  C   UNL     1       5.616  10.221 -10.306  1.00  0.00     0.023 C 
BRANCH  39  40
ATOM     40  C   UNL     1       6.928   9.684  -9.744  1.00  0.00     0.026 C 
BRANCH  40  41
ATOM     41  C   UNL     1       7.459   8.539 -10.606  1.00  0.00     0.146 C 
BRANCH  41  42
ATOM     42  N   UNL     1       7.930   7.457  -9.751  1.00  0.00    -0.254 NA
ATOM     43  C   UNL     1       9.185   7.312  -9.546  1.00  0.00     0.185 C 
ATOM     44  N   UNL     1      10.226   8.029 -10.008  1.00  0.00    -0.370 N 
ATOM     45  N   UNL     1       9.598   6.305  -8.759  1.00  0.00    -0.370 N 
ATOM     46  H   UNL     1      11.160   7.660  -9.968  1.00  0.00     0.159 HD
ATOM     47  H   UNL     1      10.092   8.836 -10.609  1.00  0.00     0.159 HD
ATOM     48  H   UNL     1       8.875   5.720  -8.362  1.00  0.00     0.159 HD
ATOM     49  H   UNL     1      10.521   6.267  -8.364  1.00  0.00     0.159 HD
ENDBRANCH  41  42
ENDBRANCH  40  41
ENDBRANCH  39  40
ENDBRANCH  38  39
ENDBRANCH  36  38
ENDBRANCH   5  34
BRANCH   8  50
ATOM     50  O   UNL     1       4.819   7.527  -8.188  1.00  0.00    -0.245 OA
BRANCH  50  51
ATOM     51  S   UNL     1       3.917   6.922  -9.399  1.00  0.00     0.397 S 
ATOM     52  O   UNL     1       4.772   6.096 -10.222  1.00  0.00    -0.169 OA
ATOM     53  O   UNL     1       3.099   7.973  -9.968  1.00  0.00    -0.169 OA
BRANCH  51  54
ATOM     54  O   UNL     1       2.946   5.905  -8.619  1.00  0.00    -0.264 OA
ATOM     55  H   UNL     1       2.267   5.595  -9.253  1.00  0.00     0.236 HD
ENDBRANCH  51  54
ENDBRANCH  50  51
ENDBRANCH   8  50
TORSDOF 19
ENDMDL
MODEL 2
REMARK VINA RESULT:    -8.473      4.241     10.333
REMARK INTER + INTRA:         -20.147
REMARK INTER:                 -15.853
REMARK INTRA:                  -4.294
REMARK UNBOUND:                -3.005
REMARK SMILES CC[C@@H](C)[C@@H](NC(=O)[C@@H](O)Cc1ccc(O)c(Cl)c1)C(=O)N1[C@H](C(=O)NCCCCN=C(N)N)C[C@H]2CC[C@H](OS(=O)(=O)O)C[C@@H]21
REMARK SMILES IDX 22 1 36 2 46 3 35 4 23 5 45 6 37 7 39 8 38 9 20 10 21 11
REMARK SMILES IDX 5 12 6 13 7 14 8 15 9 17 11 18 12 19 17 20 19 21 15 22 14 23
REMARK SMILES IDX 13 24 18 25 16 26 10 28 3 30 4 31 2 32 1 33 24 34 25 35
REMARK SMILES IDX 26 36 27 38 28 39 29 40 30 41 31 42 32 43 33 44 34 45 40 50
REMARK SMILES IDX 41 51 42 52 43 53 44 54
REMARK H PARENT 6 16 16 27 10 29 26 37 33 46 33 47 34 48 34 49 44 55
ROOT
ATOM      1  N   UNL     1       1.113  11.575  -2.109  1.00  0.00    -0.326 N 
ATOM      2  C   UNL     1      -0.582  10.023  -1.600  1.00  0.00     0.014 C 
ATOM      3  C   UNL     1       0.869  10.130  -2.075  1.00  0.00     0.091 C 
ATOM      4  C   UNL     1      -1.233  11.243  -2.232  1.00  0.00     0.041 C 
ATOM      5  C   UNL     1      -0.164  12.309  -1.929  1.00  0.00     0.175 C 
ATOM      6  C   UNL     1       1.741   9.269  -1.163  1.00  0.00     0.059 C 
ATOM      7  C   UNL     1      -1.147   8.646  -1.889  1.00  0.00     0.008 C 
ATOM      8  C   UNL     1       1.019   8.022  -0.609  1.00  0.00     0.143 C 
ATOM      9  C   UNL     1      -0.118   7.551  -1.538  1.00  0.00     0.034 C 
ENDROOT
BRANCH   1  10
ATOM     10  C   UNL     1       2.248  12.275  -2.481  1.00  0.00     0.246 C 
ATOM     11  O   UNL     1       3.119  12.501  -1.634  1.00  0.00    -0.272 OA
BRANCH  10  12
ATOM     12  C   UNL     1       2.422  12.725  -3.960  1.00  0.00     0.174 C 
BRANCH  12  13
ATOM     13  N   UNL     1       3.130  11.692  -4.715  1.00  0.00    -0.342 N 
ATOM     14  C   UNL     1       2.528  10.665  -5.406  1.00  0.00     0.249 C 
ATOM     15  O   UNL     1       1.315  10.517  -5.489  1.00  0.00    -0.272 OA
ATOM     16  H   UNL     1       4.137  11.593  -4.611  1.00  0.00     0.164 HD
BRANCH  14  17
ATOM     17  C   UNL     1       3.548   9.727  -6.087  1.00  0.00     0.207 C 
BRANCH  17  18
ATOM     18  C   UNL     1       4.979  10.169  -5.766  1.00  0.00     0.077 C 
BRANCH  18  19
ATOM     19  C   UNL     1       6.004   9.217  -6.343  1.00  0.00    -0.043 A 
ATOM     20  C   UNL     1       7.928   8.806  -7.760  1.00  0.00     0.083 A 
ATOM     21  C   UNL     1       7.015   9.694  -7.191  1.00  0.00     0.028 A 
ATOM     22  C   UNL     1       7.837   7.440  -7.488  1.00  0.00     0.134 A 
ATOM     23  C   UNL     1       6.841   6.955  -6.649  1.00  0.00     0.048 A 
ATOM     24  C   UNL     1       5.924   7.841  -6.080  1.00  0.00     0.008 A 
ATOM     25  Cl  UNL     1       9.164   9.410  -8.800  1.00  0.00    -0.080 Cl
BRANCH  22  26
ATOM     26  O   UNL     1       8.704   6.530  -8.031  1.00  0.00    -0.506 OA
ATOM     27  H   UNL     1       9.482   6.500  -7.444  1.00  0.00     0.293 HD
ENDBRANCH  22  26
ENDBRANCH  18  19
ENDBRANCH  17  18
BRANCH  17  28
ATOM     28  O   UNL     1       3.363   9.708  -7.512  1.00  0.00    -0.383 OA
ATOM     29  H   UNL     1       3.119   8.783  -7.742  1.00  0.00     0.211 HD
ENDBRANCH  17  28
ENDBRANCH  14  17
ENDBRANCH  12  13
BRANCH  12  30
ATOM     30  C   UNL     1       3.093  14.119  -4.089  1.00  0.00     0.018 C 
ATOM     31  C   UNL     1       2.209  15.078  -4.901  1.00  0.00     0.010 C 
BRANCH  30  32
ATOM     32  C   UNL     1       4.518  14.069  -4.692  1.00  0.00     0.002 C 
ATOM     33  C   UNL     1       5.640  13.825  -3.692  1.00  0.00     0.004 C 
ENDBRANCH  30  32
ENDBRANCH  12  30
ENDBRANCH  10  12
ENDBRANCH   1  10
BRANCH   5  34
ATOM     34  C   UNL     1      -0.288  12.849  -0.479  1.00  0.00     0.242 C 
ATOM     35  O   UNL     1       0.605  12.706   0.355  1.00  0.00    -0.273 OA
ATOM     36  N   UNL     1      -1.490  13.450  -0.180  1.00  0.00    -0.354 N 
ATOM     37  H   UNL     1      -2.236  13.432  -0.877  1.00  0.00     0.163 HD
BRANCH  36  38
ATOM     38  C   UNL     1      -1.698  14.195   1.045  1.00  0.00     0.116 C 
BRANCH  38  39
ATOM     39  C   UNL     1      -3.107  13.936   1.576  1.00  0.00     0.023 C 
BRANCH  39  40
ATOM     40  C   UNL     1      -3.131  13.726   3.086  1.00  0.00     0.026 C 
BRANCH  40  41
ATOM     41  C   UNL     1      -2.232  12.555   3.484  1.00  0.00     0.146 C 
BRANCH  41  42
ATOM     42  N   UNL     1      -2.616  11.364   2.739  1.00  0.00    -0.254 NA
ATOM     43  C   UNL     1      -1.709  10.583   2.284  1.00  0.00     0.185 C 
ATOM     44  N   UNL     1      -0.370  10.665   2.376  1.00  0.00    -0.370 N 
ATOM     45  N   UNL     1      -2.084   9.492   1.596  1.00  0.00    -0.370 N 
ATOM     46  H   UNL     1       0.221  10.122   1.769  1.00  0.00     0.159 HD
ATOM     47  H   UNL     1       0.084  11.423   2.876  1.00  0.00     0.159 HD
ATOM     48  H   UNL     1      -3.079   9.349   1.488  1.00  0.00     0.159 HD
ATOM     49  H   UNL     1      -1.464   8.722   1.417  1.00  0.00     0.159 HD
ENDBRANCH  41  42
ENDBRANCH  40  41
ENDBRANCH  39  40
ENDBRANCH  38  39
ENDBRANCH  36  38
ENDBRANCH   5  34
BRANCH   8  50
ATOM     50  O   UNL     1       0.467   8.306   0.677  1.00  0.00    -0.245 OA
BRANCH  50  51
ATOM     51  S   UNL     1       1.178   7.701   2.008  1.00  0.00     0.397 S 
ATOM     52  O   UNL     1       2.038   8.724   2.559  1.00  0.00    -0.169 OA
ATOM     53  O   UNL     1       1.666   6.365   1.734  1.00  0.00    -0.169 OA
BRANCH  51  54
ATOM     54  O   UNL     1      -0.062   7.578   3.024  1.00  0.00    -0.264 OA
ATOM     55  H   UNL     1      -0.727   6.988   2.614  1.00  0.00     0.236 HD
ENDBRANCH  51  54
ENDBRANCH  50  51
ENDBRANCH   8  50
TORSDOF 19
ENDMDL
MODEL 3
REMARK VINA RESULT:    -8.298      5.888     10.247
REMARK INTER + INTRA:         -19.791
REMARK INTER:                 -15.420
REMARK INTRA:                  -4.371
REMARK UNBOUND:                -3.005
REMARK SMILES CC[C@@H](C)[C@@H](NC(=O)[C@@H](O)Cc1ccc(O)c(Cl)c1)C(=O)N1[C@H](C(=O)NCCCCN=C(N)N)C[C@H]2CC[C@H](OS(=O)(=O)O)C[C@@H]21
REMARK SMILES IDX 22 1 36 2 46 3 35 4 23 5 45 6 37 7 39 8 38 9 20 10 21 11
REMARK SMILES IDX 5 12 6 13 7 14 8 15 9 17 11 18 12 19 17 20 19 21 15 22 14 23
REMARK SMILES IDX 13 24 18 25 16 26 10 28 3 30 4 31 2 32 1 33 24 34 25 35
REMARK SMILES IDX 26 36 27 38 28 39 29 40 30 41 31 42 32 43 33 44 34 45 40 50
REMARK SMILES IDX 41 51 42 52 43 53 44 54
REMARK H PARENT 6 16 16 27 10 29 26 37 33 46 33 47 34 48 34 49 44 55
ROOT
ATOM      1  N   UNL     1       1.192   9.536   1.640  1.00  0.00    -0.326 N 
ATOM      2  C   UNL     1      -0.723   9.122   2.945  1.00  0.00     0.014 C 
ATOM      3  C   UNL     1       0.418  10.122   2.738  1.00  0.00     0.091 C 
ATOM      4  C   UNL     1      -0.058   7.787   2.643  1.00  0.00     0.041 C 
ATOM      5  C   UNL     1       0.723   8.154   1.369  1.00  0.00     0.175 C 
ATOM      6  C   UNL     1      -0.186  11.510   2.539  1.00  0.00     0.059 C 
ATOM      7  C   UNL     1      -1.392   9.332   4.289  1.00  0.00     0.008 C 
ATOM      8  C   UNL     1      -1.505  11.730   3.310  1.00  0.00     0.143 C 
ATOM      9  C   UNL     1      -1.600  10.837   4.563  1.00  0.00     0.034 C 
ENDROOT
BRANCH   1  10
ATOM     10  C   UNL     1       2.351   9.987   1.031  1.00  0.00     0.246 C 
ATOM     11  O   UNL     1       2.531   9.751  -0.169  1.00  0.00    -0.272 OA
BRANCH  10  12
ATOM     12  C   UNL     1       3.378  10.816   1.856  1.00  0.00     0.174 C 
BRANCH  12  13
ATOM     13  N   UNL     1       3.948  11.874   1.023  1.00  0.00    -0.342 N 
ATOM     14  C   UNL     1       3.265  12.982   0.576  1.00  0.00     0.249 C 
ATOM     15  O   UNL     1       2.096  13.221   0.853  1.00  0.00    -0.272 OA
ATOM     16  H   UNL     1       4.857  11.737   0.586  1.00  0.00     0.164 HD
BRANCH  14  17
ATOM     17  C   UNL     1       4.138  13.908  -0.299  1.00  0.00     0.207 C 
BRANCH  17  18
ATOM     18  C   UNL     1       4.824  13.105  -1.409  1.00  0.00     0.077 C 
BRANCH  18  19
ATOM     19  C   UNL     1       3.985  13.055  -2.666  1.00  0.00    -0.043 A 
ATOM     20  C   UNL     1       3.724  12.436  -4.997  1.00  0.00     0.083 A 
ATOM     21  C   UNL     1       4.481  12.437  -3.825  1.00  0.00     0.028 A 
ATOM     22  C   UNL     1       2.472  13.051  -5.020  1.00  0.00     0.134 A 
ATOM     23  C   UNL     1       1.969  13.666  -3.880  1.00  0.00     0.048 A 
ATOM     24  C   UNL     1       2.724  13.670  -2.706  1.00  0.00     0.008 A 
ATOM     25  Cl  UNL     1       4.351  11.672  -6.410  1.00  0.00    -0.080 Cl
BRANCH  22  26
ATOM     26  O   UNL     1       1.699  13.084  -6.149  1.00  0.00    -0.506 OA
ATOM     27  H   UNL     1       1.553  12.158  -6.417  1.00  0.00     0.293 HD
ENDBRANCH  22  26
ENDBRANCH  18  19
ENDBRANCH  17  18
BRANCH  17  28
ATOM     28  O   UNL     1       5.135  14.576   0.491  1.00  0.00    -0.383 OA
ATOM     29  H   UNL     1       4.711  14.768   1.358  1.00  0.00     0.211 HD
ENDBRANCH  17  28
ENDBRANCH  14  17
ENDBRANCH  12  13
BRANCH  12  30
ATOM     30  C   UNL     1       4.468   9.931   2.519  1.00  0.00     0.018 C 
ATOM     31  C   UNL     1       4.526  10.179   4.034  1.00  0.00     0.010 C 
BRANCH  30  32
ATOM     32  C   UNL     1       5.875  10.107   1.897  1.00  0.00     0.002 C 
ATOM     33  C   UNL     1       6.893   9.040   2.276  1.00  0.00     0.004 C 
ENDBRANCH  30  32
ENDBRANCH  12  30
ENDBRANCH  10  12
ENDBRANCH   1  10
BRANCH   5  34
ATOM     34  C   UNL     1      -0.185   8.118   0.110  1.00  0.00     0.242 C 
ATOM     35  O   UNL     1      -1.412   8.171   0.183  1.00  0.00    -0.273 OA
ATOM     36  N   UNL     1       0.479   7.969  -1.087  1.00  0.00    -0.354 N 
ATOM     37  H   UNL     1       1.487   7.810  -1.073  1.00  0.00     0.163 HD
BRANCH  36  38
ATOM     38  C   UNL     1      -0.184   8.130  -2.364  1.00  0.00     0.116 C 
BRANCH  38  39
ATOM     39  C   UNL     1       0.752   8.826  -3.350  1.00  0.00     0.023 C 
BRANCH  39  40
ATOM     40  C   UNL     1       0.057   9.939  -4.127  1.00  0.00     0.026 C 
BRANCH  40  41
ATOM     41  C   UNL     1      -1.097  10.528  -3.315  1.00  0.00     0.146 C 
BRANCH  41  42
ATOM     42  N   UNL     1      -0.633  11.691  -2.571  1.00  0.00    -0.254 NA
ATOM     43  C   UNL     1      -1.015  11.864  -1.362  1.00  0.00     0.185 C 
ATOM     44  N   UNL     1      -1.827  11.112  -0.596  1.00  0.00    -0.370 N 
ATOM     45  N   UNL     1      -0.579  12.945  -0.695  1.00  0.00    -0.370 N 
ATOM     46  H   UNL     1      -2.234  11.489   0.243  1.00  0.00     0.159 HD
ATOM     47  H   UNL     1      -2.236  10.249  -0.940  1.00  0.00     0.159 HD
ATOM     48  H   UNL     1       0.045  13.560  -1.198  1.00  0.00     0.159 HD
ATOM     49  H   UNL     1      -0.636  13.027   0.305  1.00  0.00     0.159 HD
ENDBRANCH  41  42
ENDBRANCH  40  41
ENDBRANCH  39  40
ENDBRANCH  38  39
ENDBRANCH  36  38
ENDBRANCH   5  34
BRANCH   8  50
ATOM     50  O   UNL     1      -2.620  11.445   2.465  1.00  0.00    -0.245 OA
BRANCH  50  51
ATOM     51  S   UNL     1      -3.702  12.616   2.141  1.00  0.00     0.397 S 
ATOM     52  O   UNL     1      -3.292  13.279   0.924  1.00  0.00    -0.169 OA
ATOM     53  O   UNL     1      -3.992  13.358   3.350  1.00  0.00    -0.169 OA
BRANCH  51  54
ATOM     54  O   UNL     1      -5.012  11.765   1.756  1.00  0.00    -0.264 OA
ATOM     55  H   UNL     1      -5.210  11.934   0.812  1.00  0.00     0.236 HD
ENDBRANCH  51  54
ENDBRANCH  50  51
ENDBRANCH   8  50
TORSDOF 19
ENDMDL
MODEL 4
REMARK VINA RESULT:    -8.286      3.065      5.960
REMARK INTER + INTRA:         -19.768
REMARK INTER:                 -16.079
REMARK INTRA:                  -3.689
REMARK UNBOUND:                -3.005
REMARK SMILES CC[C@@H](C)[C@@H](NC(=O)[C@@H](O)Cc1ccc(O)c(Cl)c1)C(=O)N1[C@H](C(=O)NCCCCN=C(N)N)C[C@H]2CC[C@H](OS(=O)(=O)O)C[C@@H]21
REMARK SMILES IDX 22 1 36 2 46 3 35 4 23 5 45 6 37 7 39 8 38 9 20 10 21 11
REMARK SMILES IDX 5 12 6 13 7 14 8 15 9 17 11 18 12 19 17 20 19 21 15 22 14 23
REMARK SMILES IDX 13 24 18 25 16 26 10 28 3 30 4 31 2 32 1 33 24 34 25 35
REMARK SMILES IDX 26 36 27 38 28 39 29 40 30 41 31 42 32 43 33 44 34 45 40 50
REMARK SMILES IDX 41 51 42 52 43 53 44 54
REMARK H PARENT 6 16 16 27 10 29 26 37 33 46 33 47 34 48 34 49 44 55
ROOT
ATOM      1  N   UNL     1       3.528  12.043  -5.720  1.00  0.00    -0.326 N 
ATOM      2  C   UNL     1       3.562  10.503  -7.501  1.00  0.00     0.014 C 
ATOM      3  C   UNL     1       4.464  11.393  -6.642  1.00  0.00     0.091 C 
ATOM      4  C   UNL     1       2.287  11.326  -7.611  1.00  0.00     0.041 C 
ATOM      5  C   UNL     1       2.131  11.783  -6.149  1.00  0.00     0.175 C 
ATOM      6  C   UNL     1       5.577  10.527  -6.053  1.00  0.00     0.059 C 
ATOM      7  C   UNL     1       4.276  10.065  -8.764  1.00  0.00     0.008 C 
ATOM      8  C   UNL     1       5.999   9.353  -6.963  1.00  0.00     0.143 C 
ATOM      9  C   UNL     1       5.729   9.649  -8.452  1.00  0.00     0.034 C 
ENDROOT
BRANCH   1  10
ATOM     10  C   UNL     1       3.766  12.972  -4.722  1.00  0.00     0.246 C 
ATOM     11  O   UNL     1       3.336  14.123  -4.857  1.00  0.00    -0.272 OA
BRANCH  10  12
ATOM     12  C   UNL     1       4.528  12.539  -3.437  1.00  0.00     0.174 C 
BRANCH  12  13
ATOM     13  N   UNL     1       3.844  13.057  -2.252  1.00  0.00    -0.342 N 
ATOM     14  C   UNL     1       2.850  12.399  -1.563  1.00  0.00     0.249 C 
ATOM     15  O   UNL     1       2.444  11.281  -1.854  1.00  0.00    -0.272 OA
ATOM     16  H   UNL     1       3.963  14.032  -1.988  1.00  0.00     0.164 HD
BRANCH  14  17
ATOM     17  C   UNL     1       2.315  13.215  -0.367  1.00  0.00     0.207 C 
BRANCH  17  18
ATOM     18  C   UNL     1       0.915  13.758  -0.673  1.00  0.00     0.077 C 
BRANCH  18  19
ATOM     19  C   UNL     1      -0.156  13.013   0.091  1.00  0.00    -0.043 A 
ATOM     20  C   UNL     1      -0.802  11.255   1.633  1.00  0.00     0.083 A 
ATOM     21  C   UNL     1       0.192  11.973   0.967  1.00  0.00     0.028 A 
ATOM     22  C   UNL     1      -2.146  11.569   1.429  1.00  0.00     0.134 A 
ATOM     23  C   UNL     1      -2.505  12.597   0.565  1.00  0.00     0.048 A 
ATOM     24  C   UNL     1      -1.512  13.316  -0.105  1.00  0.00     0.008 A 
ATOM     25  Cl  UNL     1      -0.354   9.980   2.704  1.00  0.00    -0.080 Cl
BRANCH  22  26
ATOM     26  O   UNL     1      -3.156  10.887   2.051  1.00  0.00    -0.506 OA
ATOM     27  H   UNL     1      -3.651  10.421   1.352  1.00  0.00     0.293 HD
ENDBRANCH  22  26
ENDBRANCH  18  19
ENDBRANCH  17  18
BRANCH  17  28
ATOM     28  O   UNL     1       3.192  14.309  -0.053  1.00  0.00    -0.383 OA
ATOM     29  H   UNL     1       3.555  14.117   0.842  1.00  0.00     0.211 HD
ENDBRANCH  17  28
ENDBRANCH  14  17
ENDBRANCH  12  13
BRANCH  12  30
ATOM     30  C   UNL     1       6.031  12.929  -3.471  1.00  0.00     0.018 C 
ATOM     31  C   UNL     1       6.555  13.210  -2.053  1.00  0.00     0.010 C 
BRANCH  30  32
ATOM     32  C   UNL     1       6.341  14.127  -4.400  1.00  0.00     0.002 C 
ATOM     33  C   UNL     1       7.457  15.049  -3.924  1.00  0.00     0.004 C 
ENDBRANCH  30  32
ENDBRANCH  12  30
ENDBRANCH  10  12
ENDBRANCH   1  10
BRANCH   5  34
ATOM     34  C   UNL     1       1.482  10.681  -5.271  1.00  0.00     0.242 C 
ATOM     35  O   UNL     1       2.136   9.761  -4.779  1.00  0.00    -0.273 OA
ATOM     36  N   UNL     1       0.116  10.776  -5.126  1.00  0.00    -0.354 N 
ATOM     37  H   UNL     1      -0.386  11.491  -5.655  1.00  0.00     0.163 HD
BRANCH  36  38
ATOM     38  C   UNL     1      -0.619   9.968  -4.175  1.00  0.00     0.116 C 
BRANCH  38  39
ATOM     39  C   UNL     1      -0.894  10.778  -2.910  1.00  0.00     0.023 C 
BRANCH  39  40
ATOM     40  C   UNL     1      -1.279   9.897  -1.726  1.00  0.00     0.026 C 
BRANCH  40  41
ATOM     41  C   UNL     1      -0.832   8.454  -1.957  1.00  0.00     0.146 C 
BRANCH  41  42
ATOM     42  N   UNL     1      -0.340   7.885  -0.709  1.00  0.00    -0.254 NA
ATOM     43  C   UNL     1       0.905   7.968  -0.424  1.00  0.00     0.185 C 
ATOM     44  N   UNL     1       1.916   8.527  -1.114  1.00  0.00    -0.370 N 
ATOM     45  N   UNL     1       1.340   7.434   0.729  1.00  0.00    -0.370 N 
ATOM     46  H   UNL     1       2.872   8.306  -0.892  1.00  0.00     0.159 HD
ATOM     47  H   UNL     1       1.762   8.989  -2.005  1.00  0.00     0.159 HD
ATOM     48  H   UNL     1       0.639   7.000   1.315  1.00  0.00     0.159 HD
ATOM     49  H   UNL     1       2.233   7.660   1.131  1.00  0.00     0.159 HD
ENDBRANCH  41  42
ENDBRANCH  40  41
ENDBRANCH  39  40
ENDBRANCH  38  39
ENDBRANCH  36  38
ENDBRANCH   5  34
BRANCH   8  50
ATOM     50  O   UNL     1       5.287   8.170  -6.599  1.00  0.00    -0.245 OA
BRANCH  50  51
ATOM     51  S   UNL     1       6.046   6.732  -6.638  1.00  0.00     0.397 S 
ATOM     52  O   UNL     1       7.442   6.972  -6.928  1.00  0.00    -0.169 OA
ATOM     53  O   UNL     1       5.261   5.789  -7.408  1.00  0.00    -0.169 OA
BRANCH  51  54
ATOM     54  O   UNL     1       5.989   6.281  -5.096  1.00  0.00    -0.264 OA
ATOM     55  H   UNL     1       5.055   6.320  -4.807  1.00  0.00     0.236 HD
ENDBRANCH  51  54
ENDBRANCH  50  51
ENDBRANCH   8  50
TORSDOF 19
ENDMDL
MODEL 5
REMARK VINA RESULT:    -8.060      4.345     10.052
REMARK INTER + INTRA:         -19.310
REMARK INTER:                 -16.615
REMARK INTRA:                  -2.695
REMARK UNBOUND:                -3.005
REMARK SMILES CC[C@@H](C)[C@@H](NC(=O)[C@@H](O)Cc1ccc(O)c(Cl)c1)C(=O)N1[C@H](C(=O)NCCCCN=C(N)N)C[C@H]2CC[C@H](OS(=O)(=O)O)C[C@@H]21
REMARK SMILES IDX 22 1 36 2 46 3 35 4 23 5 45 6 37 7 39 8 38 9 20 10 21 11
REMARK SMILES IDX 5 12 6 13 7 14 8 15 9 17 11 18 12 19 17 20 19 21 15 22 14 23
REMARK SMILES IDX 13 24 18 25 16 26 10 28 3 30 4 31 2 32 1 33 24 34 25 35
REMARK SMILES IDX 26 36 27 38 28 39 29 40 30 41 31 42 32 43 33 44 34 45 40 50
REMARK SMILES IDX 41 51 42 52 43 53 44 54
REMARK H PARENT 6 16 16 27 10 29 26 37 33 46 33 47 34 48 34 49 44 55
ROOT
ATOM      1  N   UNL     1       1.754  11.786  -1.890  1.00  0.00    -0.326 N 
ATOM      2  C   UNL     1      -0.184  10.457  -1.752  1.00  0.00     0.014 C 
ATOM      3  C   UNL     1       1.315  10.398  -2.058  1.00  0.00     0.091 C 
ATOM      4  C   UNL     1      -0.583  11.820  -2.294  1.00  0.00     0.041 C 
ATOM      5  C   UNL     1       0.576  12.678  -1.755  1.00  0.00     0.175 C 
ATOM      6  C   UNL     1       1.947   9.326  -1.172  1.00  0.00     0.059 C 
ATOM      7  C   UNL     1      -0.891   9.217  -2.264  1.00  0.00     0.008 C 
ATOM      8  C   UNL     1       1.002   8.147  -0.852  1.00  0.00     0.143 C 
ATOM      9  C   UNL     1      -0.069   7.951  -1.944  1.00  0.00     0.034 C 
ENDROOT
BRANCH   1  10
ATOM     10  C   UNL     1       3.009  12.346  -2.054  1.00  0.00     0.246 C 
ATOM     11  O   UNL     1       3.826  12.271  -1.130  1.00  0.00    -0.272 OA
BRANCH  10  12
ATOM     12  C   UNL     1       3.378  13.018  -3.408  1.00  0.00     0.174 C 
BRANCH  12  13
ATOM     13  N   UNL     1       3.211  12.062  -4.501  1.00  0.00    -0.342 N 
ATOM     14  C   UNL     1       2.424  12.263  -5.613  1.00  0.00     0.249 C 
ATOM     15  O   UNL     1       1.791  13.290  -5.825  1.00  0.00    -0.272 OA
ATOM     16  H   UNL     1       3.547  11.108  -4.392  1.00  0.00     0.164 HD
BRANCH  14  17
ATOM     17  C   UNL     1       2.440  11.059  -6.580  1.00  0.00     0.207 C 
BRANCH  17  18
ATOM     18  C   UNL     1       3.859  10.812  -7.103  1.00  0.00     0.077 C 
BRANCH  18  19
ATOM     19  C   UNL     1       4.272   9.365  -6.945  1.00  0.00    -0.043 A 
ATOM     20  C   UNL     1       4.697   7.182  -7.913  1.00  0.00     0.083 A 
ATOM     21  C   UNL     1       4.364   8.529  -8.068  1.00  0.00     0.028 A 
ATOM     22  C   UNL     1       4.938   6.665  -6.640  1.00  0.00     0.134 A 
ATOM     23  C   UNL     1       4.850   7.482  -5.519  1.00  0.00     0.048 A 
ATOM     24  C   UNL     1       4.515   8.830  -5.671  1.00  0.00     0.008 A 
ATOM     25  Cl  UNL     1       4.805   6.170  -9.305  1.00  0.00    -0.080 Cl
BRANCH  22  26
ATOM     26  O   UNL     1       5.257   5.349  -6.438  1.00  0.00    -0.506 OA
ATOM     27  H   UNL     1       5.741   5.053  -7.231  1.00  0.00     0.293 HD
ENDBRANCH  22  26
ENDBRANCH  18  19
ENDBRANCH  17  18
BRANCH  17  28
ATOM     28  O   UNL     1       1.554  11.275  -7.690  1.00  0.00    -0.383 OA
ATOM     29  H   UNL     1       0.692  11.548  -7.300  1.00  0.00     0.211 HD
ENDBRANCH  17  28
ENDBRANCH  14  17
ENDBRANCH  12  13
BRANCH  12  30
ATOM     30  C   UNL     1       4.792  13.660  -3.394  1.00  0.00     0.018 C 
ATOM     31  C   UNL     1       4.970  14.616  -4.583  1.00  0.00     0.010 C 
BRANCH  30  32
ATOM     32  C   UNL     1       5.944  12.626  -3.365  1.00  0.00     0.002 C 
ATOM     33  C   UNL     1       7.066  12.927  -2.380  1.00  0.00     0.004 C 
ENDBRANCH  30  32
ENDBRANCH  12  30
ENDBRANCH  10  12
ENDBRANCH   1  10
BRANCH   5  34
ATOM     34  C   UNL     1       0.352  13.073  -0.271  1.00  0.00     0.242 C 
ATOM     35  O   UNL     1      -0.317  14.054   0.055  1.00  0.00    -0.273 OA
ATOM     36  N   UNL     1       1.001  12.282   0.650  1.00  0.00    -0.354 N 
ATOM     37  H   UNL     1       1.637  11.558   0.315  1.00  0.00     0.163 HD
BRANCH  36  38
ATOM     38  C   UNL     1       0.734  12.371   2.071  1.00  0.00     0.116 C 
BRANCH  38  39
ATOM     39  C   UNL     1      -0.081  11.162   2.523  1.00  0.00     0.023 C 
BRANCH  39  40
ATOM     40  C   UNL     1      -1.420  11.557   3.135  1.00  0.00     0.026 C 
BRANCH  40  41
ATOM     41  C   UNL     1      -2.479  11.747   2.049  1.00  0.00     0.146 C 
BRANCH  41  42
ATOM     42  N   UNL     1      -2.906  13.139   2.015  1.00  0.00    -0.254 NA
ATOM     43  C   UNL     1      -3.858  13.491   1.235  1.00  0.00     0.185 C 
ATOM     44  N   UNL     1      -4.592  12.756   0.379  1.00  0.00    -0.370 N 
ATOM     45  N   UNL     1      -4.234  14.780   1.215  1.00  0.00    -0.370 N 
ATOM     46  H   UNL     1      -5.134  13.199  -0.343  1.00  0.00     0.159 HD
ATOM     47  H   UNL     1      -4.448  11.756   0.277  1.00  0.00     0.159 HD
ATOM     48  H   UNL     1      -3.737  15.401   1.839  1.00  0.00     0.159 HD
ATOM     49  H   UNL     1      -5.106  15.086   0.823  1.00  0.00     0.159 HD
ENDBRANCH  41  42
ENDBRANCH  40  41
ENDBRANCH  39  40
ENDBRANCH  38  39
ENDBRANCH  36  38
ENDBRANCH   5  34
BRANCH   8  50
ATOM     50  O   UNL     1       0.343   8.372   0.394  1.00  0.00    -0.245 OA
BRANCH  50  51
ATOM     51  S   UNL     1       0.911   7.662   1.743  1.00  0.00     0.397 S 
ATOM     52  O   UNL     1       1.486   6.390   1.369  1.00  0.00    -0.169 OA
ATOM     53  O   UNL     1      -0.072   7.770   2.800  1.00  0.00    -0.169 OA
BRANCH  51  54
ATOM     54  O   UNL     1       2.154   8.610   2.122  1.00  0.00    -0.264 OA
ATOM     55  H   UNL     1       1.797   9.403   2.572  1.00  0.00     0.236 HD
ENDBRANCH  51  54
ENDBRANCH  50  51
ENDBRANCH   8  50
TORSDOF 19
ENDMDL
MODEL 6
REMARK VINA RESULT:    -8.005      4.173     10.645
REMARK INTER + INTRA:         -19.199
REMARK INTER:                 -16.356
REMARK INTRA:                  -2.843
REMARK UNBOUND:                -3.005
REMARK SMILES CC[C@@H](C)[C@@H](NC(=O)[C@@H](O)Cc1ccc(O)c(Cl)c1)C(=O)N1[C@H](C(=O)NCCCCN=C(N)N)C[C@H]2CC[C@H](OS(=O)(=O)O)C[C@@H]21
REMARK SMILES IDX 22 1 36 2 46 3 35 4 23 5 45 6 37 7 39 8 38 9 20 10 21 11
REMARK SMILES IDX 5 12 6 13 7 14 8 15 9 17 11 18 12 19 17 20 19 21 15 22 14 23
REMARK SMILES IDX 13 24 18 25 16 26 10 28 3 30 4 31 2 32 1 33 24 34 25 35
REMARK SMILES IDX 26 36 27 38 28 39 29 40 30 41 31 42 32 43 33 44 34 45 40 50
REMARK SMILES IDX 41 51 42 52 43 53 44 54
REMARK H PARENT 6 16 16 27 10 29 26 37 33 46 33 47 34 48 34 49 44 55
ROOT
ATOM      1  N   UNL     1       1.371  11.344  -2.170  1.00  0.00    -0.326 N 
ATOM      2  C   UNL     1      -0.524  10.041  -1.667  1.00  0.00     0.014 C 
ATOM      3  C   UNL     1       0.931   9.946  -2.134  1.00  0.00     0.091 C 
ATOM      4  C   UNL     1      -0.998  11.337  -2.307  1.00  0.00     0.041 C 
ATOM      5  C   UNL     1       0.206  12.247  -2.000  1.00  0.00     0.175 C 
ATOM      6  C   UNL     1       1.672   8.978  -1.214  1.00  0.00     0.059 C 
ATOM      7  C   UNL     1      -1.271   8.753  -1.956  1.00  0.00     0.008 C 
ATOM      8  C   UNL     1       0.782   7.843  -0.661  1.00  0.00     0.143 C 
ATOM      9  C   UNL     1      -0.403   7.529  -1.596  1.00  0.00     0.034 C 
ENDROOT
BRANCH   1  10
ATOM     10  C   UNL     1       2.593  11.881  -2.536  1.00  0.00     0.246 C 
ATOM     11  O   UNL     1       3.492  11.961  -1.692  1.00  0.00    -0.272 OA
BRANCH  10  12
ATOM     12  C   UNL     1       2.823  12.333  -4.007  1.00  0.00     0.174 C 
BRANCH  12  13
ATOM     13  N   UNL     1       3.619  11.332  -4.717  1.00  0.00    -0.342 N 
ATOM     14  C   UNL     1       3.106  10.253  -5.401  1.00  0.00     0.249 C 
ATOM     15  O   UNL     1       1.908  10.025  -5.515  1.00  0.00    -0.272 OA
ATOM     16  H   UNL     1       4.627  11.302  -4.581  1.00  0.00     0.164 HD
BRANCH  14  17
ATOM     17  C   UNL     1       4.204   9.369  -6.030  1.00  0.00     0.207 C 
BRANCH  17  18
ATOM     18  C   UNL     1       5.105  10.204  -6.946  1.00  0.00     0.077 C 
BRANCH  18  19
ATOM     19  C   UNL     1       5.806   9.349  -7.976  1.00  0.00    -0.043 A 
ATOM     20  C   UNL     1       7.577   7.802  -8.572  1.00  0.00     0.083 A 
ATOM     21  C   UNL     1       6.901   8.552  -7.608  1.00  0.00     0.028 A 
ATOM     22  C   UNL     1       7.165   7.843  -9.904  1.00  0.00     0.134 A 
ATOM     23  C   UNL     1       6.082   8.628 -10.282  1.00  0.00     0.048 A 
ATOM     24  C   UNL     1       5.405   9.381  -9.321  1.00  0.00     0.008 A 
ATOM     25  Cl  UNL     1       8.921   6.829  -8.100  1.00  0.00    -0.080 Cl
BRANCH  22  26
ATOM     26  O   UNL     1       7.803   7.133 -10.886  1.00  0.00    -0.506 OA
ATOM     27  H   UNL     1       7.359   6.267 -10.938  1.00  0.00     0.293 HD
ENDBRANCH  22  26
ENDBRANCH  18  19
ENDBRANCH  17  18
BRANCH  17  28
ATOM     28  O   UNL     1       3.630   8.289  -6.783  1.00  0.00    -0.383 OA
ATOM     29  H   UNL     1       4.015   7.463  -6.410  1.00  0.00     0.211 HD
ENDBRANCH  17  28
ENDBRANCH  14  17
ENDBRANCH  12  13
BRANCH  12  30
ATOM     30  C   UNL     1       3.432  13.757  -4.110  1.00  0.00     0.018 C 
ATOM     31  C   UNL     1       2.424  14.739  -4.726  1.00  0.00     0.010 C 
BRANCH  30  32
ATOM     32  C   UNL     1       4.768  13.806  -4.890  1.00  0.00     0.002 C 
ATOM     33  C   UNL     1       6.018  13.958  -4.033  1.00  0.00     0.004 C 
ENDBRANCH  30  32
ENDBRANCH  12  30
ENDBRANCH  10  12
ENDBRANCH   1  10
BRANCH   5  34
ATOM     34  C   UNL     1       0.147  12.804  -0.552  1.00  0.00     0.242 C 
ATOM     35  O   UNL     1      -0.447  13.845  -0.271  1.00  0.00    -0.273 OA
ATOM     36  N   UNL     1       0.852  12.080   0.383  1.00  0.00    -0.354 N 
ATOM     37  H   UNL     1       1.423  11.294   0.067  1.00  0.00     0.163 HD
BRANCH  36  38
ATOM     38  C   UNL     1       0.733  12.328   1.804  1.00  0.00     0.116 C 
BRANCH  38  39
ATOM     39  C   UNL     1      -0.411  11.498   2.381  1.00  0.00     0.023 C 
BRANCH  39  40
ATOM     40  C   UNL     1      -1.240  12.275   3.398  1.00  0.00     0.026 C 
BRANCH  40  41
ATOM     41  C   UNL     1      -2.059  13.367   2.710  1.00  0.00     0.146 C 
BRANCH  41  42
ATOM     42  N   UNL     1      -3.431  12.912   2.525  1.00  0.00    -0.254 NA
ATOM     43  C   UNL     1      -3.867  12.678   1.345  1.00  0.00     0.185 C 
ATOM     44  N   UNL     1      -3.245  12.782   0.156  1.00  0.00    -0.370 N 
ATOM     45  N   UNL     1      -5.136  12.264   1.196  1.00  0.00    -0.370 N 
ATOM     46  H   UNL     1      -3.774  12.804  -0.699  1.00  0.00     0.159 HD
ATOM     47  H   UNL     1      -2.274  13.071   0.086  1.00  0.00     0.159 HD
ATOM     48  H   UNL     1      -5.673  12.150   2.045  1.00  0.00     0.159 HD
ATOM     49  H   UNL     1      -5.474  11.839   0.350  1.00  0.00     0.159 HD
ENDBRANCH  41  42
ENDBRANCH  40  41
ENDBRANCH  39  40
ENDBRANCH  38  39
ENDBRANCH  36  38
ENDBRANCH   5  34
BRANCH   8  50
ATOM     50  O   UNL     1       0.266   8.205   0.620  1.00  0.00    -0.245 OA
BRANCH  50  51
ATOM     51  S   UNL     1       1.011   7.674   1.965  1.00  0.00     0.397 S 
ATOM     52  O   UNL     1       1.586   6.380   1.676  1.00  0.00    -0.169 OA
ATOM     53  O   UNL     1       0.153   7.885   3.112  1.00  0.00    -0.169 OA
BRANCH  51  54
ATOM     54  O   UNL     1       2.253   8.689   2.082  1.00  0.00    -0.264 OA
ATOM     55  H   UNL     1       2.934   8.264   2.644  1.00  0.00     0.236 HD
ENDBRANCH  51  54
ENDBRANCH  50  51
ENDBRANCH   8  50
TORSDOF 19
ENDMDL
MODEL 7
REMARK VINA RESULT:    -7.992      7.980     11.524
REMARK INTER + INTRA:         -19.172
REMARK INTER:                 -14.875
REMARK INTRA:                  -4.297
REMARK UNBOUND:                -3.005
REMARK SMILES CC[C@@H](C)[C@@H](NC(=O)[C@@H](O)Cc1ccc(O)c(Cl)c1)C(=O)N1[C@H](C(=O)NCCCCN=C(N)N)C[C@H]2CC[C@H](OS(=O)(=O)O)C[C@@H]21
REMARK SMILES IDX 22 1 36 2 46 3 35 4 23 5 45 6 37 7 39 8 38 9 20 10 21 11
REMARK SMILES IDX 5 12 6 13 7 14 8 15 9 17 11 18 12 19 17 20 19 21 15 22 14 23
REMARK SMILES IDX 13 24 18 25 16 26 10 28 3 30 4 31 2 32 1 33 24 34 25 35
REMARK SMILES IDX 26 36 27 38 28 39 29 40 30 41 31 42 32 43 33 44 34 45 40 50
REMARK SMILES IDX 41 51 42 52 43 53 44 54
REMARK H PARENT 6 16 16 27 10 29 26 37 33 46 33 47 34 48 34 49 44 55
ROOT
ATOM      1  N   UNL     1       2.087  10.466   3.354  1.00  0.00    -0.326 N 
ATOM      2  C   UNL     1      -0.064   9.554   3.645  1.00  0.00     0.014 C 
ATOM      3  C   UNL     1       0.922  10.565   4.238  1.00  0.00     0.091 C 
ATOM      4  C   UNL     1       0.852   8.452   3.135  1.00  0.00     0.041 C 
ATOM      5  C   UNL     1       1.941   9.298   2.450  1.00  0.00     0.175 C 
ATOM      6  C   UNL     1       0.216  11.914   4.359  1.00  0.00     0.059 C 
ATOM      7  C   UNL     1      -1.155   9.213   4.640  1.00  0.00     0.008 C 
ATOM      8  C   UNL     1      -1.299  11.801   4.633  1.00  0.00     0.143 C 
ATOM      9  C   UNL     1      -1.661  10.485   5.352  1.00  0.00     0.034 C 
ENDROOT
BRANCH   1  10
ATOM     10  C   UNL     1       3.300  11.131   3.407  1.00  0.00     0.246 C 
ATOM     11  O   UNL     1       3.426  12.201   2.803  1.00  0.00    -0.272 OA
BRANCH  10  12
ATOM     12  C   UNL     1       4.462  10.540   4.258  1.00  0.00     0.174 C 
BRANCH  12  13
ATOM     13  N   UNL     1       4.380   9.080   4.268  1.00  0.00    -0.342 N 
ATOM     14  C   UNL     1       5.426   8.228   3.991  1.00  0.00     0.249 C 
ATOM     15  O   UNL     1       6.561   8.605   3.730  1.00  0.00    -0.272 OA
ATOM     16  H   UNL     1       3.471   8.626   4.313  1.00  0.00     0.164 HD
BRANCH  14  17
ATOM     17  C   UNL     1       5.018   6.741   4.066  1.00  0.00     0.207 C 
BRANCH  17  18
ATOM     18  C   UNL     1       5.871   6.004   5.104  1.00  0.00     0.077 C 
BRANCH  18  19
ATOM     19  C   UNL     1       5.100   5.737   6.377  1.00  0.00    -0.043 A 
ATOM     20  C   UNL     1       3.947   4.195   7.853  1.00  0.00     0.083 A 
ATOM     21  C   UNL     1       4.701   4.431   6.703  1.00  0.00     0.028 A 
ATOM     22  C   UNL     1       3.588   5.258   8.683  1.00  0.00     0.134 A 
ATOM     23  C   UNL     1       3.977   6.556   8.372  1.00  0.00     0.048 A 
ATOM     24  C   UNL     1       4.729   6.796   7.220  1.00  0.00     0.008 A 
ATOM     25  Cl  UNL     1       3.466   2.584   8.236  1.00  0.00    -0.080 Cl
BRANCH  22  26
ATOM     26  O   UNL     1       2.841   5.078   9.815  1.00  0.00    -0.506 OA
ATOM     27  H   UNL     1       3.406   4.601  10.451  1.00  0.00     0.293 HD
ENDBRANCH  22  26
ENDBRANCH  18  19
ENDBRANCH  17  18
BRANCH  17  28
ATOM     28  O   UNL     1       5.163   6.100   2.789  1.00  0.00    -0.383 OA
ATOM     29  H   UNL     1       4.544   6.564   2.180  1.00  0.00     0.211 HD
ENDBRANCH  17  28
ENDBRANCH  14  17
ENDBRANCH  12  13
BRANCH  12  30
ATOM     30  C   UNL     1       4.523  11.140   5.688  1.00  0.00     0.018 C 
ATOM     31  C   UNL     1       5.978  11.275   6.162  1.00  0.00     0.010 C 
BRANCH  30  32
ATOM     32  C   UNL     1       3.696  10.348   6.730  1.00  0.00     0.002 C 
ATOM     33  C   UNL     1       2.585  11.134   7.413  1.00  0.00     0.004 C 
ENDBRANCH  30  32
ENDBRANCH  12  30
ENDBRANCH  10  12
ENDBRANCH   1  10
BRANCH   5  34
ATOM     34  C   UNL     1       1.504   9.752   1.031  1.00  0.00     0.242 C 
ATOM     35  O   UNL     1       1.272  10.930   0.760  1.00  0.00    -0.273 OA
ATOM     36  N   UNL     1       1.344   8.737   0.115  1.00  0.00    -0.354 N 
ATOM     37  H   UNL     1       1.434   7.771   0.431  1.00  0.00     0.163 HD
BRANCH  36  38
ATOM     38  C   UNL     1       1.153   8.994  -1.297  1.00  0.00     0.116 C 
BRANCH  38  39
ATOM     39  C   UNL     1      -0.202   8.450  -1.745  1.00  0.00     0.023 C 
BRANCH  39  40
ATOM     40  C   UNL     1      -1.137   9.549  -2.237  1.00  0.00     0.026 C 
BRANCH  40  41
ATOM     41  C   UNL     1      -0.460  10.917  -2.148  1.00  0.00     0.146 C 
BRANCH  41  42
ATOM     42  N   UNL     1      -1.458  11.944  -1.878  1.00  0.00    -0.254 NA
ATOM     43  C   UNL     1      -1.914  12.087  -0.691  1.00  0.00     0.185 C 
ATOM     44  N   UNL     1      -1.619  11.414   0.437  1.00  0.00    -0.370 N 
ATOM     45  N   UNL     1      -2.837  13.036  -0.464  1.00  0.00    -0.370 N 
ATOM     46  H   UNL     1      -2.225  11.466   1.238  1.00  0.00     0.159 HD
ATOM     47  H   UNL     1      -0.929  10.670   0.448  1.00  0.00     0.159 HD
ATOM     48  H   UNL     1      -3.110  13.596  -1.261  1.00  0.00     0.159 HD
ATOM     49  H   UNL     1      -3.063  13.366   0.458  1.00  0.00     0.159 HD
ENDBRANCH  41  42
ENDBRANCH  40  41
ENDBRANCH  39  40
ENDBRANCH  38  39
ENDBRANCH  36  38
ENDBRANCH   5  34
BRANCH   8  50
ATOM     50  O   UNL     1      -2.025  11.862   3.405  1.00  0.00    -0.245 OA
BRANCH  50  51
ATOM     51  S   UNL     1      -2.976  13.145   3.098  1.00  0.00     0.397 S 
ATOM     52  O   UNL     1      -3.223  13.828   4.348  1.00  0.00    -0.169 OA
ATOM     53  O   UNL     1      -4.059  12.748   2.222  1.00  0.00    -0.169 OA
BRANCH  51  54
ATOM     54  O   UNL     1      -1.989  14.101   2.263  1.00  0.00    -0.264 OA
ATOM     55  H   UNL     1      -2.526  14.573   1.594  1.00  0.00     0.236 HD
ENDBRANCH  51  54
ENDBRANCH  50  51
ENDBRANCH   8  50
TORSDOF 19
ENDMDL
MODEL 8
REMARK VINA RESULT:    -7.963      4.371     10.990
REMARK INTER + INTRA:         -19.114
REMARK INTER:                 -16.591
REMARK INTRA:                  -2.523
REMARK UNBOUND:                -3.005
REMARK SMILES CC[C@@H](C)[C@@H](NC(=O)[C@@H](O)Cc1ccc(O)c(Cl)c1)C(=O)N1[C@H](C(=O)NCCCCN=C(N)N)C[C@H]2CC[C@H](OS(=O)(=O)O)C[C@@H]21
REMARK SMILES IDX 22 1 36 2 46 3 35 4 23 5 45 6 37 7 39 8 38 9 20 10 21 11
REMARK SMILES IDX 5 12 6 13 7 14 8 15 9 17 11 18 12 19 17 20 19 21 15 22 14 23
REMARK SMILES IDX 13 24 18 25 16 26 10 28 3 30 4 31 2 32 1 33 24 34 25 35
REMARK SMILES IDX 26 36 27 38 28 39 29 40 30 41 31 42 32 43 33 44 34 45 40 50
REMARK SMILES IDX 41 51 42 52 43 53 44 54
REMARK H PARENT 6 16 16 27 10 29 26 37 33 46 33 47 34 48 34 49 44 55
ROOT
ATOM      1  N   UNL     1       1.672  10.615  -2.118  1.00  0.00    -0.326 N 
ATOM      2  C   UNL     1       0.343   8.840  -1.328  1.00  0.00     0.014 C 
ATOM      3  C   UNL     1       1.679   9.555  -1.106  1.00  0.00     0.091 C 
ATOM      4  C   UNL     1       0.159   8.935  -2.835  1.00  0.00     0.041 C 
ATOM      5  C   UNL     1       0.549  10.407  -3.065  1.00  0.00     0.175 C 
ATOM      6  C   UNL     1       1.773   9.958   0.364  1.00  0.00     0.059 C 
ATOM      7  C   UNL     1       0.340   7.478  -0.663  1.00  0.00     0.008 C 
ATOM      8  C   UNL     1       1.053   8.984   1.323  1.00  0.00     0.143 C 
ATOM      9  C   UNL     1       0.970   7.558   0.744  1.00  0.00     0.034 C 
ENDROOT
BRANCH   1  10
ATOM     10  C   UNL     1       2.631  11.571  -2.409  1.00  0.00     0.246 C 
ATOM     11  O   UNL     1       3.406  11.936  -1.518  1.00  0.00    -0.272 OA
BRANCH  10  12
ATOM     12  C   UNL     1       2.740  12.133  -3.856  1.00  0.00     0.174 C 
BRANCH  12  13
ATOM     13  N   UNL     1       3.455  11.183  -4.707  1.00  0.00    -0.342 N 
ATOM     14  C   UNL     1       2.942  10.599  -5.844  1.00  0.00     0.249 C 
ATOM     15  O   UNL     1       1.825  10.836  -6.288  1.00  0.00    -0.272 OA
ATOM     16  H   UNL     1       4.327  10.773  -4.382  1.00  0.00     0.164 HD
BRANCH  14  17
ATOM     17  C   UNL     1       3.935   9.626  -6.514  1.00  0.00     0.207 C 
BRANCH  17  18
ATOM     18  C   UNL     1       4.038   9.915  -8.015  1.00  0.00     0.077 C 
BRANCH  18  19
ATOM     19  C   UNL     1       5.168   9.144  -8.659  1.00  0.00    -0.043 A 
ATOM     20  C   UNL     1       7.527   8.910  -9.176  1.00  0.00     0.083 A 
ATOM     21  C   UNL     1       6.492   9.596  -8.539  1.00  0.00     0.028 A 
ATOM     22  C   UNL     1       7.247   7.773  -9.936  1.00  0.00     0.134 A 
ATOM     23  C   UNL     1       5.941   7.315 -10.063  1.00  0.00     0.048 A 
ATOM     24  C   UNL     1       4.903   8.000  -9.428  1.00  0.00     0.008 A 
ATOM     25  Cl  UNL     1       9.146   9.481  -9.018  1.00  0.00    -0.080 Cl
BRANCH  22  26
ATOM     26  O   UNL     1       8.227   7.074 -10.587  1.00  0.00    -0.506 OA
ATOM     27  H   UNL     1       8.374   6.256 -10.077  1.00  0.00     0.293 HD
ENDBRANCH  22  26
ENDBRANCH  18  19
ENDBRANCH  17  18
BRANCH  17  28
ATOM     28  O   UNL     1       3.533   8.260  -6.318  1.00  0.00    -0.383 OA
ATOM     29  H   UNL     1       3.866   7.764  -7.100  1.00  0.00     0.211 HD
ENDBRANCH  17  28
ENDBRANCH  14  17
ENDBRANCH  12  13
BRANCH  12  30
ATOM     30  C   UNL     1       3.362  13.554  -3.902  1.00  0.00     0.018 C 
ATOM     31  C   UNL     1       2.455  14.523  -4.676  1.00  0.00     0.010 C 
BRANCH  30  32
ATOM     32  C   UNL     1       4.796  13.586  -4.487  1.00  0.00     0.002 C 
ATOM     33  C   UNL     1       5.919  13.530  -3.460  1.00  0.00     0.004 C 
ENDBRANCH  30  32
ENDBRANCH  12  30
ENDBRANCH  10  12
ENDBRANCH   1  10
BRANCH   5  34
ATOM     34  C   UNL     1      -0.627  11.367  -2.743  1.00  0.00     0.242 C 
ATOM     35  O   UNL     1      -1.589  11.506  -3.498  1.00  0.00    -0.273 OA
ATOM     36  N   UNL     1      -0.490  12.092  -1.580  1.00  0.00    -0.354 N 
ATOM     37  H   UNL     1       0.385  12.023  -1.058  1.00  0.00     0.163 HD
BRANCH  36  38
ATOM     38  C   UNL     1      -1.577  12.868  -1.020  1.00  0.00     0.116 C 
BRANCH  38  39
ATOM     39  C   UNL     1      -1.975  12.295   0.339  1.00  0.00     0.023 C 
BRANCH  39  40
ATOM     40  C   UNL     1      -3.320  12.825   0.823  1.00  0.00     0.026 C 
BRANCH  40  41
ATOM     41  C   UNL     1      -3.125  13.950   1.841  1.00  0.00     0.146 C 
BRANCH  41  42
ATOM     42  N   UNL     1      -3.780  13.598   3.094  1.00  0.00    -0.254 NA
ATOM     43  C   UNL     1      -3.074  13.214   4.091  1.00  0.00     0.185 C 
ATOM     44  N   UNL     1      -1.741  13.066   4.202  1.00  0.00    -0.370 N 
ATOM     45  N   UNL     1      -3.697  12.891   5.236  1.00  0.00    -0.370 N 
ATOM     46  H   UNL     1      -1.346  12.528   4.954  1.00  0.00     0.159 HD
ATOM     47  H   UNL     1      -1.115  13.280   3.432  1.00  0.00     0.159 HD
ATOM     48  H   UNL     1      -4.704  12.983   5.241  1.00  0.00     0.159 HD
ATOM     49  H   UNL     1      -3.215  12.813   6.114  1.00  0.00     0.159 HD
ENDBRANCH  41  42
ENDBRANCH  40  41
ENDBRANCH  39  40
ENDBRANCH  38  39
ENDBRANCH  36  38
ENDBRANCH   5  34
BRANCH   8  50
ATOM     50  O   UNL     1      -0.273   9.446   1.584  1.00  0.00    -0.245 OA
BRANCH  50  51
ATOM     51  S   UNL     1      -0.759   9.662   3.121  1.00  0.00     0.397 S 
ATOM     52  O   UNL     1      -0.085  10.830   3.643  1.00  0.00    -0.169 OA
ATOM     53  O   UNL     1      -0.734   8.395   3.822  1.00  0.00    -0.169 OA
BRANCH  51  54
ATOM     54  O   UNL     1      -2.296  10.093   2.930  1.00  0.00    -0.264 OA
ATOM     55  H   UNL     1      -2.348  11.065   3.028  1.00  0.00     0.236 HD
ENDBRANCH  51  54
ENDBRANCH  50  51
ENDBRANCH   8  50
TORSDOF 19
ENDMDL
MODEL 9
REMARK VINA RESULT:    -7.948     16.462     20.585
REMARK INTER + INTRA:         -19.084
REMARK INTER:                 -15.474
REMARK INTRA:                  -3.609
REMARK UNBOUND:                -3.005
REMARK SMILES CC[C@@H](C)[C@@H](NC(=O)[C@@H](O)Cc1ccc(O)c(Cl)c1)C(=O)N1[C@H](C(=O)NCCCCN=C(N)N)C[C@H]2CC[C@H](OS(=O)(=O)O)C[C@@H]21
REMARK SMILES IDX 22 1 36 2 46 3 35 4 23 5 45 6 37 7 39 8 38 9 20 10 21 11
REMARK SMILES IDX 5 12 6 13 7 14 8 15 9 17 11 18 12 19 17 20 19 21 15 22 14 23
REMARK SMILES IDX 13 24 18 25 16 26 10 28 3 30 4 31 2 32 1 33 24 34 25 35
REMARK SMILES IDX 26 36 27 38 28 39 29 40 30 41 31 42 32 43 33 44 34 45 40 50
REMARK SMILES IDX 41 51 42 52 43 53 44 54
REMARK H PARENT 6 16 16 27 10 29 26 37 33 46 33 47 34 48 34 49 44 55
ROOT
ATOM      1  N   UNL     1       1.890   2.756  10.922  1.00  0.00    -0.326 N 
ATOM      2  C   UNL     1      -0.248   2.936   9.953  1.00  0.00     0.014 C 
ATOM      3  C   UNL     1       0.993   2.041  10.009  1.00  0.00     0.091 C 
ATOM      4  C   UNL     1       0.342   4.334  10.061  1.00  0.00     0.041 C 
ATOM      5  C   UNL     1       1.359   4.113  11.196  1.00  0.00     0.175 C 
ATOM      6  C   UNL     1       0.552   0.628  10.386  1.00  0.00     0.059 C 
ATOM      7  C   UNL     1      -1.116   2.586   8.761  1.00  0.00     0.008 C 
ATOM      8  C   UNL     1      -0.856   0.258   9.871  1.00  0.00     0.143 C 
ATOM      9  C   UNL     1      -1.239   1.055   8.608  1.00  0.00     0.034 C 
ENDROOT
BRANCH   1  10
ATOM     10  C   UNL     1       3.170   2.434  11.341  1.00  0.00     0.246 C 
ATOM     11  O   UNL     1       3.474   2.602  12.526  1.00  0.00    -0.272 OA
BRANCH  10  12
ATOM     12  C   UNL     1       4.181   1.831  10.323  1.00  0.00     0.174 C 
BRANCH  12  13
ATOM     13  N   UNL     1       5.242   1.121  11.036  1.00  0.00    -0.342 N 
ATOM     14  C   UNL     1       5.201  -0.208  11.395  1.00  0.00     0.249 C 
ATOM     15  O   UNL     1       4.270  -0.958  11.129  1.00  0.00    -0.272 OA
ATOM     16  H   UNL     1       6.004   1.646  11.459  1.00  0.00     0.164 HD
BRANCH  14  17
ATOM     17  C   UNL     1       6.467  -0.660  12.154  1.00  0.00     0.207 C 
BRANCH  17  18
ATOM     18  C   UNL     1       7.189  -1.767  11.379  1.00  0.00     0.077 C 
BRANCH  18  19
ATOM     19  C   UNL     1       8.315  -1.217  10.533  1.00  0.00    -0.043 A 
ATOM     20  C   UNL     1      10.019   0.463  10.134  1.00  0.00     0.083 A 
ATOM     21  C   UNL     1       9.013  -0.070  10.941  1.00  0.00     0.028 A 
ATOM     22  C   UNL     1      10.332  -0.143   8.917  1.00  0.00     0.134 A 
ATOM     23  C   UNL     1       9.649  -1.280   8.500  1.00  0.00     0.048 A 
ATOM     24  C   UNL     1       8.641  -1.815   9.306  1.00  0.00     0.008 A 
ATOM     25  Cl  UNL     1      10.865   1.874  10.652  1.00  0.00    -0.080 Cl
BRANCH  22  26
ATOM     26  O   UNL     1      11.302   0.349   8.086  1.00  0.00    -0.506 OA
ATOM     27  H   UNL     1      11.852  -0.410   7.818  1.00  0.00     0.293 HD
ENDBRANCH  22  26
ENDBRANCH  18  19
ENDBRANCH  17  18
BRANCH  17  28
ATOM     28  O   UNL     1       6.139  -1.135  13.470  1.00  0.00    -0.383 OA
ATOM     29  H   UNL     1       6.530  -0.485  14.098  1.00  0.00     0.211 HD
ENDBRANCH  17  28
ENDBRANCH  14  17
ENDBRANCH  12  13
BRANCH  12  30
ATOM     30  C   UNL     1       4.739   2.888   9.333  1.00  0.00     0.018 C 
ATOM     31  C   UNL     1       4.988   4.227  10.045  1.00  0.00     0.010 C 
BRANCH  30  32
ATOM     32  C   UNL     1       3.844   3.107   8.088  1.00  0.00     0.002 C 
ATOM     33  C   UNL     1       4.591   3.352   6.784  1.00  0.00     0.004 C 
ENDBRANCH  30  32
ENDBRANCH  12  30
ENDBRANCH  10  12
ENDBRANCH   1  10
BRANCH   5  34
ATOM     34  C   UNL     1       0.679   4.167  12.590  1.00  0.00     0.242 C 
ATOM     35  O   UNL     1       0.716   3.220  13.377  1.00  0.00    -0.273 OA
ATOM     36  N   UNL     1      -0.012   5.327  12.861  1.00  0.00    -0.354 N 
ATOM     37  H   UNL     1      -0.107   6.026  12.124  1.00  0.00     0.163 HD
BRANCH  36  38
ATOM     38  C   UNL     1      -0.519   5.634  14.183  1.00  0.00     0.116 C 
BRANCH  38  39
ATOM     39  C   UNL     1      -2.001   5.992  14.098  1.00  0.00     0.023 C 
BRANCH  39  40
ATOM     40  C   UNL     1      -2.612   5.632  12.748  1.00  0.00     0.026 C 
BRANCH  40  41
ATOM     41  C   UNL     1      -3.510   4.401  12.870  1.00  0.00     0.146 C 
BRANCH  41  42
ATOM     42  N   UNL     1      -2.694   3.195  12.887  1.00  0.00    -0.254 NA
ATOM     43  C   UNL     1      -2.606   2.505  13.962  1.00  0.00     0.185 C 
ATOM     44  N   UNL     1      -3.172   2.703  15.166  1.00  0.00    -0.370 N 
ATOM     45  N   UNL     1      -1.844   1.398  13.958  1.00  0.00    -0.370 N 
ATOM     46  H   UNL     1      -2.826   2.225  15.981  1.00  0.00     0.159 HD
ATOM     47  H   UNL     1      -3.791   3.488  15.341  1.00  0.00     0.159 HD
ATOM     48  H   UNL     1      -1.388   1.171  13.085  1.00  0.00     0.159 HD
ATOM     49  H   UNL     1      -1.912   0.689  14.666  1.00  0.00     0.159 HD
ENDBRANCH  41  42
ENDBRANCH  40  41
ENDBRANCH  39  40
ENDBRANCH  38  39
ENDBRANCH  36  38
ENDBRANCH   5  34
BRANCH   8  50
ATOM     50  O   UNL     1      -1.831   0.516  10.883  1.00  0.00    -0.245 OA
BRANCH  50  51
ATOM     51  S   UNL     1      -2.778  -0.695  11.412  1.00  0.00     0.397 S 
ATOM     52  O   UNL     1      -2.005  -1.496  12.336  1.00  0.00    -0.169 OA
ATOM     53  O   UNL     1      -3.478  -1.291  10.293  1.00  0.00    -0.169 OA
BRANCH  51  54
ATOM     54  O   UNL     1      -3.857   0.090  12.310  1.00  0.00    -0.264 OA
ATOM     55  H   UNL     1      -3.687   1.049  12.210  1.00  0.00     0.236 HD
ENDBRANCH  51  54
ENDBRANCH  50  51
ENDBRANCH   8  50
TORSDOF 19
ENDMDL
MODEL 10
REMARK VINA RESULT:    -7.843      7.850     11.432
REMARK INTER + INTRA:         -18.872
REMARK INTER:                 -14.931
REMARK INTRA:                  -3.940
REMARK UNBOUND:                -3.005
REMARK SMILES CC[C@@H](C)[C@@H](NC(=O)[C@@H](O)Cc1ccc(O)c(Cl)c1)C(=O)N1[C@H](C(=O)NCCCCN=C(N)N)C[C@H]2CC[C@H](OS(=O)(=O)O)C[C@@H]21
REMARK SMILES IDX 22 1 36 2 46 3 35 4 23 5 45 6 37 7 39 8 38 9 20 10 21 11
REMARK SMILES IDX 5 12 6 13 7 14 8 15 9 17 11 18 12 19 17 20 19 21 15 22 14 23
REMARK SMILES IDX 13 24 18 25 16 26 10 28 3 30 4 31 2 32 1 33 24 34 25 35
REMARK SMILES IDX 26 36 27 38 28 39 29 40 30 41 31 42 32 43 33 44 34 45 40 50
REMARK SMILES IDX 41 51 42 52 43 53 44 54
REMARK H PARENT 6 16 16 27 10 29 26 37 33 46 33 47 34 48 34 49 44 55
ROOT
ATOM      1  N   UNL     1       2.204   9.839   3.378  1.00  0.00    -0.326 N 
ATOM      2  C   UNL     1      -0.072   9.270   3.568  1.00  0.00     0.014 C 
ATOM      3  C   UNL     1       1.043  10.076   4.240  1.00  0.00     0.091 C 
ATOM      4  C   UNL     1       0.673   8.065   3.015  1.00  0.00     0.041 C 
ATOM      5  C   UNL     1       1.903   8.761   2.404  1.00  0.00     0.175 C 
ATOM      6  C   UNL     1       0.557  11.512   4.423  1.00  0.00     0.059 C 
ATOM      7  C   UNL     1      -1.234   9.054   4.518  1.00  0.00     0.008 C 
ATOM      8  C   UNL     1      -0.964  11.629   4.658  1.00  0.00     0.143 C 
ATOM      9  C   UNL     1      -1.552  10.351   5.290  1.00  0.00     0.034 C 
ENDROOT
BRANCH   1  10
ATOM     10  C   UNL     1       3.506  10.298   3.496  1.00  0.00     0.246 C 
ATOM     11  O   UNL     1       3.731  11.296   4.188  1.00  0.00    -0.272 OA
BRANCH  10  12
ATOM     12  C   UNL     1       4.658   9.524   2.791  1.00  0.00     0.174 C 
BRANCH  12  13
ATOM     13  N   UNL     1       5.388   8.718   3.769  1.00  0.00    -0.342 N 
ATOM     14  C   UNL     1       5.298   7.350   3.890  1.00  0.00     0.249 C 
ATOM     15  O   UNL     1       4.609   6.645   3.165  1.00  0.00    -0.272 OA
ATOM     16  H   UNL     1       5.876   9.176   4.535  1.00  0.00     0.164 HD
BRANCH  14  17
ATOM     17  C   UNL     1       6.179   6.794   5.029  1.00  0.00     0.207 C 
BRANCH  17  18
ATOM     18  C   UNL     1       5.520   7.047   6.389  1.00  0.00     0.077 C 
BRANCH  18  19
ATOM     19  C   UNL     1       4.826   5.810   6.916  1.00  0.00    -0.043 A 
ATOM     20  C   UNL     1       3.377   4.744   8.542  1.00  0.00     0.083 A 
ATOM     21  C   UNL     1       3.976   5.895   8.029  1.00  0.00     0.028 A 
ATOM     22  C   UNL     1       3.623   3.505   7.951  1.00  0.00     0.134 A 
ATOM     23  C   UNL     1       4.463   3.407   6.848  1.00  0.00     0.048 A 
ATOM     24  C   UNL     1       5.066   4.557   6.332  1.00  0.00     0.008 A 
ATOM     25  Cl  UNL     1       2.335   4.869   9.911  1.00  0.00    -0.080 Cl
BRANCH  22  26
ATOM     26  O   UNL     1       3.067   2.348   8.425  1.00  0.00    -0.506 OA
ATOM     27  H   UNL     1       2.528   2.594   9.200  1.00  0.00     0.293 HD
ENDBRANCH  22  26
ENDBRANCH  18  19
ENDBRANCH  17  18
BRANCH  17  28
ATOM     28  O   UNL     1       7.484   7.394   5.014  1.00  0.00    -0.383 OA
ATOM     29  H   UNL     1       7.733   7.529   5.957  1.00  0.00     0.211 HD
ENDBRANCH  17  28
ENDBRANCH  14  17
ENDBRANCH  12  13
BRANCH  12  30
ATOM     30  C   UNL     1       5.593  10.455   1.974  1.00  0.00     0.018 C 
ATOM     31  C   UNL     1       4.828  11.123   0.821  1.00  0.00     0.010 C 
BRANCH  30  32
ATOM     32  C   UNL     1       6.857   9.745   1.431  1.00  0.00     0.002 C 
ATOM     33  C   UNL     1       8.175  10.454   1.715  1.00  0.00     0.004 C 
ENDBRANCH  30  32
ENDBRANCH  12  30
ENDBRANCH  10  12
ENDBRANCH   1  10
BRANCH   5  34
ATOM     34  C   UNL     1       1.588   9.355   1.005  1.00  0.00     0.242 C 
ATOM     35  O   UNL     1       1.501  10.567   0.809  1.00  0.00    -0.273 OA
ATOM     36  N   UNL     1       1.360   8.428   0.013  1.00  0.00    -0.354 N 
ATOM     37  H   UNL     1       1.328   7.438   0.263  1.00  0.00     0.163 HD
BRANCH  36  38
ATOM     38  C   UNL     1       1.267   8.797  -1.384  1.00  0.00     0.116 C 
BRANCH  38  39
ATOM     39  C   UNL     1      -0.060   8.310  -1.962  1.00  0.00     0.023 C 
BRANCH  39  40
ATOM     40  C   UNL     1      -0.874   9.440  -2.584  1.00  0.00     0.026 C 
BRANCH  40  41
ATOM     41  C   UNL     1      -0.445  10.793  -2.016  1.00  0.00     0.146 C 
BRANCH  41  42
ATOM     42  N   UNL     1      -1.623  11.591  -1.702  1.00  0.00    -0.254 NA
ATOM     43  C   UNL     1      -1.671  12.243  -0.601  1.00  0.00     0.185 C 
ATOM     44  N   UNL     1      -0.767  12.334   0.391  1.00  0.00    -0.370 N 
ATOM     45  N   UNL     1      -2.768  12.969  -0.329  1.00  0.00    -0.370 N 
ATOM     46  H   UNL     1      -1.033  12.679   1.297  1.00  0.00     0.159 HD
ATOM     47  H   UNL     1       0.128  11.857   0.342  1.00  0.00     0.159 HD
ATOM     48  H   UNL     1      -3.496  12.962  -1.030  1.00  0.00     0.159 HD
ATOM     49  H   UNL     1      -2.787  13.681   0.380  1.00  0.00     0.159 HD
ENDBRANCH  41  42
ENDBRANCH  40  41
ENDBRANCH  39  40
ENDBRANCH  38  39
ENDBRANCH  36  38
ENDBRANCH   5  34
BRANCH   8  50
ATOM     50  O   UNL     1      -1.634  11.871   3.420  1.00  0.00    -0.245 OA
BRANCH  50  51
ATOM     51  S   UNL     1      -2.752  13.048   3.329  1.00  0.00     0.397 S 
ATOM     52  O   UNL     1      -2.219  14.109   2.504  1.00  0.00    -0.169 OA
ATOM     53  O   UNL     1      -3.291  13.310   4.647  1.00  0.00    -0.169 OA
BRANCH  51  54
ATOM     54  O   UNL     1      -3.905  12.349   2.452  1.00  0.00    -0.264 OA
ATOM     55  H   UNL     1      -3.623  11.430   2.267  1.00  0.00     0.236 HD
ENDBRANCH  51  54
ENDBRANCH  50  51
ENDBRANCH   8  50
TORSDOF 19
ENDMDL
MODEL 11
REMARK VINA RESULT:    -7.811      7.125     10.635
REMARK INTER + INTRA:         -18.807
REMARK INTER:                 -13.998
REMARK INTRA:                  -4.808
REMARK UNBOUND:                -3.005
REMARK SMILES CC[C@@H](C)[C@@H](NC(=O)[C@@H](O)Cc1ccc(O)c(Cl)c1)C(=O)N1[C@H](C(=O)NCCCCN=C(N)N)C[C@H]2CC[C@H](OS(=O)(=O)O)C[C@@H]21
REMARK SMILES IDX 22 1 36 2 46 3 35 4 23 5 45 6 37 7 39 8 38 9 20 10 21 11
REMARK SMILES IDX 5 12 6 13 7 14 8 15 9 17 11 18 12 19 17 20 19 21 15 22 14 23
REMARK SMILES IDX 13 24 18 25 16 26 10 28 3 30 4 31 2 32 1 33 24 34 25 35
REMARK SMILES IDX 26 36 27 38 28 39 29 40 30 41 31 42 32 43 33 44 34 45 40 50
REMARK SMILES IDX 41 51 42 52 43 53 44 54
REMARK H PARENT 6 16 16 27 10 29 26 37 33 46 33 47 34 48 34 49 44 55
ROOT
ATOM      1  N   UNL     1       1.338   9.716   1.719  1.00  0.00    -0.326 N 
ATOM      2  C   UNL     1      -0.608   9.268   2.964  1.00  0.00     0.014 C 
ATOM      3  C   UNL     1       0.508  10.299   2.777  1.00  0.00     0.091 C 
ATOM      4  C   UNL     1       0.108   7.949   2.715  1.00  0.00     0.041 C 
ATOM      5  C   UNL     1       0.923   8.315   1.461  1.00  0.00     0.175 C 
ATOM      6  C   UNL     1      -0.132  11.663   2.527  1.00  0.00     0.059 C 
ATOM      7  C   UNL     1      -1.331   9.484   4.279  1.00  0.00     0.008 C 
ATOM      8  C   UNL     1      -1.484  11.857   3.247  1.00  0.00     0.143 C 
ATOM      9  C   UNL     1      -1.595  10.986   4.515  1.00  0.00     0.034 C 
ENDROOT
BRANCH   1  10
ATOM     10  C   UNL     1       2.503  10.192   1.141  1.00  0.00     0.246 C 
ATOM     11  O   UNL     1       2.489  10.539  -0.045  1.00  0.00    -0.272 OA
BRANCH  10  12
ATOM     12  C   UNL     1       3.791  10.320   2.006  1.00  0.00     0.174 C 
BRANCH  12  13
ATOM     13  N   UNL     1       3.990   9.100   2.788  1.00  0.00    -0.342 N 
ATOM     14  C   UNL     1       5.202   8.476   2.984  1.00  0.00     0.249 C 
ATOM     15  O   UNL     1       6.264   8.896   2.542  1.00  0.00    -0.272 OA
ATOM     16  H   UNL     1       3.185   8.554   3.082  1.00  0.00     0.164 HD
BRANCH  14  17
ATOM     17  C   UNL     1       5.081   7.198   3.841  1.00  0.00     0.207 C 
BRANCH  17  18
ATOM     18  C   UNL     1       6.061   7.248   5.018  1.00  0.00     0.077 C 
BRANCH  18  19
ATOM     19  C   UNL     1       5.631   8.251   6.065  1.00  0.00    -0.043 A 
ATOM     20  C   UNL     1       6.087  10.228   7.395  1.00  0.00     0.083 A 
ATOM     21  C   UNL     1       6.464   9.332   6.393  1.00  0.00     0.028 A 
ATOM     22  C   UNL     1       4.881  10.050   8.073  1.00  0.00     0.134 A 
ATOM     23  C   UNL     1       4.046   8.984   7.757  1.00  0.00     0.048 A 
ATOM     24  C   UNL     1       4.422   8.084   6.757  1.00  0.00     0.008 A 
ATOM     25  Cl  UNL     1       7.123  11.550   7.785  1.00  0.00    -0.080 Cl
BRANCH  22  26
ATOM     26  O   UNL     1       4.473  10.896   9.069  1.00  0.00    -0.506 OA
ATOM     27  H   UNL     1       3.928  11.585   8.645  1.00  0.00     0.293 HD
ENDBRANCH  22  26
ENDBRANCH  18  19
ENDBRANCH  17  18
BRANCH  17  28
ATOM     28  O   UNL     1       5.339   6.023   3.056  1.00  0.00    -0.383 OA
ATOM     29  H   UNL     1       5.169   6.278   2.121  1.00  0.00     0.211 HD
ENDBRANCH  17  28
ENDBRANCH  14  17
ENDBRANCH  12  13
BRANCH  12  30
ATOM     30  C   UNL     1       3.796  11.597   2.889  1.00  0.00     0.018 C 
ATOM     31  C   UNL     1       4.839  12.606   2.384  1.00  0.00     0.010 C 
BRANCH  30  32
ATOM     32  C   UNL     1       4.018  11.311   4.394  1.00  0.00     0.002 C 
ATOM     33  C   UNL     1       2.798  11.513   5.282  1.00  0.00     0.004 C 
ENDBRANCH  30  32
ENDBRANCH  12  30
ENDBRANCH  10  12
ENDBRANCH   1  10
BRANCH   5  34
ATOM     34  C   UNL     1       0.062   8.225   0.172  1.00  0.00     0.242 C 
ATOM     35  O   UNL     1      -1.168   8.204   0.204  1.00  0.00    -0.273 OA
ATOM     36  N   UNL     1       0.774   8.116  -1.001  1.00  0.00    -0.354 N 
ATOM     37  H   UNL     1       1.789   8.018  -0.953  1.00  0.00     0.163 HD
BRANCH  36  38
ATOM     38  C   UNL     1       0.146   8.238  -2.301  1.00  0.00     0.116 C 
BRANCH  38  39
ATOM     39  C   UNL     1       0.954   9.189  -3.180  1.00  0.00     0.023 C 
BRANCH  39  40
ATOM     40  C   UNL     1       0.077   9.970  -4.153  1.00  0.00     0.026 C 
BRANCH  40  41
ATOM     41  C   UNL     1      -1.126  10.578  -3.431  1.00  0.00     0.146 C 
BRANCH  41  42
ATOM     42  N   UNL     1      -0.702  11.735  -2.654  1.00  0.00    -0.254 NA
ATOM     43  C   UNL     1      -1.058  11.841  -1.430  1.00  0.00     0.185 C 
ATOM     44  N   UNL     1      -1.807  11.019  -0.672  1.00  0.00    -0.370 N 
ATOM     45  N   UNL     1      -0.660  12.918  -0.732  1.00  0.00    -0.370 N 
ATOM     46  H   UNL     1      -2.210  11.341   0.191  1.00  0.00     0.159 HD
ATOM     47  H   UNL     1      -2.180  10.148  -1.039  1.00  0.00     0.159 HD
ATOM     48  H   UNL     1      -0.084  13.584  -1.227  1.00  0.00     0.159 HD
ATOM     49  H   UNL     1      -0.693  12.958   0.271  1.00  0.00     0.159 HD
ENDBRANCH  41  42
ENDBRANCH  40  41
ENDBRANCH  39  40
ENDBRANCH  38  39
ENDBRANCH  36  38
ENDBRANCH   5  34
BRANCH   8  50
ATOM     50  O   UNL     1      -2.559  11.519   2.369  1.00  0.00    -0.245 OA
BRANCH  50  51
ATOM     51  S   UNL     1      -3.692  12.633   2.022  1.00  0.00     0.397 S 
ATOM     52  O   UNL     1      -3.370  13.212   0.737  1.00  0.00    -0.169 OA
ATOM     53  O   UNL     1      -3.936  13.458   3.187  1.00  0.00    -0.169 OA
BRANCH  51  54
ATOM     54  O   UNL     1      -4.994  11.722   1.778  1.00  0.00    -0.264 OA
ATOM     55  H   UNL     1      -5.664  11.974   2.446  1.00  0.00     0.236 HD
ENDBRANCH  51  54
ENDBRANCH  50  51
ENDBRANCH   8  50
TORSDOF 19
ENDMDL
MODEL 12
REMARK VINA RESULT:    -7.692      6.334     10.955
REMARK INTER + INTRA:         -18.566
REMARK INTER:                 -13.907
REMARK INTRA:                  -4.659
REMARK UNBOUND:                -3.005
REMARK SMILES CC[C@@H](C)[C@@H](NC(=O)[C@@H](O)Cc1ccc(O)c(Cl)c1)C(=O)N1[C@H](C(=O)NCCCCN=C(N)N)C[C@H]2CC[C@H](OS(=O)(=O)O)C[C@@H]21
REMARK SMILES IDX 22 1 36 2 46 3 35 4 23 5 45 6 37 7 39 8 38 9 20 10 21 11
REMARK SMILES IDX 5 12 6 13 7 14 8 15 9 17 11 18 12 19 17 20 19 21 15 22 14 23
REMARK SMILES IDX 13 24 18 25 16 26 10 28 3 30 4 31 2 32 1 33 24 34 25 35
REMARK SMILES IDX 26 36 27 38 28 39 29 40 30 41 31 42 32 43 33 44 34 45 40 50
REMARK SMILES IDX 41 51 42 52 43 53 44 54
REMARK H PARENT 6 16 16 27 10 29 26 37 33 46 33 47 34 48 34 49 44 55
ROOT
ATOM      1  N   UNL     1       2.051   8.753   3.138  1.00  0.00    -0.326 N 
ATOM      2  C   UNL     1      -0.246   9.125   3.492  1.00  0.00     0.014 C 
ATOM      3  C   UNL     1       1.137   9.376   4.099  1.00  0.00     0.091 C 
ATOM      4  C   UNL     1      -0.083   7.761   2.840  1.00  0.00     0.041 C 
ATOM      5  C   UNL     1       1.284   7.947   2.156  1.00  0.00     0.175 C 
ATOM      6  C   UNL     1       1.281  10.873   4.370  1.00  0.00     0.059 C 
ATOM      7  C   UNL     1      -1.337   9.330   4.525  1.00  0.00     0.008 C 
ATOM      8  C   UNL     1      -0.048  11.570   4.730  1.00  0.00     0.143 C 
ATOM      9  C   UNL     1      -1.061  10.595   5.364  1.00  0.00     0.034 C 
ENDROOT
BRANCH   1  10
ATOM     10  C   UNL     1       3.432   8.647   3.166  1.00  0.00     0.246 C 
ATOM     11  O   UNL     1       3.947   7.529   3.281  1.00  0.00    -0.272 OA
BRANCH  10  12
ATOM     12  C   UNL     1       4.303   9.927   3.009  1.00  0.00     0.174 C 
BRANCH  12  13
ATOM     13  N   UNL     1       4.018  10.569   1.727  1.00  0.00    -0.342 N 
ATOM     14  C   UNL     1       3.849  11.923   1.542  1.00  0.00     0.249 C 
ATOM     15  O   UNL     1       3.946  12.752   2.438  1.00  0.00    -0.272 OA
ATOM     16  H   UNL     1       3.756  10.001   0.926  1.00  0.00     0.164 HD
BRANCH  14  17
ATOM     17  C   UNL     1       3.542  12.290   0.074  1.00  0.00     0.207 C 
BRANCH  17  18
ATOM     18  C   UNL     1       4.380  13.496  -0.363  1.00  0.00     0.077 C 
BRANCH  18  19
ATOM     19  C   UNL     1       5.376  13.128  -1.440  1.00  0.00    -0.043 A 
ATOM     20  C   UNL     1       5.882  12.672  -3.768  1.00  0.00     0.083 A 
ATOM     21  C   UNL     1       4.973  13.059  -2.783  1.00  0.00     0.028 A 
ATOM     22  C   UNL     1       7.194  12.349  -3.420  1.00  0.00     0.134 A 
ATOM     23  C   UNL     1       7.606  12.413  -2.094  1.00  0.00     0.048 A 
ATOM     24  C   UNL     1       6.698  12.799  -1.105  1.00  0.00     0.008 A 
ATOM     25  Cl  UNL     1       5.369  12.593  -5.413  1.00  0.00    -0.080 Cl
BRANCH  22  26
ATOM     26  O   UNL     1       8.118  11.953  -4.349  1.00  0.00    -0.506 OA
ATOM     27  H   UNL     1       8.290  11.007  -4.187  1.00  0.00     0.293 HD
ENDBRANCH  22  26
ENDBRANCH  18  19
ENDBRANCH  17  18
BRANCH  17  28
ATOM     28  O   UNL     1       2.148  12.588  -0.105  1.00  0.00    -0.383 OA
ATOM     29  H   UNL     1       2.051  13.551   0.073  1.00  0.00     0.211 HD
ENDBRANCH  17  28
ENDBRANCH  14  17
ENDBRANCH  12  13
BRANCH  12  30
ATOM     30  C   UNL     1       5.817   9.650   3.211  1.00  0.00     0.018 C 
ATOM     31  C   UNL     1       6.410  10.600   4.263  1.00  0.00     0.010 C 
BRANCH  30  32
ATOM     32  C   UNL     1       6.641   9.725   1.902  1.00  0.00     0.002 C 
ATOM     33  C   UNL     1       7.989   9.015   1.941  1.00  0.00     0.004 C 
ENDBRANCH  30  32
ENDBRANCH  12  30
ENDBRANCH  10  12
ENDBRANCH   1  10
BRANCH   5  34
ATOM     34  C   UNL     1       1.151   8.705   0.808  1.00  0.00     0.242 C 
ATOM     35  O   UNL     1       1.303   9.923   0.720  1.00  0.00    -0.273 OA
ATOM     36  N   UNL     1       0.797   7.924  -0.270  1.00  0.00    -0.354 N 
ATOM     37  H   UNL     1       0.568   6.942  -0.111  1.00  0.00     0.163 HD
BRANCH  36  38
ATOM     38  C   UNL     1       0.839   8.420  -1.630  1.00  0.00     0.116 C 
BRANCH  38  39
ATOM     39  C   UNL     1      -0.505   8.174  -2.312  1.00  0.00     0.023 C 
BRANCH  39  40
ATOM     40  C   UNL     1      -1.316   9.454  -2.480  1.00  0.00     0.026 C 
BRANCH  40  41
ATOM     41  C   UNL     1      -0.476  10.680  -2.121  1.00  0.00     0.146 C 
BRANCH  41  42
ATOM     42  N   UNL     1      -1.349  11.810  -1.835  1.00  0.00    -0.254 NA
ATOM     43  C   UNL     1      -1.674  12.069  -0.624  1.00  0.00     0.185 C 
ATOM     44  N   UNL     1      -1.331  11.443   0.516  1.00  0.00    -0.370 N 
ATOM     45  N   UNL     1      -2.484  13.112  -0.382  1.00  0.00    -0.370 N 
ATOM     46  H   UNL     1      -1.850  11.600   1.364  1.00  0.00     0.159 HD
ATOM     47  H   UNL     1      -0.711  10.639   0.517  1.00  0.00     0.159 HD
ATOM     48  H   UNL     1      -2.783  13.644  -1.189  1.00  0.00     0.159 HD
ATOM     49  H   UNL     1      -2.591  13.518   0.530  1.00  0.00     0.159 HD
ENDBRANCH  41  42
ENDBRANCH  40  41
ENDBRANCH  39  40
ENDBRANCH  38  39
ENDBRANCH  36  38
ENDBRANCH   5  34
BRANCH   8  50
ATOM     50  O   UNL     1      -0.638  12.137   3.559  1.00  0.00    -0.245 OA
BRANCH  50  51
ATOM     51  S   UNL     1      -1.566  13.466   3.690  1.00  0.00     0.397 S 
ATOM     52  O   UNL     1      -0.906  14.385   4.590  1.00  0.00    -0.169 OA
ATOM     53  O   UNL     1      -2.948  13.076   3.881  1.00  0.00    -0.169 OA
BRANCH  51  54
ATOM     54  O   UNL     1      -1.432  14.115   2.225  1.00  0.00    -0.264 OA
ATOM     55  H   UNL     1      -0.958  13.474   1.657  1.00  0.00     0.236 HD
ENDBRANCH  51  54
ENDBRANCH  50  51
ENDBRANCH   8  50
TORSDOF 19
ENDMDL
MODEL 13
REMARK VINA RESULT:    -7.687     16.518     20.492
REMARK INTER + INTRA:         -18.556
REMARK INTER:                 -15.104
REMARK INTRA:                  -3.452
REMARK UNBOUND:                -3.005
REMARK SMILES CC[C@@H](C)[C@@H](NC(=O)[C@@H](O)Cc1ccc(O)c(Cl)c1)C(=O)N1[C@H](C(=O)NCCCCN=C(N)N)C[C@H]2CC[C@H](OS(=O)(=O)O)C[C@@H]21
REMARK SMILES IDX 22 1 36 2 46 3 35 4 23 5 45 6 37 7 39 8 38 9 20 10 21 11
REMARK SMILES IDX 5 12 6 13 7 14 8 15 9 17 11 18 12 19 17 20 19 21 15 22 14 23
REMARK SMILES IDX 13 24 18 25 16 26 10 28 3 30 4 31 2 32 1 33 24 34 25 35
REMARK SMILES IDX 26 36 27 38 28 39 29 40 30 41 31 42 32 43 33 44 34 45 40 50
REMARK SMILES IDX 41 51 42 52 43 53 44 54
REMARK H PARENT 6 16 16 27 10 29 26 37 33 46 33 47 34 48 34 49 44 55
ROOT
ATOM      1  N   UNL     1       1.785   2.647  10.447  1.00  0.00    -0.326 N 
ATOM      2  C   UNL     1      -0.441   2.885   9.720  1.00  0.00     0.014 C 
ATOM      3  C   UNL     1       0.785   1.975   9.612  1.00  0.00     0.091 C 
ATOM      4  C   UNL     1       0.178   4.272   9.812  1.00  0.00     0.041 C 
ATOM      5  C   UNL     1       1.306   4.000  10.824  1.00  0.00     0.175 C 
ATOM      6  C   UNL     1       0.367   0.554   9.985  1.00  0.00     0.059 C 
ATOM      7  C   UNL     1      -1.436   2.587   8.616  1.00  0.00     0.008 C 
ATOM      8  C   UNL     1      -1.094   0.219   9.612  1.00  0.00     0.143 C 
ATOM      9  C   UNL     1      -1.597   1.064   8.425  1.00  0.00     0.034 C 
ENDROOT
BRANCH   1  10
ATOM     10  C   UNL     1       3.097   2.297  10.716  1.00  0.00     0.246 C 
ATOM     11  O   UNL     1       3.417   2.005  11.873  1.00  0.00    -0.272 OA
BRANCH  10  12
ATOM     12  C   UNL     1       4.129   2.237   9.552  1.00  0.00     0.174 C 
BRANCH  12  13
ATOM     13  N   UNL     1       5.442   1.852  10.069  1.00  0.00    -0.342 N 
ATOM     14  C   UNL     1       5.997   0.597   9.958  1.00  0.00     0.249 C 
ATOM     15  O   UNL     1       5.457  -0.340   9.384  1.00  0.00    -0.272 OA
ATOM     16  H   UNL     1       5.937   2.475  10.702  1.00  0.00     0.164 HD
BRANCH  14  17
ATOM     17  C   UNL     1       7.388   0.501  10.621  1.00  0.00     0.207 C 
BRANCH  17  18
ATOM     18  C   UNL     1       7.807  -0.964  10.778  1.00  0.00     0.077 C 
BRANCH  18  19
ATOM     19  C   UNL     1       8.961  -1.320   9.869  1.00  0.00    -0.043 A 
ATOM     20  C   UNL     1      10.378  -2.989   8.824  1.00  0.00     0.083 A 
ATOM     21  C   UNL     1       9.282  -2.664   9.624  1.00  0.00     0.028 A 
ATOM     22  C   UNL     1      11.160  -1.976   8.266  1.00  0.00     0.134 A 
ATOM     23  C   UNL     1      10.853  -0.641   8.500  1.00  0.00     0.048 A 
ATOM     24  C   UNL     1       9.758  -0.313   9.302  1.00  0.00     0.008 A 
ATOM     25  Cl  UNL     1      10.757  -4.646   8.535  1.00  0.00    -0.080 Cl
BRANCH  22  26
ATOM     26  O   UNL     1      12.250  -2.245   7.484  1.00  0.00    -0.506 OA
ATOM     27  H   UNL     1      11.972  -2.920   6.837  1.00  0.00     0.293 HD
ENDBRANCH  22  26
ENDBRANCH  18  19
ENDBRANCH  17  18
BRANCH  17  28
ATOM     28  O   UNL     1       7.394   1.139  11.908  1.00  0.00    -0.383 OA
ATOM     29  H   UNL     1       7.712   2.058  11.755  1.00  0.00     0.211 HD
ENDBRANCH  17  28
ENDBRANCH  14  17
ENDBRANCH  12  13
BRANCH  12  30
ATOM     30  C   UNL     1       4.179   3.551   8.727  1.00  0.00     0.018 C 
ATOM     31  C   UNL     1       3.634   3.326   7.308  1.00  0.00     0.010 C 
BRANCH  30  32
ATOM     32  C   UNL     1       5.588   4.190   8.661  1.00  0.00     0.002 C 
ATOM     33  C   UNL     1       6.325   4.005   7.341  1.00  0.00     0.004 C 
ENDBRANCH  30  32
ENDBRANCH  12  30
ENDBRANCH  10  12
ENDBRANCH   1  10
BRANCH   5  34
ATOM     34  C   UNL     1       0.780   4.011  12.284  1.00  0.00     0.242 C 
ATOM     35  O   UNL     1       0.854   3.025  13.017  1.00  0.00    -0.273 OA
ATOM     36  N   UNL     1       0.177   5.184  12.680  1.00  0.00    -0.354 N 
ATOM     37  H   UNL     1       0.039   5.923  11.990  1.00  0.00     0.163 HD
BRANCH  36  38
ATOM     38  C   UNL     1      -0.174   5.444  14.061  1.00  0.00     0.116 C 
BRANCH  38  39
ATOM     39  C   UNL     1      -1.621   5.923  14.146  1.00  0.00     0.023 C 
BRANCH  39  40
ATOM     40  C   UNL     1      -2.363   5.774  12.822  1.00  0.00     0.026 C 
BRANCH  40  41
ATOM     41  C   UNL     1      -3.328   4.589  12.872  1.00  0.00     0.146 C 
BRANCH  41  42
ATOM     42  N   UNL     1      -2.577   3.341  12.841  1.00  0.00    -0.254 NA
ATOM     43  C   UNL     1      -2.590   2.569  13.862  1.00  0.00     0.185 C 
ATOM     44  N   UNL     1      -3.217   2.708  15.045  1.00  0.00    -0.370 N 
ATOM     45  N   UNL     1      -1.887   1.425  13.816  1.00  0.00    -0.370 N 
ATOM     46  H   UNL     1      -2.946   2.153  15.838  1.00  0.00     0.159 HD
ATOM     47  H   UNL     1      -3.805   3.512  15.245  1.00  0.00     0.159 HD
ATOM     48  H   UNL     1      -1.391   1.239  12.955  1.00  0.00     0.159 HD
ATOM     49  H   UNL     1      -2.034   0.670  14.462  1.00  0.00     0.159 HD
ENDBRANCH  41  42
ENDBRANCH  40  41
ENDBRANCH  39  40
ENDBRANCH  38  39
ENDBRANCH  36  38
ENDBRANCH   5  34
BRANCH   8  50
ATOM     50  O   UNL     1      -1.951   0.451  10.730  1.00  0.00    -0.245 OA
BRANCH  50  51
ATOM     51  S   UNL     1      -2.781  -0.790  11.377  1.00  0.00     0.397 S 
ATOM     52  O   UNL     1      -1.908  -1.476  12.303  1.00  0.00    -0.169 OA
ATOM     53  O   UNL     1      -3.488  -1.499  10.332  1.00  0.00    -0.169 OA
BRANCH  51  54
ATOM     54  O   UNL     1      -3.869  -0.029  12.284  1.00  0.00    -0.264 OA
ATOM     55  H   UNL     1      -4.228   0.715  11.758  1.00  0.00     0.236 HD
ENDBRANCH  51  54
ENDBRANCH  50  51
ENDBRANCH   8  50
TORSDOF 19
ENDMDL
MODEL 14
REMARK VINA RESULT:    -7.682     12.683     18.811
REMARK INTER + INTRA:         -18.546
REMARK INTER:                 -14.792
REMARK INTRA:                  -3.755
REMARK UNBOUND:                -3.005
REMARK SMILES CC[C@@H](C)[C@@H](NC(=O)[C@@H](O)Cc1ccc(O)c(Cl)c1)C(=O)N1[C@H](C(=O)NCCCCN=C(N)N)C[C@H]2CC[C@H](OS(=O)(=O)O)C[C@@H]21
REMARK SMILES IDX 22 1 36 2 46 3 35 4 23 5 45 6 37 7 39 8 38 9 20 10 21 11
REMARK SMILES IDX 5 12 6 13 7 14 8 15 9 17 11 18 12 19 17 20 19 21 15 22 14 23
REMARK SMILES IDX 13 24 18 25 16 26 10 28 3 30 4 31 2 32 1 33 24 34 25 35
REMARK SMILES IDX 26 36 27 38 28 39 29 40 30 41 31 42 32 43 33 44 34 45 40 50
REMARK SMILES IDX 41 51 42 52 43 53 44 54
REMARK H PARENT 6 16 16 27 10 29 26 37 33 46 33 47 34 48 34 49 44 55
ROOT
ATOM      1  N   UNL     1       1.160   3.234   9.297  1.00  0.00    -0.326 N 
ATOM      2  C   UNL     1      -1.028   2.411   9.579  1.00  0.00     0.014 C 
ATOM      3  C   UNL     1       0.374   2.011   9.109  1.00  0.00     0.091 C 
ATOM      4  C   UNL     1      -1.122   3.867   9.150  1.00  0.00     0.041 C 
ATOM      5  C   UNL     1       0.260   4.374   9.602  1.00  0.00     0.175 C 
ATOM      6  C   UNL     1       0.798   0.755   9.868  1.00  0.00     0.059 C 
ATOM      7  C   UNL     1      -2.066   1.422   9.088  1.00  0.00     0.008 C 
ATOM      8  C   UNL     1      -0.377  -0.178  10.232  1.00  0.00     0.143 C 
ATOM      9  C   UNL     1      -1.561  -0.027   9.254  1.00  0.00     0.034 C 
ENDROOT
BRANCH   1  10
ATOM     10  C   UNL     1       2.494   3.482   9.025  1.00  0.00     0.246 C 
ATOM     11  O   UNL     1       2.949   3.177   7.917  1.00  0.00    -0.272 OA
BRANCH  10  12
ATOM     12  C   UNL     1       3.380   4.177  10.099  1.00  0.00     0.174 C 
BRANCH  12  13
ATOM     13  N   UNL     1       3.977   5.391   9.544  1.00  0.00    -0.342 N 
ATOM     14  C   UNL     1       3.471   6.662   9.696  1.00  0.00     0.249 C 
ATOM     15  O   UNL     1       2.465   6.923  10.345  1.00  0.00    -0.272 OA
ATOM     16  H   UNL     1       4.722   5.316   8.856  1.00  0.00     0.164 HD
BRANCH  14  17
ATOM     17  C   UNL     1       4.320   7.732   8.977  1.00  0.00     0.207 C 
BRANCH  17  18
ATOM     18  C   UNL     1       5.587   7.103   8.388  1.00  0.00     0.077 C 
BRANCH  18  19
ATOM     19  C   UNL     1       5.475   6.907   6.893  1.00  0.00    -0.043 A 
ATOM     20  C   UNL     1       4.651   7.639   4.732  1.00  0.00     0.083 A 
ATOM     21  C   UNL     1       4.795   7.848   6.104  1.00  0.00     0.028 A 
ATOM     22  C   UNL     1       5.182   6.492   4.141  1.00  0.00     0.134 A 
ATOM     23  C   UNL     1       5.857   5.552   4.911  1.00  0.00     0.048 A 
ATOM     24  C   UNL     1       6.002   5.757   6.285  1.00  0.00     0.008 A 
ATOM     25  Cl  UNL     1       3.812   8.807   3.780  1.00  0.00    -0.080 Cl
BRANCH  22  26
ATOM     26  O   UNL     1       5.056   6.239   2.802  1.00  0.00    -0.506 OA
ATOM     27  H   UNL     1       5.955   6.073   2.463  1.00  0.00     0.293 HD
ENDBRANCH  22  26
ENDBRANCH  18  19
ENDBRANCH  17  18
BRANCH  17  28
ATOM     28  O   UNL     1       4.686   8.792   9.875  1.00  0.00    -0.383 OA
ATOM     29  H   UNL     1       5.222   8.373  10.586  1.00  0.00     0.211 HD
ENDBRANCH  17  28
ENDBRANCH  14  17
ENDBRANCH  12  13
BRANCH  12  30
ATOM     30  C   UNL     1       4.439   3.222  10.713  1.00  0.00     0.018 C 
ATOM     31  C   UNL     1       4.412   3.290  12.248  1.00  0.00     0.010 C 
BRANCH  30  32
ATOM     32  C   UNL     1       5.876   3.473  10.194  1.00  0.00     0.002 C 
ATOM     33  C   UNL     1       6.280   2.656   8.975  1.00  0.00     0.004 C 
ENDBRANCH  30  32
ENDBRANCH  12  30
ENDBRANCH  10  12
ENDBRANCH   1  10
BRANCH   5  34
ATOM     34  C   UNL     1       0.281   4.701  11.119  1.00  0.00     0.242 C 
ATOM     35  O   UNL     1       0.770   3.936  11.950  1.00  0.00    -0.273 OA
ATOM     36  N   UNL     1      -0.332   5.882  11.472  1.00  0.00    -0.354 N 
ATOM     37  H   UNL     1      -0.824   6.414  10.753  1.00  0.00     0.163 HD
BRANCH  36  38
ATOM     38  C   UNL     1      -0.218   6.445  12.801  1.00  0.00     0.116 C 
BRANCH  38  39
ATOM     39  C   UNL     1      -1.447   6.074  13.629  1.00  0.00     0.023 C 
BRANCH  39  40
ATOM     40  C   UNL     1      -2.708   5.958  12.779  1.00  0.00     0.026 C 
BRANCH  40  41
ATOM     41  C   UNL     1      -3.344   4.577  12.938  1.00  0.00     0.146 C 
BRANCH  41  42
ATOM     42  N   UNL     1      -2.305   3.579  13.156  1.00  0.00    -0.254 NA
ATOM     43  C   UNL     1      -2.416   2.751  14.126  1.00  0.00     0.185 C 
ATOM     44  N   UNL     1      -3.387   2.623  15.048  1.00  0.00    -0.370 N 
ATOM     45  N   UNL     1      -1.445   1.841  14.312  1.00  0.00    -0.370 N 
ATOM     46  H   UNL     1      -3.228   2.097  15.890  1.00  0.00     0.159 HD
ATOM     47  H   UNL     1      -4.206   3.224  15.047  1.00  0.00     0.159 HD
ATOM     48  H   UNL     1      -0.678   1.863  13.653  1.00  0.00     0.159 HD
ATOM     49  H   UNL     1      -1.567   1.025  14.884  1.00  0.00     0.159 HD
ENDBRANCH  41  42
ENDBRANCH  40  41
ENDBRANCH  39  40
ENDBRANCH  38  39
ENDBRANCH  36  38
ENDBRANCH   5  34
BRANCH   8  50
ATOM     50  O   UNL     1      -0.840   0.108  11.552  1.00  0.00    -0.245 OA
BRANCH  50  51
ATOM     51  S   UNL     1      -1.326  -1.110  12.514  1.00  0.00     0.397 S 
ATOM     52  O   UNL     1      -0.546  -1.058  13.729  1.00  0.00    -0.169 OA
ATOM     53  O   UNL     1      -1.441  -2.327  11.737  1.00  0.00    -0.169 OA
BRANCH  51  54
ATOM     54  O   UNL     1      -2.809  -0.643  12.925  1.00  0.00    -0.264 OA
ATOM     55  H   UNL     1      -2.794  -0.405  13.874  1.00  0.00     0.236 HD
ENDBRANCH  51  54
ENDBRANCH  50  51
ENDBRANCH   8  50
TORSDOF 19
ENDMDL
MODEL 15
REMARK VINA RESULT:    -7.676     12.809     19.158
REMARK INTER + INTRA:         -18.534
REMARK INTER:                 -14.528
REMARK INTRA:                  -4.006
REMARK UNBOUND:                -3.005
REMARK SMILES CC[C@@H](C)[C@@H](NC(=O)[C@@H](O)Cc1ccc(O)c(Cl)c1)C(=O)N1[C@H](C(=O)NCCCCN=C(N)N)C[C@H]2CC[C@H](OS(=O)(=O)O)C[C@@H]21
REMARK SMILES IDX 22 1 36 2 46 3 35 4 23 5 45 6 37 7 39 8 38 9 20 10 21 11
REMARK SMILES IDX 5 12 6 13 7 14 8 15 9 17 11 18 12 19 17 20 19 21 15 22 14 23
REMARK SMILES IDX 13 24 18 25 16 26 10 28 3 30 4 31 2 32 1 33 24 34 25 35
REMARK SMILES IDX 26 36 27 38 28 39 29 40 30 41 31 42 32 43 33 44 34 45 40 50
REMARK SMILES IDX 41 51 42 52 43 53 44 54
REMARK H PARENT 6 16 16 27 10 29 26 37 33 46 33 47 34 48 34 49 44 55
ROOT
ATOM      1  N   UNL     1       0.725   3.725  10.703  1.00  0.00    -0.326 N 
ATOM      2  C   UNL     1      -1.154   2.882   9.562  1.00  0.00     0.014 C 
ATOM      3  C   UNL     1       0.255   2.510  10.031  1.00  0.00     0.091 C 
ATOM      4  C   UNL     1      -1.013   4.357   9.217  1.00  0.00     0.041 C 
ATOM      5  C   UNL     1      -0.210   4.846  10.436  1.00  0.00     0.175 C 
ATOM      6  C   UNL     1       0.168   1.220  10.845  1.00  0.00     0.059 C 
ATOM      7  C   UNL     1      -1.646   1.915   8.503  1.00  0.00     0.008 C 
ATOM      8  C   UNL     1      -0.955   0.267  10.381  1.00  0.00     0.143 C 
ATOM      9  C   UNL     1      -1.301   0.462   8.891  1.00  0.00     0.034 C 
ENDROOT
BRANCH   1  10
ATOM     10  C   UNL     1       1.940   3.990  11.312  1.00  0.00     0.246 C 
ATOM     11  O   UNL     1       1.968   4.210  12.527  1.00  0.00    -0.272 OA
BRANCH  10  12
ATOM     12  C   UNL     1       3.245   3.962  10.464  1.00  0.00     0.174 C 
BRANCH  12  13
ATOM     13  N   UNL     1       3.322   5.161   9.629  1.00  0.00    -0.342 N 
ATOM     14  C   UNL     1       3.888   6.356  10.013  1.00  0.00     0.249 C 
ATOM     15  O   UNL     1       4.420   6.540  11.100  1.00  0.00    -0.272 OA
ATOM     16  H   UNL     1       2.788   5.208   8.765  1.00  0.00     0.164 HD
BRANCH  14  17
ATOM     17  C   UNL     1       3.799   7.437   8.915  1.00  0.00     0.207 C 
BRANCH  17  18
ATOM     18  C   UNL     1       5.174   7.671   8.281  1.00  0.00     0.077 C 
BRANCH  18  19
ATOM     19  C   UNL     1       5.181   7.322   6.809  1.00  0.00    -0.043 A 
ATOM     20  C   UNL     1       4.382   7.711   4.552  1.00  0.00     0.083 A 
ATOM     21  C   UNL     1       4.412   8.066   5.901  1.00  0.00     0.028 A 
ATOM     22  C   UNL     1       5.116   6.614   4.103  1.00  0.00     0.134 A 
ATOM     23  C   UNL     1       5.882   5.868   4.991  1.00  0.00     0.048 A 
ATOM     24  C   UNL     1       5.913   6.220   6.342  1.00  0.00     0.008 A 
ATOM     25  Cl  UNL     1       3.430   8.638   3.452  1.00  0.00    -0.080 Cl
BRANCH  22  26
ATOM     26  O   UNL     1       5.110   6.221   2.791  1.00  0.00    -0.506 OA
ATOM     27  H   UNL     1       6.040   6.074   2.538  1.00  0.00     0.293 HD
ENDBRANCH  22  26
ENDBRANCH  18  19
ENDBRANCH  17  18
BRANCH  17  28
ATOM     28  O   UNL     1       3.303   8.675   9.447  1.00  0.00    -0.383 OA
ATOM     29  H   UNL     1       4.076   9.124   9.859  1.00  0.00     0.211 HD
ENDBRANCH  17  28
ENDBRANCH  14  17
ENDBRANCH  12  13
BRANCH  12  30
ATOM     30  C   UNL     1       3.397   2.655   9.640  1.00  0.00     0.018 C 
ATOM     31  C   UNL     1       4.646   1.875  10.079  1.00  0.00     0.010 C 
BRANCH  30  32
ATOM     32  C   UNL     1       3.424   2.886   8.109  1.00  0.00     0.002 C 
ATOM     33  C   UNL     1       2.129   2.558   7.378  1.00  0.00     0.004 C 
ENDBRANCH  30  32
ENDBRANCH  12  30
ENDBRANCH  10  12
ENDBRANCH   1  10
BRANCH   5  34
ATOM     34  C   UNL     1      -1.128   5.100  11.661  1.00  0.00     0.242 C 
ATOM     35  O   UNL     1      -2.244   4.592  11.764  1.00  0.00    -0.273 OA
ATOM     36  N   UNL     1      -0.626   5.977  12.597  1.00  0.00    -0.354 N 
ATOM     37  H   UNL     1       0.251   6.459  12.398  1.00  0.00     0.163 HD
BRANCH  36  38
ATOM     38  C   UNL     1      -1.245   6.162  13.893  1.00  0.00     0.116 C 
BRANCH  38  39
ATOM     39  C   UNL     1      -0.395   5.498  14.973  1.00  0.00     0.023 C 
BRANCH  39  40
ATOM     40  C   UNL     1      -1.218   5.074  16.185  1.00  0.00     0.026 C 
BRANCH  40  41
ATOM     41  C   UNL     1      -1.396   3.556  16.215  1.00  0.00     0.146 C 
BRANCH  41  42
ATOM     42  N   UNL     1      -2.573   3.183  15.441  1.00  0.00    -0.254 NA
ATOM     43  C   UNL     1      -2.429   2.607  14.307  1.00  0.00     0.185 C 
ATOM     44  N   UNL     1      -1.307   2.257  13.651  1.00  0.00    -0.370 N 
ATOM     45  N   UNL     1      -3.526   2.275  13.607  1.00  0.00    -0.370 N 
ATOM     46  H   UNL     1      -1.335   2.037  12.670  1.00  0.00     0.159 HD
ATOM     47  H   UNL     1      -0.386   2.422  14.044  1.00  0.00     0.159 HD
ATOM     48  H   UNL     1      -4.415   2.497  14.035  1.00  0.00     0.159 HD
ATOM     49  H   UNL     1      -3.507   1.624  12.843  1.00  0.00     0.159 HD
ENDBRANCH  41  42
ENDBRANCH  40  41
ENDBRANCH  39  40
ENDBRANCH  38  39
ENDBRANCH  36  38
ENDBRANCH   5  34
BRANCH   8  50
ATOM     50  O   UNL     1      -2.135   0.488  11.153  1.00  0.00    -0.245 OA
BRANCH  50  51
ATOM     51  S   UNL     1      -2.743  -0.721  12.055  1.00  0.00     0.397 S 
ATOM     52  O   UNL     1      -2.328  -1.972  11.462  1.00  0.00    -0.169 OA
ATOM     53  O   UNL     1      -4.133  -0.449  12.360  1.00  0.00    -0.169 OA
BRANCH  51  54
ATOM     54  O   UNL     1      -1.900  -0.581  13.417  1.00  0.00    -0.264 OA
ATOM     55  H   UNL     1      -2.134   0.278  13.825  1.00  0.00     0.236 HD
ENDBRANCH  51  54
ENDBRANCH  50  51
ENDBRANCH   8  50
TORSDOF 19
ENDMDL
MODEL 16
REMARK VINA RESULT:    -7.664      4.138     10.279
REMARK INTER + INTRA:         -18.510
REMARK INTER:                 -14.343
REMARK INTRA:                  -4.167
REMARK UNBOUND:                -3.005
REMARK SMILES CC[C@@H](C)[C@@H](NC(=O)[C@@H](O)Cc1ccc(O)c(Cl)c1)C(=O)N1[C@H](C(=O)NCCCCN=C(N)N)C[C@H]2CC[C@H](OS(=O)(=O)O)C[C@@H]21
REMARK SMILES IDX 22 1 36 2 46 3 35 4 23 5 45 6 37 7 39 8 38 9 20 10 21 11
REMARK SMILES IDX 5 12 6 13 7 14 8 15 9 17 11 18 12 19 17 20 19 21 15 22 14 23
REMARK SMILES IDX 13 24 18 25 16 26 10 28 3 30 4 31 2 32 1 33 24 34 25 35
REMARK SMILES IDX 26 36 27 38 28 39 29 40 30 41 31 42 32 43 33 44 34 45 40 50
REMARK SMILES IDX 41 51 42 52 43 53 44 54
REMARK H PARENT 6 16 16 27 10 29 26 37 33 46 33 47 34 48 34 49 44 55
ROOT
ATOM      1  N   UNL     1       1.171  11.405  -2.124  1.00  0.00    -0.326 N 
ATOM      2  C   UNL     1      -0.610   9.944  -1.641  1.00  0.00     0.014 C 
ATOM      3  C   UNL     1       0.858   9.974  -2.075  1.00  0.00     0.091 C 
ATOM      4  C   UNL     1      -1.184  11.183  -2.312  1.00  0.00     0.041 C 
ATOM      5  C   UNL     1      -0.074  12.202  -1.995  1.00  0.00     0.175 C 
ATOM      6  C   UNL     1       1.661   9.090  -1.123  1.00  0.00     0.059 C 
ATOM      7  C   UNL     1      -1.231   8.590  -1.925  1.00  0.00     0.008 C 
ATOM      8  C   UNL     1       0.865   7.888  -0.571  1.00  0.00     0.143 C 
ATOM      9  C   UNL     1      -0.266   7.454  -1.525  1.00  0.00     0.034 C 
ENDROOT
BRANCH   1  10
ATOM     10  C   UNL     1       2.348  12.045  -2.473  1.00  0.00     0.246 C 
ATOM     11  O   UNL     1       3.251  12.142  -1.635  1.00  0.00    -0.272 OA
BRANCH  10  12
ATOM     12  C   UNL     1       2.526  12.589  -3.920  1.00  0.00     0.174 C 
BRANCH  12  13
ATOM     13  N   UNL     1       3.266  11.622  -4.729  1.00  0.00    -0.342 N 
ATOM     14  C   UNL     1       2.700  10.585  -5.436  1.00  0.00     0.249 C 
ATOM     15  O   UNL     1       1.495  10.372  -5.487  1.00  0.00    -0.272 OA
ATOM     16  H   UNL     1       4.280  11.576  -4.657  1.00  0.00     0.164 HD
BRANCH  14  17
ATOM     17  C   UNL     1       3.748   9.727  -6.177  1.00  0.00     0.207 C 
BRANCH  17  18
ATOM     18  C   UNL     1       3.887  10.190  -7.631  1.00  0.00     0.077 C 
BRANCH  18  19
ATOM     19  C   UNL     1       4.991  11.210  -7.793  1.00  0.00    -0.043 A 
ATOM     20  C   UNL     1       6.913  12.389  -6.897  1.00  0.00     0.083 A 
ATOM     21  C   UNL     1       5.926  11.412  -6.765  1.00  0.00     0.028 A 
ATOM     22  C   UNL     1       6.972  13.170  -8.052  1.00  0.00     0.134 A 
ATOM     23  C   UNL     1       6.053  12.980  -9.078  1.00  0.00     0.048 A 
ATOM     24  C   UNL     1       5.063  12.004  -8.948  1.00  0.00     0.008 A 
ATOM     25  Cl  UNL     1       8.052  12.622  -5.623  1.00  0.00    -0.080 Cl
BRANCH  22  26
ATOM     26  O   UNL     1       7.916  14.147  -8.223  1.00  0.00    -0.506 OA
ATOM     27  H   UNL     1       8.679  13.899  -7.669  1.00  0.00     0.293 HD
ENDBRANCH  22  26
ENDBRANCH  18  19
ENDBRANCH  17  18
BRANCH  17  28
ATOM     28  O   UNL     1       3.390   8.336  -6.151  1.00  0.00    -0.383 OA
ATOM     29  H   UNL     1       4.166   7.849  -6.509  1.00  0.00     0.211 HD
ENDBRANCH  17  28
ENDBRANCH  14  17
ENDBRANCH  12  13
BRANCH  12  30
ATOM     30  C   UNL     1       3.165  14.004  -3.955  1.00  0.00     0.018 C 
ATOM     31  C   UNL     1       2.338  14.956  -4.833  1.00  0.00     0.010 C 
BRANCH  30  32
ATOM     32  C   UNL     1       4.643  14.006  -4.414  1.00  0.00     0.002 C 
ATOM     33  C   UNL     1       5.020  15.111  -5.392  1.00  0.00     0.004 C 
ENDBRANCH  30  32
ENDBRANCH  12  30
ENDBRANCH  10  12
ENDBRANCH   1  10
BRANCH   5  34
ATOM     34  C   UNL     1      -0.215  12.772  -0.558  1.00  0.00     0.242 C 
ATOM     35  O   UNL     1       0.709  12.747   0.254  1.00  0.00    -0.273 OA
ATOM     36  N   UNL     1      -1.464  13.259  -0.241  1.00  0.00    -0.354 N 
ATOM     37  H   UNL     1      -2.222  13.143  -0.915  1.00  0.00     0.163 HD
BRANCH  36  38
ATOM     38  C   UNL     1      -1.715  14.017   0.967  1.00  0.00     0.116 C 
BRANCH  38  39
ATOM     39  C   UNL     1      -2.911  13.428   1.710  1.00  0.00     0.023 C 
BRANCH  39  40
ATOM     40  C   UNL     1      -2.787  13.573   3.223  1.00  0.00     0.026 C 
BRANCH  40  41
ATOM     41  C   UNL     1      -2.280  12.276   3.853  1.00  0.00     0.146 C 
BRANCH  41  42
ATOM     42  N   UNL     1      -0.824  12.285   3.893  1.00  0.00    -0.254 NA
ATOM     43  C   UNL     1      -0.166  11.477   3.149  1.00  0.00     0.185 C 
ATOM     44  N   UNL     1      -0.604  10.555   2.273  1.00  0.00    -0.370 N 
ATOM     45  N   UNL     1       1.176  11.497   3.204  1.00  0.00    -0.370 N 
ATOM     46  H   UNL     1       0.009   9.829   1.943  1.00  0.00     0.159 HD
ATOM     47  H   UNL     1      -1.594  10.415   2.097  1.00  0.00     0.159 HD
ATOM     48  H   UNL     1       1.589  12.171   3.835  1.00  0.00     0.159 HD
ATOM     49  H   UNL     1       1.756  11.078   2.499  1.00  0.00     0.159 HD
ENDBRANCH  41  42
ENDBRANCH  40  41
ENDBRANCH  39  40
ENDBRANCH  38  39
ENDBRANCH  36  38
ENDBRANCH   5  34
BRANCH   8  50
ATOM     50  O   UNL     1       0.289   8.220   0.693  1.00  0.00    -0.245 OA
BRANCH  50  51
ATOM     51  S   UNL     1       1.041   7.767   2.062  1.00  0.00     0.397 S 
ATOM     52  O   UNL     1       0.032   7.342   3.006  1.00  0.00    -0.169 OA
ATOM     53  O   UNL     1       2.045   8.751   2.413  1.00  0.00    -0.169 OA
BRANCH  51  54
ATOM     54  O   UNL     1       1.801   6.427   1.600  1.00  0.00    -0.264 OA
ATOM     55  H   UNL     1       1.643   5.744   2.283  1.00  0.00     0.236 HD
ENDBRANCH  51  54
ENDBRANCH  50  51
ENDBRANCH   8  50
TORSDOF 19
ENDMDL
MODEL 17
REMARK VINA RESULT:    -7.586      4.682     11.468
REMARK INTER + INTRA:         -18.351
REMARK INTER:                 -15.997
REMARK INTRA:                  -2.354
REMARK UNBOUND:                -3.005
REMARK SMILES CC[C@@H](C)[C@@H](NC(=O)[C@@H](O)Cc1ccc(O)c(Cl)c1)C(=O)N1[C@H](C(=O)NCCCCN=C(N)N)C[C@H]2CC[C@H](OS(=O)(=O)O)C[C@@H]21
REMARK SMILES IDX 22 1 36 2 46 3 35 4 23 5 45 6 37 7 39 8 38 9 20 10 21 11
REMARK SMILES IDX 5 12 6 13 7 14 8 15 9 17 11 18 12 19 17 20 19 21 15 22 14 23
REMARK SMILES IDX 13 24 18 25 16 26 10 28 3 30 4 31 2 32 1 33 24 34 25 35
REMARK SMILES IDX 26 36 27 38 28 39 29 40 30 41 31 42 32 43 33 44 34 45 40 50
REMARK SMILES IDX 41 51 42 52 43 53 44 54
REMARK H PARENT 6 16 16 27 10 29 26 37 33 46 33 47 34 48 34 49 44 55
ROOT
ATOM      1  N   UNL     1       0.867   9.989  -1.145  1.00  0.00    -0.326 N 
ATOM      2  C   UNL     1      -0.639   8.838   0.251  1.00  0.00     0.014 C 
ATOM      3  C   UNL     1       0.843   9.183   0.079  1.00  0.00     0.091 C 
ATOM      4  C   UNL     1      -1.117   8.690  -1.185  1.00  0.00     0.041 C 
ATOM      5  C   UNL     1      -0.451   9.923  -1.823  1.00  0.00     0.175 C 
ATOM      6  C   UNL     1       1.345   9.818   1.374  1.00  0.00     0.059 C 
ATOM      7  C   UNL     1      -0.818   7.684   1.217  1.00  0.00     0.008 C 
ATOM      8  C   UNL     1       0.640   9.286   2.641  1.00  0.00     0.143 C 
ATOM      9  C   UNL     1       0.101   7.854   2.445  1.00  0.00     0.034 C 
ENDROOT
BRANCH   1  10
ATOM     10  C   UNL     1       1.938  10.567  -1.806  1.00  0.00     0.246 C 
ATOM     11  O   UNL     1       3.072  10.454  -1.328  1.00  0.00    -0.272 OA
BRANCH  10  12
ATOM     12  C   UNL     1       1.698  11.308  -3.154  1.00  0.00     0.174 C 
BRANCH  12  13
ATOM     13  N   UNL     1       2.634  10.819  -4.165  1.00  0.00    -0.342 N 
ATOM     14  C   UNL     1       2.408   9.745  -4.997  1.00  0.00     0.249 C 
ATOM     15  O   UNL     1       1.374   9.090  -5.000  1.00  0.00    -0.272 OA
ATOM     16  H   UNL     1       3.591  11.161  -4.173  1.00  0.00     0.164 HD
BRANCH  14  17
ATOM     17  C   UNL     1       3.595   9.466  -5.944  1.00  0.00     0.207 C 
BRANCH  17  18
ATOM     18  C   UNL     1       4.329   8.189  -5.522  1.00  0.00     0.077 C 
BRANCH  18  19
ATOM     19  C   UNL     1       5.237   7.675  -6.616  1.00  0.00    -0.043 A 
ATOM     20  C   UNL     1       5.535   6.750  -8.839  1.00  0.00     0.083 A 
ATOM     21  C   UNL     1       4.701   7.271  -7.849  1.00  0.00     0.028 A 
ATOM     22  C   UNL     1       6.905   6.628  -8.604  1.00  0.00     0.134 A 
ATOM     23  C   UNL     1       7.449   7.024  -7.388  1.00  0.00     0.048 A 
ATOM     24  C   UNL     1       6.616   7.544  -6.394  1.00  0.00     0.008 A 
ATOM     25  Cl  UNL     1       4.858   6.260 -10.347  1.00  0.00    -0.080 Cl
BRANCH  22  26
ATOM     26  O   UNL     1       7.761   6.113  -9.540  1.00  0.00    -0.506 OA
ATOM     27  H   UNL     1       7.956   5.198  -9.268  1.00  0.00     0.293 HD
ENDBRANCH  22  26
ENDBRANCH  18  19
ENDBRANCH  17  18
BRANCH  17  28
ATOM     28  O   UNL     1       4.519  10.566  -5.954  1.00  0.00    -0.383 OA
ATOM     29  H   UNL     1       5.405  10.179  -5.770  1.00  0.00     0.211 HD
ENDBRANCH  17  28
ENDBRANCH  14  17
ENDBRANCH  12  13
BRANCH  12  30
ATOM     30  C   UNL     1       1.740  12.853  -3.005  1.00  0.00     0.018 C 
ATOM     31  C   UNL     1       2.587  13.486  -4.120  1.00  0.00     0.010 C 
BRANCH  30  32
ATOM     32  C   UNL     1       2.241  13.330  -1.620  1.00  0.00     0.002 C 
ATOM     33  C   UNL     1       1.164  13.870  -0.689  1.00  0.00     0.004 C 
ENDBRANCH  30  32
ENDBRANCH  12  30
ENDBRANCH  10  12
ENDBRANCH   1  10
BRANCH   5  34
ATOM     34  C   UNL     1      -1.270  11.215  -1.561  1.00  0.00     0.242 C 
ATOM     35  O   UNL     1      -1.606  11.976  -2.468  1.00  0.00    -0.273 OA
ATOM     36  N   UNL     1      -1.545  11.476  -0.237  1.00  0.00    -0.354 N 
ATOM     37  H   UNL     1      -1.137  10.872   0.478  1.00  0.00     0.163 HD
BRANCH  36  38
ATOM     38  C   UNL     1      -2.473  12.511   0.170  1.00  0.00     0.116 C 
BRANCH  38  39
ATOM     39  C   UNL     1      -2.131  12.988   1.580  1.00  0.00     0.023 C 
BRANCH  39  40
ATOM     40  C   UNL     1      -2.367  14.483   1.763  1.00  0.00     0.026 C 
BRANCH  40  41
ATOM     41  C   UNL     1      -2.372  14.854   3.246  1.00  0.00     0.146 C 
BRANCH  41  42
ATOM     42  N   UNL     1      -3.275  13.970   3.971  1.00  0.00    -0.254 NA
ATOM     43  C   UNL     1      -2.979  13.600   5.160  1.00  0.00     0.185 C 
ATOM     44  N   UNL     1      -1.909  13.900   5.919  1.00  0.00    -0.370 N 
ATOM     45  N   UNL     1      -3.823  12.782   5.810  1.00  0.00    -0.370 N 
ATOM     46  H   UNL     1      -1.686  13.350   6.731  1.00  0.00     0.159 HD
ATOM     47  H   UNL     1      -1.177  14.519   5.586  1.00  0.00     0.159 HD
ATOM     48  H   UNL     1      -4.661  12.514   5.312  1.00  0.00     0.159 HD
ATOM     49  H   UNL     1      -3.787  12.641   6.804  1.00  0.00     0.159 HD
ENDBRANCH  41  42
ENDBRANCH  40  41
ENDBRANCH  39  40
ENDBRANCH  38  39
ENDBRANCH  36  38
ENDBRANCH   5  34
BRANCH   8  50
ATOM     50  O   UNL     1      -0.451  10.138   2.990  1.00  0.00    -0.245 OA
BRANCH  50  51
ATOM     51  S   UNL     1      -0.397  10.983   4.379  1.00  0.00     0.397 S 
ATOM     52  O   UNL     1      -1.627  10.739   5.098  1.00  0.00    -0.169 OA
ATOM     53  O   UNL     1       0.073  12.327   4.112  1.00  0.00    -0.169 OA
BRANCH  51  54
ATOM     54  O   UNL     1       0.750  10.210   5.198  1.00  0.00    -0.264 OA
ATOM     55  H   UNL     1       0.382   9.350   5.489  1.00  0.00     0.236 HD
ENDBRANCH  51  54
ENDBRANCH  50  51
ENDBRANCH   8  50
TORSDOF 19
ENDMDL
MODEL 18
REMARK VINA RESULT:    -7.580     12.771     19.024
REMARK INTER + INTRA:         -18.341
REMARK INTER:                 -15.458
REMARK INTRA:                  -2.883
REMARK UNBOUND:                -3.005
REMARK SMILES CC[C@@H](C)[C@@H](NC(=O)[C@@H](O)Cc1ccc(O)c(Cl)c1)C(=O)N1[C@H](C(=O)NCCCCN=C(N)N)C[C@H]2CC[C@H](OS(=O)(=O)O)C[C@@H]21
REMARK SMILES IDX 22 1 36 2 46 3 35 4 23 5 45 6 37 7 39 8 38 9 20 10 21 11
REMARK SMILES IDX 5 12 6 13 7 14 8 15 9 17 11 18 12 19 17 20 19 21 15 22 14 23
REMARK SMILES IDX 13 24 18 25 16 26 10 28 3 30 4 31 2 32 1 33 24 34 25 35
REMARK SMILES IDX 26 36 27 38 28 39 29 40 30 41 31 42 32 43 33 44 34 45 40 50
REMARK SMILES IDX 41 51 42 52 43 53 44 54
REMARK H PARENT 6 16 16 27 10 29 26 37 33 46 33 47 34 48 34 49 44 55
ROOT
ATOM      1  N   UNL     1       1.870   2.957  11.051  1.00  0.00    -0.326 N 
ATOM      2  C   UNL     1      -0.346   3.060  10.260  1.00  0.00     0.014 C 
ATOM      3  C   UNL     1       0.963   2.278  10.120  1.00  0.00     0.091 C 
ATOM      4  C   UNL     1       0.138   4.482  10.500  1.00  0.00     0.041 C 
ATOM      5  C   UNL     1       1.255   4.221  11.527  1.00  0.00     0.175 C 
ATOM      6  C   UNL     1       0.668   0.797  10.348  1.00  0.00     0.059 C 
ATOM      7  C   UNL     1      -1.274   2.777   9.096  1.00  0.00     0.008 C 
ATOM      8  C   UNL     1      -0.743   0.367   9.889  1.00  0.00     0.143 C 
ATOM      9  C   UNL     1      -1.286   1.270   8.764  1.00  0.00     0.034 C 
ENDROOT
BRANCH   1  10
ATOM     10  C   UNL     1       3.200   2.704  11.338  1.00  0.00     0.246 C 
ATOM     11  O   UNL     1       3.496   2.213  12.433  1.00  0.00    -0.272 OA
BRANCH  10  12
ATOM     12  C   UNL     1       4.287   3.000  10.264  1.00  0.00     0.174 C 
BRANCH  12  13
ATOM     13  N   UNL     1       3.961   4.235   9.552  1.00  0.00    -0.342 N 
ATOM     14  C   UNL     1       4.345   5.498   9.944  1.00  0.00     0.249 C 
ATOM     15  O   UNL     1       5.036   5.726  10.929  1.00  0.00    -0.272 OA
ATOM     16  H   UNL     1       3.267   4.220   8.809  1.00  0.00     0.164 HD
BRANCH  14  17
ATOM     17  C   UNL     1       3.830   6.599   8.993  1.00  0.00     0.207 C 
BRANCH  17  18
ATOM     18  C   UNL     1       5.004   7.339   8.344  1.00  0.00     0.077 C 
BRANCH  18  19
ATOM     19  C   UNL     1       5.089   7.065   6.859  1.00  0.00    -0.043 A 
ATOM     20  C   UNL     1       4.707   7.759   4.567  1.00  0.00     0.083 A 
ATOM     21  C   UNL     1       4.672   8.034   5.934  1.00  0.00     0.028 A 
ATOM     22  C   UNL     1       5.155   6.517   4.115  1.00  0.00     0.134 A 
ATOM     23  C   UNL     1       5.571   5.547   5.021  1.00  0.00     0.048 A 
ATOM     24  C   UNL     1       5.536   5.819   6.390  1.00  0.00     0.008 A 
ATOM     25  Cl  UNL     1       4.190   8.963   3.445  1.00  0.00    -0.080 Cl
BRANCH  22  26
ATOM     26  O   UNL     1       5.196   6.197   2.785  1.00  0.00    -0.506 OA
ATOM     27  H   UNL     1       4.526   5.504   2.643  1.00  0.00     0.293 HD
ENDBRANCH  22  26
ENDBRANCH  18  19
ENDBRANCH  17  18
BRANCH  17  28
ATOM     28  O   UNL     1       3.001   7.541   9.693  1.00  0.00    -0.383 OA
ATOM     29  H   UNL     1       3.572   8.321   9.877  1.00  0.00     0.211 HD
ENDBRANCH  17  28
ENDBRANCH  14  17
ENDBRANCH  12  13
BRANCH  12  30
ATOM     30  C   UNL     1       4.520   1.805   9.301  1.00  0.00     0.018 C 
ATOM     31  C   UNL     1       4.261   0.469  10.015  1.00  0.00     0.010 C 
BRANCH  30  32
ATOM     32  C   UNL     1       5.925   1.797   8.651  1.00  0.00     0.002 C 
ATOM     33  C   UNL     1       6.726   0.517   8.848  1.00  0.00     0.004 C 
ENDBRANCH  30  32
ENDBRANCH  12  30
ENDBRANCH  10  12
ENDBRANCH   1  10
BRANCH   5  34
ATOM     34  C   UNL     1       0.685   4.049  12.960  1.00  0.00     0.242 C 
ATOM     35  O   UNL     1       0.983   4.809  13.882  1.00  0.00    -0.273 OA
ATOM     36  N   UNL     1      -0.133   2.956  13.138  1.00  0.00    -0.354 N 
ATOM     37  H   UNL     1      -0.246   2.296  12.368  1.00  0.00     0.163 HD
BRANCH  36  38
ATOM     38  C   UNL     1      -0.917   2.765  14.341  1.00  0.00     0.116 C 
BRANCH  38  39
ATOM     39  C   UNL     1      -2.376   2.505  13.973  1.00  0.00     0.023 C 
BRANCH  39  40
ATOM     40  C   UNL     1      -2.770   3.162  12.654  1.00  0.00     0.026 C 
BRANCH  40  41
ATOM     41  C   UNL     1      -3.518   4.471  12.903  1.00  0.00     0.146 C 
BRANCH  41  42
ATOM     42  N   UNL     1      -2.847   5.562  12.208  1.00  0.00    -0.254 NA
ATOM     43  C   UNL     1      -2.078   6.351  12.861  1.00  0.00     0.185 C 
ATOM     44  N   UNL     1      -1.753   6.357  14.166  1.00  0.00    -0.370 N 
ATOM     45  N   UNL     1      -1.472   7.352  12.203  1.00  0.00    -0.370 N 
ATOM     46  H   UNL     1      -1.339   7.171  14.588  1.00  0.00     0.159 HD
ATOM     47  H   UNL     1      -2.113   5.659  14.809  1.00  0.00     0.159 HD
ATOM     48  H   UNL     1      -1.657   7.414  11.211  1.00  0.00     0.159 HD
ATOM     49  H   UNL     1      -0.688   7.855  12.580  1.00  0.00     0.159 HD
ENDBRANCH  41  42
ENDBRANCH  40  41
ENDBRANCH  39  40
ENDBRANCH  38  39
ENDBRANCH  36  38
ENDBRANCH   5  34
BRANCH   8  50
ATOM     50  O   UNL     1      -1.652   0.416  10.989  1.00  0.00    -0.245 OA
BRANCH  50  51
ATOM     51  S   UNL     1      -2.630  -0.850  11.280  1.00  0.00     0.397 S 
ATOM     52  O   UNL     1      -1.816  -1.937  11.778  1.00  0.00    -0.169 OA
ATOM     53  O   UNL     1      -3.538  -1.030  10.167  1.00  0.00    -0.169 OA
BRANCH  51  54
ATOM     54  O   UNL     1      -3.485  -0.332  12.539  1.00  0.00    -0.264 OA
ATOM     55  H   UNL     1      -2.925   0.293  13.043  1.00  0.00     0.236 HD
ENDBRANCH  51  54
ENDBRANCH  50  51
ENDBRANCH   8  50
TORSDOF 19
ENDMDL
MODEL 19
REMARK VINA RESULT:    -7.577      4.596     11.203
REMARK INTER + INTRA:         -18.335
REMARK INTER:                 -15.924
REMARK INTRA:                  -2.410
REMARK UNBOUND:                -3.005
REMARK SMILES CC[C@@H](C)[C@@H](NC(=O)[C@@H](O)Cc1ccc(O)c(Cl)c1)C(=O)N1[C@H](C(=O)NCCCCN=C(N)N)C[C@H]2CC[C@H](OS(=O)(=O)O)C[C@@H]21
REMARK SMILES IDX 22 1 36 2 46 3 35 4 23 5 45 6 37 7 39 8 38 9 20 10 21 11
REMARK SMILES IDX 5 12 6 13 7 14 8 15 9 17 11 18 12 19 17 20 19 21 15 22 14 23
REMARK SMILES IDX 13 24 18 25 16 26 10 28 3 30 4 31 2 32 1 33 24 34 25 35
REMARK SMILES IDX 26 36 27 38 28 39 29 40 30 41 31 42 32 43 33 44 34 45 40 50
REMARK SMILES IDX 41 51 42 52 43 53 44 54
REMARK H PARENT 6 16 16 27 10 29 26 37 33 46 33 47 34 48 34 49 44 55
ROOT
ATOM      1  N   UNL     1       1.046  10.387  -0.425  1.00  0.00    -0.326 N 
ATOM      2  C   UNL     1      -0.671   9.255   0.720  1.00  0.00     0.014 C 
ATOM      3  C   UNL     1       0.844   9.479   0.707  1.00  0.00     0.091 C 
ATOM      4  C   UNL     1      -1.026   9.281  -0.758  1.00  0.00     0.041 C 
ATOM      5  C   UNL     1      -0.205  10.502  -1.214  1.00  0.00     0.175 C 
ATOM      6  C   UNL     1       1.275   9.946   2.096  1.00  0.00     0.059 C 
ATOM      7  C   UNL     1      -1.032   8.039   1.550  1.00  0.00     0.008 C 
ATOM      8  C   UNL     1       0.417   9.366   3.241  1.00  0.00     0.143 C 
ATOM      9  C   UNL     1      -0.218   8.013   2.861  1.00  0.00     0.034 C 
ENDROOT
BRANCH   1  10
ATOM     10  C   UNL     1       2.216  10.924  -0.935  1.00  0.00     0.246 C 
ATOM     11  O   UNL     1       3.296  10.600  -0.429  1.00  0.00    -0.272 OA
BRANCH  10  12
ATOM     12  C   UNL     1       2.151  11.886  -2.156  1.00  0.00     0.174 C 
BRANCH  12  13
ATOM     13  N   UNL     1       2.571  11.183  -3.368  1.00  0.00    -0.342 N 
ATOM     14  C   UNL     1       1.916  11.234  -4.578  1.00  0.00     0.249 C 
ATOM     15  O   UNL     1       0.912  11.904  -4.782  1.00  0.00    -0.272 OA
ATOM     16  H   UNL     1       3.293  10.469  -3.311  1.00  0.00     0.164 HD
BRANCH  14  17
ATOM     17  C   UNL     1       2.597  10.369  -5.660  1.00  0.00     0.207 C 
BRANCH  17  18
ATOM     18  C   UNL     1       4.118  10.540  -5.603  1.00  0.00     0.077 C 
BRANCH  18  19
ATOM     19  C   UNL     1       4.837   9.427  -6.333  1.00  0.00    -0.043 A 
ATOM     20  C   UNL     1       6.065   8.630  -8.267  1.00  0.00     0.083 A 
ATOM     21  C   UNL     1       5.446   9.671  -7.573  1.00  0.00     0.028 A 
ATOM     22  C   UNL     1       6.078   7.343  -7.728  1.00  0.00     0.134 A 
ATOM     23  C   UNL     1       5.479   7.088  -6.501  1.00  0.00     0.048 A 
ATOM     24  C   UNL     1       4.857   8.127  -5.805  1.00  0.00     0.008 A 
ATOM     25  Cl  UNL     1       6.808   8.950  -9.790  1.00  0.00    -0.080 Cl
BRANCH  22  26
ATOM     26  O   UNL     1       6.664   6.289  -8.376  1.00  0.00    -0.506 OA
ATOM     27  H   UNL     1       7.291   5.887  -7.747  1.00  0.00     0.293 HD
ENDBRANCH  22  26
ENDBRANCH  18  19
ENDBRANCH  17  18
BRANCH  17  28
ATOM     28  O   UNL     1       2.127  10.717  -6.972  1.00  0.00    -0.383 OA
ATOM     29  H   UNL     1       2.748  11.401  -7.311  1.00  0.00     0.211 HD
ENDBRANCH  17  28
ENDBRANCH  14  17
ENDBRANCH  12  13
BRANCH  12  30
ATOM     30  C   UNL     1       2.945  13.200  -1.928  1.00  0.00     0.018 C 
ATOM     31  C   UNL     1       4.384  13.067  -2.451  1.00  0.00     0.010 C 
BRANCH  30  32
ATOM     32  C   UNL     1       2.957  13.671  -0.453  1.00  0.00     0.002 C 
ATOM     33  C   UNL     1       4.339  13.867   0.157  1.00  0.00     0.004 C 
ENDBRANCH  30  32
ENDBRANCH  12  30
ENDBRANCH  10  12
ENDBRANCH   1  10
BRANCH   5  34
ATOM     34  C   UNL     1      -0.936  11.834  -0.895  1.00  0.00     0.242 C 
ATOM     35  O   UNL     1      -1.964  12.176  -1.480  1.00  0.00    -0.273 OA
ATOM     36  N   UNL     1      -0.322  12.627   0.048  1.00  0.00    -0.354 N 
ATOM     37  H   UNL     1       0.590  12.345   0.409  1.00  0.00     0.163 HD
BRANCH  36  38
ATOM     38  C   UNL     1      -0.970  13.790   0.620  1.00  0.00     0.116 C 
BRANCH  38  39
ATOM     39  C   UNL     1      -0.986  13.678   2.142  1.00  0.00     0.023 C 
BRANCH  39  40
ATOM     40  C   UNL     1      -1.943  14.673   2.789  1.00  0.00     0.026 C 
BRANCH  40  41
ATOM     41  C   UNL     1      -3.241  14.777   1.987  1.00  0.00     0.146 C 
BRANCH  41  42
ATOM     42  N   UNL     1      -4.139  13.693   2.362  1.00  0.00    -0.254 NA
ATOM     43  C   UNL     1      -4.531  12.860   1.472  1.00  0.00     0.185 C 
ATOM     44  N   UNL     1      -4.244  12.797   0.159  1.00  0.00    -0.370 N 
ATOM     45  N   UNL     1      -5.363  11.871   1.837  1.00  0.00    -0.370 N 
ATOM     46  H   UNL     1      -4.808  12.244  -0.463  1.00  0.00     0.159 HD
ATOM     47  H   UNL     1      -3.617  13.463  -0.282  1.00  0.00     0.159 HD
ATOM     48  H   UNL     1      -5.624  11.841   2.813  1.00  0.00     0.159 HD
ATOM     49  H   UNL     1      -5.522  11.057   1.269  1.00  0.00     0.159 HD
ENDBRANCH  41  42
ENDBRANCH  40  41
ENDBRANCH  39  40
ENDBRANCH  38  39
ENDBRANCH  36  38
ENDBRANCH   5  34
BRANCH   8  50
ATOM     50  O   UNL     1      -0.628  10.278   3.580  1.00  0.00    -0.245 OA
BRANCH  50  51
ATOM     51  S   UNL     1      -0.938  10.599   5.144  1.00  0.00     0.397 S 
ATOM     52  O   UNL     1      -1.821   9.570   5.645  1.00  0.00    -0.169 OA
ATOM     53  O   UNL     1      -1.246  12.006   5.300  1.00  0.00    -0.169 OA
BRANCH  51  54
ATOM     54  O   UNL     1       0.489  10.325   5.832  1.00  0.00    -0.264 OA
ATOM     55  H   UNL     1       0.658  11.049   6.468  1.00  0.00     0.236 HD
ENDBRANCH  51  54
ENDBRANCH  50  51
ENDBRANCH   8  50
TORSDOF 19
ENDMDL
MODEL 20
REMARK VINA RESULT:    -7.546      4.423     10.523
REMARK INTER + INTRA:         -18.271
REMARK INTER:                 -14.962
REMARK INTRA:                  -3.309
REMARK UNBOUND:                -3.005
REMARK SMILES CC[C@@H](C)[C@@H](NC(=O)[C@@H](O)Cc1ccc(O)c(Cl)c1)C(=O)N1[C@H](C(=O)NCCCCN=C(N)N)C[C@H]2CC[C@H](OS(=O)(=O)O)C[C@@H]21
REMARK SMILES IDX 22 1 36 2 46 3 35 4 23 5 45 6 37 7 39 8 38 9 20 10 21 11
REMARK SMILES IDX 5 12 6 13 7 14 8 15 9 17 11 18 12 19 17 20 19 21 15 22 14 23
REMARK SMILES IDX 13 24 18 25 16 26 10 28 3 30 4 31 2 32 1 33 24 34 25 35
REMARK SMILES IDX 26 36 27 38 28 39 29 40 30 41 31 42 32 43 33 44 34 45 40 50
REMARK SMILES IDX 41 51 42 52 43 53 44 54
REMARK H PARENT 6 16 16 27 10 29 26 37 33 46 33 47 34 48 34 49 44 55
ROOT
ATOM      1  N   UNL     1       1.026  11.884  -1.849  1.00  0.00    -0.326 N 
ATOM      2  C   UNL     1      -0.178   9.910  -1.407  1.00  0.00     0.014 C 
ATOM      3  C   UNL     1       1.242  10.478  -1.493  1.00  0.00     0.091 C 
ATOM      4  C   UNL     1      -0.913  10.680  -2.493  1.00  0.00     0.041 C 
ATOM      5  C   UNL     1      -0.394  12.103  -2.217  1.00  0.00     0.175 C 
ATOM      6  C   UNL     1       1.968  10.164  -0.187  1.00  0.00     0.059 C 
ATOM      7  C   UNL     1      -0.158   8.394  -1.454  1.00  0.00     0.008 C 
ATOM      8  C   UNL     1       1.519   8.842   0.471  1.00  0.00     0.143 C 
ATOM      9  C   UNL     1       0.971   7.837  -0.562  1.00  0.00     0.034 C 
ENDROOT
BRANCH   1  10
ATOM     10  C   UNL     1       1.947  12.892  -2.082  1.00  0.00     0.246 C 
ATOM     11  O   UNL     1       2.184  13.708  -1.185  1.00  0.00    -0.272 OA
BRANCH  10  12
ATOM     12  C   UNL     1       2.691  12.950  -3.447  1.00  0.00     0.174 C 
BRANCH  12  13
ATOM     13  N   UNL     1       2.944  11.594  -3.935  1.00  0.00    -0.342 N 
ATOM     14  C   UNL     1       2.309  11.010  -5.008  1.00  0.00     0.249 C 
ATOM     15  O   UNL     1       1.471  11.578  -5.697  1.00  0.00    -0.272 OA
ATOM     16  H   UNL     1       3.495  10.951  -3.373  1.00  0.00     0.164 HD
BRANCH  14  17
ATOM     17  C   UNL     1       2.782   9.563  -5.264  1.00  0.00     0.207 C 
BRANCH  17  18
ATOM     18  C   UNL     1       3.486   9.462  -6.620  1.00  0.00     0.077 C 
BRANCH  18  19
ATOM     19  C   UNL     1       4.777  10.250  -6.643  1.00  0.00    -0.043 A 
ATOM     20  C   UNL     1       6.136  12.031  -7.572  1.00  0.00     0.083 A 
ATOM     21  C   UNL     1       4.927  11.337  -7.518  1.00  0.00     0.028 A 
ATOM     22  C   UNL     1       7.200  11.645  -6.756  1.00  0.00     0.134 A 
ATOM     23  C   UNL     1       7.065  10.571  -5.884  1.00  0.00     0.048 A 
ATOM     24  C   UNL     1       5.856   9.873  -5.829  1.00  0.00     0.008 A 
ATOM     25  Cl  UNL     1       6.302  13.363  -8.655  1.00  0.00    -0.080 Cl
BRANCH  22  26
ATOM     26  O   UNL     1       8.408  12.288  -6.781  1.00  0.00    -0.506 OA
ATOM     27  H   UNL     1       8.344  13.029  -6.150  1.00  0.00     0.293 HD
ENDBRANCH  22  26
ENDBRANCH  18  19
ENDBRANCH  17  18
BRANCH  17  28
ATOM     28  O   UNL     1       1.677   8.644  -5.231  1.00  0.00    -0.383 OA
ATOM     29  H   UNL     1       1.884   7.947  -5.894  1.00  0.00     0.211 HD
ENDBRANCH  17  28
ENDBRANCH  14  17
ENDBRANCH  12  13
BRANCH  12  30
ATOM     30  C   UNL     1       3.983  13.809  -3.390  1.00  0.00     0.018 C 
ATOM     31  C   UNL     1       4.413  14.245  -4.799  1.00  0.00     0.010 C 
BRANCH  30  32
ATOM     32  C   UNL     1       5.161  13.112  -2.666  1.00  0.00     0.002 C 
ATOM     33  C   UNL     1       6.494  13.155  -3.402  1.00  0.00     0.004 C 
ENDBRANCH  30  32
ENDBRANCH  12  30
ENDBRANCH  10  12
ENDBRANCH   1  10
BRANCH   5  34
ATOM     34  C   UNL     1      -1.167  12.778  -1.052  1.00  0.00     0.242 C 
ATOM     35  O   UNL     1      -2.397  12.807  -1.008  1.00  0.00    -0.273 OA
ATOM     36  N   UNL     1      -0.378  13.387  -0.102  1.00  0.00    -0.354 N 
ATOM     37  H   UNL     1       0.630  13.434  -0.256  1.00  0.00     0.163 HD
BRANCH  36  38
ATOM     38  C   UNL     1      -0.915  13.873   1.152  1.00  0.00     0.116 C 
BRANCH  38  39
ATOM     39  C   UNL     1      -0.862  12.766   2.202  1.00  0.00     0.023 C 
BRANCH  39  40
ATOM     40  C   UNL     1      -1.420  13.213   3.549  1.00  0.00     0.026 C 
BRANCH  40  41
ATOM     41  C   UNL     1      -2.841  13.754   3.395  1.00  0.00     0.146 C 
BRANCH  41  42
ATOM     42  N   UNL     1      -3.657  12.792   2.665  1.00  0.00    -0.254 NA
ATOM     43  C   UNL     1      -4.312  13.173   1.633  1.00  0.00     0.185 C 
ATOM     44  N   UNL     1      -4.389  14.385   1.055  1.00  0.00    -0.370 N 
ATOM     45  N   UNL     1      -5.062  12.272   0.976  1.00  0.00    -0.370 N 
ATOM     46  H   UNL     1      -5.125  14.597   0.403  1.00  0.00     0.159 HD
ATOM     47  H   UNL     1      -3.871  15.181   1.415  1.00  0.00     0.159 HD
ATOM     48  H   UNL     1      -5.053  11.330   1.342  1.00  0.00     0.159 HD
ATOM     49  H   UNL     1      -5.405  12.426   0.045  1.00  0.00     0.159 HD
ENDBRANCH  41  42
ENDBRANCH  40  41
ENDBRANCH  39  40
ENDBRANCH  38  39
ENDBRANCH  36  38
ENDBRANCH   5  34
BRANCH   8  50
ATOM     50  O   UNL     1       0.501   9.096   1.440  1.00  0.00    -0.245 OA
BRANCH  50  51
ATOM     51  S   UNL     1       0.698   8.575   2.968  1.00  0.00     0.397 S 
ATOM     52  O   UNL     1      -0.166   9.359   3.822  1.00  0.00    -0.169 OA
ATOM     53  O   UNL     1       2.110   8.422   3.251  1.00  0.00    -0.169 OA
BRANCH  51  54
ATOM     54  O   UNL     1       0.042   7.108   2.910  1.00  0.00    -0.264 OA
ATOM     55  H   UNL     1      -0.455   6.971   3.742  1.00  0.00     0.236 HD
ENDBRANCH  51  54
ENDBRANCH  50  51
ENDBRANCH   8  50
TORSDOF 19
ENDMDL
MODEL 21
REMARK VINA RESULT:    -7.511      6.726     10.802
REMARK INTER + INTRA:         -18.200
REMARK INTER:                 -16.019
REMARK INTRA:                  -2.182
REMARK UNBOUND:                -3.005
REMARK SMILES CC[C@@H](C)[C@@H](NC(=O)[C@@H](O)Cc1ccc(O)c(Cl)c1)C(=O)N1[C@H](C(=O)NCCCCN=C(N)N)C[C@H]2CC[C@H](OS(=O)(=O)O)C[C@@H]21
REMARK SMILES IDX 22 1 36 2 46 3 35 4 23 5 45 6 37 7 39 8 38 9 20 10 21 11
REMARK SMILES IDX 5 12 6 13 7 14 8 15 9 17 11 18 12 19 17 20 19 21 15 22 14 23
REMARK SMILES IDX 13 24 18 25 16 26 10 28 3 30 4 31 2 32 1 33 24 34 25 35
REMARK SMILES IDX 26 36 27 38 28 39 29 40 30 41 31 42 32 43 33 44 34 45 40 50
REMARK SMILES IDX 41 51 42 52 43 53 44 54
REMARK H PARENT 6 16 16 27 10 29 26 37 33 46 33 47 34 48 34 49 44 55
ROOT
ATOM      1  N   UNL     1       1.167   9.616   2.094  1.00  0.00    -0.326 N 
ATOM      2  C   UNL     1      -0.793   9.316   3.362  1.00  0.00     0.014 C 
ATOM      3  C   UNL     1       0.357  10.294   3.109  1.00  0.00     0.091 C 
ATOM      4  C   UNL     1      -0.121   7.960   3.202  1.00  0.00     0.041 C 
ATOM      5  C   UNL     1       0.705   8.215   1.928  1.00  0.00     0.175 C 
ATOM      6  C   UNL     1      -0.237  11.660   2.769  1.00  0.00     0.059 C 
ATOM      7  C   UNL     1      -1.508   9.642   4.659  1.00  0.00     0.008 C 
ATOM      8  C   UNL     1      -1.582  11.945   3.471  1.00  0.00     0.143 C 
ATOM      9  C   UNL     1      -1.722  11.164   4.794  1.00  0.00     0.034 C 
ENDROOT
BRANCH   1  10
ATOM     10  C   UNL     1       2.347  10.013   1.488  1.00  0.00     0.246 C 
ATOM     11  O   UNL     1       2.345  10.277   0.281  1.00  0.00    -0.272 OA
BRANCH  10  12
ATOM     12  C   UNL     1       3.638  10.159   2.346  1.00  0.00     0.174 C 
BRANCH  12  13
ATOM     13  N   UNL     1       3.951   8.888   2.997  1.00  0.00    -0.342 N 
ATOM     14  C   UNL     1       5.221   8.401   3.210  1.00  0.00     0.249 C 
ATOM     15  O   UNL     1       6.242   9.000   2.899  1.00  0.00    -0.272 OA
ATOM     16  H   UNL     1       3.209   8.213   3.167  1.00  0.00     0.164 HD
BRANCH  14  17
ATOM     17  C   UNL     1       5.222   7.023   3.905  1.00  0.00     0.207 C 
BRANCH  17  18
ATOM     18  C   UNL     1       6.544   6.796   4.645  1.00  0.00     0.077 C 
BRANCH  18  19
ATOM     19  C   UNL     1       6.435   5.686   5.665  1.00  0.00    -0.043 A 
ATOM     20  C   UNL     1       5.080   4.145   6.959  1.00  0.00     0.083 A 
ATOM     21  C   UNL     1       5.183   5.135   5.981  1.00  0.00     0.028 A 
ATOM     22  C   UNL     1       6.222   3.701   7.626  1.00  0.00     0.134 A 
ATOM     23  C   UNL     1       7.468   4.237   7.323  1.00  0.00     0.048 A 
ATOM     24  C   UNL     1       7.574   5.230   6.346  1.00  0.00     0.008 A 
ATOM     25  Cl  UNL     1       3.533   3.481   7.334  1.00  0.00    -0.080 Cl
BRANCH  22  26
ATOM     26  O   UNL     1       6.169   2.740   8.599  1.00  0.00    -0.506 OA
ATOM     27  H   UNL     1       6.796   2.040   8.337  1.00  0.00     0.293 HD
ENDBRANCH  22  26
ENDBRANCH  18  19
ENDBRANCH  17  18
BRANCH  17  28
ATOM     28  O   UNL     1       5.019   5.964   2.956  1.00  0.00    -0.383 OA
ATOM     29  H   UNL     1       4.051   5.940   2.777  1.00  0.00     0.211 HD
ENDBRANCH  17  28
ENDBRANCH  14  17
ENDBRANCH  12  13
BRANCH  12  30
ATOM     30  C   UNL     1       3.557  11.337   3.355  1.00  0.00     0.018 C 
ATOM     31  C   UNL     1       4.707  12.330   3.127  1.00  0.00     0.010 C 
BRANCH  30  32
ATOM     32  C   UNL     1       3.528  10.886   4.835  1.00  0.00     0.002 C 
ATOM     33  C   UNL     1       2.437  11.521   5.688  1.00  0.00     0.004 C 
ENDBRANCH  30  32
ENDBRANCH  12  30
ENDBRANCH  10  12
ENDBRANCH   1  10
BRANCH   5  34
ATOM     34  C   UNL     1      -0.159   8.069   0.647  1.00  0.00     0.242 C 
ATOM     35  O   UNL     1      -1.384   8.185   0.663  1.00  0.00    -0.273 OA
ATOM     36  N   UNL     1       0.538   7.747  -0.496  1.00  0.00    -0.354 N 
ATOM     37  H   UNL     1       1.536   7.546  -0.423  1.00  0.00     0.163 HD
BRANCH  36  38
ATOM     38  C   UNL     1      -0.071   7.784  -1.810  1.00  0.00     0.116 C 
BRANCH  38  39
ATOM     39  C   UNL     1       0.215   9.127  -2.476  1.00  0.00     0.023 C 
BRANCH  39  40
ATOM     40  C   UNL     1      -1.061   9.883  -2.834  1.00  0.00     0.026 C 
BRANCH  40  41
ATOM     41  C   UNL     1      -0.978  10.443  -4.254  1.00  0.00     0.146 C 
BRANCH  41  42
ATOM     42  N   UNL     1      -0.199  11.675  -4.253  1.00  0.00    -0.254 NA
ATOM     43  C   UNL     1       0.826  11.776  -5.012  1.00  0.00     0.185 C 
ATOM     44  N   UNL     1       1.355  10.890  -5.875  1.00  0.00    -0.370 N 
ATOM     45  N   UNL     1       1.533  12.919  -4.992  1.00  0.00    -0.370 N 
ATOM     46  H   UNL     1       2.293  11.007  -6.220  1.00  0.00     0.159 HD
ATOM     47  H   UNL     1       0.937   9.977  -6.025  1.00  0.00     0.159 HD
ATOM     48  H   UNL     1       1.196  13.644  -4.374  1.00  0.00     0.159 HD
ATOM     49  H   UNL     1       2.190  13.164  -5.712  1.00  0.00     0.159 HD
ENDBRANCH  41  42
ENDBRANCH  40  41
ENDBRANCH  39  40
ENDBRANCH  38  39
ENDBRANCH  36  38
ENDBRANCH   5  34
BRANCH   8  50
ATOM     50  O   UNL     1      -2.667  11.587   2.616  1.00  0.00    -0.245 OA
BRANCH  50  51
ATOM     51  S   UNL     1      -3.574  12.754   1.937  1.00  0.00     0.397 S 
ATOM     52  O   UNL     1      -2.959  13.124   0.683  1.00  0.00    -0.169 OA
ATOM     53  O   UNL     1      -3.919  13.744   2.936  1.00  0.00    -0.169 OA
BRANCH  51  54
ATOM     54  O   UNL     1      -4.914  11.955   1.549  1.00  0.00    -0.264 OA
ATOM     55  H   UNL     1      -4.677  11.012   1.435  1.00  0.00     0.236 HD
ENDBRANCH  51  54
ENDBRANCH  50  51
ENDBRANCH   8  50
TORSDOF 19
ENDMDL
MODEL 22
REMARK VINA RESULT:    -7.493      5.044     10.625
REMARK INTER + INTRA:         -18.165
REMARK INTER:                 -14.703
REMARK INTRA:                  -3.461
REMARK UNBOUND:                -3.005
REMARK SMILES CC[C@@H](C)[C@@H](NC(=O)[C@@H](O)Cc1ccc(O)c(Cl)c1)C(=O)N1[C@H](C(=O)NCCCCN=C(N)N)C[C@H]2CC[C@H](OS(=O)(=O)O)C[C@@H]21
REMARK SMILES IDX 22 1 36 2 46 3 35 4 23 5 45 6 37 7 39 8 38 9 20 10 21 11
REMARK SMILES IDX 5 12 6 13 7 14 8 15 9 17 11 18 12 19 17 20 19 21 15 22 14 23
REMARK SMILES IDX 13 24 18 25 16 26 10 28 3 30 4 31 2 32 1 33 24 34 25 35
REMARK SMILES IDX 26 36 27 38 28 39 29 40 30 41 31 42 32 43 33 44 34 45 40 50
REMARK SMILES IDX 41 51 42 52 43 53 44 54
REMARK H PARENT 6 16 16 27 10 29 26 37 33 46 33 47 34 48 34 49 44 55
ROOT
ATOM      1  N   UNL     1      -0.720  11.829   0.058  1.00  0.00    -0.326 N 
ATOM      2  C   UNL     1      -0.934  13.149   1.996  1.00  0.00     0.014 C 
ATOM      3  C   UNL     1      -1.126  11.726   1.463  1.00  0.00     0.091 C 
ATOM      4  C   UNL     1      -1.299  14.008   0.795  1.00  0.00     0.041 C 
ATOM      5  C   UNL     1      -0.549  13.254  -0.318  1.00  0.00     0.175 C 
ATOM      6  C   UNL     1      -0.361  10.764   2.370  1.00  0.00     0.059 C 
ATOM      7  C   UNL     1      -1.677  13.344   3.303  1.00  0.00     0.008 C 
ATOM      8  C   UNL     1      -0.294  11.219   3.843  1.00  0.00     0.143 C 
ATOM      9  C   UNL     1      -1.484  12.122   4.226  1.00  0.00     0.034 C 
ENDROOT
BRANCH   1  10
ATOM     10  C   UNL     1      -0.700  10.862  -0.933  1.00  0.00     0.246 C 
ATOM     11  O   UNL     1      -1.574  10.878  -1.805  1.00  0.00    -0.272 OA
BRANCH  10  12
ATOM     12  C   UNL     1       0.443   9.807  -0.951  1.00  0.00     0.174 C 
BRANCH  12  13
ATOM     13  N   UNL     1       0.813   9.496  -2.332  1.00  0.00    -0.342 N 
ATOM     14  C   UNL     1       1.699  10.222  -3.095  1.00  0.00     0.249 C 
ATOM     15  O   UNL     1       2.304  11.205  -2.688  1.00  0.00    -0.272 OA
ATOM     16  H   UNL     1       0.278   8.806  -2.853  1.00  0.00     0.164 HD
BRANCH  14  17
ATOM     17  C   UNL     1       1.865   9.650  -4.520  1.00  0.00     0.207 C 
BRANCH  17  18
ATOM     18  C   UNL     1       3.028  10.339  -5.241  1.00  0.00     0.077 C 
BRANCH  18  19
ATOM     19  C   UNL     1       3.875   9.352  -6.012  1.00  0.00    -0.043 A 
ATOM     20  C   UNL     1       4.928   8.650  -8.082  1.00  0.00     0.083 A 
ATOM     21  C   UNL     1       4.188   9.587  -7.360  1.00  0.00     0.028 A 
ATOM     22  C   UNL     1       5.358   7.475  -7.465  1.00  0.00     0.134 A 
ATOM     23  C   UNL     1       5.056   7.229  -6.130  1.00  0.00     0.048 A 
ATOM     24  C   UNL     1       4.314   8.164  -5.405  1.00  0.00     0.008 A 
ATOM     25  Cl  UNL     1       5.301   8.958  -9.737  1.00  0.00    -0.080 Cl
BRANCH  22  26
ATOM     26  O   UNL     1       6.077   6.523  -8.135  1.00  0.00    -0.506 OA
ATOM     27  H   UNL     1       6.873   6.345  -7.600  1.00  0.00     0.293 HD
ENDBRANCH  22  26
ENDBRANCH  18  19
ENDBRANCH  17  18
BRANCH  17  28
ATOM     28  O   UNL     1       0.662   9.817  -5.288  1.00  0.00    -0.383 OA
ATOM     29  H   UNL     1       0.715  10.716  -5.684  1.00  0.00     0.211 HD
ENDBRANCH  17  28
ENDBRANCH  14  17
ENDBRANCH  12  13
BRANCH  12  30
ATOM     30  C   UNL     1       0.100   8.535  -0.129  1.00  0.00     0.018 C 
ATOM     31  C   UNL     1       1.045   7.379  -0.491  1.00  0.00     0.010 C 
BRANCH  30  32
ATOM     32  C   UNL     1      -1.374   8.083  -0.272  1.00  0.00     0.002 C 
ATOM     33  C   UNL     1      -2.083   7.753   1.035  1.00  0.00     0.004 C 
ENDBRANCH  30  32
ENDBRANCH  12  30
ENDBRANCH  10  12
ENDBRANCH   1  10
BRANCH   5  34
ATOM     34  C   UNL     1       0.955  13.636  -0.355  1.00  0.00     0.242 C 
ATOM     35  O   UNL     1       1.350  14.713  -0.802  1.00  0.00    -0.273 OA
ATOM     36  N   UNL     1       1.818  12.663   0.098  1.00  0.00    -0.354 N 
ATOM     37  H   UNL     1       1.441  11.747   0.343  1.00  0.00     0.163 HD
BRANCH  36  38
ATOM     38  C   UNL     1       3.223  12.924   0.335  1.00  0.00     0.116 C 
BRANCH  38  39
ATOM     39  C   UNL     1       3.985  11.606   0.437  1.00  0.00     0.023 C 
BRANCH  39  40
ATOM     40  C   UNL     1       5.060  11.637   1.518  1.00  0.00     0.026 C 
BRANCH  40  41
ATOM     41  C   UNL     1       5.055  10.339   2.326  1.00  0.00     0.146 C 
BRANCH  41  42
ATOM     42  N   UNL     1       3.730  10.115   2.890  1.00  0.00    -0.254 NA
ATOM     43  C   UNL     1       3.397   8.942   3.279  1.00  0.00     0.185 C 
ATOM     44  N   UNL     1       4.098   7.794   3.263  1.00  0.00    -0.370 N 
ATOM     45  N   UNL     1       2.170   8.756   3.793  1.00  0.00    -0.370 N 
ATOM     46  H   UNL     1       3.634   6.908   3.371  1.00  0.00     0.159 HD
ATOM     47  H   UNL     1       5.053   7.757   2.919  1.00  0.00     0.159 HD
ATOM     48  H   UNL     1       1.579   9.574   3.849  1.00  0.00     0.159 HD
ATOM     49  H   UNL     1       1.922   7.943   4.328  1.00  0.00     0.159 HD
ENDBRANCH  41  42
ENDBRANCH  40  41
ENDBRANCH  39  40
ENDBRANCH  38  39
ENDBRANCH  36  38
ENDBRANCH   5  34
BRANCH   8  50
ATOM     50  O   UNL     1       0.916  11.939   4.080  1.00  0.00    -0.245 OA
BRANCH  50  51
ATOM     51  S   UNL     1       1.573  11.940   5.567  1.00  0.00     0.397 S 
ATOM     52  O   UNL     1       1.402  10.620   6.132  1.00  0.00    -0.169 OA
ATOM     53  O   UNL     1       1.160  13.131   6.281  1.00  0.00    -0.169 OA
BRANCH  51  54
ATOM     54  O   UNL     1       3.142  12.077   5.242  1.00  0.00    -0.264 OA
ATOM     55  H   UNL     1       3.541  12.647   5.930  1.00  0.00     0.236 HD
ENDBRANCH  51  54
ENDBRANCH  50  51
ENDBRANCH   8  50
TORSDOF 19
ENDMDL
MODEL 23
REMARK VINA RESULT:    -7.436      4.729      8.596
REMARK INTER + INTRA:         -18.048
REMARK INTER:                 -14.690
REMARK INTRA:                  -3.358
REMARK UNBOUND:                -3.005
REMARK SMILES CC[C@@H](C)[C@@H](NC(=O)[C@@H](O)Cc1ccc(O)c(Cl)c1)C(=O)N1[C@H](C(=O)NCCCCN=C(N)N)C[C@H]2CC[C@H](OS(=O)(=O)O)C[C@@H]21
REMARK SMILES IDX 22 1 36 2 46 3 35 4 23 5 45 6 37 7 39 8 38 9 20 10 21 11
REMARK SMILES IDX 5 12 6 13 7 14 8 15 9 17 11 18 12 19 17 20 19 21 15 22 14 23
REMARK SMILES IDX 13 24 18 25 16 26 10 28 3 30 4 31 2 32 1 33 24 34 25 35
REMARK SMILES IDX 26 36 27 38 28 39 29 40 30 41 31 42 32 43 33 44 34 45 40 50
REMARK SMILES IDX 41 51 42 52 43 53 44 54
REMARK H PARENT 6 16 16 27 10 29 26 37 33 46 33 47 34 48 34 49 44 55
ROOT
ATOM      1  N   UNL     1       0.636  10.987   1.245  1.00  0.00    -0.326 N 
ATOM      2  C   UNL     1       0.696   9.155  -0.232  1.00  0.00     0.014 C 
ATOM      3  C   UNL     1      -0.246  10.193   0.386  1.00  0.00     0.091 C 
ATOM      4  C   UNL     1       1.684   8.888   0.893  1.00  0.00     0.041 C 
ATOM      5  C   UNL     1       1.961  10.329   1.360  1.00  0.00     0.175 C 
ATOM      6  C   UNL     1      -0.989  10.903  -0.744  1.00  0.00     0.059 C 
ATOM      7  C   UNL     1      -0.085   7.999  -0.825  1.00  0.00     0.008 C 
ATOM      8  C   UNL     1      -1.247  10.010  -1.977  1.00  0.00     0.143 C 
ATOM      9  C   UNL     1      -1.313   8.515  -1.605  1.00  0.00     0.034 C 
ENDROOT
BRANCH   1  10
ATOM     10  C   UNL     1       0.342  12.059   2.071  1.00  0.00     0.246 C 
ATOM     11  O   UNL     1       0.271  13.192   1.583  1.00  0.00    -0.272 OA
BRANCH  10  12
ATOM     12  C   UNL     1       0.065  11.810   3.582  1.00  0.00     0.174 C 
BRANCH  12  13
ATOM     13  N   UNL     1       1.159  11.037   4.168  1.00  0.00    -0.342 N 
ATOM     14  C   UNL     1       1.939  11.448   5.226  1.00  0.00     0.249 C 
ATOM     15  O   UNL     1       1.781  12.509   5.817  1.00  0.00    -0.272 OA
ATOM     16  H   UNL     1       1.507  10.211   3.687  1.00  0.00     0.164 HD
BRANCH  14  17
ATOM     17  C   UNL     1       3.023  10.417   5.603  1.00  0.00     0.207 C 
BRANCH  17  18
ATOM     18  C   UNL     1       2.931   9.187   4.694  1.00  0.00     0.077 C 
BRANCH  18  19
ATOM     19  C   UNL     1       4.299   8.678   4.297  1.00  0.00    -0.043 A 
ATOM     20  C   UNL     1       6.067   7.029   4.492  1.00  0.00     0.083 A 
ATOM     21  C   UNL     1       4.786   7.471   4.822  1.00  0.00     0.028 A 
ATOM     22  C   UNL     1       6.870   7.789   3.639  1.00  0.00     0.134 A 
ATOM     23  C   UNL     1       6.400   8.986   3.112  1.00  0.00     0.048 A 
ATOM     24  C   UNL     1       5.118   9.432   3.442  1.00  0.00     0.008 A 
ATOM     25  Cl  UNL     1       6.648   5.543   5.147  1.00  0.00    -0.080 Cl
BRANCH  22  26
ATOM     26  O   UNL     1       8.137   7.402   3.296  1.00  0.00    -0.506 OA
ATOM     27  H   UNL     1       8.325   6.585   3.794  1.00  0.00     0.293 HD
ENDBRANCH  22  26
ENDBRANCH  18  19
ENDBRANCH  17  18
BRANCH  17  28
ATOM     28  O   UNL     1       2.894  10.007   6.974  1.00  0.00    -0.383 OA
ATOM     29  H   UNL     1       3.808   9.833   7.293  1.00  0.00     0.211 HD
ENDBRANCH  17  28
ENDBRANCH  14  17
ENDBRANCH  12  13
BRANCH  12  30
ATOM     30  C   UNL     1      -1.322  11.162   3.838  1.00  0.00     0.018 C 
ATOM     31  C   UNL     1      -2.209  12.087   4.687  1.00  0.00     0.010 C 
BRANCH  30  32
ATOM     32  C   UNL     1      -1.242   9.759   4.489  1.00  0.00     0.002 C 
ATOM     33  C   UNL     1      -0.897   8.620   3.539  1.00  0.00     0.004 C 
ENDBRANCH  30  32
ENDBRANCH  12  30
ENDBRANCH  10  12
ENDBRANCH   1  10
BRANCH   5  34
ATOM     34  C   UNL     1       3.005  11.033   0.452  1.00  0.00     0.242 C 
ATOM     35  O   UNL     1       4.159  10.621   0.335  1.00  0.00    -0.273 OA
ATOM     36  N   UNL     1       2.564  12.180  -0.168  1.00  0.00    -0.354 N 
ATOM     37  H   UNL     1       1.636  12.538   0.063  1.00  0.00     0.163 HD
BRANCH  36  38
ATOM     38  C   UNL     1       3.326  12.839  -1.208  1.00  0.00     0.116 C 
BRANCH  38  39
ATOM     39  C   UNL     1       2.565  12.772  -2.530  1.00  0.00     0.023 C 
BRANCH  39  40
ATOM     40  C   UNL     1       2.967  13.885  -3.492  1.00  0.00     0.026 C 
BRANCH  40  41
ATOM     41  C   UNL     1       2.679  13.482  -4.938  1.00  0.00     0.146 C 
BRANCH  41  42
ATOM     42  N   UNL     1       3.485  12.322  -5.296  1.00  0.00    -0.254 NA
ATOM     43  C   UNL     1       3.076  11.524  -6.209  1.00  0.00     0.185 C 
ATOM     44  N   UNL     1       1.956  11.563  -6.955  1.00  0.00    -0.370 N 
ATOM     45  N   UNL     1       3.831  10.458  -6.522  1.00  0.00    -0.370 N 
ATOM     46  H   UNL     1       1.645  10.748  -7.456  1.00  0.00     0.159 HD
ATOM     47  H   UNL     1       1.277  12.312  -6.858  1.00  0.00     0.159 HD
ATOM     48  H   UNL     1       4.699  10.359  -6.012  1.00  0.00     0.159 HD
ATOM     49  H   UNL     1       3.706   9.931  -7.367  1.00  0.00     0.159 HD
ENDBRANCH  41  42
ENDBRANCH  40  41
ENDBRANCH  39  40
ENDBRANCH  38  39
ENDBRANCH  36  38
ENDBRANCH   5  34
BRANCH   8  50
ATOM     50  O   UNL     1      -0.208  10.192  -2.940  1.00  0.00    -0.245 OA
BRANCH  50  51
ATOM     51  S   UNL     1      -0.581  10.720  -4.432  1.00  0.00     0.397 S 
ATOM     52  O   UNL     1       0.019  12.024  -4.607  1.00  0.00    -0.169 OA
ATOM     53  O   UNL     1      -1.987  10.490  -4.692  1.00  0.00    -0.169 OA
BRANCH  51  54
ATOM     54  O   UNL     1       0.265   9.720  -5.364  1.00  0.00    -0.264 OA
ATOM     55  H   UNL     1       0.063   8.805  -5.080  1.00  0.00     0.236 HD
ENDBRANCH  51  54
ENDBRANCH  50  51
ENDBRANCH   8  50
TORSDOF 19
ENDMDL
MODEL 24
REMARK VINA RESULT:    -7.398      7.363     10.893
REMARK INTER + INTRA:         -17.971
REMARK INTER:                 -12.814
REMARK INTRA:                  -5.157
REMARK UNBOUND:                -3.005
REMARK SMILES CC[C@@H](C)[C@@H](NC(=O)[C@@H](O)Cc1ccc(O)c(Cl)c1)C(=O)N1[C@H](C(=O)NCCCCN=C(N)N)C[C@H]2CC[C@H](OS(=O)(=O)O)C[C@@H]21
REMARK SMILES IDX 22 1 36 2 46 3 35 4 23 5 45 6 37 7 39 8 38 9 20 10 21 11
REMARK SMILES IDX 5 12 6 13 7 14 8 15 9 17 11 18 12 19 17 20 19 21 15 22 14 23
REMARK SMILES IDX 13 24 18 25 16 26 10 28 3 30 4 31 2 32 1 33 24 34 25 35
REMARK SMILES IDX 26 36 27 38 28 39 29 40 30 41 31 42 32 43 33 44 34 45 40 50
REMARK SMILES IDX 41 51 42 52 43 53 44 54
REMARK H PARENT 6 16 16 27 10 29 26 37 33 46 33 47 34 48 34 49 44 55
ROOT
ATOM      1  N   UNL     1      -1.168  11.824   0.561  1.00  0.00    -0.326 N 
ATOM      2  C   UNL     1      -1.639  13.461   2.186  1.00  0.00     0.014 C 
ATOM      3  C   UNL     1      -1.914  12.002   1.811  1.00  0.00     0.091 C 
ATOM      4  C   UNL     1      -1.564  14.147   0.831  1.00  0.00     0.041 C 
ATOM      5  C   UNL     1      -0.692  13.138   0.062  1.00  0.00     0.175 C 
ATOM      6  C   UNL     1      -1.550  11.120   3.003  1.00  0.00     0.059 C 
ATOM      7  C   UNL     1      -2.639  13.954   3.214  1.00  0.00     0.008 C 
ATOM      8  C   UNL     1      -1.774  11.801   4.371  1.00  0.00     0.143 C 
ATOM      9  C   UNL     1      -2.867  12.887   4.306  1.00  0.00     0.034 C 
ENDROOT
BRANCH   1  10
ATOM     10  C   UNL     1      -1.057  10.711  -0.255  1.00  0.00     0.246 C 
ATOM     11  O   UNL     1      -1.615  10.717  -1.357  1.00  0.00    -0.272 OA
BRANCH  10  12
ATOM     12  C   UNL     1      -0.199   9.500   0.212  1.00  0.00     0.174 C 
BRANCH  12  13
ATOM     13  N   UNL     1       0.867   9.957   1.102  1.00  0.00    -0.342 N 
ATOM     14  C   UNL     1       1.287   9.297   2.236  1.00  0.00     0.249 C 
ATOM     15  O   UNL     1       0.826   8.227   2.612  1.00  0.00    -0.272 OA
ATOM     16  H   UNL     1       1.233  10.901   1.007  1.00  0.00     0.164 HD
BRANCH  14  17
ATOM     17  C   UNL     1       2.420  10.043   2.973  1.00  0.00     0.207 C 
BRANCH  17  18
ATOM     18  C   UNL     1       2.978   9.180   4.109  1.00  0.00     0.077 C 
BRANCH  18  19
ATOM     19  C   UNL     1       4.461   8.932   3.950  1.00  0.00    -0.043 A 
ATOM     20  C   UNL     1       6.501   9.144   2.656  1.00  0.00     0.083 A 
ATOM     21  C   UNL     1       5.143   9.417   2.824  1.00  0.00     0.028 A 
ATOM     22  C   UNL     1       7.185   8.387   3.608  1.00  0.00     0.134 A 
ATOM     23  C   UNL     1       6.521   7.901   4.729  1.00  0.00     0.048 A 
ATOM     24  C   UNL     1       5.161   8.171   4.899  1.00  0.00     0.008 A 
ATOM     25  Cl  UNL     1       7.322   9.748   1.264  1.00  0.00    -0.080 Cl
BRANCH  22  26
ATOM     26  O   UNL     1       8.513   8.085   3.481  1.00  0.00    -0.506 OA
ATOM     27  H   UNL     1       8.682   7.316   4.056  1.00  0.00     0.293 HD
ENDBRANCH  22  26
ENDBRANCH  18  19
ENDBRANCH  17  18
BRANCH  17  28
ATOM     28  O   UNL     1       1.954  11.292   3.508  1.00  0.00    -0.383 OA
ATOM     29  H   UNL     1       1.779  11.131   4.463  1.00  0.00     0.211 HD
ENDBRANCH  17  28
ENDBRANCH  14  17
ENDBRANCH  12  13
BRANCH  12  30
ATOM     30  C   UNL     1       0.340   8.654  -0.973  1.00  0.00     0.018 C 
ATOM     31  C   UNL     1       0.374   7.162  -0.609  1.00  0.00     0.010 C 
BRANCH  30  32
ATOM     32  C   UNL     1       1.731   9.110  -1.479  1.00  0.00     0.002 C 
ATOM     33  C   UNL     1       1.711  10.164  -2.578  1.00  0.00     0.004 C 
ENDBRANCH  30  32
ENDBRANCH  12  30
ENDBRANCH  10  12
ENDBRANCH   1  10
BRANCH   5  34
ATOM     34  C   UNL     1       0.817  13.331   0.374  1.00  0.00     0.242 C 
ATOM     35  O   UNL     1       1.339  12.890   1.398  1.00  0.00    -0.273 OA
ATOM     36  N   UNL     1       1.514  14.077  -0.549  1.00  0.00    -0.354 N 
ATOM     37  H   UNL     1       1.002  14.517  -1.314  1.00  0.00     0.163 HD
BRANCH  36  38
ATOM     38  C   UNL     1       2.959  14.175  -0.531  1.00  0.00     0.116 C 
BRANCH  38  39
ATOM     39  C   UNL     1       3.573  12.874  -1.045  1.00  0.00     0.023 C 
BRANCH  39  40
ATOM     40  C   UNL     1       4.505  12.227  -0.025  1.00  0.00     0.026 C 
BRANCH  40  41
ATOM     41  C   UNL     1       4.838  13.205   1.102  1.00  0.00     0.146 C 
BRANCH  41  42
ATOM     42  N   UNL     1       4.465  12.623   2.384  1.00  0.00    -0.254 NA
ATOM     43  C   UNL     1       4.930  13.125   3.466  1.00  0.00     0.185 C 
ATOM     44  N   UNL     1       5.761  14.168   3.649  1.00  0.00    -0.370 N 
ATOM     45  N   UNL     1       4.578  12.572   4.638  1.00  0.00    -0.370 N 
ATOM     46  H   UNL     1       6.234  14.298   4.527  1.00  0.00     0.159 HD
ATOM     47  H   UNL     1       6.115  14.711   2.868  1.00  0.00     0.159 HD
ATOM     48  H   UNL     1       3.946  11.784   4.590  1.00  0.00     0.159 HD
ATOM     49  H   UNL     1       4.702  13.039   5.519  1.00  0.00     0.159 HD
ENDBRANCH  41  42
ENDBRANCH  40  41
ENDBRANCH  39  40
ENDBRANCH  38  39
ENDBRANCH  36  38
ENDBRANCH   5  34
BRANCH   8  50
ATOM     50  O   UNL     1      -0.561  12.405   4.822  1.00  0.00    -0.245 OA
BRANCH  50  51
ATOM     51  S   UNL     1       0.128  11.887   6.202  1.00  0.00     0.397 S 
ATOM     52  O   UNL     1       0.341  10.462   6.087  1.00  0.00    -0.169 OA
ATOM     53  O   UNL     1      -0.562  12.463   7.336  1.00  0.00    -0.169 OA
BRANCH  51  54
ATOM     54  O   UNL     1       1.588  12.556   6.118  1.00  0.00    -0.264 OA
ATOM     55  H   UNL     1       1.601  13.149   5.339  1.00  0.00     0.236 HD
ENDBRANCH  51  54
ENDBRANCH  50  51
ENDBRANCH   8  50
TORSDOF 19
ENDMDL
MODEL 25
REMARK VINA RESULT:    -7.396     12.290     18.512
REMARK INTER + INTRA:         -17.967
REMARK INTER:                 -14.821
REMARK INTRA:                  -3.146
REMARK UNBOUND:                -3.005
REMARK SMILES CC[C@@H](C)[C@@H](NC(=O)[C@@H](O)Cc1ccc(O)c(Cl)c1)C(=O)N1[C@H](C(=O)NCCCCN=C(N)N)C[C@H]2CC[C@H](OS(=O)(=O)O)C[C@@H]21
REMARK SMILES IDX 22 1 36 2 46 3 35 4 23 5 45 6 37 7 39 8 38 9 20 10 21 11
REMARK SMILES IDX 5 12 6 13 7 14 8 15 9 17 11 18 12 19 17 20 19 21 15 22 14 23
REMARK SMILES IDX 13 24 18 25 16 26 10 28 3 30 4 31 2 32 1 33 24 34 25 35
REMARK SMILES IDX 26 36 27 38 28 39 29 40 30 41 31 42 32 43 33 44 34 45 40 50
REMARK SMILES IDX 41 51 42 52 43 53 44 54
REMARK H PARENT 6 16 16 27 10 29 26 37 33 46 33 47 34 48 34 49 44 55
ROOT
ATOM      1  N   UNL     1       1.932   2.851   9.634  1.00  0.00    -0.326 N 
ATOM      2  C   UNL     1       0.922   2.838  11.760  1.00  0.00     0.014 C 
ATOM      3  C   UNL     1       1.839   3.662  10.851  1.00  0.00     0.091 C 
ATOM      4  C   UNL     1       1.298   1.407  11.406  1.00  0.00     0.041 C 
ATOM      5  C   UNL     1       1.343   1.510   9.870  1.00  0.00     0.175 C 
ATOM      6  C   UNL     1       1.265   5.073  10.739  1.00  0.00     0.059 C 
ATOM      7  C   UNL     1       1.029   3.299  13.200  1.00  0.00     0.008 C 
ATOM      8  C   UNL     1       0.522   5.545  12.008  1.00  0.00     0.143 C 
ATOM      9  C   UNL     1       1.041   4.841  13.278  1.00  0.00     0.034 C 
ENDROOT
BRANCH   1  10
ATOM     10  C   UNL     1       2.642   3.080   8.467  1.00  0.00     0.246 C 
ATOM     11  O   UNL     1       2.171   2.694   7.392  1.00  0.00    -0.272 OA
BRANCH  10  12
ATOM     12  C   UNL     1       3.990   3.854   8.529  1.00  0.00     0.174 C 
BRANCH  12  13
ATOM     13  N   UNL     1       3.761   5.277   8.283  1.00  0.00    -0.342 N 
ATOM     14  C   UNL     1       4.327   6.305   9.003  1.00  0.00     0.249 C 
ATOM     15  O   UNL     1       5.117   6.138   9.923  1.00  0.00    -0.272 OA
ATOM     16  H   UNL     1       3.012   5.566   7.658  1.00  0.00     0.164 HD
BRANCH  14  17
ATOM     17  C   UNL     1       3.874   7.696   8.511  1.00  0.00     0.207 C 
BRANCH  17  18
ATOM     18  C   UNL     1       5.083   8.532   8.079  1.00  0.00     0.077 C 
BRANCH  18  19
ATOM     19  C   UNL     1       5.435   8.301   6.627  1.00  0.00    -0.043 A 
ATOM     20  C   UNL     1       7.008   8.487   4.789  1.00  0.00     0.083 A 
ATOM     21  C   UNL     1       6.704   8.655   6.140  1.00  0.00     0.028 A 
ATOM     22  C   UNL     1       6.051   7.967   3.917  1.00  0.00     0.134 A 
ATOM     23  C   UNL     1       4.791   7.612   4.385  1.00  0.00     0.048 A 
ATOM     24  C   UNL     1       4.482   7.781   5.737  1.00  0.00     0.008 A 
ATOM     25  Cl  UNL     1       8.572   8.927   4.210  1.00  0.00    -0.080 Cl
BRANCH  22  26
ATOM     26  O   UNL     1       6.299   7.794   2.582  1.00  0.00    -0.506 OA
ATOM     27  H   UNL     1       6.412   6.836   2.441  1.00  0.00     0.293 HD
ENDBRANCH  22  26
ENDBRANCH  18  19
ENDBRANCH  17  18
BRANCH  17  28
ATOM     28  O   UNL     1       3.152   8.398   9.537  1.00  0.00    -0.383 OA
ATOM     29  H   UNL     1       3.768   8.470  10.302  1.00  0.00     0.211 HD
ENDBRANCH  17  28
ENDBRANCH  14  17
ENDBRANCH  12  13
BRANCH  12  30
ATOM     30  C   UNL     1       5.069   3.256   7.586  1.00  0.00     0.018 C 
ATOM     31  C   UNL     1       6.328   2.865   8.374  1.00  0.00     0.010 C 
BRANCH  30  32
ATOM     32  C   UNL     1       5.447   4.185   6.406  1.00  0.00     0.002 C 
ATOM     33  C   UNL     1       6.797   4.878   6.530  1.00  0.00     0.004 C 
ENDBRANCH  30  32
ENDBRANCH  12  30
ENDBRANCH  10  12
ENDBRANCH   1  10
BRANCH   5  34
ATOM     34  C   UNL     1      -0.076   1.415   9.248  1.00  0.00     0.242 C 
ATOM     35  O   UNL     1      -0.478   2.213   8.403  1.00  0.00    -0.273 OA
ATOM     36  N   UNL     1      -0.869   0.407   9.750  1.00  0.00    -0.354 N 
ATOM     37  H   UNL     1      -0.522  -0.147  10.534  1.00  0.00     0.163 HD
BRANCH  36  38
ATOM     38  C   UNL     1      -2.130   0.039   9.140  1.00  0.00     0.116 C 
BRANCH  38  39
ATOM     39  C   UNL     1      -3.249   0.118  10.176  1.00  0.00     0.023 C 
BRANCH  39  40
ATOM     40  C   UNL     1      -2.866  -0.536  11.499  1.00  0.00     0.026 C 
BRANCH  40  41
ATOM     41  C   UNL     1      -2.387   0.512  12.503  1.00  0.00     0.146 C 
BRANCH  41  42
ATOM     42  N   UNL     1      -3.233   1.696  12.421  1.00  0.00    -0.254 NA
ATOM     43  C   UNL     1      -3.270   2.517  13.402  1.00  0.00     0.185 C 
ATOM     44  N   UNL     1      -2.623   2.486  14.582  1.00  0.00    -0.370 N 
ATOM     45  N   UNL     1      -4.059   3.600  13.308  1.00  0.00    -0.370 N 
ATOM     46  H   UNL     1      -2.929   3.058  15.350  1.00  0.00     0.159 HD
ATOM     47  H   UNL     1      -1.973   1.741  14.814  1.00  0.00     0.159 HD
ATOM     48  H   UNL     1      -4.576   3.704  12.446  1.00  0.00     0.159 HD
ATOM     49  H   UNL     1      -3.965   4.395  13.915  1.00  0.00     0.159 HD
ENDBRANCH  41  42
ENDBRANCH  40  41
ENDBRANCH  39  40
ENDBRANCH  38  39
ENDBRANCH  36  38
ENDBRANCH   5  34
BRANCH   8  50
ATOM     50  O   UNL     1      -0.876   5.283  11.883  1.00  0.00    -0.245 OA
BRANCH  50  51
ATOM     51  S   UNL     1      -1.949   6.404  12.368  1.00  0.00     0.397 S 
ATOM     52  O   UNL     1      -2.430   6.025  13.678  1.00  0.00    -0.169 OA
ATOM     53  O   UNL     1      -2.859   6.708  11.283  1.00  0.00    -0.169 OA
BRANCH  51  54
ATOM     54  O   UNL     1      -1.010   7.689  12.601  1.00  0.00    -0.264 OA
ATOM     55  H   UNL     1      -1.097   8.268  11.817  1.00  0.00     0.236 HD
ENDBRANCH  51  54
ENDBRANCH  50  51
ENDBRANCH   8  50
TORSDOF 19
ENDMDL
MODEL 26
REMARK VINA RESULT:    -7.390      6.001     10.214
REMARK INTER + INTRA:         -17.956
REMARK INTER:                 -14.183
REMARK INTRA:                  -3.772
REMARK UNBOUND:                -3.005
REMARK SMILES CC[C@@H](C)[C@@H](NC(=O)[C@@H](O)Cc1ccc(O)c(Cl)c1)C(=O)N1[C@H](C(=O)NCCCCN=C(N)N)C[C@H]2CC[C@H](OS(=O)(=O)O)C[C@@H]21
REMARK SMILES IDX 22 1 36 2 46 3 35 4 23 5 45 6 37 7 39 8 38 9 20 10 21 11
REMARK SMILES IDX 5 12 6 13 7 14 8 15 9 17 11 18 12 19 17 20 19 21 15 22 14 23
REMARK SMILES IDX 13 24 18 25 16 26 10 28 3 30 4 31 2 32 1 33 24 34 25 35
REMARK SMILES IDX 26 36 27 38 28 39 29 40 30 41 31 42 32 43 33 44 34 45 40 50
REMARK SMILES IDX 41 51 42 52 43 53 44 54
REMARK H PARENT 6 16 16 27 10 29 26 37 33 46 33 47 34 48 34 49 44 55
ROOT
ATOM      1  N   UNL     1      -1.283  11.695   0.542  1.00  0.00    -0.326 N 
ATOM      2  C   UNL     1      -1.825  13.419   2.052  1.00  0.00     0.014 C 
ATOM      3  C   UNL     1      -2.004  11.919   1.798  1.00  0.00     0.091 C 
ATOM      4  C   UNL     1      -1.839  13.999   0.646  1.00  0.00     0.041 C 
ATOM      5  C   UNL     1      -0.918  12.996  -0.072  1.00  0.00     0.175 C 
ATOM      6  C   UNL     1      -1.544  11.161   3.042  1.00  0.00     0.059 C 
ATOM      7  C   UNL     1      -2.828  13.919   3.073  1.00  0.00     0.008 C 
ATOM      8  C   UNL     1      -1.777  11.930   4.361  1.00  0.00     0.143 C 
ATOM      9  C   UNL     1      -2.947  12.928   4.249  1.00  0.00     0.034 C 
ENDROOT
BRANCH   1  10
ATOM     10  C   UNL     1      -1.116  10.533  -0.190  1.00  0.00     0.246 C 
ATOM     11  O   UNL     1      -1.698  10.415  -1.274  1.00  0.00    -0.272 OA
BRANCH  10  12
ATOM     12  C   UNL     1      -0.167   9.420   0.343  1.00  0.00     0.174 C 
BRANCH  12  13
ATOM     13  N   UNL     1       0.875  10.013   1.181  1.00  0.00    -0.342 N 
ATOM     14  C   UNL     1       1.322   9.491   2.374  1.00  0.00     0.249 C 
ATOM     15  O   UNL     1       0.909   8.444   2.858  1.00  0.00    -0.272 OA
ATOM     16  H   UNL     1       1.198  10.958   0.990  1.00  0.00     0.164 HD
BRANCH  14  17
ATOM     17  C   UNL     1       2.417  10.358   3.030  1.00  0.00     0.207 C 
BRANCH  17  18
ATOM     18  C   UNL     1       3.014   9.638   4.244  1.00  0.00     0.077 C 
BRANCH  18  19
ATOM     19  C   UNL     1       4.351   9.008   3.922  1.00  0.00    -0.043 A 
ATOM     20  C   UNL     1       5.969   7.230   4.245  1.00  0.00     0.083 A 
ATOM     21  C   UNL     1       4.715   7.784   4.505  1.00  0.00     0.028 A 
ATOM     22  C   UNL     1       6.865   7.893   3.405  1.00  0.00     0.134 A 
ATOM     23  C   UNL     1       6.517   9.105   2.821  1.00  0.00     0.048 A 
ATOM     24  C   UNL     1       5.263   9.664   3.081  1.00  0.00     0.008 A 
ATOM     25  Cl  UNL     1       6.398   5.725   4.970  1.00  0.00    -0.080 Cl
BRANCH  22  26
ATOM     26  O   UNL     1       8.109   7.394   3.129  1.00  0.00    -0.506 OA
ATOM     27  H   UNL     1       8.741   7.902   3.670  1.00  0.00     0.293 HD
ENDBRANCH  22  26
ENDBRANCH  18  19
ENDBRANCH  17  18
BRANCH  17  28
ATOM     28  O   UNL     1       1.893  11.631   3.442  1.00  0.00    -0.383 OA
ATOM     29  H   UNL     1       2.671  12.174   3.701  1.00  0.00     0.211 HD
ENDBRANCH  17  28
ENDBRANCH  14  17
ENDBRANCH  12  13
BRANCH  12  30
ATOM     30  C   UNL     1       0.417   8.535  -0.791  1.00  0.00     0.018 C 
ATOM     31  C   UNL     1       0.562   7.077  -0.326  1.00  0.00     0.010 C 
BRANCH  30  32
ATOM     32  C   UNL     1       1.765   9.051  -1.351  1.00  0.00     0.002 C 
ATOM     33  C   UNL     1       1.673   9.826  -2.659  1.00  0.00     0.004 C 
ENDBRANCH  30  32
ENDBRANCH  12  30
ENDBRANCH  10  12
ENDBRANCH   1  10
BRANCH   5  34
ATOM     34  C   UNL     1       0.581  13.318   0.172  1.00  0.00     0.242 C 
ATOM     35  O   UNL     1       1.141  13.073   1.241  1.00  0.00    -0.273 OA
ATOM     36  N   UNL     1       1.222  13.946  -0.871  1.00  0.00    -0.354 N 
ATOM     37  H   UNL     1       0.675  14.232  -1.685  1.00  0.00     0.163 HD
BRANCH  36  38
ATOM     38  C   UNL     1       2.659  14.125  -0.901  1.00  0.00     0.116 C 
BRANCH  38  39
ATOM     39  C   UNL     1       3.207  13.694  -2.259  1.00  0.00     0.023 C 
BRANCH  39  40
ATOM     40  C   UNL     1       2.106  13.495  -3.295  1.00  0.00     0.026 C 
BRANCH  40  41
ATOM     41  C   UNL     1       2.684  13.514  -4.711  1.00  0.00     0.146 C 
BRANCH  41  42
ATOM     42  N   UNL     1       3.235  12.205  -5.035  1.00  0.00    -0.254 NA
ATOM     43  C   UNL     1       2.648  11.467  -5.900  1.00  0.00     0.185 C 
ATOM     44  N   UNL     1       1.534  11.696  -6.619  1.00  0.00    -0.370 N 
ATOM     45  N   UNL     1       3.170  10.262  -6.182  1.00  0.00    -0.370 N 
ATOM     46  H   UNL     1       1.053  10.939  -7.075  1.00  0.00     0.159 HD
ATOM     47  H   UNL     1       1.018  12.567  -6.540  1.00  0.00     0.159 HD
ATOM     48  H   UNL     1       4.017  10.014  -5.689  1.00  0.00     0.159 HD
ATOM     49  H   UNL     1       2.915   9.736  -6.999  1.00  0.00     0.159 HD
ENDBRANCH  41  42
ENDBRANCH  40  41
ENDBRANCH  39  40
ENDBRANCH  38  39
ENDBRANCH  36  38
ENDBRANCH   5  34
BRANCH   8  50
ATOM     50  O   UNL     1      -0.599  12.651   4.723  1.00  0.00    -0.245 OA
BRANCH  50  51
ATOM     51  S   UNL     1       0.134  12.331   6.139  1.00  0.00     0.397 S 
ATOM     52  O   UNL     1      -0.815  12.581   7.200  1.00  0.00    -0.169 OA
ATOM     53  O   UNL     1       1.455  12.924   6.147  1.00  0.00    -0.169 OA
BRANCH  51  54
ATOM     54  O   UNL     1       0.308  10.734   6.074  1.00  0.00    -0.264 OA
ATOM     55  H   UNL     1       0.900  10.529   5.321  1.00  0.00     0.236 HD
ENDBRANCH  51  54
ENDBRANCH  50  51
ENDBRANCH   8  50
TORSDOF 19
ENDMDL
MODEL 27
REMARK VINA RESULT:    -7.382      7.199     11.157
REMARK INTER + INTRA:         -17.939
REMARK INTER:                 -13.871
REMARK INTRA:                  -4.068
REMARK UNBOUND:                -3.005
REMARK SMILES CC[C@@H](C)[C@@H](NC(=O)[C@@H](O)Cc1ccc(O)c(Cl)c1)C(=O)N1[C@H](C(=O)NCCCCN=C(N)N)C[C@H]2CC[C@H](OS(=O)(=O)O)C[C@@H]21
REMARK SMILES IDX 22 1 36 2 46 3 35 4 23 5 45 6 37 7 39 8 38 9 20 10 21 11
REMARK SMILES IDX 5 12 6 13 7 14 8 15 9 17 11 18 12 19 17 20 19 21 15 22 14 23
REMARK SMILES IDX 13 24 18 25 16 26 10 28 3 30 4 31 2 32 1 33 24 34 25 35
REMARK SMILES IDX 26 36 27 38 28 39 29 40 30 41 31 42 32 43 33 44 34 45 40 50
REMARK SMILES IDX 41 51 42 52 43 53 44 54
REMARK H PARENT 6 16 16 27 10 29 26 37 33 46 33 47 34 48 34 49 44 55
ROOT
ATOM      1  N   UNL     1       1.649   9.717   2.268  1.00  0.00    -0.326 N 
ATOM      2  C   UNL     1      -0.467   9.273   3.199  1.00  0.00     0.014 C 
ATOM      3  C   UNL     1       0.717  10.242   3.271  1.00  0.00     0.091 C 
ATOM      4  C   UNL     1       0.206   7.943   2.898  1.00  0.00     0.041 C 
ATOM      5  C   UNL     1       1.199   8.381   1.806  1.00  0.00     0.175 C 
ATOM      6  C   UNL     1       0.188  11.664   3.095  1.00  0.00     0.059 C 
ATOM      7  C   UNL     1      -1.346   9.400   4.428  1.00  0.00     0.008 C 
ATOM      8  C   UNL     1      -1.236  11.872   3.654  1.00  0.00     0.143 C 
ATOM      9  C   UNL     1      -1.561  10.884   4.793  1.00  0.00     0.034 C 
ENDROOT
BRANCH   1  10
ATOM     10  C   UNL     1       2.904  10.171   1.900  1.00  0.00     0.246 C 
ATOM     11  O   UNL     1       3.133  10.405   0.708  1.00  0.00    -0.272 OA
BRANCH  10  12
ATOM     12  C   UNL     1       3.982  10.418   2.994  1.00  0.00     0.174 C 
BRANCH  12  13
ATOM     13  N   UNL     1       5.008  11.330   2.488  1.00  0.00    -0.342 N 
ATOM     14  C   UNL     1       5.200  12.622   2.921  1.00  0.00     0.249 C 
ATOM     15  O   UNL     1       4.542  13.149   3.810  1.00  0.00    -0.272 OA
ATOM     16  H   UNL     1       5.524  11.089   1.645  1.00  0.00     0.164 HD
BRANCH  14  17
ATOM     17  C   UNL     1       6.351  13.334   2.179  1.00  0.00     0.207 C 
BRANCH  17  18
ATOM     18  C   UNL     1       7.555  13.517   3.109  1.00  0.00     0.077 C 
BRANCH  18  19
ATOM     19  C   UNL     1       8.475  12.317   3.079  1.00  0.00    -0.043 A 
ATOM     20  C   UNL     1       9.268  10.301   1.987  1.00  0.00     0.083 A 
ATOM     21  C   UNL     1       8.453  11.434   1.988  1.00  0.00     0.028 A 
ATOM     22  C   UNL     1      10.106  10.043   3.072  1.00  0.00     0.134 A 
ATOM     23  C   UNL     1      10.139  10.909   4.158  1.00  0.00     0.048 A 
ATOM     24  C   UNL     1       9.323  12.043   4.164  1.00  0.00     0.008 A 
ATOM     25  Cl  UNL     1       9.226   9.228   0.638  1.00  0.00    -0.080 Cl
BRANCH  22  26
ATOM     26  O   UNL     1      10.915   8.940   3.120  1.00  0.00    -0.506 OA
ATOM     27  H   UNL     1      11.366   8.885   2.257  1.00  0.00     0.293 HD
ENDBRANCH  22  26
ENDBRANCH  18  19
ENDBRANCH  17  18
BRANCH  17  28
ATOM     28  O   UNL     1       5.933  14.616   1.683  1.00  0.00    -0.383 OA
ATOM     29  H   UNL     1       6.607  15.261   1.996  1.00  0.00     0.211 HD
ENDBRANCH  17  28
ENDBRANCH  14  17
ENDBRANCH  12  13
BRANCH  12  30
ATOM     30  C   UNL     1       4.584   9.100   3.552  1.00  0.00     0.018 C 
ATOM     31  C   UNL     1       3.837   8.651   4.818  1.00  0.00     0.010 C 
BRANCH  30  32
ATOM     32  C   UNL     1       6.104   9.181   3.831  1.00  0.00     0.002 C 
ATOM     33  C   UNL     1       6.889   7.908   3.539  1.00  0.00     0.004 C 
ENDBRANCH  30  32
ENDBRANCH  12  30
ENDBRANCH  10  12
ENDBRANCH   1  10
BRANCH   5  34
ATOM     34  C   UNL     1       0.514   8.481   0.417  1.00  0.00     0.242 C 
ATOM     35  O   UNL     1      -0.697   8.668   0.292  1.00  0.00    -0.273 OA
ATOM     36  N   UNL     1       1.348   8.293  -0.662  1.00  0.00    -0.354 N 
ATOM     37  H   UNL     1       2.317   8.023  -0.493  1.00  0.00     0.163 HD
BRANCH  36  38
ATOM     38  C   UNL     1       0.926   8.563  -2.021  1.00  0.00     0.116 C 
BRANCH  38  39
ATOM     39  C   UNL     1       1.487   9.907  -2.480  1.00  0.00     0.023 C 
BRANCH  39  40
ATOM     40  C   UNL     1       0.779  10.441  -3.721  1.00  0.00     0.026 C 
BRANCH  40  41
ATOM     41  C   UNL     1      -0.145  11.605  -3.359  1.00  0.00     0.146 C 
BRANCH  41  42
ATOM     42  N   UNL     1      -1.133  11.164  -2.383  1.00  0.00    -0.254 NA
ATOM     43  C   UNL     1      -1.236  11.778  -1.265  1.00  0.00     0.185 C 
ATOM     44  N   UNL     1      -0.550  12.834  -0.790  1.00  0.00    -0.370 N 
ATOM     45  N   UNL     1      -2.151  11.354  -0.377  1.00  0.00    -0.370 N 
ATOM     46  H   UNL     1      -0.565  13.057   0.190  1.00  0.00     0.159 HD
ATOM     47  H   UNL     1       0.173  13.290  -1.339  1.00  0.00     0.159 HD
ATOM     48  H   UNL     1      -2.718  10.566  -0.660  1.00  0.00     0.159 HD
ATOM     49  H   UNL     1      -2.453  11.912   0.401  1.00  0.00     0.159 HD
ENDBRANCH  41  42
ENDBRANCH  40  41
ENDBRANCH  39  40
ENDBRANCH  38  39
ENDBRANCH  36  38
ENDBRANCH   5  34
BRANCH   8  50
ATOM     50  O   UNL     1      -2.200  11.698   2.615  1.00  0.00    -0.245 OA
BRANCH  50  51
ATOM     51  S   UNL     1      -3.310  12.857   2.348  1.00  0.00     0.397 S 
ATOM     52  O   UNL     1      -2.836  13.689   1.265  1.00  0.00    -0.169 OA
ATOM     53  O   UNL     1      -3.734  13.424   3.612  1.00  0.00    -0.169 OA
BRANCH  51  54
ATOM     54  O   UNL     1      -4.539  12.012   1.747  1.00  0.00    -0.264 OA
ATOM     55  H   UNL     1      -4.176  11.185   1.370  1.00  0.00     0.236 HD
ENDBRANCH  51  54
ENDBRANCH  50  51
ENDBRANCH   8  50
TORSDOF 19
ENDMDL
MODEL 28
REMARK VINA RESULT:    -7.356     13.551     19.036
REMARK INTER + INTRA:         -17.886
REMARK INTER:                 -14.682
REMARK INTRA:                  -3.205
REMARK UNBOUND:                -3.005
REMARK SMILES CC[C@@H](C)[C@@H](NC(=O)[C@@H](O)Cc1ccc(O)c(Cl)c1)C(=O)N1[C@H](C(=O)NCCCCN=C(N)N)C[C@H]2CC[C@H](OS(=O)(=O)O)C[C@@H]21
REMARK SMILES IDX 22 1 36 2 46 3 35 4 23 5 45 6 37 7 39 8 38 9 20 10 21 11
REMARK SMILES IDX 5 12 6 13 7 14 8 15 9 17 11 18 12 19 17 20 19 21 15 22 14 23
REMARK SMILES IDX 13 24 18 25 16 26 10 28 3 30 4 31 2 32 1 33 24 34 25 35
REMARK SMILES IDX 26 36 27 38 28 39 29 40 30 41 31 42 32 43 33 44 34 45 40 50
REMARK SMILES IDX 41 51 42 52 43 53 44 54
REMARK H PARENT 6 16 16 27 10 29 26 37 33 46 33 47 34 48 34 49 44 55
ROOT
ATOM      1  N   UNL     1       0.016   3.159  10.815  1.00  0.00    -0.326 N 
ATOM      2  C   UNL     1      -0.746   5.138  11.836  1.00  0.00     0.014 C 
ATOM      3  C   UNL     1      -1.201   3.750  11.377  1.00  0.00     0.091 C 
ATOM      4  C   UNL     1       0.288   5.516  10.787  1.00  0.00     0.041 C 
ATOM      5  C   UNL     1       1.072   4.194  10.690  1.00  0.00     0.175 C 
ATOM      6  C   UNL     1      -1.870   3.046  12.557  1.00  0.00     0.059 C 
ATOM      7  C   UNL     1      -1.935   6.049  12.069  1.00  0.00     0.008 C 
ATOM      8  C   UNL     1      -2.597   4.007  13.522  1.00  0.00     0.143 C 
ATOM      9  C   UNL     1      -3.058   5.299  12.817  1.00  0.00     0.034 C 
ENDROOT
BRANCH   1  10
ATOM     10  C   UNL     1       0.213   1.921  10.228  1.00  0.00     0.246 C 
ATOM     11  O   UNL     1       0.294   0.920  10.948  1.00  0.00    -0.272 OA
BRANCH  10  12
ATOM     12  C   UNL     1       0.284   1.809   8.677  1.00  0.00     0.174 C 
BRANCH  12  13
ATOM     13  N   UNL     1       1.291   2.732   8.157  1.00  0.00    -0.342 N 
ATOM     14  C   UNL     1       2.653   2.573   8.289  1.00  0.00     0.249 C 
ATOM     15  O   UNL     1       3.176   1.613   8.840  1.00  0.00    -0.272 OA
ATOM     16  H   UNL     1       1.008   3.647   7.815  1.00  0.00     0.164 HD
BRANCH  14  17
ATOM     17  C   UNL     1       3.453   3.726   7.647  1.00  0.00     0.207 C 
BRANCH  17  18
ATOM     18  C   UNL     1       4.787   3.212   7.098  1.00  0.00     0.077 C 
BRANCH  18  19
ATOM     19  C   UNL     1       5.644   4.336   6.559  1.00  0.00    -0.043 A 
ATOM     20  C   UNL     1       6.025   6.095   4.933  1.00  0.00     0.083 A 
ATOM     21  C   UNL     1       5.210   5.092   5.459  1.00  0.00     0.028 A 
ATOM     22  C   UNL     1       7.275   6.348   5.501  1.00  0.00     0.134 A 
ATOM     23  C   UNL     1       7.716   5.607   6.590  1.00  0.00     0.048 A 
ATOM     24  C   UNL     1       6.904   4.601   7.117  1.00  0.00     0.008 A 
ATOM     25  Cl  UNL     1       5.476   7.013   3.581  1.00  0.00    -0.080 Cl
BRANCH  22  26
ATOM     26  O   UNL     1       8.113   7.315   5.014  1.00  0.00    -0.506 OA
ATOM     27  H   UNL     1       8.124   7.213   4.044  1.00  0.00     0.293 HD
ENDBRANCH  22  26
ENDBRANCH  18  19
ENDBRANCH  17  18
BRANCH  17  28
ATOM     28  O   UNL     1       3.701   4.775   8.597  1.00  0.00    -0.383 OA
ATOM     29  H   UNL     1       2.816   5.103   8.876  1.00  0.00     0.211 HD
ENDBRANCH  17  28
ENDBRANCH  14  17
ENDBRANCH  12  13
BRANCH  12  30
ATOM     30  C   UNL     1      -1.100   1.998   7.999  1.00  0.00     0.018 C 
ATOM     31  C   UNL     1      -1.362   3.482   7.696  1.00  0.00     0.010 C 
BRANCH  30  32
ATOM     32  C   UNL     1      -2.277   1.405   8.811  1.00  0.00     0.002 C 
ATOM     33  C   UNL     1      -2.588  -0.059   8.530  1.00  0.00     0.004 C 
ENDBRANCH  30  32
ENDBRANCH  12  30
ENDBRANCH  10  12
ENDBRANCH   1  10
BRANCH   5  34
ATOM     34  C   UNL     1       2.112   4.060  11.835  1.00  0.00     0.242 C 
ATOM     35  O   UNL     1       1.832   3.555  12.922  1.00  0.00    -0.273 OA
ATOM     36  N   UNL     1       3.352   4.596  11.566  1.00  0.00    -0.354 N 
ATOM     37  H   UNL     1       3.487   5.108  10.693  1.00  0.00     0.163 HD
BRANCH  36  38
ATOM     38  C   UNL     1       4.494   4.371  12.427  1.00  0.00     0.116 C 
BRANCH  38  39
ATOM     39  C   UNL     1       5.750   4.173  11.580  1.00  0.00     0.023 C 
BRANCH  39  40
ATOM     40  C   UNL     1       5.832   2.775  10.978  1.00  0.00     0.026 C 
BRANCH  40  41
ATOM     41  C   UNL     1       5.069   1.768  11.839  1.00  0.00     0.146 C 
BRANCH  41  42
ATOM     42  N   UNL     1       5.430   0.412  11.447  1.00  0.00    -0.254 NA
ATOM     43  C   UNL     1       4.517  -0.402  11.070  1.00  0.00     0.185 C 
ATOM     44  N   UNL     1       3.188  -0.222  10.961  1.00  0.00    -0.370 N 
ATOM     45  N   UNL     1       4.870  -1.649  10.717  1.00  0.00    -0.370 N 
ATOM     46  H   UNL     1       2.568  -1.011  10.890  1.00  0.00     0.159 HD
ATOM     47  H   UNL     1       2.752   0.669  11.176  1.00  0.00     0.159 HD
ATOM     48  H   UNL     1       5.856  -1.866  10.762  1.00  0.00     0.159 HD
ATOM     49  H   UNL     1       4.265  -2.259  10.195  1.00  0.00     0.159 HD
ENDBRANCH  41  42
ENDBRANCH  40  41
ENDBRANCH  39  40
ENDBRANCH  38  39
ENDBRANCH  36  38
ENDBRANCH   5  34
BRANCH   8  50
ATOM     50  O   UNL     1      -1.734   4.363  14.602  1.00  0.00    -0.245 OA
BRANCH  50  51
ATOM     51  S   UNL     1      -1.558   3.346  15.859  1.00  0.00     0.397 S 
ATOM     52  O   UNL     1      -1.341   4.138  17.048  1.00  0.00    -0.169 OA
ATOM     53  O   UNL     1      -0.662   2.269  15.490  1.00  0.00    -0.169 OA
BRANCH  51  54
ATOM     54  O   UNL     1      -3.037   2.732  16.004  1.00  0.00    -0.264 OA
ATOM     55  H   UNL     1      -3.674   3.419  15.719  1.00  0.00     0.236 HD
ENDBRANCH  51  54
ENDBRANCH  50  51
ENDBRANCH   8  50
TORSDOF 19
ENDMDL
MODEL 29
REMARK VINA RESULT:    -7.326     15.373     19.401
REMARK INTER + INTRA:         -17.826
REMARK INTER:                 -13.911
REMARK INTRA:                  -3.915
REMARK UNBOUND:                -3.005
REMARK SMILES CC[C@@H](C)[C@@H](NC(=O)[C@@H](O)Cc1ccc(O)c(Cl)c1)C(=O)N1[C@H](C(=O)NCCCCN=C(N)N)C[C@H]2CC[C@H](OS(=O)(=O)O)C[C@@H]21
REMARK SMILES IDX 22 1 36 2 46 3 35 4 23 5 45 6 37 7 39 8 38 9 20 10 21 11
REMARK SMILES IDX 5 12 6 13 7 14 8 15 9 17 11 18 12 19 17 20 19 21 15 22 14 23
REMARK SMILES IDX 13 24 18 25 16 26 10 28 3 30 4 31 2 32 1 33 24 34 25 35
REMARK SMILES IDX 26 36 27 38 28 39 29 40 30 41 31 42 32 43 33 44 34 45 40 50
REMARK SMILES IDX 41 51 42 52 43 53 44 54
REMARK H PARENT 6 16 16 27 10 29 26 37 33 46 33 47 34 48 34 49 44 55
ROOT
ATOM      1  N   UNL     1       2.060   4.138  10.175  1.00  0.00    -0.326 N 
ATOM      2  C   UNL     1       3.908   2.799   9.597  1.00  0.00     0.014 C 
ATOM      3  C   UNL     1       2.886   3.781   9.018  1.00  0.00     0.091 C 
ATOM      4  C   UNL     1       3.101   2.061  10.654  1.00  0.00     0.041 C 
ATOM      5  C   UNL     1       2.374   3.245  11.318  1.00  0.00     0.175 C 
ATOM      6  C   UNL     1       3.642   4.896   8.297  1.00  0.00     0.059 C 
ATOM      7  C   UNL     1       4.587   2.010   8.495  1.00  0.00     0.008 C 
ATOM      8  C   UNL     1       4.973   4.435   7.663  1.00  0.00     0.143 C 
ATOM      9  C   UNL     1       4.959   2.932   7.315  1.00  0.00     0.034 C 
ENDROOT
BRANCH   1  10
ATOM     10  C   UNL     1       0.963   4.978  10.257  1.00  0.00     0.246 C 
ATOM     11  O   UNL     1       1.129   6.152  10.605  1.00  0.00    -0.272 OA
BRANCH  10  12
ATOM     12  C   UNL     1      -0.445   4.441   9.869  1.00  0.00     0.174 C 
BRANCH  12  13
ATOM     13  N   UNL     1      -1.208   4.125  11.076  1.00  0.00    -0.342 N 
ATOM     14  C   UNL     1      -2.178   4.929  11.632  1.00  0.00     0.249 C 
ATOM     15  O   UNL     1      -2.532   5.999  11.154  1.00  0.00    -0.272 OA
ATOM     16  H   UNL     1      -0.918   3.349  11.666  1.00  0.00     0.164 HD
BRANCH  14  17
ATOM     17  C   UNL     1      -2.789   4.325  12.915  1.00  0.00     0.207 C 
BRANCH  17  18
ATOM     18  C   UNL     1      -3.570   3.049  12.587  1.00  0.00     0.077 C 
BRANCH  18  19
ATOM     19  C   UNL     1      -2.712   1.812  12.734  1.00  0.00    -0.043 A 
ATOM     20  C   UNL     1      -2.254  -0.506  12.185  1.00  0.00     0.083 A 
ATOM     21  C   UNL     1      -3.017   0.649  12.010  1.00  0.00     0.028 A 
ATOM     22  C   UNL     1      -1.185  -0.507  13.082  1.00  0.00     0.134 A 
ATOM     23  C   UNL     1      -0.872   0.638  13.805  1.00  0.00     0.048 A 
ATOM     24  C   UNL     1      -1.635   1.795  13.633  1.00  0.00     0.008 A 
ATOM     25  Cl  UNL     1      -2.645  -1.926  11.288  1.00  0.00    -0.080 Cl
BRANCH  22  26
ATOM     26  O   UNL     1      -0.414  -1.618  13.295  1.00  0.00    -0.506 OA
ATOM     27  H   UNL     1       0.051  -1.801  12.458  1.00  0.00     0.293 HD
ENDBRANCH  22  26
ENDBRANCH  18  19
ENDBRANCH  17  18
BRANCH  17  28
ATOM     28  O   UNL     1      -3.661   5.265  13.563  1.00  0.00    -0.383 OA
ATOM     29  H   UNL     1      -4.400   4.734  13.940  1.00  0.00     0.211 HD
ENDBRANCH  17  28
ENDBRANCH  14  17
ENDBRANCH  12  13
BRANCH  12  30
ATOM     30  C   UNL     1      -0.380   3.247   8.879  1.00  0.00     0.018 C 
ATOM     31  C   UNL     1      -1.349   3.458   7.705  1.00  0.00     0.010 C 
BRANCH  30  32
ATOM     32  C   UNL     1      -0.641   1.874   9.544  1.00  0.00     0.002 C 
ATOM     33  C   UNL     1      -1.489   0.906   8.729  1.00  0.00     0.004 C 
ENDBRANCH  30  32
ENDBRANCH  12  30
ENDBRANCH  10  12
ENDBRANCH   1  10
BRANCH   5  34
ATOM     34  C   UNL     1       3.281   3.969  12.348  1.00  0.00     0.242 C 
ATOM     35  O   UNL     1       4.003   4.916  12.038  1.00  0.00    -0.273 OA
ATOM     36  N   UNL     1       3.260   3.441  13.620  1.00  0.00    -0.354 N 
ATOM     37  H   UNL     1       2.734   2.582  13.787  1.00  0.00     0.163 HD
BRANCH  36  38
ATOM     38  C   UNL     1       3.871   4.114  14.747  1.00  0.00     0.116 C 
BRANCH  38  39
ATOM     39  C   UNL     1       2.789   4.713  15.642  1.00  0.00     0.023 C 
BRANCH  39  40
ATOM     40  C   UNL     1       1.539   3.842  15.709  1.00  0.00     0.026 C 
BRANCH  40  41
ATOM     41  C   UNL     1       0.681   4.216  16.917  1.00  0.00     0.146 C 
BRANCH  41  42
ATOM     42  N   UNL     1      -0.150   5.368  16.593  1.00  0.00    -0.254 NA
ATOM     43  C   UNL     1      -1.382   5.194  16.289  1.00  0.00     0.185 C 
ATOM     44  N   UNL     1      -2.102   4.061  16.210  1.00  0.00    -0.370 N 
ATOM     45  N   UNL     1      -2.130   6.269  15.989  1.00  0.00    -0.370 N 
ATOM     46  H   UNL     1      -2.984   4.046  15.727  1.00  0.00     0.159 HD
ATOM     47  H   UNL     1      -1.695   3.155  16.419  1.00  0.00     0.159 HD
ATOM     48  H   UNL     1      -1.665   7.165  16.033  1.00  0.00     0.159 HD
ATOM     49  H   UNL     1      -3.134   6.245  15.975  1.00  0.00     0.159 HD
ENDBRANCH  41  42
ENDBRANCH  40  41
ENDBRANCH  39  40
ENDBRANCH  38  39
ENDBRANCH  36  38
ENDBRANCH   5  34
BRANCH   8  50
ATOM     50  O   UNL     1       6.055   4.682   8.561  1.00  0.00    -0.245 OA
BRANCH  50  51
ATOM     51  S   UNL     1       7.586   4.541   8.032  1.00  0.00     0.397 S 
ATOM     52  O   UNL     1       7.639   5.046   6.678  1.00  0.00    -0.169 OA
ATOM     53  O   UNL     1       8.101   3.231   8.374  1.00  0.00    -0.169 OA
BRANCH  51  54
ATOM     54  O   UNL     1       8.355   5.627   8.934  1.00  0.00    -0.264 OA
ATOM     55  H   UNL     1       7.871   6.475   8.858  1.00  0.00     0.236 HD
ENDBRANCH  51  54
ENDBRANCH  50  51
ENDBRANCH   8  50
TORSDOF 19
ENDMDL
MODEL 30
REMARK VINA RESULT:    -7.267     12.857     18.899
REMARK INTER + INTRA:         -17.706
REMARK INTER:                 -13.548
REMARK INTRA:                  -4.159
REMARK UNBOUND:                -3.005
REMARK SMILES CC[C@@H](C)[C@@H](NC(=O)[C@@H](O)Cc1ccc(O)c(Cl)c1)C(=O)N1[C@H](C(=O)NCCCCN=C(N)N)C[C@H]2CC[C@H](OS(=O)(=O)O)C[C@@H]21
REMARK SMILES IDX 22 1 36 2 46 3 35 4 23 5 45 6 37 7 39 8 38 9 20 10 21 11
REMARK SMILES IDX 5 12 6 13 7 14 8 15 9 17 11 18 12 19 17 20 19 21 15 22 14 23
REMARK SMILES IDX 13 24 18 25 16 26 10 28 3 30 4 31 2 32 1 33 24 34 25 35
REMARK SMILES IDX 26 36 27 38 28 39 29 40 30 41 31 42 32 43 33 44 34 45 40 50
REMARK SMILES IDX 41 51 42 52 43 53 44 54
REMARK H PARENT 6 16 16 27 10 29 26 37 33 46 33 47 34 48 34 49 44 55
ROOT
ATOM      1  N   UNL     1       2.058   2.828  10.428  1.00  0.00    -0.326 N 
ATOM      2  C   UNL     1      -0.064   2.590   9.437  1.00  0.00     0.014 C 
ATOM      3  C   UNL     1       1.176   1.801   9.867  1.00  0.00     0.091 C 
ATOM      4  C   UNL     1       0.525   3.917   8.981  1.00  0.00     0.041 C 
ATOM      5  C   UNL     1       1.523   4.178  10.125  1.00  0.00     0.175 C 
ATOM      6  C   UNL     1       0.729   0.656  10.774  1.00  0.00     0.059 C 
ATOM      7  C   UNL     1      -0.912   1.784   8.474  1.00  0.00     0.008 C 
ATOM      8  C   UNL     1      -0.671   0.102  10.431  1.00  0.00     0.143 C 
ATOM      9  C   UNL     1      -1.033   0.320   8.949  1.00  0.00     0.034 C 
ENDROOT
BRANCH   1  10
ATOM     10  C   UNL     1       3.331   2.711  10.960  1.00  0.00     0.246 C 
ATOM     11  O   UNL     1       3.463   2.310  12.121  1.00  0.00    -0.272 OA
BRANCH  10  12
ATOM     12  C   UNL     1       4.566   3.044  10.074  1.00  0.00     0.174 C 
BRANCH  12  13
ATOM     13  N   UNL     1       4.631   4.484   9.829  1.00  0.00    -0.342 N 
ATOM     14  C   UNL     1       5.789   5.227   9.782  1.00  0.00     0.249 C 
ATOM     15  O   UNL     1       6.910   4.752   9.915  1.00  0.00    -0.272 OA
ATOM     16  H   UNL     1       3.778   5.039   9.856  1.00  0.00     0.164 HD
BRANCH  14  17
ATOM     17  C   UNL     1       5.526   6.726   9.522  1.00  0.00     0.207 C 
BRANCH  17  18
ATOM     18  C   UNL     1       6.560   7.289   8.543  1.00  0.00     0.077 C 
BRANCH  18  19
ATOM     19  C   UNL     1       6.210   6.965   7.108  1.00  0.00    -0.043 A 
ATOM     20  C   UNL     1       6.862   6.154   4.917  1.00  0.00     0.083 A 
ATOM     21  C   UNL     1       7.173   6.406   6.253  1.00  0.00     0.028 A 
ATOM     22  C   UNL     1       5.592   6.459   4.426  1.00  0.00     0.134 A 
ATOM     23  C   UNL     1       4.629   7.013   5.261  1.00  0.00     0.048 A 
ATOM     24  C   UNL     1       4.938   7.268   6.599  1.00  0.00     0.008 A 
ATOM     25  Cl  UNL     1       8.058   5.466   3.882  1.00  0.00    -0.080 Cl
BRANCH  22  26
ATOM     26  O   UNL     1       5.244   6.239   3.121  1.00  0.00    -0.506 OA
ATOM     27  H   UNL     1       4.756   7.030   2.824  1.00  0.00     0.293 HD
ENDBRANCH  22  26
ENDBRANCH  18  19
ENDBRANCH  17  18
BRANCH  17  28
ATOM     28  O   UNL     1       5.568   7.478  10.746  1.00  0.00    -0.383 OA
ATOM     29  H   UNL     1       5.936   8.360  10.510  1.00  0.00     0.211 HD
ENDBRANCH  17  28
ENDBRANCH  14  17
ENDBRANCH  12  13
BRANCH  12  30
ATOM     30  C   UNL     1       4.603   2.218   8.760  1.00  0.00     0.018 C 
ATOM     31  C   UNL     1       6.042   1.806   8.414  1.00  0.00     0.010 C 
BRANCH  30  32
ATOM     32  C   UNL     1       3.950   2.937   7.555  1.00  0.00     0.002 C 
ATOM     33  C   UNL     1       4.923   3.486   6.520  1.00  0.00     0.004 C 
ENDBRANCH  30  32
ENDBRANCH  12  30
ENDBRANCH  10  12
ENDBRANCH   1  10
BRANCH   5  34
ATOM     34  C   UNL     1       0.821   4.784  11.369  1.00  0.00     0.242 C 
ATOM     35  O   UNL     1       0.591   4.123  12.382  1.00  0.00    -0.273 OA
ATOM     36  N   UNL     1       0.426   6.097  11.238  1.00  0.00    -0.354 N 
ATOM     37  H   UNL     1       0.536   6.555  10.332  1.00  0.00     0.163 HD
BRANCH  36  38
ATOM     38  C   UNL     1      -0.044   6.879  12.362  1.00  0.00     0.116 C 
BRANCH  38  39
ATOM     39  C   UNL     1      -1.531   7.186  12.195  1.00  0.00     0.023 C 
BRANCH  39  40
ATOM     40  C   UNL     1      -2.412   6.284  13.053  1.00  0.00     0.026 C 
BRANCH  40  41
ATOM     41  C   UNL     1      -2.786   5.011  12.295  1.00  0.00     0.146 C 
BRANCH  41  42
ATOM     42  N   UNL     1      -3.488   4.096  13.185  1.00  0.00    -0.254 NA
ATOM     43  C   UNL     1      -2.820   3.352  13.984  1.00  0.00     0.185 C 
ATOM     44  N   UNL     1      -1.491   3.254  14.168  1.00  0.00    -0.370 N 
ATOM     45  N   UNL     1      -3.486   2.512  14.793  1.00  0.00    -0.370 N 
ATOM     46  H   UNL     1      -1.096   2.463  14.647  1.00  0.00     0.159 HD
ATOM     47  H   UNL     1      -0.837   3.829  13.645  1.00  0.00     0.159 HD
ATOM     48  H   UNL     1      -4.495   2.529  14.725  1.00  0.00     0.159 HD
ATOM     49  H   UNL     1      -3.064   2.081  15.596  1.00  0.00     0.159 HD
ENDBRANCH  41  42
ENDBRANCH  40  41
ENDBRANCH  39  40
ENDBRANCH  38  39
ENDBRANCH  36  38
ENDBRANCH   5  34
BRANCH   8  50
ATOM     50  O   UNL     1      -1.662   0.739  11.239  1.00  0.00    -0.245 OA
BRANCH  50  51
ATOM     51  S   UNL     1      -2.468  -0.128  12.354  1.00  0.00     0.397 S 
ATOM     52  O   UNL     1      -2.235  -1.529  12.084  1.00  0.00    -0.169 OA
ATOM     53  O   UNL     1      -3.806   0.403  12.509  1.00  0.00    -0.169 OA
BRANCH  51  54
ATOM     54  O   UNL     1      -1.644   0.201  13.695  1.00  0.00    -0.264 OA
ATOM     55  H   UNL     1      -2.232   0.024  14.457  1.00  0.00     0.236 HD
ENDBRANCH  51  54
ENDBRANCH  50  51
ENDBRANCH   8  50
TORSDOF 19
ENDMDL
MODEL 31
REMARK VINA RESULT:    -7.266      6.457     10.350
REMARK INTER + INTRA:         -17.705
REMARK INTER:                 -13.783
REMARK INTRA:                  -3.922
REMARK UNBOUND:                -3.005
REMARK SMILES CC[C@@H](C)[C@@H](NC(=O)[C@@H](O)Cc1ccc(O)c(Cl)c1)C(=O)N1[C@H](C(=O)NCCCCN=C(N)N)C[C@H]2CC[C@H](OS(=O)(=O)O)C[C@@H]21
REMARK SMILES IDX 22 1 36 2 46 3 35 4 23 5 45 6 37 7 39 8 38 9 20 10 21 11
REMARK SMILES IDX 5 12 6 13 7 14 8 15 9 17 11 18 12 19 17 20 19 21 15 22 14 23
REMARK SMILES IDX 13 24 18 25 16 26 10 28 3 30 4 31 2 32 1 33 24 34 25 35
REMARK SMILES IDX 26 36 27 38 28 39 29 40 30 41 31 42 32 43 33 44 34 45 40 50
REMARK SMILES IDX 41 51 42 52 43 53 44 54
REMARK H PARENT 6 16 16 27 10 29 26 37 33 46 33 47 34 48 34 49 44 55
ROOT
ATOM      1  N   UNL     1       0.973   9.517   1.608  1.00  0.00    -0.326 N 
ATOM      2  C   UNL     1      -0.818   9.204   3.104  1.00  0.00     0.014 C 
ATOM      3  C   UNL     1       0.309  10.174   2.738  1.00  0.00     0.091 C 
ATOM      4  C   UNL     1      -0.196   7.845   2.819  1.00  0.00     0.041 C 
ATOM      5  C   UNL     1       0.468   8.129   1.460  1.00  0.00     0.175 C 
ATOM      6  C   UNL     1      -0.298  11.558   2.516  1.00  0.00     0.059 C 
ATOM      7  C   UNL     1      -1.358   9.499   4.489  1.00  0.00     0.008 C 
ATOM      8  C   UNL     1      -1.539  11.840   3.390  1.00  0.00     0.143 C 
ATOM      9  C   UNL     1      -1.526  11.019   4.696  1.00  0.00     0.034 C 
ENDROOT
BRANCH   1  10
ATOM     10  C   UNL     1       2.075   9.916   0.872  1.00  0.00     0.246 C 
ATOM     11  O   UNL     1       2.079   9.735  -0.351  1.00  0.00    -0.272 OA
BRANCH  10  12
ATOM     12  C   UNL     1       3.262  10.621   1.589  1.00  0.00     0.174 C 
BRANCH  12  13
ATOM     13  N   UNL     1       4.206  11.141   0.599  1.00  0.00    -0.342 N 
ATOM     14  C   UNL     1       4.201  12.424   0.101  1.00  0.00     0.249 C 
ATOM     15  O   UNL     1       3.413  13.291   0.457  1.00  0.00    -0.272 OA
ATOM     16  H   UNL     1       4.814  10.498   0.098  1.00  0.00     0.164 HD
BRANCH  14  17
ATOM     17  C   UNL     1       5.313  12.661  -0.944  1.00  0.00     0.207 C 
BRANCH  17  18
ATOM     18  C   UNL     1       6.435  13.516  -0.346  1.00  0.00     0.077 C 
BRANCH  18  19
ATOM     19  C   UNL     1       7.297  12.723   0.611  1.00  0.00    -0.043 A 
ATOM     20  C   UNL     1       8.592  10.737   1.123  1.00  0.00     0.083 A 
ATOM     21  C   UNL     1       7.838  11.489   0.220  1.00  0.00     0.028 A 
ATOM     22  C   UNL     1       8.807  11.211   2.418  1.00  0.00     0.134 A 
ATOM     23  C   UNL     1       8.276  12.432   2.818  1.00  0.00     0.048 A 
ATOM     24  C   UNL     1       7.520  13.186   1.917  1.00  0.00     0.008 A 
ATOM     25  Cl  UNL     1       9.249   9.223   0.625  1.00  0.00    -0.080 Cl
BRANCH  22  26
ATOM     26  O   UNL     1       9.529  10.504   3.341  1.00  0.00    -0.506 OA
ATOM     27  H   UNL     1      10.405  10.930   3.396  1.00  0.00     0.293 HD
ENDBRANCH  22  26
ENDBRANCH  18  19
ENDBRANCH  17  18
BRANCH  17  28
ATOM     28  O   UNL     1       4.792  13.309  -2.115  1.00  0.00    -0.383 OA
ATOM     29  H   UNL     1       3.813  13.227  -2.059  1.00  0.00     0.211 HD
ENDBRANCH  17  28
ENDBRANCH  14  17
ENDBRANCH  12  13
BRANCH  12  30
ATOM     30  C   UNL     1       3.950   9.714   2.644  1.00  0.00     0.018 C 
ATOM     31  C   UNL     1       3.507  10.095   4.065  1.00  0.00     0.010 C 
BRANCH  30  32
ATOM     32  C   UNL     1       5.496   9.714   2.551  1.00  0.00     0.002 C 
ATOM     33  C   UNL     1       6.183   8.481   3.123  1.00  0.00     0.004 C 
ENDBRANCH  30  32
ENDBRANCH  12  30
ENDBRANCH  10  12
ENDBRANCH   1  10
BRANCH   5  34
ATOM     34  C   UNL     1      -0.552   8.036   0.294  1.00  0.00     0.242 C 
ATOM     35  O   UNL     1      -1.754   7.857   0.485  1.00  0.00    -0.273 OA
ATOM     36  N   UNL     1      -0.007   8.115  -0.968  1.00  0.00    -0.354 N 
ATOM     37  H   UNL     1       1.009   8.143  -1.064  1.00  0.00     0.163 HD
BRANCH  36  38
ATOM     38  C   UNL     1      -0.824   8.262  -2.155  1.00  0.00     0.116 C 
BRANCH  38  39
ATOM     39  C   UNL     1      -1.208   9.728  -2.341  1.00  0.00     0.023 C 
BRANCH  39  40
ATOM     40  C   UNL     1      -0.819  10.263  -3.715  1.00  0.00     0.026 C 
BRANCH  40  41
ATOM     41  C   UNL     1       0.698  10.235  -3.899  1.00  0.00     0.146 C 
BRANCH  41  42
ATOM     42  N   UNL     1       1.173  11.560  -4.275  1.00  0.00    -0.254 NA
ATOM     43  C   UNL     1       1.601  12.359  -3.371  1.00  0.00     0.185 C 
ATOM     44  N   UNL     1       1.701  12.187  -2.040  1.00  0.00    -0.370 N 
ATOM     45  N   UNL     1       2.031  13.578  -3.738  1.00  0.00    -0.370 N 
ATOM     46  H   UNL     1       1.822  12.976  -1.429  1.00  0.00     0.159 HD
ATOM     47  H   UNL     1       1.432  11.316  -1.594  1.00  0.00     0.159 HD
ATOM     48  H   UNL     1       1.998  13.786  -4.726  1.00  0.00     0.159 HD
ATOM     49  H   UNL     1       2.591  14.160  -3.140  1.00  0.00     0.159 HD
ENDBRANCH  41  42
ENDBRANCH  40  41
ENDBRANCH  39  40
ENDBRANCH  38  39
ENDBRANCH  36  38
ENDBRANCH   5  34
BRANCH   8  50
ATOM     50  O   UNL     1      -2.729  11.524   2.668  1.00  0.00    -0.245 OA
BRANCH  50  51
ATOM     51  S   UNL     1      -3.592  12.720   1.981  1.00  0.00     0.397 S 
ATOM     52  O   UNL     1      -3.022  12.992   0.681  1.00  0.00    -0.169 OA
ATOM     53  O   UNL     1      -3.817  13.774   2.948  1.00  0.00    -0.169 OA
BRANCH  51  54
ATOM     54  O   UNL     1      -5.001  11.997   1.700  1.00  0.00    -0.264 OA
ATOM     55  H   UNL     1      -5.290  11.571   2.532  1.00  0.00     0.236 HD
ENDBRANCH  51  54
ENDBRANCH  50  51
ENDBRANCH   8  50
TORSDOF 19
ENDMDL
MODEL 32
REMARK VINA RESULT:    -7.255      6.038     10.435
REMARK INTER + INTRA:         -17.681
REMARK INTER:                 -13.921
REMARK INTRA:                  -3.761
REMARK UNBOUND:                -3.005
REMARK SMILES CC[C@@H](C)[C@@H](NC(=O)[C@@H](O)Cc1ccc(O)c(Cl)c1)C(=O)N1[C@H](C(=O)NCCCCN=C(N)N)C[C@H]2CC[C@H](OS(=O)(=O)O)C[C@@H]21
REMARK SMILES IDX 22 1 36 2 46 3 35 4 23 5 45 6 37 7 39 8 38 9 20 10 21 11
REMARK SMILES IDX 5 12 6 13 7 14 8 15 9 17 11 18 12 19 17 20 19 21 15 22 14 23
REMARK SMILES IDX 13 24 18 25 16 26 10 28 3 30 4 31 2 32 1 33 24 34 25 35
REMARK SMILES IDX 26 36 27 38 28 39 29 40 30 41 31 42 32 43 33 44 34 45 40 50
REMARK SMILES IDX 41 51 42 52 43 53 44 54
REMARK H PARENT 6 16 16 27 10 29 26 37 33 46 33 47 34 48 34 49 44 55
ROOT
ATOM      1  N   UNL     1       2.279  11.999  -0.388  1.00  0.00    -0.326 N 
ATOM      2  C   UNL     1       1.825  13.475  -2.165  1.00  0.00     0.014 C 
ATOM      3  C   UNL     1       2.531  12.159  -1.823  1.00  0.00     0.091 C 
ATOM      4  C   UNL     1       2.026  14.300  -0.903  1.00  0.00     0.041 C 
ATOM      5  C   UNL     1       1.697  13.245   0.169  1.00  0.00     0.175 C 
ATOM      6  C   UNL     1       2.022  11.077  -2.773  1.00  0.00     0.059 C 
ATOM      7  C   UNL     1       2.309  14.019  -3.494  1.00  0.00     0.008 C 
ATOM      8  C   UNL     1       1.641  11.608  -4.172  1.00  0.00     0.143 C 
ATOM      9  C   UNL     1       2.419  12.888  -4.538  1.00  0.00     0.034 C 
ENDROOT
BRANCH   1  10
ATOM     10  C   UNL     1       2.689  11.000   0.479  1.00  0.00     0.246 C 
ATOM     11  O   UNL     1       3.895  10.751   0.581  1.00  0.00    -0.272 OA
BRANCH  10  12
ATOM     12  C   UNL     1       1.632  10.245   1.336  1.00  0.00     0.174 C 
BRANCH  12  13
ATOM     13  N   UNL     1       2.167   9.983   2.671  1.00  0.00    -0.342 N 
ATOM     14  C   UNL     1       2.114  10.862   3.730  1.00  0.00     0.249 C 
ATOM     15  O   UNL     1       1.581  11.963   3.677  1.00  0.00    -0.272 OA
ATOM     16  H   UNL     1       2.771   9.180   2.823  1.00  0.00     0.164 HD
BRANCH  14  17
ATOM     17  C   UNL     1       2.781  10.300   5.004  1.00  0.00     0.207 C 
BRANCH  17  18
ATOM     18  C   UNL     1       3.309   8.884   4.752  1.00  0.00     0.077 C 
BRANCH  18  19
ATOM     19  C   UNL     1       4.816   8.860   4.625  1.00  0.00    -0.043 A 
ATOM     20  C   UNL     1       6.812   9.004   3.255  1.00  0.00     0.083 A 
ATOM     21  C   UNL     1       5.424   9.075   3.378  1.00  0.00     0.028 A 
ATOM     22  C   UNL     1       7.599   8.717   4.371  1.00  0.00     0.134 A 
ATOM     23  C   UNL     1       7.009   8.502   5.611  1.00  0.00     0.048 A 
ATOM     24  C   UNL     1       5.620   8.571   5.738  1.00  0.00     0.008 A 
ATOM     25  Cl  UNL     1       7.542   9.270   1.715  1.00  0.00    -0.080 Cl
BRANCH  22  26
ATOM     26  O   UNL     1       8.963   8.626   4.297  1.00  0.00    -0.506 OA
ATOM     27  H   UNL     1       9.322   9.284   4.920  1.00  0.00     0.293 HD
ENDBRANCH  22  26
ENDBRANCH  18  19
ENDBRANCH  17  18
BRANCH  17  28
ATOM     28  O   UNL     1       1.858  10.276   6.104  1.00  0.00    -0.383 OA
ATOM     29  H   UNL     1       1.715  11.215   6.360  1.00  0.00     0.211 HD
ENDBRANCH  17  28
ENDBRANCH  14  17
ENDBRANCH  12  13
BRANCH  12  30
ATOM     30  C   UNL     1       1.108   8.958   0.644  1.00  0.00     0.018 C 
ATOM     31  C   UNL     1      -0.297   9.183   0.063  1.00  0.00     0.010 C 
BRANCH  30  32
ATOM     32  C   UNL     1       1.109   7.713   1.565  1.00  0.00     0.002 C 
ATOM     33  C   UNL     1      -0.159   7.506   2.382  1.00  0.00     0.004 C 
ENDBRANCH  30  32
ENDBRANCH  12  30
ENDBRANCH  10  12
ENDBRANCH   1  10
BRANCH   5  34
ATOM     34  C   UNL     1       0.165  13.094   0.371  1.00  0.00     0.242 C 
ATOM     35  O   UNL     1      -0.614  12.968  -0.573  1.00  0.00    -0.273 OA
ATOM     36  N   UNL     1      -0.262  13.166   1.678  1.00  0.00    -0.354 N 
ATOM     37  H   UNL     1       0.417  13.391   2.406  1.00  0.00     0.163 HD
BRANCH  36  38
ATOM     38  C   UNL     1      -1.617  12.833   2.068  1.00  0.00     0.116 C 
BRANCH  38  39
ATOM     39  C   UNL     1      -2.436  14.110   2.237  1.00  0.00     0.023 C 
BRANCH  39  40
ATOM     40  C   UNL     1      -1.928  14.981   3.381  1.00  0.00     0.026 C 
BRANCH  40  41
ATOM     41  C   UNL     1      -2.103  14.271   4.723  1.00  0.00     0.146 C 
BRANCH  41  42
ATOM     42  N   UNL     1      -0.830  14.233   5.430  1.00  0.00    -0.254 NA
ATOM     43  C   UNL     1      -0.361  13.111   5.829  1.00  0.00     0.185 C 
ATOM     44  N   UNL     1      -0.863  11.869   5.705  1.00  0.00    -0.370 N 
ATOM     45  N   UNL     1       0.812  13.098   6.484  1.00  0.00    -0.370 N 
ATOM     46  H   UNL     1      -0.516  11.116   6.273  1.00  0.00     0.159 HD
ATOM     47  H   UNL     1      -1.740  11.695   5.223  1.00  0.00     0.159 HD
ATOM     48  H   UNL     1       1.263  13.994   6.613  1.00  0.00     0.159 HD
ATOM     49  H   UNL     1       1.353  12.262   6.615  1.00  0.00     0.159 HD
ENDBRANCH  41  42
ENDBRANCH  40  41
ENDBRANCH  39  40
ENDBRANCH  38  39
ENDBRANCH  36  38
ENDBRANCH   5  34
BRANCH   8  50
ATOM     50  O   UNL     1       0.244  11.897  -4.223  1.00  0.00    -0.245 OA
BRANCH  50  51
ATOM     51  S   UNL     1      -0.832  10.707  -3.955  1.00  0.00     0.397 S 
ATOM     52  O   UNL     1      -0.100   9.471  -3.791  1.00  0.00    -0.169 OA
ATOM     53  O   UNL     1      -1.928  10.821  -4.896  1.00  0.00    -0.169 OA
BRANCH  51  54
ATOM     54  O   UNL     1      -1.391  11.082  -2.495  1.00  0.00    -0.264 OA
ATOM     55  H   UNL     1      -1.219  12.034  -2.345  1.00  0.00     0.236 HD
ENDBRANCH  51  54
ENDBRANCH  50  51
ENDBRANCH   8  50
TORSDOF 19
ENDMDL
MODEL 33
REMARK VINA RESULT:    -7.248      5.068     11.084
REMARK INTER + INTRA:         -17.669
REMARK INTER:                 -14.292
REMARK INTRA:                  -3.377
REMARK UNBOUND:                -3.005
REMARK SMILES CC[C@@H](C)[C@@H](NC(=O)[C@@H](O)Cc1ccc(O)c(Cl)c1)C(=O)N1[C@H](C(=O)NCCCCN=C(N)N)C[C@H]2CC[C@H](OS(=O)(=O)O)C[C@@H]21
REMARK SMILES IDX 22 1 36 2 46 3 35 4 23 5 45 6 37 7 39 8 38 9 20 10 21 11
REMARK SMILES IDX 5 12 6 13 7 14 8 15 9 17 11 18 12 19 17 20 19 21 15 22 14 23
REMARK SMILES IDX 13 24 18 25 16 26 10 28 3 30 4 31 2 32 1 33 24 34 25 35
REMARK SMILES IDX 26 36 27 38 28 39 29 40 30 41 31 42 32 43 33 44 34 45 40 50
REMARK SMILES IDX 41 51 42 52 43 53 44 54
REMARK H PARENT 6 16 16 27 10 29 26 37 33 46 33 47 34 48 34 49 44 55
ROOT
ATOM      1  N   UNL     1      -0.611  11.492  -0.215  1.00  0.00    -0.326 N 
ATOM      2  C   UNL     1      -0.854  13.194   1.394  1.00  0.00     0.014 C 
ATOM      3  C   UNL     1      -1.589  12.020   0.741  1.00  0.00     0.091 C 
ATOM      4  C   UNL     1      -0.014  13.740   0.250  1.00  0.00     0.041 C 
ATOM      5  C   UNL     1       0.535  12.427  -0.337  1.00  0.00     0.175 C 
ATOM      6  C   UNL     1      -2.096  11.094   1.845  1.00  0.00     0.059 C 
ATOM      7  C   UNL     1      -1.826  14.113   2.107  1.00  0.00     0.008 C 
ATOM      8  C   UNL     1      -2.464  11.828   3.152  1.00  0.00     0.143 C 
ATOM      9  C   UNL     1      -2.868  13.295   2.899  1.00  0.00     0.034 C 
ENDROOT
BRANCH   1  10
ATOM     10  C   UNL     1      -0.720  10.438  -1.106  1.00  0.00     0.246 C 
ATOM     11  O   UNL     1      -1.686  10.399  -1.875  1.00  0.00    -0.272 OA
BRANCH  10  12
ATOM     12  C   UNL     1       0.393   9.352  -1.149  1.00  0.00     0.174 C 
BRANCH  12  13
ATOM     13  N   UNL     1       0.819   9.128  -2.530  1.00  0.00    -0.342 N 
ATOM     14  C   UNL     1       1.785   9.857  -3.187  1.00  0.00     0.249 C 
ATOM     15  O   UNL     1       2.422  10.766  -2.670  1.00  0.00    -0.272 OA
ATOM     16  H   UNL     1       0.274   8.515  -3.132  1.00  0.00     0.164 HD
BRANCH  14  17
ATOM     17  C   UNL     1       1.996   9.390  -4.643  1.00  0.00     0.207 C 
BRANCH  17  18
ATOM     18  C   UNL     1       3.144  10.168  -5.294  1.00  0.00     0.077 C 
BRANCH  18  19
ATOM     19  C   UNL     1       4.146   9.246  -5.951  1.00  0.00    -0.043 A 
ATOM     20  C   UNL     1       5.691   8.764  -7.758  1.00  0.00     0.083 A 
ATOM     21  C   UNL     1       4.804   9.637  -7.127  1.00  0.00     0.028 A 
ATOM     22  C   UNL     1       5.925   7.498  -7.221  1.00  0.00     0.134 A 
ATOM     23  C   UNL     1       5.281   7.097  -6.056  1.00  0.00     0.048 A 
ATOM     24  C   UNL     1       4.391   7.968  -5.423  1.00  0.00     0.008 A 
ATOM     25  Cl  UNL     1       6.489   9.263  -9.203  1.00  0.00    -0.080 Cl
BRANCH  22  26
ATOM     26  O   UNL     1       6.778   6.604  -7.809  1.00  0.00    -0.506 OA
ATOM     27  H   UNL     1       7.646   7.044  -7.873  1.00  0.00     0.293 HD
ENDBRANCH  22  26
ENDBRANCH  18  19
ENDBRANCH  17  18
BRANCH  17  28
ATOM     28  O   UNL     1       0.800   9.565  -5.420  1.00  0.00    -0.383 OA
ATOM     29  H   UNL     1       0.862  10.464  -5.815  1.00  0.00     0.211 HD
ENDBRANCH  17  28
ENDBRANCH  14  17
ENDBRANCH  12  13
BRANCH  12  30
ATOM     30  C   UNL     1      -0.024   8.036  -0.437  1.00  0.00     0.018 C 
ATOM     31  C   UNL     1      -1.514   8.067  -0.062  1.00  0.00     0.010 C 
BRANCH  30  32
ATOM     32  C   UNL     1       0.831   7.705   0.810  1.00  0.00     0.002 C 
ATOM     33  C   UNL     1       0.050   7.506   2.102  1.00  0.00     0.004 C 
ENDBRANCH  30  32
ENDBRANCH  12  30
ENDBRANCH  10  12
ENDBRANCH   1  10
BRANCH   5  34
ATOM     34  C   UNL     1       1.756  11.907   0.467  1.00  0.00     0.242 C 
ATOM     35  O   UNL     1       1.645  11.079   1.371  1.00  0.00    -0.273 OA
ATOM     36  N   UNL     1       2.963  12.480   0.133  1.00  0.00    -0.354 N 
ATOM     37  H   UNL     1       2.974  13.247  -0.540  1.00  0.00     0.163 HD
BRANCH  36  38
ATOM     38  C   UNL     1       4.225  11.966   0.625  1.00  0.00     0.116 C 
BRANCH  38  39
ATOM     39  C   UNL     1       4.535  12.573   1.991  1.00  0.00     0.023 C 
BRANCH  39  40
ATOM     40  C   UNL     1       5.266  11.599   2.909  1.00  0.00     0.026 C 
BRANCH  40  41
ATOM     41  C   UNL     1       4.456  10.314   3.090  1.00  0.00     0.146 C 
BRANCH  41  42
ATOM     42  N   UNL     1       4.090  10.157   4.492  1.00  0.00    -0.254 NA
ATOM     43  C   UNL     1       2.901  10.443   4.871  1.00  0.00     0.185 C 
ATOM     44  N   UNL     1       1.851  10.894   4.162  1.00  0.00    -0.370 N 
ATOM     45  N   UNL     1       2.585  10.295   6.168  1.00  0.00    -0.370 N 
ATOM     46  H   UNL     1       1.059  11.306   4.624  1.00  0.00     0.159 HD
ATOM     47  H   UNL     1       1.912  11.049   3.160  1.00  0.00     0.159 HD
ATOM     48  H   UNL     1       3.319   9.950   6.772  1.00  0.00     0.159 HD
ATOM     49  H   UNL     1       1.636  10.267   6.497  1.00  0.00     0.159 HD
ENDBRANCH  41  42
ENDBRANCH  40  41
ENDBRANCH  39  40
ENDBRANCH  38  39
ENDBRANCH  36  38
ENDBRANCH   5  34
BRANCH   8  50
ATOM     50  O   UNL     1      -1.355  11.812   4.052  1.00  0.00    -0.245 OA
BRANCH  50  51
ATOM     51  S   UNL     1      -1.564  11.277   5.574  1.00  0.00     0.397 S 
ATOM     52  O   UNL     1      -2.689  11.983   6.145  1.00  0.00    -0.169 OA
ATOM     53  O   UNL     1      -0.283  11.217   6.248  1.00  0.00    -0.169 OA
BRANCH  51  54
ATOM     54  O   UNL     1      -2.069   9.770   5.333  1.00  0.00    -0.264 OA
ATOM     55  H   UNL     1      -3.017   9.807   5.095  1.00  0.00     0.236 HD
ENDBRANCH  51  54
ENDBRANCH  50  51
ENDBRANCH   8  50
TORSDOF 19
ENDMDL
MODEL 34
REMARK VINA RESULT:    -7.236      6.988      9.493
REMARK INTER + INTRA:         -17.644
REMARK INTER:                 -13.941
REMARK INTRA:                  -3.703
REMARK UNBOUND:                -3.005
REMARK SMILES CC[C@@H](C)[C@@H](NC(=O)[C@@H](O)Cc1ccc(O)c(Cl)c1)C(=O)N1[C@H](C(=O)NCCCCN=C(N)N)C[C@H]2CC[C@H](OS(=O)(=O)O)C[C@@H]21
REMARK SMILES IDX 22 1 36 2 46 3 35 4 23 5 45 6 37 7 39 8 38 9 20 10 21 11
REMARK SMILES IDX 5 12 6 13 7 14 8 15 9 17 11 18 12 19 17 20 19 21 15 22 14 23
REMARK SMILES IDX 13 24 18 25 16 26 10 28 3 30 4 31 2 32 1 33 24 34 25 35
REMARK SMILES IDX 26 36 27 38 28 39 29 40 30 41 31 42 32 43 33 44 34 45 40 50
REMARK SMILES IDX 41 51 42 52 43 53 44 54
REMARK H PARENT 6 16 16 27 10 29 26 37 33 46 33 47 34 48 34 49 44 55
ROOT
ATOM      1  N   UNL     1       0.606  10.834   1.547  1.00  0.00    -0.326 N 
ATOM      2  C   UNL     1       0.515   8.928   0.168  1.00  0.00     0.014 C 
ATOM      3  C   UNL     1      -0.310  10.125   0.648  1.00  0.00     0.091 C 
ATOM      4  C   UNL     1       1.356   8.589   1.389  1.00  0.00     0.041 C 
ATOM      5  C   UNL     1       1.805  10.001   1.811  1.00  0.00     0.175 C 
ATOM      6  C   UNL     1      -0.843  10.867  -0.576  1.00  0.00     0.059 C 
ATOM      7  C   UNL     1      -0.377   7.863  -0.439  1.00  0.00     0.008 C 
ATOM      8  C   UNL     1      -1.128   9.949  -1.784  1.00  0.00     0.143 C 
ATOM      9  C   UNL     1      -1.445   8.504  -1.351  1.00  0.00     0.034 C 
ENDROOT
BRANCH   1  10
ATOM     10  C   UNL     1       0.406  11.984   2.291  1.00  0.00     0.246 C 
ATOM     11  O   UNL     1       0.496  13.084   1.736  1.00  0.00    -0.272 OA
BRANCH  10  12
ATOM     12  C   UNL     1       0.032  11.867   3.797  1.00  0.00     0.174 C 
BRANCH  12  13
ATOM     13  N   UNL     1       1.105  11.194   4.528  1.00  0.00    -0.342 N 
ATOM     14  C   UNL     1       1.775  11.719   5.610  1.00  0.00     0.249 C 
ATOM     15  O   UNL     1       1.522  12.811   6.104  1.00  0.00    -0.272 OA
ATOM     16  H   UNL     1       1.528  10.353   4.140  1.00  0.00     0.164 HD
BRANCH  14  17
ATOM     17  C   UNL     1       2.868  10.772   6.150  1.00  0.00     0.207 C 
BRANCH  17  18
ATOM     18  C   UNL     1       2.934   9.494   5.308  1.00  0.00     0.077 C 
BRANCH  18  19
ATOM     19  C   UNL     1       4.356   9.010   5.134  1.00  0.00    -0.043 A 
ATOM     20  C   UNL     1       5.973   7.202   5.112  1.00  0.00     0.083 A 
ATOM     21  C   UNL     1       4.654   7.641   5.224  1.00  0.00     0.028 A 
ATOM     22  C   UNL     1       7.001   8.124   4.911  1.00  0.00     0.134 A 
ATOM     23  C   UNL     1       6.720   9.482   4.819  1.00  0.00     0.048 A 
ATOM     24  C   UNL     1       5.401   9.925   4.933  1.00  0.00     0.008 A 
ATOM     25  Cl  UNL     1       6.319   5.516   5.226  1.00  0.00    -0.080 Cl
BRANCH  22  26
ATOM     26  O   UNL     1       8.311   7.742   4.805  1.00  0.00    -0.506 OA
ATOM     27  H   UNL     1       8.846   8.556   4.863  1.00  0.00     0.293 HD
ENDBRANCH  22  26
ENDBRANCH  18  19
ENDBRANCH  17  18
BRANCH  17  28
ATOM     28  O   UNL     1       2.620  10.426   7.523  1.00  0.00    -0.383 OA
ATOM     29  H   UNL     1       1.954  11.072   7.850  1.00  0.00     0.211 HD
ENDBRANCH  17  28
ENDBRANCH  14  17
ENDBRANCH  12  13
BRANCH  12  30
ATOM     30  C   UNL     1      -1.350  11.194   4.021  1.00  0.00     0.018 C 
ATOM     31  C   UNL     1      -2.310  12.147   4.750  1.00  0.00     0.010 C 
BRANCH  30  32
ATOM     32  C   UNL     1      -1.268   9.843   4.773  1.00  0.00     0.002 C 
ATOM     33  C   UNL     1      -0.984   8.628   3.901  1.00  0.00     0.004 C 
ENDBRANCH  30  32
ENDBRANCH  12  30
ENDBRANCH  10  12
ENDBRANCH   1  10
BRANCH   5  34
ATOM     34  C   UNL     1       3.013  10.492   0.970  1.00  0.00     0.242 C 
ATOM     35  O   UNL     1       2.873  11.107  -0.087  1.00  0.00    -0.273 OA
ATOM     36  N   UNL     1       4.251  10.144   1.464  1.00  0.00    -0.354 N 
ATOM     37  H   UNL     1       4.300   9.532   2.280  1.00  0.00     0.163 HD
BRANCH  36  38
ATOM     38  C   UNL     1       5.479  10.697   0.933  1.00  0.00     0.116 C 
BRANCH  38  39
ATOM     39  C   UNL     1       5.818  11.998   1.657  1.00  0.00     0.023 C 
BRANCH  39  40
ATOM     40  C   UNL     1       7.312  12.143   1.926  1.00  0.00     0.026 C 
BRANCH  40  41
ATOM     41  C   UNL     1       8.120  11.236   0.997  1.00  0.00     0.146 C 
BRANCH  41  42
ATOM     42  N   UNL     1       9.250  10.670   1.722  1.00  0.00    -0.254 NA
ATOM     43  C   UNL     1       9.253   9.425   2.018  1.00  0.00     0.185 C 
ATOM     44  N   UNL     1       8.338   8.473   1.763  1.00  0.00    -0.370 N 
ATOM     45  N   UNL     1      10.302   8.924   2.691  1.00  0.00    -0.370 N 
ATOM     46  H   UNL     1       8.353   7.599   2.261  1.00  0.00     0.159 HD
ATOM     47  H   UNL     1       7.486   8.676   1.249  1.00  0.00     0.159 HD
ATOM     48  H   UNL     1      11.043   9.574   2.916  1.00  0.00     0.159 HD
ATOM     49  H   UNL     1      10.490   7.939   2.750  1.00  0.00     0.159 HD
ENDBRANCH  41  42
ENDBRANCH  40  41
ENDBRANCH  39  40
ENDBRANCH  38  39
ENDBRANCH  36  38
ENDBRANCH   5  34
BRANCH   8  50
ATOM     50  O   UNL     1       0.002   9.923  -2.656  1.00  0.00    -0.245 OA
BRANCH  50  51
ATOM     51  S   UNL     1      -0.143  10.487  -4.175  1.00  0.00     0.397 S 
ATOM     52  O   UNL     1      -1.533  10.811  -4.400  1.00  0.00    -0.169 OA
ATOM     53  O   UNL     1       0.595   9.633  -5.083  1.00  0.00    -0.169 OA
BRANCH  51  54
ATOM     54  O   UNL     1       0.626  11.896  -4.085  1.00  0.00    -0.264 OA
ATOM     55  H   UNL     1       1.356  11.797  -3.440  1.00  0.00     0.236 HD
ENDBRANCH  51  54
ENDBRANCH  50  51
ENDBRANCH   8  50
TORSDOF 19
ENDMDL
MODEL 35
REMARK VINA RESULT:    -7.204      5.458     10.869
REMARK INTER + INTRA:         -17.579
REMARK INTER:                 -13.769
REMARK INTRA:                  -3.811
REMARK UNBOUND:                -3.005
REMARK SMILES CC[C@@H](C)[C@@H](NC(=O)[C@@H](O)Cc1ccc(O)c(Cl)c1)C(=O)N1[C@H](C(=O)NCCCCN=C(N)N)C[C@H]2CC[C@H](OS(=O)(=O)O)C[C@@H]21
REMARK SMILES IDX 22 1 36 2 46 3 35 4 23 5 45 6 37 7 39 8 38 9 20 10 21 11
REMARK SMILES IDX 5 12 6 13 7 14 8 15 9 17 11 18 12 19 17 20 19 21 15 22 14 23
REMARK SMILES IDX 13 24 18 25 16 26 10 28 3 30 4 31 2 32 1 33 24 34 25 35
REMARK SMILES IDX 26 36 27 38 28 39 29 40 30 41 31 42 32 43 33 44 34 45 40 50
REMARK SMILES IDX 41 51 42 52 43 53 44 54
REMARK H PARENT 6 16 16 27 10 29 26 37 33 46 33 47 34 48 34 49 44 55
ROOT
ATOM      1  N   UNL     1      -1.491  10.832   2.212  1.00  0.00    -0.326 N 
ATOM      2  C   UNL     1      -2.284  12.645   3.487  1.00  0.00     0.014 C 
ATOM      3  C   UNL     1      -2.022  11.138   3.544  1.00  0.00     0.091 C 
ATOM      4  C   UNL     1      -2.718  12.856   2.044  1.00  0.00     0.041 C 
ATOM      5  C   UNL     1      -1.663  12.002   1.316  1.00  0.00     0.175 C 
ATOM      6  C   UNL     1      -1.143  10.846   4.759  1.00  0.00     0.059 C 
ATOM      7  C   UNL     1      -3.206  13.078   4.610  1.00  0.00     0.008 C 
ATOM      8  C   UNL     1      -1.380  11.808   5.943  1.00  0.00     0.143 C 
ATOM      9  C   UNL     1      -2.806  12.395   5.935  1.00  0.00     0.034 C 
ENDROOT
BRANCH   1  10
ATOM     10  C   UNL     1      -1.092   9.621   1.672  1.00  0.00     0.246 C 
ATOM     11  O   UNL     1      -1.867   8.660   1.713  1.00  0.00    -0.272 OA
BRANCH  10  12
ATOM     12  C   UNL     1       0.302   9.508   0.990  1.00  0.00     0.174 C 
BRANCH  12  13
ATOM     13  N   UNL     1       0.142   9.111  -0.409  1.00  0.00    -0.342 N 
ATOM     14  C   UNL     1       1.054   9.359  -1.410  1.00  0.00     0.249 C 
ATOM     15  O   UNL     1       2.127   9.923  -1.231  1.00  0.00    -0.272 OA
ATOM     16  H   UNL     1      -0.760   8.776  -0.737  1.00  0.00     0.164 HD
BRANCH  14  17
ATOM     17  C   UNL     1       0.589   8.830  -2.783  1.00  0.00     0.207 C 
BRANCH  17  18
ATOM     18  C   UNL     1       0.079   9.981  -3.656  1.00  0.00     0.077 C 
BRANCH  18  19
ATOM     19  C   UNL     1       1.150  10.492  -4.594  1.00  0.00    -0.043 A 
ATOM     20  C   UNL     1       3.317  10.232  -5.652  1.00  0.00     0.083 A 
ATOM     21  C   UNL     1       2.309   9.735  -4.825  1.00  0.00     0.028 A 
ATOM     22  C   UNL     1       3.175  11.485  -6.250  1.00  0.00     0.134 A 
ATOM     23  C   UNL     1       2.032  12.245  -6.030  1.00  0.00     0.048 A 
ATOM     24  C   UNL     1       1.022  11.751  -5.201  1.00  0.00     0.008 A 
ATOM     25  Cl  UNL     1       4.734   9.288  -5.924  1.00  0.00    -0.080 Cl
BRANCH  22  26
ATOM     26  O   UNL     1       4.141  12.018  -7.060  1.00  0.00    -0.506 OA
ATOM     27  H   UNL     1       4.968  11.541  -6.862  1.00  0.00     0.293 HD
ENDBRANCH  22  26
ENDBRANCH  18  19
ENDBRANCH  17  18
BRANCH  17  28
ATOM     28  O   UNL     1      -0.449   7.848  -2.635  1.00  0.00    -0.383 OA
ATOM     29  H   UNL     1      -0.419   7.561  -1.694  1.00  0.00     0.211 HD
ENDBRANCH  17  28
ENDBRANCH  14  17
ENDBRANCH  12  13
BRANCH  12  30
ATOM     30  C   UNL     1       1.275   8.577   1.763  1.00  0.00     0.018 C 
ATOM     31  C   UNL     1       1.029   7.105   1.396  1.00  0.00     0.010 C 
BRANCH  30  32
ATOM     32  C   UNL     1       1.219   8.759   3.299  1.00  0.00     0.002 C 
ATOM     33  C   UNL     1       2.515   9.229   3.946  1.00  0.00     0.004 C 
ENDBRANCH  30  32
ENDBRANCH  12  30
ENDBRANCH  10  12
ENDBRANCH   1  10
BRANCH   5  34
ATOM     34  C   UNL     1      -0.324  12.768   1.148  1.00  0.00     0.242 C 
ATOM     35  O   UNL     1       0.485  12.889   2.067  1.00  0.00    -0.273 OA
ATOM     36  N   UNL     1      -0.132  13.348  -0.087  1.00  0.00    -0.354 N 
ATOM     37  H   UNL     1      -0.891  13.315  -0.768  1.00  0.00     0.163 HD
BRANCH  36  38
ATOM     38  C   UNL     1       1.141  13.911  -0.487  1.00  0.00     0.116 C 
BRANCH  38  39
ATOM     39  C   UNL     1       1.582  13.303  -1.816  1.00  0.00     0.023 C 
BRANCH  39  40
ATOM     40  C   UNL     1       3.088  13.400  -2.030  1.00  0.00     0.026 C 
BRANCH  40  41
ATOM     41  C   UNL     1       3.824  13.452  -0.691  1.00  0.00     0.146 C 
BRANCH  41  42
ATOM     42  N   UNL     1       4.321  12.126  -0.351  1.00  0.00    -0.254 NA
ATOM     43  C   UNL     1       4.009  11.602   0.774  1.00  0.00     0.185 C 
ATOM     44  N   UNL     1       3.248  12.087   1.773  1.00  0.00    -0.370 N 
ATOM     45  N   UNL     1       4.481  10.380   1.071  1.00  0.00    -0.370 N 
ATOM     46  H   UNL     1       3.287  11.679   2.692  1.00  0.00     0.159 HD
ATOM     47  H   UNL     1       2.800  12.996   1.709  1.00  0.00     0.159 HD
ATOM     48  H   UNL     1       5.056   9.939   0.367  1.00  0.00     0.159 HD
ATOM     49  H   UNL     1       4.098   9.813   1.807  1.00  0.00     0.159 HD
ENDBRANCH  41  42
ENDBRANCH  40  41
ENDBRANCH  39  40
ENDBRANCH  38  39
ENDBRANCH  36  38
ENDBRANCH   5  34
BRANCH   8  50
ATOM     50  O   UNL     1      -0.446  12.887   5.893  1.00  0.00    -0.245 OA
BRANCH  50  51
ATOM     51  S   UNL     1       1.014  12.718   6.590  1.00  0.00     0.397 S 
ATOM     52  O   UNL     1       1.220  13.844   7.472  1.00  0.00    -0.169 OA
ATOM     53  O   UNL     1       1.992  12.349   5.588  1.00  0.00    -0.169 OA
BRANCH  51  54
ATOM     54  O   UNL     1       0.782  11.448   7.549  1.00  0.00    -0.264 OA
ATOM     55  H   UNL     1      -0.014  11.624   8.091  1.00  0.00     0.236 HD
ENDBRANCH  51  54
ENDBRANCH  50  51
ENDBRANCH   8  50
TORSDOF 19
ENDMDL
MODEL 36
REMARK VINA RESULT:    -7.186      4.244      8.154
REMARK INTER + INTRA:         -17.542
REMARK INTER:                 -14.564
REMARK INTRA:                  -2.979
REMARK UNBOUND:                -3.005
REMARK SMILES CC[C@@H](C)[C@@H](NC(=O)[C@@H](O)Cc1ccc(O)c(Cl)c1)C(=O)N1[C@H](C(=O)NCCCCN=C(N)N)C[C@H]2CC[C@H](OS(=O)(=O)O)C[C@@H]21
REMARK SMILES IDX 22 1 36 2 46 3 35 4 23 5 45 6 37 7 39 8 38 9 20 10 21 11
REMARK SMILES IDX 5 12 6 13 7 14 8 15 9 17 11 18 12 19 17 20 19 21 15 22 14 23
REMARK SMILES IDX 13 24 18 25 16 26 10 28 3 30 4 31 2 32 1 33 24 34 25 35
REMARK SMILES IDX 26 36 27 38 28 39 29 40 30 41 31 42 32 43 33 44 34 45 40 50
REMARK SMILES IDX 41 51 42 52 43 53 44 54
REMARK H PARENT 6 16 16 27 10 29 26 37 33 46 33 47 34 48 34 49 44 55
ROOT
ATOM      1  N   UNL     1       0.930  10.883  -0.046  1.00  0.00    -0.326 N 
ATOM      2  C   UNL     1       1.186  12.951  -1.142  1.00  0.00     0.014 C 
ATOM      3  C   UNL     1       1.826  12.043  -0.088  1.00  0.00     0.091 C 
ATOM      4  C   UNL     1      -0.301  12.704  -0.939  1.00  0.00     0.041 C 
ATOM      5  C   UNL     1      -0.307  11.170  -0.814  1.00  0.00     0.175 C 
ATOM      6  C   UNL     1       3.287  11.815  -0.468  1.00  0.00     0.059 C 
ATOM      7  C   UNL     1       1.726  14.364  -1.039  1.00  0.00     0.008 C 
ATOM      8  C   UNL     1       3.933  13.012  -1.199  1.00  0.00     0.143 C 
ATOM      9  C   UNL     1       3.256  14.348  -0.832  1.00  0.00     0.034 C 
ENDROOT
BRANCH   1  10
ATOM     10  C   UNL     1       0.989   9.743   0.737  1.00  0.00     0.246 C 
ATOM     11  O   UNL     1       1.309   8.670   0.215  1.00  0.00    -0.272 OA
BRANCH  10  12
ATOM     12  C   UNL     1       0.695   9.844   2.262  1.00  0.00     0.174 C 
BRANCH  12  13
ATOM     13  N   UNL     1       1.917   9.589   3.024  1.00  0.00    -0.342 N 
ATOM     14  C   UNL     1       2.798  10.556   3.451  1.00  0.00     0.249 C 
ATOM     15  O   UNL     1       2.639  11.756   3.262  1.00  0.00    -0.272 OA
ATOM     16  H   UNL     1       2.260   8.637   3.121  1.00  0.00     0.164 HD
BRANCH  14  17
ATOM     17  C   UNL     1       4.003   9.968   4.217  1.00  0.00     0.207 C 
BRANCH  17  18
ATOM     18  C   UNL     1       4.560   8.746   3.480  1.00  0.00     0.077 C 
BRANCH  18  19
ATOM     19  C   UNL     1       5.848   9.066   2.755  1.00  0.00    -0.043 A 
ATOM     20  C   UNL     1       7.059  10.337   1.081  1.00  0.00     0.083 A 
ATOM     21  C   UNL     1       5.881  10.078   1.783  1.00  0.00     0.028 A 
ATOM     22  C   UNL     1       8.207   9.590   1.343  1.00  0.00     0.134 A 
ATOM     23  C   UNL     1       8.189   8.585   2.304  1.00  0.00     0.048 A 
ATOM     24  C   UNL     1       7.011   8.321   3.007  1.00  0.00     0.008 A 
ATOM     25  Cl  UNL     1       7.080  11.585  -0.110  1.00  0.00    -0.080 Cl
BRANCH  22  26
ATOM     26  O   UNL     1       9.382   9.800   0.674  1.00  0.00    -0.506 OA
ATOM     27  H   UNL     1       9.214   9.583  -0.262  1.00  0.00     0.293 HD
ENDBRANCH  22  26
ENDBRANCH  18  19
ENDBRANCH  17  18
BRANCH  17  28
ATOM     28  O   UNL     1       3.633   9.591   5.553  1.00  0.00    -0.383 OA
ATOM     29  H   UNL     1       3.653  10.419   6.084  1.00  0.00     0.211 HD
ENDBRANCH  17  28
ENDBRANCH  14  17
ENDBRANCH  12  13
BRANCH  12  30
ATOM     30  C   UNL     1      -0.482   8.935   2.708  1.00  0.00     0.018 C 
ATOM     31  C   UNL     1      -0.034   7.468   2.800  1.00  0.00     0.010 C 
BRANCH  30  32
ATOM     32  C   UNL     1      -1.735   9.053   1.805  1.00  0.00     0.002 C 
ATOM     33  C   UNL     1      -2.000   7.858   0.900  1.00  0.00     0.004 C 
ENDBRANCH  30  32
ENDBRANCH  12  30
ENDBRANCH  10  12
ENDBRANCH   1  10
BRANCH   5  34
ATOM     34  C   UNL     1      -0.264  10.481  -2.204  1.00  0.00     0.242 C 
ATOM     35  O   UNL     1      -1.261  10.379  -2.919  1.00  0.00    -0.273 OA
ATOM     36  N   UNL     1       0.955   9.947  -2.555  1.00  0.00    -0.354 N 
ATOM     37  H   UNL     1       1.712   9.958  -1.870  1.00  0.00     0.163 HD
BRANCH  36  38
ATOM     38  C   UNL     1       1.232   9.465  -3.892  1.00  0.00     0.116 C 
BRANCH  38  39
ATOM     39  C   UNL     1       1.955  10.544  -4.694  1.00  0.00     0.023 C 
BRANCH  39  40
ATOM     40  C   UNL     1       2.863   9.961  -5.771  1.00  0.00     0.026 C 
BRANCH  40  41
ATOM     41  C   UNL     1       3.247  11.029  -6.794  1.00  0.00     0.146 C 
BRANCH  41  42
ATOM     42  N   UNL     1       2.691  10.686  -8.097  1.00  0.00    -0.254 NA
ATOM     43  C   UNL     1       3.327  11.005  -9.161  1.00  0.00     0.185 C 
ATOM     44  N   UNL     1       4.502  11.645  -9.308  1.00  0.00    -0.370 N 
ATOM     45  N   UNL     1       2.796  10.684 -10.352  1.00  0.00    -0.370 N 
ATOM     46  H   UNL     1       4.761  12.044 -10.194  1.00  0.00     0.159 HD
ATOM     47  H   UNL     1       5.047  11.949  -8.507  1.00  0.00     0.159 HD
ATOM     48  H   UNL     1       1.913  10.191 -10.330  1.00  0.00     0.159 HD
ATOM     49  H   UNL     1       3.329  10.683 -11.203  1.00  0.00     0.159 HD
ENDBRANCH  41  42
ENDBRANCH  40  41
ENDBRANCH  39  40
ENDBRANCH  38  39
ENDBRANCH  36  38
ENDBRANCH   5  34
BRANCH   8  50
ATOM     50  O   UNL     1       3.842  12.831  -2.613  1.00  0.00    -0.245 OA
BRANCH  50  51
ATOM     51  S   UNL     1       5.124  13.178  -3.551  1.00  0.00     0.397 S 
ATOM     52  O   UNL     1       5.423  12.009  -4.348  1.00  0.00    -0.169 OA
ATOM     53  O   UNL     1       6.141  13.838  -2.760  1.00  0.00    -0.169 OA
BRANCH  51  54
ATOM     54  O   UNL     1       4.511  14.258  -4.572  1.00  0.00    -0.264 OA
ATOM     55  H   UNL     1       5.087  15.049  -4.551  1.00  0.00     0.236 HD
ENDBRANCH  51  54
ENDBRANCH  50  51
ENDBRANCH   8  50
TORSDOF 19
ENDMDL
MODEL 37
REMARK VINA RESULT:    -7.181      5.826      9.642
REMARK INTER + INTRA:         -17.533
REMARK INTER:                 -13.349
REMARK INTRA:                  -4.184
REMARK UNBOUND:                -3.005
REMARK SMILES CC[C@@H](C)[C@@H](NC(=O)[C@@H](O)Cc1ccc(O)c(Cl)c1)C(=O)N1[C@H](C(=O)NCCCCN=C(N)N)C[C@H]2CC[C@H](OS(=O)(=O)O)C[C@@H]21
REMARK SMILES IDX 22 1 36 2 46 3 35 4 23 5 45 6 37 7 39 8 38 9 20 10 21 11
REMARK SMILES IDX 5 12 6 13 7 14 8 15 9 17 11 18 12 19 17 20 19 21 15 22 14 23
REMARK SMILES IDX 13 24 18 25 16 26 10 28 3 30 4 31 2 32 1 33 24 34 25 35
REMARK SMILES IDX 26 36 27 38 28 39 29 40 30 41 31 42 32 43 33 44 34 45 40 50
REMARK SMILES IDX 41 51 42 52 43 53 44 54
REMARK H PARENT 6 16 16 27 10 29 26 37 33 46 33 47 34 48 34 49 44 55
ROOT
ATOM      1  N   UNL     1       2.714  12.203  -0.469  1.00  0.00    -0.326 N 
ATOM      2  C   UNL     1       1.949  13.523  -2.261  1.00  0.00     0.014 C 
ATOM      3  C   UNL     1       2.825  12.312  -1.926  1.00  0.00     0.091 C 
ATOM      4  C   UNL     1       2.161  14.432  -1.061  1.00  0.00     0.041 C 
ATOM      5  C   UNL     1       2.045  13.407   0.082  1.00  0.00     0.175 C 
ATOM      6  C   UNL     1       2.363  11.132  -2.779  1.00  0.00     0.059 C 
ATOM      7  C   UNL     1       2.254  14.044  -3.652  1.00  0.00     0.008 C 
ATOM      8  C   UNL     1       1.807  11.542  -4.160  1.00  0.00     0.143 C 
ATOM      9  C   UNL     1       2.403  12.877  -4.650  1.00  0.00     0.034 C 
ENDROOT
BRANCH   1  10
ATOM     10  C   UNL     1       3.306  11.303   0.401  1.00  0.00     0.246 C 
ATOM     11  O   UNL     1       2.819  10.174   0.521  1.00  0.00    -0.272 OA
BRANCH  10  12
ATOM     12  C   UNL     1       4.593  11.715   1.173  1.00  0.00     0.174 C 
BRANCH  12  13
ATOM     13  N   UNL     1       5.755  11.627   0.290  1.00  0.00    -0.342 N 
ATOM     14  C   UNL     1       6.335  12.693  -0.361  1.00  0.00     0.249 C 
ATOM     15  O   UNL     1       5.954  13.851  -0.249  1.00  0.00    -0.272 OA
ATOM     16  H   UNL     1       6.082  10.716  -0.023  1.00  0.00     0.164 HD
BRANCH  14  17
ATOM     17  C   UNL     1       7.536  12.274  -1.236  1.00  0.00     0.207 C 
BRANCH  17  18
ATOM     18  C   UNL     1       8.852  12.718  -0.588  1.00  0.00     0.077 C 
BRANCH  18  19
ATOM     19  C   UNL     1       9.321  11.736   0.461  1.00  0.00    -0.043 A 
ATOM     20  C   UNL     1      10.527  11.268   2.513  1.00  0.00     0.083 A 
ATOM     21  C   UNL     1      10.053  12.183   1.572  1.00  0.00     0.028 A 
ATOM     22  C   UNL     1      10.277   9.905   2.350  1.00  0.00     0.134 A 
ATOM     23  C   UNL     1       9.553   9.449   1.254  1.00  0.00     0.048 A 
ATOM     24  C   UNL     1       9.078  10.362   0.310  1.00  0.00     0.008 A 
ATOM     25  Cl  UNL     1      11.425  11.836   3.872  1.00  0.00    -0.080 Cl
BRANCH  22  26
ATOM     26  O   UNL     1      10.730   8.970   3.240  1.00  0.00    -0.506 OA
ATOM     27  H   UNL     1      11.547   9.330   3.633  1.00  0.00     0.293 HD
ENDBRANCH  22  26
ENDBRANCH  18  19
ENDBRANCH  17  18
BRANCH  17  28
ATOM     28  O   UNL     1       7.439  12.838  -2.553  1.00  0.00    -0.383 OA
ATOM     29  H   UNL     1       7.954  13.677  -2.528  1.00  0.00     0.211 HD
ENDBRANCH  17  28
ENDBRANCH  14  17
ENDBRANCH  12  13
BRANCH  12  30
ATOM     30  C   UNL     1       4.787  10.913   2.488  1.00  0.00     0.018 C 
ATOM     31  C   UNL     1       4.086  11.613   3.663  1.00  0.00     0.010 C 
BRANCH  30  32
ATOM     32  C   UNL     1       6.270  10.643   2.838  1.00  0.00     0.002 C 
ATOM     33  C   UNL     1       6.962  11.741   3.635  1.00  0.00     0.004 C 
ENDBRANCH  30  32
ENDBRANCH  12  30
ENDBRANCH  10  12
ENDBRANCH   1  10
BRANCH   5  34
ATOM     34  C   UNL     1       0.563  13.102   0.428  1.00  0.00     0.242 C 
ATOM     35  O   UNL     1      -0.308  13.972   0.413  1.00  0.00    -0.273 OA
ATOM     36  N   UNL     1       0.304  11.803   0.804  1.00  0.00    -0.354 N 
ATOM     37  H   UNL     1       1.088  11.158   0.913  1.00  0.00     0.163 HD
BRANCH  36  38
ATOM     38  C   UNL     1      -1.044  11.294   0.951  1.00  0.00     0.116 C 
BRANCH  38  39
ATOM     39  C   UNL     1      -1.240  10.747   2.362  1.00  0.00     0.023 C 
BRANCH  39  40
ATOM     40  C   UNL     1      -2.076   9.471   2.382  1.00  0.00     0.026 C 
BRANCH  40  41
ATOM     41  C   UNL     1      -1.644   8.524   1.262  1.00  0.00     0.146 C 
BRANCH  41  42
ATOM     42  N   UNL     1      -0.425   7.826   1.650  1.00  0.00    -0.254 NA
ATOM     43  C   UNL     1       0.562   7.778   0.836  1.00  0.00     0.185 C 
ATOM     44  N   UNL     1       0.691   8.292  -0.401  1.00  0.00    -0.370 N 
ATOM     45  N   UNL     1       1.676   7.127   1.211  1.00  0.00    -0.370 N 
ATOM     46  H   UNL     1       1.419   7.973  -1.016  1.00  0.00     0.159 HD
ATOM     47  H   UNL     1      -0.054   8.828  -0.835  1.00  0.00     0.159 HD
ATOM     48  H   UNL     1       1.666   6.717   2.135  1.00  0.00     0.159 HD
ATOM     49  H   UNL     1       2.558   7.244   0.744  1.00  0.00     0.159 HD
ENDBRANCH  41  42
ENDBRANCH  40  41
ENDBRANCH  39  40
ENDBRANCH  38  39
ENDBRANCH  36  38
ENDBRANCH   5  34
BRANCH   8  50
ATOM     50  O   UNL     1       0.387  11.674  -4.097  1.00  0.00    -0.245 OA
BRANCH  50  51
ATOM     51  S   UNL     1      -0.550  10.354  -4.250  1.00  0.00     0.397 S 
ATOM     52  O   UNL     1       0.248   9.307  -4.847  1.00  0.00    -0.169 OA
ATOM     53  O   UNL     1      -1.838  10.732  -4.795  1.00  0.00    -0.169 OA
BRANCH  51  54
ATOM     54  O   UNL     1      -0.769   9.918  -2.718  1.00  0.00    -0.264 OA
ATOM     55  H   UNL     1      -1.674   9.553  -2.638  1.00  0.00     0.236 HD
ENDBRANCH  51  54
ENDBRANCH  50  51
ENDBRANCH   8  50
TORSDOF 19
ENDMDL
MODEL 38
REMARK VINA RESULT:    -7.180      4.515     10.094
REMARK INTER + INTRA:         -17.530
REMARK INTER:                 -15.312
REMARK INTRA:                  -2.218
REMARK UNBOUND:                -3.005
REMARK SMILES CC[C@@H](C)[C@@H](NC(=O)[C@@H](O)Cc1ccc(O)c(Cl)c1)C(=O)N1[C@H](C(=O)NCCCCN=C(N)N)C[C@H]2CC[C@H](OS(=O)(=O)O)C[C@@H]21
REMARK SMILES IDX 22 1 36 2 46 3 35 4 23 5 45 6 37 7 39 8 38 9 20 10 21 11
REMARK SMILES IDX 5 12 6 13 7 14 8 15 9 17 11 18 12 19 17 20 19 21 15 22 14 23
REMARK SMILES IDX 13 24 18 25 16 26 10 28 3 30 4 31 2 32 1 33 24 34 25 35
REMARK SMILES IDX 26 36 27 38 28 39 29 40 30 41 31 42 32 43 33 44 34 45 40 50
REMARK SMILES IDX 41 51 42 52 43 53 44 54
REMARK H PARENT 6 16 16 27 10 29 26 37 33 46 33 47 34 48 34 49 44 55
ROOT
ATOM      1  N   UNL     1       1.719  11.828  -1.552  1.00  0.00    -0.326 N 
ATOM      2  C   UNL     1       0.624  12.940   0.211  1.00  0.00     0.014 C 
ATOM      3  C   UNL     1       0.372  12.078  -1.029  1.00  0.00     0.091 C 
ATOM      4  C   UNL     1       1.828  13.774  -0.199  1.00  0.00     0.041 C 
ATOM      5  C   UNL     1       2.704  12.687  -0.849  1.00  0.00     0.175 C 
ATOM      6  C   UNL     1      -0.480  10.879  -0.618  1.00  0.00     0.059 C 
ATOM      7  C   UNL     1      -0.647  13.637   0.655  1.00  0.00     0.008 C 
ATOM      8  C   UNL     1      -1.458  11.178   0.538  1.00  0.00     0.143 C 
ATOM      9  C   UNL     1      -1.847  12.669   0.596  1.00  0.00     0.034 C 
ENDROOT
BRANCH   1  10
ATOM     10  C   UNL     1       2.118  11.121  -2.673  1.00  0.00     0.246 C 
ATOM     11  O   UNL     1       2.132   9.886  -2.631  1.00  0.00    -0.272 OA
BRANCH  10  12
ATOM     12  C   UNL     1       2.500  11.891  -3.970  1.00  0.00     0.174 C 
BRANCH  12  13
ATOM     13  N   UNL     1       3.269  11.021  -4.859  1.00  0.00    -0.342 N 
ATOM     14  C   UNL     1       2.853  10.590  -6.098  1.00  0.00     0.249 C 
ATOM     15  O   UNL     1       1.789  10.916  -6.611  1.00  0.00    -0.272 OA
ATOM     16  H   UNL     1       4.097  10.546  -4.506  1.00  0.00     0.164 HD
BRANCH  14  17
ATOM     17  C   UNL     1       3.882   9.667  -6.785  1.00  0.00     0.207 C 
BRANCH  17  18
ATOM     18  C   UNL     1       3.845   9.860  -8.304  1.00  0.00     0.077 C 
BRANCH  18  19
ATOM     19  C   UNL     1       4.974   9.126  -8.991  1.00  0.00    -0.043 A 
ATOM     20  C   UNL     1       5.801   7.180 -10.180  1.00  0.00     0.083 A 
ATOM     21  C   UNL     1       4.746   7.877  -9.590  1.00  0.00     0.028 A 
ATOM     22  C   UNL     1       7.087   7.722 -10.175  1.00  0.00     0.134 A 
ATOM     23  C   UNL     1       7.326   8.958  -9.585  1.00  0.00     0.048 A 
ATOM     24  C   UNL     1       6.273   9.658  -8.992  1.00  0.00     0.008 A 
ATOM     25  Cl  UNL     1       5.501   5.647 -10.910  1.00  0.00    -0.080 Cl
BRANCH  22  26
ATOM     26  O   UNL     1       8.154   7.071 -10.731  1.00  0.00    -0.506 OA
ATOM     27  H   UNL     1       8.950   7.579 -10.487  1.00  0.00     0.293 HD
ENDBRANCH  22  26
ENDBRANCH  18  19
ENDBRANCH  17  18
BRANCH  17  28
ATOM     28  O   UNL     1       3.627   8.287  -6.474  1.00  0.00    -0.383 OA
ATOM     29  H   UNL     1       2.860   8.285  -5.857  1.00  0.00     0.211 HD
ENDBRANCH  17  28
ENDBRANCH  14  17
ENDBRANCH  12  13
BRANCH  12  30
ATOM     30  C   UNL     1       3.226  13.232  -3.680  1.00  0.00     0.018 C 
ATOM     31  C   UNL     1       2.513  14.401  -4.376  1.00  0.00     0.010 C 
BRANCH  30  32
ATOM     32  C   UNL     1       4.726  13.221  -4.061  1.00  0.00     0.002 C 
ATOM     33  C   UNL     1       5.695  13.103  -2.891  1.00  0.00     0.004 C 
ENDBRANCH  30  32
ENDBRANCH  12  30
ENDBRANCH  10  12
ENDBRANCH   1  10
BRANCH   5  34
ATOM     34  C   UNL     1       3.486  11.871   0.214  1.00  0.00     0.242 C 
ATOM     35  O   UNL     1       3.199  10.706   0.492  1.00  0.00    -0.273 OA
ATOM     36  N   UNL     1       4.486  12.560   0.862  1.00  0.00    -0.354 N 
ATOM     37  H   UNL     1       4.598  13.557   0.674  1.00  0.00     0.163 HD
BRANCH  36  38
ATOM     38  C   UNL     1       5.449  11.901   1.720  1.00  0.00     0.116 C 
BRANCH  38  39
ATOM     39  C   UNL     1       6.667  11.476   0.903  1.00  0.00     0.023 C 
BRANCH  39  40
ATOM     40  C   UNL     1       7.176  10.093   1.292  1.00  0.00     0.026 C 
BRANCH  40  41
ATOM     41  C   UNL     1       6.918   9.817   2.774  1.00  0.00     0.146 C 
BRANCH  41  42
ATOM     42  N   UNL     1       6.632   8.401   2.968  1.00  0.00    -0.254 NA
ATOM     43  C   UNL     1       5.417   7.999   2.997  1.00  0.00     0.185 C 
ATOM     44  N   UNL     1       4.272   8.694   2.871  1.00  0.00    -0.370 N 
ATOM     45  N   UNL     1       5.174   6.691   3.182  1.00  0.00    -0.370 N 
ATOM     46  H   UNL     1       3.395   8.294   3.156  1.00  0.00     0.159 HD
ATOM     47  H   UNL     1       4.272   9.697   2.711  1.00  0.00     0.159 HD
ATOM     48  H   UNL     1       5.985   6.094   3.278  1.00  0.00     0.159 HD
ATOM     49  H   UNL     1       4.285   6.269   2.983  1.00  0.00     0.159 HD
ENDBRANCH  41  42
ENDBRANCH  40  41
ENDBRANCH  39  40
ENDBRANCH  38  39
ENDBRANCH  36  38
ENDBRANCH   5  34
BRANCH   8  50
ATOM     50  O   UNL     1      -0.868  10.814   1.786  1.00  0.00    -0.245 OA
BRANCH  50  51
ATOM     51  S   UNL     1      -1.122   9.326   2.390  1.00  0.00     0.397 S 
ATOM     52  O   UNL     1      -1.645   9.471   3.730  1.00  0.00    -0.169 OA
ATOM     53  O   UNL     1       0.024   8.485   2.109  1.00  0.00    -0.169 OA
BRANCH  51  54
ATOM     54  O   UNL     1      -2.351   8.804   1.494  1.00  0.00    -0.264 OA
ATOM     55  H   UNL     1      -3.174   8.947   2.005  1.00  0.00     0.236 HD
ENDBRANCH  51  54
ENDBRANCH  50  51
ENDBRANCH   8  50
TORSDOF 19
ENDMDL
MODEL 39
REMARK VINA RESULT:    -7.126      3.928     10.298
REMARK INTER + INTRA:         -17.421
REMARK INTER:                 -14.322
REMARK INTRA:                  -3.100
REMARK UNBOUND:                -3.005
REMARK SMILES CC[C@@H](C)[C@@H](NC(=O)[C@@H](O)Cc1ccc(O)c(Cl)c1)C(=O)N1[C@H](C(=O)NCCCCN=C(N)N)C[C@H]2CC[C@H](OS(=O)(=O)O)C[C@@H]21
REMARK SMILES IDX 22 1 36 2 46 3 35 4 23 5 45 6 37 7 39 8 38 9 20 10 21 11
REMARK SMILES IDX 5 12 6 13 7 14 8 15 9 17 11 18 12 19 17 20 19 21 15 22 14 23
REMARK SMILES IDX 13 24 18 25 16 26 10 28 3 30 4 31 2 32 1 33 24 34 25 35
REMARK SMILES IDX 26 36 27 38 28 39 29 40 30 41 31 42 32 43 33 44 34 45 40 50
REMARK SMILES IDX 41 51 42 52 43 53 44 54
REMARK H PARENT 6 16 16 27 10 29 26 37 33 46 33 47 34 48 34 49 44 55
ROOT
ATOM      1  N   UNL     1       1.850  12.156  -2.248  1.00  0.00    -0.326 N 
ATOM      2  C   UNL     1       0.362  12.964  -0.612  1.00  0.00     0.014 C 
ATOM      3  C   UNL     1       0.418  12.206  -1.941  1.00  0.00     0.091 C 
ATOM      4  C   UNL     1       1.503  13.960  -0.747  1.00  0.00     0.041 C 
ATOM      5  C   UNL     1       2.598  13.044  -1.324  1.00  0.00     0.175 C 
ATOM      6  C   UNL     1      -0.334  10.886  -1.776  1.00  0.00     0.059 C 
ATOM      7  C   UNL     1      -1.039  13.472  -0.336  1.00  0.00     0.008 C 
ATOM      8  C   UNL     1      -1.512  10.962  -0.781  1.00  0.00     0.143 C 
ATOM      9  C   UNL     1      -2.086  12.389  -0.672  1.00  0.00     0.034 C 
ENDROOT
BRANCH   1  10
ATOM     10  C   UNL     1       2.506  11.610  -3.338  1.00  0.00     0.246 C 
ATOM     11  O   UNL     1       2.633  10.383  -3.410  1.00  0.00    -0.272 OA
BRANCH  10  12
ATOM     12  C   UNL     1       3.031  12.546  -4.465  1.00  0.00     0.174 C 
BRANCH  12  13
ATOM     13  N   UNL     1       3.321  11.765  -5.667  1.00  0.00    -0.342 N 
ATOM     14  C   UNL     1       2.509  11.691  -6.776  1.00  0.00     0.249 C 
ATOM     15  O   UNL     1       1.454  12.302  -6.891  1.00  0.00    -0.272 OA
ATOM     16  H   UNL     1       4.079  11.087  -5.656  1.00  0.00     0.164 HD
BRANCH  14  17
ATOM     17  C   UNL     1       3.082  10.770  -7.874  1.00  0.00     0.207 C 
BRANCH  17  18
ATOM     18  C   UNL     1       4.512  11.188  -8.231  1.00  0.00     0.077 C 
BRANCH  18  19
ATOM     19  C   UNL     1       5.487  10.042  -8.077  1.00  0.00    -0.043 A 
ATOM     20  C   UNL     1       6.204   8.031  -6.926  1.00  0.00     0.083 A 
ATOM     21  C   UNL     1       5.277   9.059  -7.098  1.00  0.00     0.028 A 
ATOM     22  C   UNL     1       7.345   7.978  -7.727  1.00  0.00     0.134 A 
ATOM     23  C   UNL     1       7.566   8.945  -8.702  1.00  0.00     0.048 A 
ATOM     24  C   UNL     1       6.640   9.976  -8.875  1.00  0.00     0.008 A 
ATOM     25  Cl  UNL     1       5.928   6.833  -5.717  1.00  0.00    -0.080 Cl
BRANCH  22  26
ATOM     26  O   UNL     1       8.287   6.995  -7.589  1.00  0.00    -0.506 OA
ATOM     27  H   UNL     1       8.792   7.203  -6.781  1.00  0.00     0.293 HD
ENDBRANCH  22  26
ENDBRANCH  18  19
ENDBRANCH  17  18
BRANCH  17  28
ATOM     28  O   UNL     1       2.267  10.804  -9.056  1.00  0.00    -0.383 OA
ATOM     29  H   UNL     1       2.574  11.581  -9.576  1.00  0.00     0.211 HD
ENDBRANCH  17  28
ENDBRANCH  14  17
ENDBRANCH  12  13
BRANCH  12  30
ATOM     30  C   UNL     1       4.240  13.409  -4.014  1.00  0.00     0.018 C 
ATOM     31  C   UNL     1       4.551  14.499  -5.052  1.00  0.00     0.010 C 
BRANCH  30  32
ATOM     32  C   UNL     1       5.514  12.584  -3.711  1.00  0.00     0.002 C 
ATOM     33  C   UNL     1       6.287  13.012  -2.470  1.00  0.00     0.004 C 
ENDBRANCH  30  32
ENDBRANCH  12  30
ENDBRANCH  10  12
ENDBRANCH   1  10
BRANCH   5  34
ATOM     34  C   UNL     1       3.297  12.218  -0.212  1.00  0.00     0.242 C 
ATOM     35  O   UNL     1       3.765  11.099  -0.419  1.00  0.00    -0.273 OA
ATOM     36  N   UNL     1       3.307  12.803   1.035  1.00  0.00    -0.354 N 
ATOM     37  H   UNL     1       2.798  13.678   1.171  1.00  0.00     0.163 HD
BRANCH  36  38
ATOM     38  C   UNL     1       4.096  12.278   2.129  1.00  0.00     0.116 C 
BRANCH  38  39
ATOM     39  C   UNL     1       3.183  11.602   3.149  1.00  0.00     0.023 C 
BRANCH  39  40
ATOM     40  C   UNL     1       1.780  11.358   2.603  1.00  0.00     0.026 C 
BRANCH  40  41
ATOM     41  C   UNL     1       0.733  11.529   3.704  1.00  0.00     0.146 C 
BRANCH  41  42
ATOM     42  N   UNL     1      -0.116  12.675   3.402  1.00  0.00    -0.254 NA
ATOM     43  C   UNL     1      -1.384  12.521   3.330  1.00  0.00     0.185 C 
ATOM     44  N   UNL     1      -2.133  11.415   3.496  1.00  0.00    -0.370 N 
ATOM     45  N   UNL     1      -2.149  13.588   3.046  1.00  0.00    -0.370 N 
ATOM     46  H   UNL     1      -3.085  11.387   3.173  1.00  0.00     0.159 HD
ATOM     47  H   UNL     1      -1.716  10.519   3.730  1.00  0.00     0.159 HD
ATOM     48  H   UNL     1      -1.663  14.465   2.915  1.00  0.00     0.159 HD
ATOM     49  H   UNL     1      -3.141  13.604   3.205  1.00  0.00     0.159 HD
ENDBRANCH  41  42
ENDBRANCH  40  41
ENDBRANCH  39  40
ENDBRANCH  38  39
ENDBRANCH  36  38
ENDBRANCH   5  34
BRANCH   8  50
ATOM     50  O   UNL     1      -1.086  10.544   0.516  1.00  0.00    -0.245 OA
BRANCH  50  51
ATOM     51  S   UNL     1      -1.220   8.979   0.939  1.00  0.00     0.397 S 
ATOM     52  O   UNL     1      -0.088   8.643   1.773  1.00  0.00    -0.169 OA
ATOM     53  O   UNL     1      -1.568   8.189  -0.224  1.00  0.00    -0.169 OA
BRANCH  51  54
ATOM     54  O   UNL     1      -2.494   9.005   1.920  1.00  0.00    -0.264 OA
ATOM     55  H   UNL     1      -3.001   8.180   1.773  1.00  0.00     0.236 HD
ENDBRANCH  51  54
ENDBRANCH  50  51
ENDBRANCH   8  50
TORSDOF 19
ENDMDL
MODEL 40
REMARK VINA RESULT:    -7.101      5.417     11.089
REMARK INTER + INTRA:         -17.370
REMARK INTER:                 -13.405
REMARK INTRA:                  -3.965
REMARK UNBOUND:                -3.005
REMARK SMILES CC[C@@H](C)[C@@H](NC(=O)[C@@H](O)Cc1ccc(O)c(Cl)c1)C(=O)N1[C@H](C(=O)NCCCCN=C(N)N)C[C@H]2CC[C@H](OS(=O)(=O)O)C[C@@H]21
REMARK SMILES IDX 22 1 36 2 46 3 35 4 23 5 45 6 37 7 39 8 38 9 20 10 21 11
REMARK SMILES IDX 5 12 6 13 7 14 8 15 9 17 11 18 12 19 17 20 19 21 15 22 14 23
REMARK SMILES IDX 13 24 18 25 16 26 10 28 3 30 4 31 2 32 1 33 24 34 25 35
REMARK SMILES IDX 26 36 27 38 28 39 29 40 30 41 31 42 32 43 33 44 34 45 40 50
REMARK SMILES IDX 41 51 42 52 43 53 44 54
REMARK H PARENT 6 16 16 27 10 29 26 37 33 46 33 47 34 48 34 49 44 55
ROOT
ATOM      1  N   UNL     1       0.920  11.082  -0.220  1.00  0.00    -0.326 N 
ATOM      2  C   UNL     1      -0.334  13.052   0.080  1.00  0.00     0.014 C 
ATOM      3  C   UNL     1      -0.408  11.528   0.211  1.00  0.00     0.091 C 
ATOM      4  C   UNL     1       0.560  13.240  -1.137  1.00  0.00     0.041 C 
ATOM      5  C   UNL     1       1.665  12.214  -0.824  1.00  0.00     0.175 C 
ATOM      6  C   UNL     1      -0.862  11.187   1.629  1.00  0.00     0.059 C 
ATOM      7  C   UNL     1      -1.720  13.665   0.085  1.00  0.00     0.008 C 
ATOM      8  C   UNL     1      -1.814  12.236   2.246  1.00  0.00     0.143 C 
ATOM      9  C   UNL     1      -2.601  13.008   1.168  1.00  0.00     0.034 C 
ENDROOT
BRANCH   1  10
ATOM     10  C   UNL     1       1.434   9.801  -0.329  1.00  0.00     0.246 C 
ATOM     11  O   UNL     1       2.242   9.403   0.517  1.00  0.00    -0.272 OA
BRANCH  10  12
ATOM     12  C   UNL     1       0.952   8.878  -1.486  1.00  0.00     0.174 C 
BRANCH  12  13
ATOM     13  N   UNL     1       0.673   9.677  -2.678  1.00  0.00    -0.342 N 
ATOM     14  C   UNL     1       1.428   9.669  -3.830  1.00  0.00     0.249 C 
ATOM     15  O   UNL     1       2.414   8.961  -3.994  1.00  0.00    -0.272 OA
ATOM     16  H   UNL     1      -0.017  10.423  -2.635  1.00  0.00     0.164 HD
BRANCH  14  17
ATOM     17  C   UNL     1       0.886  10.635  -4.904  1.00  0.00     0.207 C 
BRANCH  17  18
ATOM     18  C   UNL     1       1.155  12.089  -4.503  1.00  0.00     0.077 C 
BRANCH  18  19
ATOM     19  C   UNL     1       2.601  12.474  -4.724  1.00  0.00    -0.043 A 
ATOM     20  C   UNL     1       4.658  12.280  -5.994  1.00  0.00     0.083 A 
ATOM     21  C   UNL     1       3.311  11.962  -5.821  1.00  0.00     0.028 A 
ATOM     22  C   UNL     1       5.304  13.108  -5.075  1.00  0.00     0.134 A 
ATOM     23  C   UNL     1       4.613  13.622  -3.984  1.00  0.00     0.048 A 
ATOM     24  C   UNL     1       3.264  13.304  -3.807  1.00  0.00     0.008 A 
ATOM     25  Cl  UNL     1       5.514  11.640  -7.347  1.00  0.00    -0.080 Cl
BRANCH  22  26
ATOM     26  O   UNL     1       6.626  13.439  -5.197  1.00  0.00    -0.506 OA
ATOM     27  H   UNL     1       6.657  14.327  -5.600  1.00  0.00     0.293 HD
ENDBRANCH  22  26
ENDBRANCH  18  19
ENDBRANCH  17  18
BRANCH  17  28
ATOM     28  O   UNL     1      -0.525  10.449  -5.103  1.00  0.00    -0.383 OA
ATOM     29  H   UNL     1      -0.616   9.666  -5.692  1.00  0.00     0.211 HD
ENDBRANCH  17  28
ENDBRANCH  14  17
ENDBRANCH  12  13
BRANCH  12  30
ATOM     30  C   UNL     1      -0.249   7.982  -1.078  1.00  0.00     0.018 C 
ATOM     31  C   UNL     1      -1.550   8.489  -1.719  1.00  0.00     0.010 C 
BRANCH  30  32
ATOM     32  C   UNL     1      -0.429   7.843   0.453  1.00  0.00     0.002 C 
ATOM     33  C   UNL     1      -1.872   7.847   0.942  1.00  0.00     0.004 C 
ENDBRANCH  30  32
ENDBRANCH  12  30
ENDBRANCH  10  12
ENDBRANCH   1  10
BRANCH   5  34
ATOM     34  C   UNL     1       2.708  12.782   0.175  1.00  0.00     0.242 C 
ATOM     35  O   UNL     1       3.288  13.851  -0.017  1.00  0.00    -0.273 OA
ATOM     36  N   UNL     1       2.975  11.981   1.262  1.00  0.00    -0.354 N 
ATOM     37  H   UNL     1       2.552  11.053   1.304  1.00  0.00     0.163 HD
BRANCH  36  38
ATOM     38  C   UNL     1       3.751  12.445   2.393  1.00  0.00     0.116 C 
BRANCH  38  39
ATOM     39  C   UNL     1       3.631  11.452   3.547  1.00  0.00     0.023 C 
BRANCH  39  40
ATOM     40  C   UNL     1       2.300  10.709   3.540  1.00  0.00     0.026 C 
BRANCH  40  41
ATOM     41  C   UNL     1       1.516  10.991   4.822  1.00  0.00     0.146 C 
BRANCH  41  42
ATOM     42  N   UNL     1       0.210  10.349   4.752  1.00  0.00    -0.254 NA
ATOM     43  C   UNL     1      -0.690  10.648   5.611  1.00  0.00     0.185 C 
ATOM     44  N   UNL     1      -0.649  11.512   6.642  1.00  0.00    -0.370 N 
ATOM     45  N   UNL     1      -1.886  10.042   5.532  1.00  0.00    -0.370 N 
ATOM     46  H   UNL     1      -1.336  11.468   7.376  1.00  0.00     0.159 HD
ATOM     47  H   UNL     1       0.178  12.067   6.839  1.00  0.00     0.159 HD
ATOM     48  H   UNL     1      -2.004   9.381   4.776  1.00  0.00     0.159 HD
ATOM     49  H   UNL     1      -2.703  10.386   6.004  1.00  0.00     0.159 HD
ENDBRANCH  41  42
ENDBRANCH  40  41
ENDBRANCH  39  40
ENDBRANCH  38  39
ENDBRANCH  36  38
ENDBRANCH   5  34
BRANCH   8  50
ATOM     50  O   UNL     1      -1.070  13.174   3.024  1.00  0.00    -0.245 OA
BRANCH  50  51
ATOM     51  S   UNL     1      -1.768  13.878   4.314  1.00  0.00     0.397 S 
ATOM     52  O   UNL     1      -0.717  14.332   5.197  1.00  0.00    -0.169 OA
ATOM     53  O   UNL     1      -2.856  13.050   4.791  1.00  0.00    -0.169 OA
BRANCH  51  54
ATOM     54  O   UNL     1      -2.402  15.208   3.669  1.00  0.00    -0.264 OA
ATOM     55  H   UNL     1      -2.895  14.943   2.865  1.00  0.00     0.236 HD
ENDBRANCH  51  54
ENDBRANCH  50  51
ENDBRANCH   8  50
TORSDOF 19
ENDMDL
MODEL 41
REMARK VINA RESULT:    -7.060     17.123     20.430
REMARK INTER + INTRA:         -17.287
REMARK INTER:                 -13.703
REMARK INTRA:                  -3.585
REMARK UNBOUND:                -3.005
REMARK SMILES CC[C@@H](C)[C@@H](NC(=O)[C@@H](O)Cc1ccc(O)c(Cl)c1)C(=O)N1[C@H](C(=O)NCCCCN=C(N)N)C[C@H]2CC[C@H](OS(=O)(=O)O)C[C@@H]21
REMARK SMILES IDX 22 1 36 2 46 3 35 4 23 5 45 6 37 7 39 8 38 9 20 10 21 11
REMARK SMILES IDX 5 12 6 13 7 14 8 15 9 17 11 18 12 19 17 20 19 21 15 22 14 23
REMARK SMILES IDX 13 24 18 25 16 26 10 28 3 30 4 31 2 32 1 33 24 34 25 35
REMARK SMILES IDX 26 36 27 38 28 39 29 40 30 41 31 42 32 43 33 44 34 45 40 50
REMARK SMILES IDX 41 51 42 52 43 53 44 54
REMARK H PARENT 6 16 16 27 10 29 26 37 33 46 33 47 34 48 34 49 44 55
ROOT
ATOM      1  N   UNL     1       0.607   3.788  10.783  1.00  0.00    -0.326 N 
ATOM      2  C   UNL     1      -1.242   3.132   9.482  1.00  0.00     0.014 C 
ATOM      3  C   UNL     1       0.160   2.694   9.916  1.00  0.00     0.091 C 
ATOM      4  C   UNL     1      -1.104   4.643   9.380  1.00  0.00     0.041 C 
ATOM      5  C   UNL     1      -0.329   4.934  10.679  1.00  0.00     0.175 C 
ATOM      6  C   UNL     1       0.064   1.290  10.511  1.00  0.00     0.059 C 
ATOM      7  C   UNL     1      -1.705   2.345   8.272  1.00  0.00     0.008 C 
ATOM      8  C   UNL     1      -1.042   0.420   9.876  1.00  0.00     0.143 C 
ATOM      9  C   UNL     1      -1.359   0.850   8.430  1.00  0.00     0.034 C 
ENDROOT
BRANCH   1  10
ATOM     10  C   UNL     1       1.808   3.955  11.452  1.00  0.00     0.246 C 
ATOM     11  O   UNL     1       1.793   4.351  12.623  1.00  0.00    -0.272 OA
BRANCH  10  12
ATOM     12  C   UNL     1       3.142   3.604  10.733  1.00  0.00     0.174 C 
BRANCH  12  13
ATOM     13  N   UNL     1       3.590   2.271  11.136  1.00  0.00    -0.342 N 
ATOM     14  C   UNL     1       3.617   1.165  10.316  1.00  0.00     0.249 C 
ATOM     15  O   UNL     1       3.291   1.183   9.136  1.00  0.00    -0.272 OA
ATOM     16  H   UNL     1       3.740   2.067  12.121  1.00  0.00     0.164 HD
BRANCH  14  17
ATOM     17  C   UNL     1       4.124  -0.101  11.040  1.00  0.00     0.207 C 
BRANCH  17  18
ATOM     18  C   UNL     1       5.436   0.192  11.774  1.00  0.00     0.077 C 
BRANCH  18  19
ATOM     19  C   UNL     1       6.634   0.056  10.861  1.00  0.00    -0.043 A 
ATOM     20  C   UNL     1       8.437  -1.283   9.944  1.00  0.00     0.083 A 
ATOM     21  C   UNL     1       7.303  -1.173  10.749  1.00  0.00     0.028 A 
ATOM     22  C   UNL     1       8.910  -0.169   9.248  1.00  0.00     0.134 A 
ATOM     23  C   UNL     1       8.257   1.054   9.350  1.00  0.00     0.048 A 
ATOM     24  C   UNL     1       7.122   1.167  10.157  1.00  0.00     0.008 A 
ATOM     25  Cl  UNL     1       9.245  -2.801   9.819  1.00  0.00    -0.080 Cl
BRANCH  22  26
ATOM     26  O   UNL     1      10.023  -0.225   8.455  1.00  0.00    -0.506 OA
ATOM     27  H   UNL     1      10.777  -0.416   9.043  1.00  0.00     0.293 HD
ENDBRANCH  22  26
ENDBRANCH  18  19
ENDBRANCH  17  18
BRANCH  17  28
ATOM     28  O   UNL     1       4.326  -1.180  10.114  1.00  0.00    -0.383 OA
ATOM     29  H   UNL     1       5.162  -0.976   9.636  1.00  0.00     0.211 HD
ENDBRANCH  17  28
ENDBRANCH  14  17
ENDBRANCH  12  13
BRANCH  12  30
ATOM     30  C   UNL     1       4.238   4.684  10.940  1.00  0.00     0.018 C 
ATOM     31  C   UNL     1       4.099   5.809   9.902  1.00  0.00     0.010 C 
BRANCH  30  32
ATOM     32  C   UNL     1       5.679   4.119  10.921  1.00  0.00     0.002 C 
ATOM     33  C   UNL     1       6.464   4.296  12.215  1.00  0.00     0.004 C 
ENDBRANCH  30  32
ENDBRANCH  12  30
ENDBRANCH  10  12
ENDBRANCH   1  10
BRANCH   5  34
ATOM     34  C   UNL     1      -1.274   4.986  11.909  1.00  0.00     0.242 C 
ATOM     35  O   UNL     1      -2.273   4.272  12.002  1.00  0.00    -0.273 OA
ATOM     36  N   UNL     1      -0.945   5.924  12.861  1.00  0.00    -0.354 N 
ATOM     37  H   UNL     1      -0.176   6.568  12.671  1.00  0.00     0.163 HD
BRANCH  36  38
ATOM     38  C   UNL     1      -1.582   5.964  14.161  1.00  0.00     0.116 C 
BRANCH  38  39
ATOM     39  C   UNL     1      -0.531   6.180  15.248  1.00  0.00     0.023 C 
BRANCH  39  40
ATOM     40  C   UNL     1       0.159   4.883  15.656  1.00  0.00     0.026 C 
BRANCH  40  41
ATOM     41  C   UNL     1      -0.869   3.822  16.049  1.00  0.00     0.146 C 
BRANCH  41  42
ATOM     42  N   UNL     1      -0.782   2.690  15.135  1.00  0.00    -0.254 NA
ATOM     43  C   UNL     1      -1.841   2.255  14.563  1.00  0.00     0.185 C 
ATOM     44  N   UNL     1      -3.113   2.684  14.655  1.00  0.00    -0.370 N 
ATOM     45  N   UNL     1      -1.740   1.208  13.728  1.00  0.00    -0.370 N 
ATOM     46  H   UNL     1      -3.874   2.103  14.346  1.00  0.00     0.159 HD
ATOM     47  H   UNL     1      -3.367   3.478  15.235  1.00  0.00     0.159 HD
ATOM     48  H   UNL     1      -0.812   0.829  13.594  1.00  0.00     0.159 HD
ATOM     49  H   UNL     1      -2.460   0.964  13.071  1.00  0.00     0.159 HD
ENDBRANCH  41  42
ENDBRANCH  40  41
ENDBRANCH  39  40
ENDBRANCH  38  39
ENDBRANCH  36  38
ENDBRANCH   5  34
BRANCH   8  50
ATOM     50  O   UNL     1      -2.240   0.511  10.649  1.00  0.00    -0.245 OA
BRANCH  50  51
ATOM     51  S   UNL     1      -2.889  -0.837  11.287  1.00  0.00     0.397 S 
ATOM     52  O   UNL     1      -1.845  -1.541  11.997  1.00  0.00    -0.169 OA
ATOM     53  O   UNL     1      -3.711  -1.498  10.294  1.00  0.00    -0.169 OA
BRANCH  51  54
ATOM     54  O   UNL     1      -3.862  -0.239  12.418  1.00  0.00    -0.264 OA
ATOM     55  H   UNL     1      -3.735  -0.768  13.231  1.00  0.00     0.236 HD
ENDBRANCH  51  54
ENDBRANCH  50  51
ENDBRANCH   8  50
TORSDOF 19
ENDMDL
MODEL 42
REMARK VINA RESULT:    -7.005      4.279      9.905
REMARK INTER + INTRA:         -17.177
REMARK INTER:                 -14.347
REMARK INTRA:                  -2.829
REMARK UNBOUND:                -3.005
REMARK SMILES CC[C@@H](C)[C@@H](NC(=O)[C@@H](O)Cc1ccc(O)c(Cl)c1)C(=O)N1[C@H](C(=O)NCCCCN=C(N)N)C[C@H]2CC[C@H](OS(=O)(=O)O)C[C@@H]21
REMARK SMILES IDX 22 1 36 2 46 3 35 4 23 5 45 6 37 7 39 8 38 9 20 10 21 11
REMARK SMILES IDX 5 12 6 13 7 14 8 15 9 17 11 18 12 19 17 20 19 21 15 22 14 23
REMARK SMILES IDX 13 24 18 25 16 26 10 28 3 30 4 31 2 32 1 33 24 34 25 35
REMARK SMILES IDX 26 36 27 38 28 39 29 40 30 41 31 42 32 43 33 44 34 45 40 50
REMARK SMILES IDX 41 51 42 52 43 53 44 54
REMARK H PARENT 6 16 16 27 10 29 26 37 33 46 33 47 34 48 34 49 44 55
ROOT
ATOM      1  N   UNL     1       2.053  11.990  -2.308  1.00  0.00    -0.326 N 
ATOM      2  C   UNL     1       0.674  12.777  -0.570  1.00  0.00     0.014 C 
ATOM      3  C   UNL     1       0.637  12.183  -1.981  1.00  0.00     0.091 C 
ATOM      4  C   UNL     1       1.933  13.630  -0.598  1.00  0.00     0.041 C 
ATOM      5  C   UNL     1       2.904  12.658  -1.293  1.00  0.00     0.175 C 
ATOM      6  C   UNL     1      -0.276  10.959  -1.966  1.00  0.00     0.059 C 
ATOM      7  C   UNL     1      -0.653  13.421  -0.218  1.00  0.00     0.008 C 
ATOM      8  C   UNL     1      -1.439  11.063  -0.956  1.00  0.00     0.143 C 
ATOM      9  C   UNL     1      -1.828  12.528  -0.669  1.00  0.00     0.034 C 
ENDROOT
BRANCH   1  10
ATOM     10  C   UNL     1       2.638  11.500  -3.463  1.00  0.00     0.246 C 
ATOM     11  O   UNL     1       2.710  10.278  -3.629  1.00  0.00    -0.272 OA
BRANCH  10  12
ATOM     12  C   UNL     1       3.152  12.495  -4.543  1.00  0.00     0.174 C 
BRANCH  12  13
ATOM     13  N   UNL     1       3.527  11.767  -5.755  1.00  0.00    -0.342 N 
ATOM     14  C   UNL     1       2.733  11.631  -6.872  1.00  0.00     0.249 C 
ATOM     15  O   UNL     1       1.623  12.135  -6.986  1.00  0.00    -0.272 OA
ATOM     16  H   UNL     1       4.348  11.167  -5.749  1.00  0.00     0.164 HD
BRANCH  14  17
ATOM     17  C   UNL     1       3.403  10.789  -7.979  1.00  0.00     0.207 C 
BRANCH  17  18
ATOM     18  C   UNL     1       4.653  10.089  -7.437  1.00  0.00     0.077 C 
BRANCH  18  19
ATOM     19  C   UNL     1       5.126   8.988  -8.360  1.00  0.00    -0.043 A 
ATOM     20  C   UNL     1       6.860   7.997  -9.736  1.00  0.00     0.083 A 
ATOM     21  C   UNL     1       6.442   8.987  -8.846  1.00  0.00     0.028 A 
ATOM     22  C   UNL     1       5.969   7.006 -10.147  1.00  0.00     0.134 A 
ATOM     23  C   UNL     1       4.662   6.995  -9.673  1.00  0.00     0.048 A 
ATOM     24  C   UNL     1       4.240   7.985  -8.783  1.00  0.00     0.008 A 
ATOM     25  Cl  UNL     1       8.482   8.014 -10.323  1.00  0.00    -0.080 Cl
BRANCH  22  26
ATOM     26  O   UNL     1       6.329   6.021 -11.026  1.00  0.00    -0.506 OA
ATOM     27  H   UNL     1       6.609   5.256 -10.491  1.00  0.00     0.293 HD
ENDBRANCH  22  26
ENDBRANCH  18  19
ENDBRANCH  17  18
BRANCH  17  28
ATOM     28  O   UNL     1       3.764  11.606  -9.104  1.00  0.00    -0.383 OA
ATOM     29  H   UNL     1       3.480  12.521  -8.877  1.00  0.00     0.211 HD
ENDBRANCH  17  28
ENDBRANCH  14  17
ENDBRANCH  12  13
BRANCH  12  30
ATOM     30  C   UNL     1       4.296  13.407  -4.024  1.00  0.00     0.018 C 
ATOM     31  C   UNL     1       4.548  14.574  -4.992  1.00  0.00     0.010 C 
BRANCH  30  32
ATOM     32  C   UNL     1       5.618  12.650  -3.748  1.00  0.00     0.002 C 
ATOM     33  C   UNL     1       6.409  13.138  -2.542  1.00  0.00     0.004 C 
ENDBRANCH  30  32
ENDBRANCH  12  30
ENDBRANCH  10  12
ENDBRANCH   1  10
BRANCH   5  34
ATOM     34  C   UNL     1       3.488  11.622  -0.296  1.00  0.00     0.242 C 
ATOM     35  O   UNL     1       2.974  10.518  -0.118  1.00  0.00    -0.273 OA
ATOM     36  N   UNL     1       4.589  12.048   0.413  1.00  0.00    -0.354 N 
ATOM     37  H   UNL     1       4.897  13.015   0.310  1.00  0.00     0.163 HD
BRANCH  36  38
ATOM     38  C   UNL     1       5.386  11.146   1.220  1.00  0.00     0.116 C 
BRANCH  38  39
ATOM     39  C   UNL     1       5.461  11.663   2.654  1.00  0.00     0.023 C 
BRANCH  39  40
ATOM     40  C   UNL     1       4.085  11.972   3.235  1.00  0.00     0.026 C 
BRANCH  40  41
ATOM     41  C   UNL     1       3.610  10.833   4.138  1.00  0.00     0.146 C 
BRANCH  41  42
ATOM     42  N   UNL     1       2.678   9.983   3.409  1.00  0.00    -0.254 NA
ATOM     43  C   UNL     1       3.049   8.820   3.024  1.00  0.00     0.185 C 
ATOM     44  N   UNL     1       4.229   8.192   3.182  1.00  0.00    -0.370 N 
ATOM     45  N   UNL     1       2.176   8.054   2.350  1.00  0.00    -0.370 N 
ATOM     46  H   UNL     1       4.462   7.390   2.622  1.00  0.00     0.159 HD
ATOM     47  H   UNL     1       5.000   8.624   3.682  1.00  0.00     0.159 HD
ATOM     48  H   UNL     1       1.259   8.449   2.195  1.00  0.00     0.159 HD
ATOM     49  H   UNL     1       2.303   7.065   2.226  1.00  0.00     0.159 HD
ENDBRANCH  41  42
ENDBRANCH  40  41
ENDBRANCH  39  40
ENDBRANCH  38  39
ENDBRANCH  36  38
ENDBRANCH   5  34
BRANCH   8  50
ATOM     50  O   UNL     1      -1.075  10.442   0.277  1.00  0.00    -0.245 OA
BRANCH  50  51
ATOM     51  S   UNL     1      -1.088   8.819   0.392  1.00  0.00     0.397 S 
ATOM     52  O   UNL     1      -1.885   8.460   1.543  1.00  0.00    -0.169 OA
ATOM     53  O   UNL     1       0.255   8.308   0.209  1.00  0.00    -0.169 OA
BRANCH  51  54
ATOM     54  O   UNL     1      -1.958   8.398  -0.893  1.00  0.00    -0.264 OA
ATOM     55  H   UNL     1      -2.099   9.202  -1.434  1.00  0.00     0.236 HD
ENDBRANCH  51  54
ENDBRANCH  50  51
ENDBRANCH   8  50
TORSDOF 19
ENDMDL
MODEL 43
REMARK VINA RESULT:    -7.005      4.276      7.782
REMARK INTER + INTRA:         -17.175
REMARK INTER:                 -14.104
REMARK INTRA:                  -3.072
REMARK UNBOUND:                -3.005
REMARK SMILES CC[C@@H](C)[C@@H](NC(=O)[C@@H](O)Cc1ccc(O)c(Cl)c1)C(=O)N1[C@H](C(=O)NCCCCN=C(N)N)C[C@H]2CC[C@H](OS(=O)(=O)O)C[C@@H]21
REMARK SMILES IDX 22 1 36 2 46 3 35 4 23 5 45 6 37 7 39 8 38 9 20 10 21 11
REMARK SMILES IDX 5 12 6 13 7 14 8 15 9 17 11 18 12 19 17 20 19 21 15 22 14 23
REMARK SMILES IDX 13 24 18 25 16 26 10 28 3 30 4 31 2 32 1 33 24 34 25 35
REMARK SMILES IDX 26 36 27 38 28 39 29 40 30 41 31 42 32 43 33 44 34 45 40 50
REMARK SMILES IDX 41 51 42 52 43 53 44 54
REMARK H PARENT 6 16 16 27 10 29 26 37 33 46 33 47 34 48 34 49 44 55
ROOT
ATOM      1  N   UNL     1       1.232  12.147  -3.155  1.00  0.00    -0.326 N 
ATOM      2  C   UNL     1       1.339  11.236  -5.323  1.00  0.00     0.014 C 
ATOM      3  C   UNL     1       2.108  12.111  -4.330  1.00  0.00     0.091 C 
ATOM      4  C   UNL     1      -0.110  11.591  -5.030  1.00  0.00     0.041 C 
ATOM      5  C   UNL     1      -0.091  11.566  -3.491  1.00  0.00     0.175 C 
ATOM      6  C   UNL     1       3.514  11.536  -4.167  1.00  0.00     0.059 C 
ATOM      7  C   UNL     1       1.878  11.410  -6.729  1.00  0.00     0.008 C 
ATOM      8  C   UNL     1       4.058  10.854  -5.441  1.00  0.00     0.143 C 
ATOM      9  C   UNL     1       3.421  11.428  -6.723  1.00  0.00     0.034 C 
ENDROOT
BRANCH   1  10
ATOM     10  C   UNL     1       1.394  12.802  -1.946  1.00  0.00     0.246 C 
ATOM     11  O   UNL     1       1.925  13.918  -1.934  1.00  0.00    -0.272 OA
BRANCH  10  12
ATOM     12  C   UNL     1       0.868  12.141  -0.639  1.00  0.00     0.174 C 
BRANCH  12  13
ATOM     13  N   UNL     1      -0.377  12.785  -0.221  1.00  0.00    -0.342 N 
ATOM     14  C   UNL     1      -1.587  12.144  -0.074  1.00  0.00     0.249 C 
ATOM     15  O   UNL     1      -1.749  10.943  -0.253  1.00  0.00    -0.272 OA
ATOM     16  H   UNL     1      -0.433  13.800  -0.189  1.00  0.00     0.164 HD
BRANCH  14  17
ATOM     17  C   UNL     1      -2.717  13.100   0.363  1.00  0.00     0.207 C 
BRANCH  17  18
ATOM     18  C   UNL     1      -2.180  14.157   1.332  1.00  0.00     0.077 C 
BRANCH  18  19
ATOM     19  C   UNL     1      -2.201  13.670   2.764  1.00  0.00    -0.043 A 
ATOM     20  C   UNL     1      -1.049  12.743   4.686  1.00  0.00     0.083 A 
ATOM     21  C   UNL     1      -1.018  13.239   3.382  1.00  0.00     0.028 A 
ATOM     22  C   UNL     1      -2.259  12.673   5.378  1.00  0.00     0.134 A 
ATOM     23  C   UNL     1      -3.439  13.097   4.777  1.00  0.00     0.048 A 
ATOM     24  C   UNL     1      -3.411  13.592   3.471  1.00  0.00     0.008 A 
ATOM     25  Cl  UNL     1       0.416  12.218   5.430  1.00  0.00    -0.080 Cl
BRANCH  22  26
ATOM     26  O   UNL     1      -2.341  12.185   6.654  1.00  0.00    -0.506 OA
ATOM     27  H   UNL     1      -3.280  12.229   6.911  1.00  0.00     0.293 HD
ENDBRANCH  22  26
ENDBRANCH  18  19
ENDBRANCH  17  18
BRANCH  17  28
ATOM     28  O   UNL     1      -3.791  12.379   0.990  1.00  0.00    -0.383 OA
ATOM     29  H   UNL     1      -3.378  11.850   1.709  1.00  0.00     0.211 HD
ENDBRANCH  17  28
ENDBRANCH  14  17
ENDBRANCH  12  13
BRANCH  12  30
ATOM     30  C   UNL     1       1.932  12.119   0.492  1.00  0.00     0.018 C 
ATOM     31  C   UNL     1       3.223  11.435   0.014  1.00  0.00     0.010 C 
BRANCH  30  32
ATOM     32  C   UNL     1       1.434  11.459   1.801  1.00  0.00     0.002 C 
ATOM     33  C   UNL     1       2.460  10.602   2.530  1.00  0.00     0.004 C 
ENDBRANCH  30  32
ENDBRANCH  12  30
ENDBRANCH  10  12
ENDBRANCH   1  10
BRANCH   5  34
ATOM     34  C   UNL     1      -0.213  10.120  -2.941  1.00  0.00     0.242 C 
ATOM     35  O   UNL     1      -1.201   9.416  -3.152  1.00  0.00    -0.273 OA
ATOM     36  N   UNL     1       0.838   9.702  -2.155  1.00  0.00    -0.354 N 
ATOM     37  H   UNL     1       1.570  10.371  -1.917  1.00  0.00     0.163 HD
BRANCH  36  38
ATOM     38  C   UNL     1       0.993   8.322  -1.741  1.00  0.00     0.116 C 
BRANCH  38  39
ATOM     39  C   UNL     1       0.151   8.058  -0.495  1.00  0.00     0.023 C 
BRANCH  39  40
ATOM     40  C   UNL     1       0.999   7.657   0.707  1.00  0.00     0.026 C 
BRANCH  40  41
ATOM     41  C   UNL     1       0.150   7.603   1.977  1.00  0.00     0.146 C 
BRANCH  41  42
ATOM     42  N   UNL     1      -0.987   8.505   1.847  1.00  0.00    -0.254 NA
ATOM     43  C   UNL     1      -1.374   9.185   2.860  1.00  0.00     0.185 C 
ATOM     44  N   UNL     1      -0.888   9.224   4.114  1.00  0.00    -0.370 N 
ATOM     45  N   UNL     1      -2.427  10.008   2.721  1.00  0.00    -0.370 N 
ATOM     46  H   UNL     1      -1.434   9.611   4.864  1.00  0.00     0.159 HD
ATOM     47  H   UNL     1      -0.082   8.672   4.390  1.00  0.00     0.159 HD
ATOM     48  H   UNL     1      -2.848  10.046   1.803  1.00  0.00     0.159 HD
ATOM     49  H   UNL     1      -2.639  10.736   3.380  1.00  0.00     0.159 HD
ENDBRANCH  41  42
ENDBRANCH  40  41
ENDBRANCH  39  40
ENDBRANCH  38  39
ENDBRANCH  36  38
ENDBRANCH   5  34
BRANCH   8  50
ATOM     50  O   UNL     1       3.796   9.451  -5.395  1.00  0.00    -0.245 OA
BRANCH  50  51
ATOM     51  S   UNL     1       4.621   8.447  -6.374  1.00  0.00     0.397 S 
ATOM     52  O   UNL     1       5.961   8.969  -6.522  1.00  0.00    -0.169 OA
ATOM     53  O   UNL     1       3.806   8.111  -7.523  1.00  0.00    -0.169 OA
BRANCH  51  54
ATOM     54  O   UNL     1       4.762   7.130  -5.463  1.00  0.00    -0.264 OA
ATOM     55  H   UNL     1       4.952   6.375  -6.057  1.00  0.00     0.236 HD
ENDBRANCH  51  54
ENDBRANCH  50  51
ENDBRANCH   8  50
TORSDOF 19
ENDMDL
MODEL 44
REMARK VINA RESULT:    -7.003      5.307     11.487
REMARK INTER + INTRA:         -17.172
REMARK INTER:                 -13.571
REMARK INTRA:                  -3.602
REMARK UNBOUND:                -3.005
REMARK SMILES CC[C@@H](C)[C@@H](NC(=O)[C@@H](O)Cc1ccc(O)c(Cl)c1)C(=O)N1[C@H](C(=O)NCCCCN=C(N)N)C[C@H]2CC[C@H](OS(=O)(=O)O)C[C@@H]21
REMARK SMILES IDX 22 1 36 2 46 3 35 4 23 5 45 6 37 7 39 8 38 9 20 10 21 11
REMARK SMILES IDX 5 12 6 13 7 14 8 15 9 17 11 18 12 19 17 20 19 21 15 22 14 23
REMARK SMILES IDX 13 24 18 25 16 26 10 28 3 30 4 31 2 32 1 33 24 34 25 35
REMARK SMILES IDX 26 36 27 38 28 39 29 40 30 41 31 42 32 43 33 44 34 45 40 50
REMARK SMILES IDX 41 51 42 52 43 53 44 54
REMARK H PARENT 6 16 16 27 10 29 26 37 33 46 33 47 34 48 34 49 44 55
ROOT
ATOM      1  N   UNL     1      -1.176  10.691   0.713  1.00  0.00    -0.326 N 
ATOM      2  C   UNL     1      -0.595   9.563   2.697  1.00  0.00     0.014 C 
ATOM      3  C   UNL     1      -0.348   9.577   1.185  1.00  0.00     0.091 C 
ATOM      4  C   UNL     1      -2.053   9.986   2.802  1.00  0.00     0.041 C 
ATOM      5  C   UNL     1      -2.069  11.157   1.802  1.00  0.00     0.175 C 
ATOM      6  C   UNL     1       1.158   9.640   0.943  1.00  0.00     0.059 C 
ATOM      7  C   UNL     1      -0.158   8.246   3.306  1.00  0.00     0.008 C 
ATOM      8  C   UNL     1       1.993   8.927   2.029  1.00  0.00     0.143 C 
ATOM      9  C   UNL     1       1.200   7.801   2.723  1.00  0.00     0.034 C 
ENDROOT
BRANCH   1  10
ATOM     10  C   UNL     1      -1.371  11.170  -0.571  1.00  0.00     0.246 C 
ATOM     11  O   UNL     1      -2.380  11.840  -0.816  1.00  0.00    -0.272 OA
BRANCH  10  12
ATOM     12  C   UNL     1      -0.298  10.892  -1.664  1.00  0.00     0.174 C 
BRANCH  12  13
ATOM     13  N   UNL     1       0.278  12.153  -2.130  1.00  0.00    -0.342 N 
ATOM     14  C   UNL     1       1.539  12.609  -1.817  1.00  0.00     0.249 C 
ATOM     15  O   UNL     1       2.338  11.986  -1.129  1.00  0.00    -0.272 OA
ATOM     16  H   UNL     1      -0.319  12.845  -2.577  1.00  0.00     0.164 HD
BRANCH  14  17
ATOM     17  C   UNL     1       1.848  13.984  -2.447  1.00  0.00     0.207 C 
BRANCH  17  18
ATOM     18  C   UNL     1       3.111  13.905  -3.312  1.00  0.00     0.077 C 
BRANCH  18  19
ATOM     19  C   UNL     1       2.921  12.992  -4.502  1.00  0.00    -0.043 A 
ATOM     20  C   UNL     1       3.746  11.236  -5.959  1.00  0.00     0.083 A 
ATOM     21  C   UNL     1       3.901  12.043  -4.831  1.00  0.00     0.028 A 
ATOM     22  C   UNL     1       2.614  11.373  -6.764  1.00  0.00     0.134 A 
ATOM     23  C   UNL     1       1.635  12.308  -6.450  1.00  0.00     0.048 A 
ATOM     24  C   UNL     1       1.789  13.118  -5.323  1.00  0.00     0.008 A 
ATOM     25  Cl  UNL     1       4.962  10.077  -6.347  1.00  0.00    -0.080 Cl
BRANCH  22  26
ATOM     26  O   UNL     1       2.423  10.612  -7.885  1.00  0.00    -0.506 OA
ATOM     27  H   UNL     1       3.304  10.457  -8.273  1.00  0.00     0.293 HD
ENDBRANCH  22  26
ENDBRANCH  18  19
ENDBRANCH  17  18
BRANCH  17  28
ATOM     28  O   UNL     1       2.025  14.988  -1.436  1.00  0.00    -0.383 OA
ATOM     29  H   UNL     1       1.837  15.850  -1.872  1.00  0.00     0.211 HD
ENDBRANCH  17  28
ENDBRANCH  14  17
ENDBRANCH  12  13
BRANCH  12  30
ATOM     30  C   UNL     1      -0.842  10.023  -2.830  1.00  0.00     0.018 C 
ATOM     31  C   UNL     1      -1.090   8.579  -2.366  1.00  0.00     0.010 C 
BRANCH  30  32
ATOM     32  C   UNL     1       0.065  10.029  -4.085  1.00  0.00     0.002 C 
ATOM     33  C   UNL     1       1.356   9.230  -3.960  1.00  0.00     0.004 C 
ENDBRANCH  30  32
ENDBRANCH  12  30
ENDBRANCH  10  12
ENDBRANCH   1  10
BRANCH   5  34
ATOM     34  C   UNL     1      -1.523  12.462   2.441  1.00  0.00     0.242 C 
ATOM     35  O   UNL     1      -0.599  12.460   3.254  1.00  0.00    -0.273 OA
ATOM     36  N   UNL     1      -2.182  13.614   2.074  1.00  0.00    -0.354 N 
ATOM     37  H   UNL     1      -3.016  13.539   1.490  1.00  0.00     0.163 HD
BRANCH  36  38
ATOM     38  C   UNL     1      -1.677  14.932   2.400  1.00  0.00     0.116 C 
BRANCH  38  39
ATOM     39  C   UNL     1      -2.428  15.491   3.606  1.00  0.00     0.023 C 
BRANCH  39  40
ATOM     40  C   UNL     1      -1.649  15.326   4.906  1.00  0.00     0.026 C 
BRANCH  40  41
ATOM     41  C   UNL     1      -2.289  14.253   5.788  1.00  0.00     0.146 C 
BRANCH  41  42
ATOM     42  N   UNL     1      -1.408  13.947   6.908  1.00  0.00    -0.254 NA
ATOM     43  C   UNL     1      -0.823  12.810   6.960  1.00  0.00     0.185 C 
ATOM     44  N   UNL     1      -0.875  11.769   6.109  1.00  0.00    -0.370 N 
ATOM     45  N   UNL     1      -0.019  12.545   8.003  1.00  0.00    -0.370 N 
ATOM     46  H   UNL     1      -0.564  10.856   6.394  1.00  0.00     0.159 HD
ATOM     47  H   UNL     1      -1.428  11.805   5.257  1.00  0.00     0.159 HD
ATOM     48  H   UNL     1       0.083  13.281   8.689  1.00  0.00     0.159 HD
ATOM     49  H   UNL     1       0.647  11.793   7.999  1.00  0.00     0.159 HD
ENDBRANCH  41  42
ENDBRANCH  40  41
ENDBRANCH  39  40
ENDBRANCH  38  39
ENDBRANCH  36  38
ENDBRANCH   5  34
BRANCH   8  50
ATOM     50  O   UNL     1       2.410   9.866   3.021  1.00  0.00    -0.245 OA
BRANCH  50  51
ATOM     51  S   UNL     1       3.681  10.836   2.724  1.00  0.00     0.397 S 
ATOM     52  O   UNL     1       4.602  10.717   3.832  1.00  0.00    -0.169 OA
ATOM     53  O   UNL     1       3.211  12.126   2.263  1.00  0.00    -0.169 OA
BRANCH  51  54
ATOM     54  O   UNL     1       4.388  10.094   1.485  1.00  0.00    -0.264 OA
ATOM     55  H   UNL     1       5.354  10.223   1.572  1.00  0.00     0.236 HD
ENDBRANCH  51  54
ENDBRANCH  50  51
ENDBRANCH   8  50
TORSDOF 19
ENDMDL
MODEL 45
REMARK VINA RESULT:    -6.972      7.323     10.980
REMARK INTER + INTRA:         -17.110
REMARK INTER:                 -12.324
REMARK INTRA:                  -4.786
REMARK UNBOUND:                -3.005
REMARK SMILES CC[C@@H](C)[C@@H](NC(=O)[C@@H](O)Cc1ccc(O)c(Cl)c1)C(=O)N1[C@H](C(=O)NCCCCN=C(N)N)C[C@H]2CC[C@H](OS(=O)(=O)O)C[C@@H]21
REMARK SMILES IDX 22 1 36 2 46 3 35 4 23 5 45 6 37 7 39 8 38 9 20 10 21 11
REMARK SMILES IDX 5 12 6 13 7 14 8 15 9 17 11 18 12 19 17 20 19 21 15 22 14 23
REMARK SMILES IDX 13 24 18 25 16 26 10 28 3 30 4 31 2 32 1 33 24 34 25 35
REMARK SMILES IDX 26 36 27 38 28 39 29 40 30 41 31 42 32 43 33 44 34 45 40 50
REMARK SMILES IDX 41 51 42 52 43 53 44 54
REMARK H PARENT 6 16 16 27 10 29 26 37 33 46 33 47 34 48 34 49 44 55
ROOT
ATOM      1  N   UNL     1      -1.185  10.984   2.240  1.00  0.00    -0.326 N 
ATOM      2  C   UNL     1      -1.210  12.732   3.816  1.00  0.00     0.014 C 
ATOM      3  C   UNL     1      -1.260  11.207   3.687  1.00  0.00     0.091 C 
ATOM      4  C   UNL     1      -1.966  13.198   2.581  1.00  0.00     0.041 C 
ATOM      5  C   UNL     1      -1.348  12.270   1.518  1.00  0.00     0.175 C 
ATOM      6  C   UNL     1      -0.165  10.611   4.569  1.00  0.00     0.059 C 
ATOM      7  C   UNL     1      -1.682  13.175   5.187  1.00  0.00     0.008 C 
ATOM      8  C   UNL     1       0.133  11.442   5.836  1.00  0.00     0.143 C 
ATOM      9  C   UNL     1      -1.088  12.269   6.286  1.00  0.00     0.034 C 
ENDROOT
BRANCH   1  10
ATOM     10  C   UNL     1      -1.207   9.800   1.522  1.00  0.00     0.246 C 
ATOM     11  O   UNL     1      -2.264   9.164   1.443  1.00  0.00    -0.272 OA
BRANCH  10  12
ATOM     12  C   UNL     1       0.083   9.319   0.797  1.00  0.00     0.174 C 
BRANCH  12  13
ATOM     13  N   UNL     1       1.265   9.748   1.545  1.00  0.00    -0.342 N 
ATOM     14  C   UNL     1       1.994   8.950   2.397  1.00  0.00     0.249 C 
ATOM     15  O   UNL     1       1.746   7.769   2.606  1.00  0.00    -0.272 OA
ATOM     16  H   UNL     1       1.497  10.737   1.595  1.00  0.00     0.164 HD
BRANCH  14  17
ATOM     17  C   UNL     1       3.175   9.700   3.050  1.00  0.00     0.207 C 
BRANCH  17  18
ATOM     18  C   UNL     1       3.506   9.091   4.417  1.00  0.00     0.077 C 
BRANCH  18  19
ATOM     19  C   UNL     1       4.711   8.180   4.349  1.00  0.00    -0.043 A 
ATOM     20  C   UNL     1       5.921   6.232   5.139  1.00  0.00     0.083 A 
ATOM     21  C   UNL     1       4.786   7.043   5.168  1.00  0.00     0.028 A 
ATOM     22  C   UNL     1       6.986   6.551   4.296  1.00  0.00     0.134 A 
ATOM     23  C   UNL     1       6.925   7.675   3.480  1.00  0.00     0.048 A 
ATOM     24  C   UNL     1       5.791   8.489   3.508  1.00  0.00     0.008 A 
ATOM     25  Cl  UNL     1       5.995   4.839   6.153  1.00  0.00    -0.080 Cl
BRANCH  22  26
ATOM     26  O   UNL     1       8.124   5.793   4.241  1.00  0.00    -0.506 OA
ATOM     27  H   UNL     1       8.270   5.575   3.302  1.00  0.00     0.293 HD
ENDBRANCH  22  26
ENDBRANCH  18  19
ENDBRANCH  17  18
BRANCH  17  28
ATOM     28  O   UNL     1       2.877  11.096   3.210  1.00  0.00    -0.383 OA
ATOM     29  H   UNL     1       2.834  11.471   2.301  1.00  0.00     0.211 HD
ENDBRANCH  17  28
ENDBRANCH  14  17
ENDBRANCH  12  13
BRANCH  12  30
ATOM     30  C   UNL     1       0.133   9.755  -0.692  1.00  0.00     0.018 C 
ATOM     31  C   UNL     1      -1.249   9.614  -1.349  1.00  0.00     0.010 C 
BRANCH  30  32
ATOM     32  C   UNL     1       1.197   9.000  -1.525  1.00  0.00     0.002 C 
ATOM     33  C   UNL     1       1.221   9.337  -3.010  1.00  0.00     0.004 C 
ENDBRANCH  30  32
ENDBRANCH  12  30
ENDBRANCH  10  12
ENDBRANCH   1  10
BRANCH   5  34
ATOM     34  C   UNL     1       0.023  12.801   1.023  1.00  0.00     0.242 C 
ATOM     35  O   UNL     1       1.054  12.681   1.686  1.00  0.00    -0.273 OA
ATOM     36  N   UNL     1      -0.006  13.461  -0.185  1.00  0.00    -0.354 N 
ATOM     37  H   UNL     1      -0.909  13.633  -0.629  1.00  0.00     0.163 HD
BRANCH  36  38
ATOM     38  C   UNL     1       1.202  13.829  -0.895  1.00  0.00     0.116 C 
BRANCH  38  39
ATOM     39  C   UNL     1       1.372  12.938  -2.123  1.00  0.00     0.023 C 
BRANCH  39  40
ATOM     40  C   UNL     1       2.821  12.863  -2.592  1.00  0.00     0.026 C 
BRANCH  40  41
ATOM     41  C   UNL     1       3.762  13.460  -1.545  1.00  0.00     0.146 C 
BRANCH  41  42
ATOM     42  N   UNL     1       4.537  12.399  -0.917  1.00  0.00    -0.254 NA
ATOM     43  C   UNL     1       4.580  12.317   0.360  1.00  0.00     0.185 C 
ATOM     44  N   UNL     1       3.997  13.088   1.297  1.00  0.00    -0.370 N 
ATOM     45  N   UNL     1       5.304  11.334   0.920  1.00  0.00    -0.370 N 
ATOM     46  H   UNL     1       4.311  13.060   2.252  1.00  0.00     0.159 HD
ATOM     47  H   UNL     1       3.402  13.871   1.047  1.00  0.00     0.159 HD
ATOM     48  H   UNL     1       5.769  10.702   0.283  1.00  0.00     0.159 HD
ATOM     49  H   UNL     1       5.199  11.061   1.881  1.00  0.00     0.159 HD
ENDBRANCH  41  42
ENDBRANCH  40  41
ENDBRANCH  39  40
ENDBRANCH  38  39
ENDBRANCH  36  38
ENDBRANCH   5  34
BRANCH   8  50
ATOM     50  O   UNL     1       1.221  12.334   5.594  1.00  0.00    -0.245 OA
BRANCH  50  51
ATOM     51  S   UNL     1       2.490  12.348   6.611  1.00  0.00     0.397 S 
ATOM     52  O   UNL     1       2.241  13.350   7.622  1.00  0.00    -0.169 OA
ATOM     53  O   UNL     1       3.722  12.326   5.850  1.00  0.00    -0.169 OA
BRANCH  51  54
ATOM     54  O   UNL     1       2.341  10.929   7.353  1.00  0.00    -0.264 OA
ATOM     55  H   UNL     1       1.573  10.988   7.957  1.00  0.00     0.236 HD
ENDBRANCH  51  54
ENDBRANCH  50  51
ENDBRANCH   8  50
TORSDOF 19
ENDMDL
MODEL 46
REMARK VINA RESULT:    -6.953     15.780     20.422
REMARK INTER + INTRA:         -17.070
REMARK INTER:                 -15.961
REMARK INTRA:                  -1.109
REMARK UNBOUND:                -3.005
REMARK SMILES CC[C@@H](C)[C@@H](NC(=O)[C@@H](O)Cc1ccc(O)c(Cl)c1)C(=O)N1[C@H](C(=O)NCCCCN=C(N)N)C[C@H]2CC[C@H](OS(=O)(=O)O)C[C@@H]21
REMARK SMILES IDX 22 1 36 2 46 3 35 4 23 5 45 6 37 7 39 8 38 9 20 10 21 11
REMARK SMILES IDX 5 12 6 13 7 14 8 15 9 17 11 18 12 19 17 20 19 21 15 22 14 23
REMARK SMILES IDX 13 24 18 25 16 26 10 28 3 30 4 31 2 32 1 33 24 34 25 35
REMARK SMILES IDX 26 36 27 38 28 39 29 40 30 41 31 42 32 43 33 44 34 45 40 50
REMARK SMILES IDX 41 51 42 52 43 53 44 54
REMARK H PARENT 6 16 16 27 10 29 26 37 33 46 33 47 34 48 34 49 44 55
ROOT
ATOM      1  N   UNL     1       0.042   1.755  10.014  1.00  0.00    -0.326 N 
ATOM      2  C   UNL     1      -2.103   0.784  10.002  1.00  0.00     0.014 C 
ATOM      3  C   UNL     1      -0.772   0.791  10.760  1.00  0.00     0.091 C 
ATOM      4  C   UNL     1      -1.667   0.987   8.559  1.00  0.00     0.041 C 
ATOM      5  C   UNL     1      -0.634   2.113   8.742  1.00  0.00     0.175 C 
ATOM      6  C   UNL     1      -1.057   1.071  12.234  1.00  0.00     0.059 C 
ATOM      7  C   UNL     1      -2.927  -0.435  10.366  1.00  0.00     0.008 C 
ATOM      8  C   UNL     1      -2.417   0.524  12.719  1.00  0.00     0.143 C 
ATOM      9  C   UNL     1      -2.883  -0.688  11.887  1.00  0.00     0.034 C 
ENDROOT
BRANCH   1  10
ATOM     10  C   UNL     1       1.349   2.161  10.221  1.00  0.00     0.246 C 
ATOM     11  O   UNL     1       1.655   2.671  11.305  1.00  0.00    -0.272 OA
BRANCH  10  12
ATOM     12  C   UNL     1       2.411   1.930   9.107  1.00  0.00     0.174 C 
BRANCH  12  13
ATOM     13  N   UNL     1       3.322   0.857   9.502  1.00  0.00    -0.342 N 
ATOM     14  C   UNL     1       4.463   1.026  10.254  1.00  0.00     0.249 C 
ATOM     15  O   UNL     1       4.830   2.104  10.703  1.00  0.00    -0.272 OA
ATOM     16  H   UNL     1       3.234  -0.061   9.074  1.00  0.00     0.164 HD
BRANCH  14  17
ATOM     17  C   UNL     1       5.223  -0.297  10.488  1.00  0.00     0.207 C 
BRANCH  17  18
ATOM     18  C   UNL     1       6.454  -0.376   9.579  1.00  0.00     0.077 C 
BRANCH  18  19
ATOM     19  C   UNL     1       7.580  -1.152  10.224  1.00  0.00    -0.043 A 
ATOM     20  C   UNL     1       9.641  -2.417  10.033  1.00  0.00     0.083 A 
ATOM     21  C   UNL     1       8.630  -1.659   9.442  1.00  0.00     0.028 A 
ATOM     22  C   UNL     1       9.610  -2.675  11.404  1.00  0.00     0.134 A 
ATOM     23  C   UNL     1       8.577  -2.179  12.191  1.00  0.00     0.048 A 
ATOM     24  C   UNL     1       7.562  -1.421  11.602  1.00  0.00     0.008 A 
ATOM     25  Cl  UNL     1      10.922  -3.032   9.056  1.00  0.00    -0.080 Cl
BRANCH  22  26
ATOM     26  O   UNL     1      10.574  -3.422  12.027  1.00  0.00    -0.506 OA
ATOM     27  H   UNL     1      11.215  -3.680  11.339  1.00  0.00     0.293 HD
ENDBRANCH  22  26
ENDBRANCH  18  19
ENDBRANCH  17  18
BRANCH  17  28
ATOM     28  O   UNL     1       4.376  -1.431  10.242  1.00  0.00    -0.383 OA
ATOM     29  H   UNL     1       4.289  -1.499   9.264  1.00  0.00     0.211 HD
ENDBRANCH  17  28
ENDBRANCH  14  17
ENDBRANCH  12  13
BRANCH  12  30
ATOM     30  C   UNL     1       3.162   3.231   8.715  1.00  0.00     0.018 C 
ATOM     31  C   UNL     1       2.276   4.465   8.948  1.00  0.00     0.010 C 
BRANCH  30  32
ATOM     32  C   UNL     1       3.695   3.227   7.261  1.00  0.00     0.002 C 
ATOM     33  C   UNL     1       4.758   4.273   6.955  1.00  0.00     0.004 C 
ENDBRANCH  30  32
ENDBRANCH  12  30
ENDBRANCH  10  12
ENDBRANCH   1  10
BRANCH   5  34
ATOM     34  C   UNL     1      -1.315   3.503   8.854  1.00  0.00     0.242 C 
ATOM     35  O   UNL     1      -1.921   4.016   7.913  1.00  0.00    -0.273 OA
ATOM     36  N   UNL     1      -1.148   4.141  10.062  1.00  0.00    -0.354 N 
ATOM     37  H   UNL     1      -0.536   3.719  10.761  1.00  0.00     0.163 HD
BRANCH  36  38
ATOM     38  C   UNL     1      -1.888   5.335  10.415  1.00  0.00     0.116 C 
BRANCH  38  39
ATOM     39  C   UNL     1      -1.158   6.090  11.523  1.00  0.00     0.023 C 
BRANCH  39  40
ATOM     40  C   UNL     1       0.359   5.982  11.399  1.00  0.00     0.026 C 
BRANCH  40  41
ATOM     41  C   UNL     1       1.039   6.381  12.709  1.00  0.00     0.146 C 
BRANCH  41  42
ATOM     42  N   UNL     1       0.190   6.017  13.836  1.00  0.00    -0.254 NA
ATOM     43  C   UNL     1      -0.048   6.877  14.753  1.00  0.00     0.185 C 
ATOM     44  N   UNL     1       0.372   8.150  14.876  1.00  0.00    -0.370 N 
ATOM     45  N   UNL     1      -0.830   6.521  15.786  1.00  0.00    -0.370 N 
ATOM     46  H   UNL     1       0.311   8.626  15.760  1.00  0.00     0.159 HD
ATOM     47  H   UNL     1       0.962   8.586  14.175  1.00  0.00     0.159 HD
ATOM     48  H   UNL     1      -1.196   5.578  15.766  1.00  0.00     0.159 HD
ATOM     49  H   UNL     1      -1.250   7.189  16.406  1.00  0.00     0.159 HD
ENDBRANCH  41  42
ENDBRANCH  40  41
ENDBRANCH  39  40
ENDBRANCH  38  39
ENDBRANCH  36  38
ENDBRANCH   5  34
BRANCH   8  50
ATOM     50  O   UNL     1      -3.414   1.542  12.635  1.00  0.00    -0.245 OA
BRANCH  50  51
ATOM     51  S   UNL     1      -3.184   2.956  13.406  1.00  0.00     0.397 S 
ATOM     52  O   UNL     1      -4.252   3.852  13.022  1.00  0.00    -0.169 OA
ATOM     53  O   UNL     1      -1.793   3.345  13.303  1.00  0.00    -0.169 OA
BRANCH  51  54
ATOM     54  O   UNL     1      -3.476   2.556  14.935  1.00  0.00    -0.264 OA
ATOM     55  H   UNL     1      -4.406   2.255  14.993  1.00  0.00     0.236 HD
ENDBRANCH  51  54
ENDBRANCH  50  51
ENDBRANCH   8  50
TORSDOF 19
ENDMDL
MODEL 47
REMARK VINA RESULT:    -6.948      4.599      9.610
REMARK INTER + INTRA:         -17.060
REMARK INTER:                 -14.094
REMARK INTRA:                  -2.966
REMARK UNBOUND:                -3.005
REMARK SMILES CC[C@@H](C)[C@@H](NC(=O)[C@@H](O)Cc1ccc(O)c(Cl)c1)C(=O)N1[C@H](C(=O)NCCCCN=C(N)N)C[C@H]2CC[C@H](OS(=O)(=O)O)C[C@@H]21
REMARK SMILES IDX 22 1 36 2 46 3 35 4 23 5 45 6 37 7 39 8 38 9 20 10 21 11
REMARK SMILES IDX 5 12 6 13 7 14 8 15 9 17 11 18 12 19 17 20 19 21 15 22 14 23
REMARK SMILES IDX 13 24 18 25 16 26 10 28 3 30 4 31 2 32 1 33 24 34 25 35
REMARK SMILES IDX 26 36 27 38 28 39 29 40 30 41 31 42 32 43 33 44 34 45 40 50
REMARK SMILES IDX 41 51 42 52 43 53 44 54
REMARK H PARENT 6 16 16 27 10 29 26 37 33 46 33 47 34 48 34 49 44 55
ROOT
ATOM      1  N   UNL     1       0.318  11.131  -0.301  1.00  0.00    -0.326 N 
ATOM      2  C   UNL     1      -1.426  12.647   0.151  1.00  0.00     0.014 C 
ATOM      3  C   UNL     1      -0.881  11.267   0.531  1.00  0.00     0.091 C 
ATOM      4  C   UNL     1      -1.085  12.745  -1.328  1.00  0.00     0.041 C 
ATOM      5  C   UNL     1       0.362  12.218  -1.310  1.00  0.00     0.175 C 
ATOM      6  C   UNL     1      -0.718  11.214   2.049  1.00  0.00     0.059 C 
ATOM      7  C   UNL     1      -2.867  12.801   0.593  1.00  0.00     0.008 C 
ATOM      8  C   UNL     1      -1.755  12.064   2.816  1.00  0.00     0.143 C 
ATOM      9  C   UNL     1      -3.063  12.240   2.018  1.00  0.00     0.034 C 
ENDROOT
BRANCH   1  10
ATOM     10  C   UNL     1       1.213  10.079  -0.403  1.00  0.00     0.246 C 
ATOM     11  O   UNL     1       2.166  10.024   0.382  1.00  0.00    -0.272 OA
BRANCH  10  12
ATOM     12  C   UNL     1       0.978   8.972  -1.470  1.00  0.00     0.174 C 
BRANCH  12  13
ATOM     13  N   UNL     1       0.670   9.582  -2.763  1.00  0.00    -0.342 N 
ATOM     14  C   UNL     1       1.495   9.560  -3.864  1.00  0.00     0.249 C 
ATOM     15  O   UNL     1       2.581   8.994  -3.891  1.00  0.00    -0.272 OA
ATOM     16  H   UNL     1      -0.121  10.217  -2.845  1.00  0.00     0.164 HD
BRANCH  14  17
ATOM     17  C   UNL     1       0.896  10.308  -5.074  1.00  0.00     0.207 C 
BRANCH  17  18
ATOM     18  C   UNL     1       1.248  11.797  -5.011  1.00  0.00     0.077 C 
BRANCH  18  19
ATOM     19  C   UNL     1       2.666  12.060  -5.466  1.00  0.00    -0.043 A 
ATOM     20  C   UNL     1       4.706  13.366  -5.344  1.00  0.00     0.083 A 
ATOM     21  C   UNL     1       3.416  13.095  -4.887  1.00  0.00     0.028 A 
ATOM     22  C   UNL     1       5.253  12.608  -6.381  1.00  0.00     0.134 A 
ATOM     23  C   UNL     1       4.521  11.580  -6.963  1.00  0.00     0.048 A 
ATOM     24  C   UNL     1       3.229  11.308  -6.509  1.00  0.00     0.008 A 
ATOM     25  Cl  UNL     1       5.612  14.642  -4.620  1.00  0.00    -0.080 Cl
BRANCH  22  26
ATOM     26  O   UNL     1       6.510  12.844  -6.869  1.00  0.00    -0.506 OA
ATOM     27  H   UNL     1       6.850  11.988  -7.191  1.00  0.00     0.293 HD
ENDBRANCH  22  26
ENDBRANCH  18  19
ENDBRANCH  17  18
BRANCH  17  28
ATOM     28  O   UNL     1      -0.532  10.157  -5.119  1.00  0.00    -0.383 OA
ATOM     29  H   UNL     1      -0.756   9.965  -6.058  1.00  0.00     0.211 HD
ENDBRANCH  17  28
ENDBRANCH  14  17
ENDBRANCH  12  13
BRANCH  12  30
ATOM     30  C   UNL     1      -0.094   7.936  -1.034  1.00  0.00     0.018 C 
ATOM     31  C   UNL     1      -1.464   8.280  -1.639  1.00  0.00     0.010 C 
BRANCH  30  32
ATOM     32  C   UNL     1      -0.215   7.776   0.501  1.00  0.00     0.002 C 
ATOM     33  C   UNL     1      -1.634   7.832   1.051  1.00  0.00     0.004 C 
ENDBRANCH  30  32
ENDBRANCH  12  30
ENDBRANCH  10  12
ENDBRANCH   1  10
BRANCH   5  34
ATOM     34  C   UNL     1       1.368  13.321  -0.885  1.00  0.00     0.242 C 
ATOM     35  O   UNL     1       1.012  14.470  -0.623  1.00  0.00    -0.273 OA
ATOM     36  N   UNL     1       2.690  12.937  -0.876  1.00  0.00    -0.354 N 
ATOM     37  H   UNL     1       2.933  12.006  -1.218  1.00  0.00     0.163 HD
BRANCH  36  38
ATOM     38  C   UNL     1       3.732  13.764  -0.303  1.00  0.00     0.116 C 
BRANCH  38  39
ATOM     39  C   UNL     1       5.018  12.953  -0.162  1.00  0.00     0.023 C 
BRANCH  39  40
ATOM     40  C   UNL     1       6.182  13.569  -0.930  1.00  0.00     0.026 C 
BRANCH  40  41
ATOM     41  C   UNL     1       6.646  12.638  -2.050  1.00  0.00     0.146 C 
BRANCH  41  42
ATOM     42  N   UNL     1       8.100  12.669  -2.146  1.00  0.00    -0.254 NA
ATOM     43  C   UNL     1       8.670  12.314  -3.235  1.00  0.00     0.185 C 
ATOM     44  N   UNL     1       8.134  11.887  -4.393  1.00  0.00    -0.370 N 
ATOM     45  N   UNL     1      10.011  12.345  -3.302  1.00  0.00    -0.370 N 
ATOM     46  H   UNL     1       8.700  11.412  -5.076  1.00  0.00     0.159 HD
ATOM     47  H   UNL     1       7.129  11.815  -4.521  1.00  0.00     0.159 HD
ATOM     48  H   UNL     1      10.494  12.665  -2.473  1.00  0.00     0.159 HD
ATOM     49  H   UNL     1      10.513  12.314  -4.172  1.00  0.00     0.159 HD
ENDBRANCH  41  42
ENDBRANCH  40  41
ENDBRANCH  39  40
ENDBRANCH  38  39
ENDBRANCH  36  38
ENDBRANCH   5  34
BRANCH   8  50
ATOM     50  O   UNL     1      -1.218  13.356   3.097  1.00  0.00    -0.245 OA
BRANCH  50  51
ATOM     51  S   UNL     1      -1.725  14.168   4.412  1.00  0.00     0.397 S 
ATOM     52  O   UNL     1      -0.599  14.897   4.950  1.00  0.00    -0.169 OA
ATOM     53  O   UNL     1      -2.531  13.295   5.241  1.00  0.00    -0.169 OA
BRANCH  51  54
ATOM     54  O   UNL     1      -2.697  15.275   3.769  1.00  0.00    -0.264 OA
ATOM     55  H   UNL     1      -2.205  16.121   3.736  1.00  0.00     0.236 HD
ENDBRANCH  51  54
ENDBRANCH  50  51
ENDBRANCH   8  50
TORSDOF 19
ENDMDL
MODEL 48
REMARK VINA RESULT:    -6.938      5.206      9.158
REMARK INTER + INTRA:         -17.041
REMARK INTER:                 -13.948
REMARK INTRA:                  -3.093
REMARK UNBOUND:                -3.005
REMARK SMILES CC[C@@H](C)[C@@H](NC(=O)[C@@H](O)Cc1ccc(O)c(Cl)c1)C(=O)N1[C@H](C(=O)NCCCCN=C(N)N)C[C@H]2CC[C@H](OS(=O)(=O)O)C[C@@H]21
REMARK SMILES IDX 22 1 36 2 46 3 35 4 23 5 45 6 37 7 39 8 38 9 20 10 21 11
REMARK SMILES IDX 5 12 6 13 7 14 8 15 9 17 11 18 12 19 17 20 19 21 15 22 14 23
REMARK SMILES IDX 13 24 18 25 16 26 10 28 3 30 4 31 2 32 1 33 24 34 25 35
REMARK SMILES IDX 26 36 27 38 28 39 29 40 30 41 31 42 32 43 33 44 34 45 40 50
REMARK SMILES IDX 41 51 42 52 43 53 44 54
REMARK H PARENT 6 16 16 27 10 29 26 37 33 46 33 47 34 48 34 49 44 55
ROOT
ATOM      1  N   UNL     1       1.665  11.934  -1.417  1.00  0.00    -0.326 N 
ATOM      2  C   UNL     1       0.630  11.072  -3.348  1.00  0.00     0.014 C 
ATOM      3  C   UNL     1       1.614  12.142  -2.867  1.00  0.00     0.091 C 
ATOM      4  C   UNL     1      -0.368  10.996  -2.202  1.00  0.00     0.041 C 
ATOM      5  C   UNL     1       0.596  10.992  -1.001  1.00  0.00     0.175 C 
ATOM      6  C   UNL     1       2.909  12.000  -3.665  1.00  0.00     0.059 C 
ATOM      7  C   UNL     1       0.133  11.382  -4.746  1.00  0.00     0.008 C 
ATOM      8  C   UNL     1       2.698  11.492  -5.107  1.00  0.00     0.143 C 
ATOM      9  C   UNL     1       1.297  11.846  -5.647  1.00  0.00     0.034 C 
ENDROOT
BRANCH   1  10
ATOM     10  C   UNL     1       2.375  12.619  -0.446  1.00  0.00     0.246 C 
ATOM     11  O   UNL     1       1.787  13.450   0.255  1.00  0.00    -0.272 OA
BRANCH  10  12
ATOM     12  C   UNL     1       3.883  12.299  -0.229  1.00  0.00     0.174 C 
BRANCH  12  13
ATOM     13  N   UNL     1       4.115  11.913   1.162  1.00  0.00    -0.342 N 
ATOM     14  C   UNL     1       5.004  10.945   1.575  1.00  0.00     0.249 C 
ATOM     15  O   UNL     1       5.727  10.314   0.815  1.00  0.00    -0.272 OA
ATOM     16  H   UNL     1       3.481  12.236   1.888  1.00  0.00     0.164 HD
BRANCH  14  17
ATOM     17  C   UNL     1       5.008  10.756   3.107  1.00  0.00     0.207 C 
BRANCH  17  18
ATOM     18  C   UNL     1       4.293   9.455   3.488  1.00  0.00     0.077 C 
BRANCH  18  19
ATOM     19  C   UNL     1       5.272   8.366   3.866  1.00  0.00    -0.043 A 
ATOM     20  C   UNL     1       5.740   6.236   4.927  1.00  0.00     0.083 A 
ATOM     21  C   UNL     1       4.827   7.216   4.535  1.00  0.00     0.028 A 
ATOM     22  C   UNL     1       7.099   6.398   4.654  1.00  0.00     0.134 A 
ATOM     23  C   UNL     1       7.553   7.533   3.991  1.00  0.00     0.048 A 
ATOM     24  C   UNL     1       6.642   8.516   3.600  1.00  0.00     0.008 A 
ATOM     25  Cl  UNL     1       5.175   4.829   5.749  1.00  0.00    -0.080 Cl
BRANCH  22  26
ATOM     26  O   UNL     1       8.033   5.470   5.027  1.00  0.00    -0.506 OA
ATOM     27  H   UNL     1       7.600   4.598   4.967  1.00  0.00     0.293 HD
ENDBRANCH  22  26
ENDBRANCH  18  19
ENDBRANCH  17  18
BRANCH  17  28
ATOM     28  O   UNL     1       4.369  11.861   3.767  1.00  0.00    -0.383 OA
ATOM     29  H   UNL     1       3.431  11.595   3.895  1.00  0.00     0.211 HD
ENDBRANCH  17  28
ENDBRANCH  14  17
ENDBRANCH  12  13
BRANCH  12  30
ATOM     30  C   UNL     1       4.813  13.455  -0.686  1.00  0.00     0.018 C 
ATOM     31  C   UNL     1       5.927  12.929  -1.604  1.00  0.00     0.010 C 
BRANCH  30  32
ATOM     32  C   UNL     1       5.425  14.261   0.486  1.00  0.00     0.002 C 
ATOM     33  C   UNL     1       6.943  14.200   0.594  1.00  0.00     0.004 C 
ENDBRANCH  30  32
ENDBRANCH  12  30
ENDBRANCH  10  12
ENDBRANCH   1  10
BRANCH   5  34
ATOM     34  C   UNL     1       1.180   9.577  -0.741  1.00  0.00     0.242 C 
ATOM     35  O   UNL     1       2.240   9.201  -1.242  1.00  0.00    -0.273 OA
ATOM     36  N   UNL     1       0.401   8.758   0.044  1.00  0.00    -0.354 N 
ATOM     37  H   UNL     1      -0.523   9.084   0.330  1.00  0.00     0.163 HD
BRANCH  36  38
ATOM     38  C   UNL     1       0.886   7.495   0.562  1.00  0.00     0.116 C 
BRANCH  38  39
ATOM     39  C   UNL     1       1.267   7.650   2.032  1.00  0.00     0.023 C 
BRANCH  39  40
ATOM     40  C   UNL     1       0.668   8.903   2.661  1.00  0.00     0.026 C 
BRANCH  40  41
ATOM     41  C   UNL     1      -0.745   8.628   3.177  1.00  0.00     0.146 C 
BRANCH  41  42
ATOM     42  N   UNL     1      -1.717   9.329   2.349  1.00  0.00    -0.254 NA
ATOM     43  C   UNL     1      -2.200  10.445   2.748  1.00  0.00     0.185 C 
ATOM     44  N   UNL     1      -1.956  11.141   3.874  1.00  0.00    -0.370 N 
ATOM     45  N   UNL     1      -3.098  11.074   1.973  1.00  0.00    -0.370 N 
ATOM     46  H   UNL     1      -2.580  11.871   4.172  1.00  0.00     0.159 HD
ATOM     47  H   UNL     1      -1.290  10.816   4.568  1.00  0.00     0.159 HD
ATOM     48  H   UNL     1      -3.333  10.621   1.100  1.00  0.00     0.159 HD
ATOM     49  H   UNL     1      -3.339  12.042   2.094  1.00  0.00     0.159 HD
ENDBRANCH  41  42
ENDBRANCH  40  41
ENDBRANCH  39  40
ENDBRANCH  38  39
ENDBRANCH  36  38
ENDBRANCH   5  34
BRANCH   8  50
ATOM     50  O   UNL     1       2.857  10.074  -5.156  1.00  0.00    -0.245 OA
BRANCH  50  51
ATOM     51  S   UNL     1       4.132   9.435  -5.937  1.00  0.00     0.397 S 
ATOM     52  O   UNL     1       4.330   8.091  -5.446  1.00  0.00    -0.169 OA
ATOM     53  O   UNL     1       5.214  10.398  -5.971  1.00  0.00    -0.169 OA
BRANCH  51  54
ATOM     54  O   UNL     1       3.564   9.276  -7.433  1.00  0.00    -0.264 OA
ATOM     55  H   UNL     1       2.622   9.544  -7.425  1.00  0.00     0.236 HD
ENDBRANCH  51  54
ENDBRANCH  50  51
ENDBRANCH   8  50
TORSDOF 19
ENDMDL
MODEL 49
REMARK VINA RESULT:    -6.887      6.436     10.573
REMARK INTER + INTRA:         -16.938
REMARK INTER:                 -13.776
REMARK INTRA:                  -3.162
REMARK UNBOUND:                -3.005
REMARK SMILES CC[C@@H](C)[C@@H](NC(=O)[C@@H](O)Cc1ccc(O)c(Cl)c1)C(=O)N1[C@H](C(=O)NCCCCN=C(N)N)C[C@H]2CC[C@H](OS(=O)(=O)O)C[C@@H]21
REMARK SMILES IDX 22 1 36 2 46 3 35 4 23 5 45 6 37 7 39 8 38 9 20 10 21 11
REMARK SMILES IDX 5 12 6 13 7 14 8 15 9 17 11 18 12 19 17 20 19 21 15 22 14 23
REMARK SMILES IDX 13 24 18 25 16 26 10 28 3 30 4 31 2 32 1 33 24 34 25 35
REMARK SMILES IDX 26 36 27 38 28 39 29 40 30 41 31 42 32 43 33 44 34 45 40 50
REMARK SMILES IDX 41 51 42 52 43 53 44 54
REMARK H PARENT 6 16 16 27 10 29 26 37 33 46 33 47 34 48 34 49 44 55
ROOT
ATOM      1  N   UNL     1       1.662   9.971   2.229  1.00  0.00    -0.326 N 
ATOM      2  C   UNL     1      -0.398   9.343   3.180  1.00  0.00     0.014 C 
ATOM      3  C   UNL     1       0.670  10.440   3.200  1.00  0.00     0.091 C 
ATOM      4  C   UNL     1       0.422   8.082   2.953  1.00  0.00     0.041 C 
ATOM      5  C   UNL     1       1.368   8.570   1.840  1.00  0.00     0.175 C 
ATOM      6  C   UNL     1      -0.013  11.783   2.947  1.00  0.00     0.059 C 
ATOM      7  C   UNL     1      -1.295   9.437   4.399  1.00  0.00     0.008 C 
ATOM      8  C   UNL     1      -1.456  11.860   3.492  1.00  0.00     0.143 C 
ATOM      9  C   UNL     1      -1.676  10.905   4.682  1.00  0.00     0.034 C 
ENDROOT
BRANCH   1  10
ATOM     10  C   UNL     1       2.861  10.542   1.838  1.00  0.00     0.246 C 
ATOM     11  O   UNL     1       2.971  10.982   0.689  1.00  0.00    -0.272 OA
BRANCH  10  12
ATOM     12  C   UNL     1       4.027  10.656   2.863  1.00  0.00     0.174 C 
BRANCH  12  13
ATOM     13  N   UNL     1       4.998   9.587   2.635  1.00  0.00    -0.342 N 
ATOM     14  C   UNL     1       6.365   9.729   2.721  1.00  0.00     0.249 C 
ATOM     15  O   UNL     1       6.923  10.774   3.030  1.00  0.00    -0.272 OA
ATOM     16  H   UNL     1       4.693   8.709   2.220  1.00  0.00     0.164 HD
BRANCH  14  17
ATOM     17  C   UNL     1       7.121   8.420   2.406  1.00  0.00     0.207 C 
BRANCH  17  18
ATOM     18  C   UNL     1       7.916   7.953   3.630  1.00  0.00     0.077 C 
BRANCH  18  19
ATOM     19  C   UNL     1       7.021   7.325   4.675  1.00  0.00    -0.043 A 
ATOM     20  C   UNL     1       6.323   7.105   6.987  1.00  0.00     0.083 A 
ATOM     21  C   UNL     1       7.115   7.722   6.018  1.00  0.00     0.028 A 
ATOM     22  C   UNL     1       5.436   6.091   6.623  1.00  0.00     0.134 A 
ATOM     23  C   UNL     1       5.333   5.689   5.297  1.00  0.00     0.048 A 
ATOM     24  C   UNL     1       6.126   6.303   4.324  1.00  0.00     0.008 A 
ATOM     25  Cl  UNL     1       6.453   7.605   8.633  1.00  0.00    -0.080 Cl
BRANCH  22  26
ATOM     26  O   UNL     1       4.647   5.450   7.540  1.00  0.00    -0.506 OA
ATOM     27  H   UNL     1       4.599   6.030   8.322  1.00  0.00     0.293 HD
ENDBRANCH  22  26
ENDBRANCH  18  19
ENDBRANCH  17  18
BRANCH  17  28
ATOM     28  O   UNL     1       8.015   8.594   1.295  1.00  0.00    -0.383 OA
ATOM     29  H   UNL     1       7.812   7.864   0.667  1.00  0.00     0.211 HD
ENDBRANCH  17  28
ENDBRANCH  14  17
ENDBRANCH  12  13
BRANCH  12  30
ATOM     30  C   UNL     1       3.530  10.701   4.334  1.00  0.00     0.018 C 
ATOM     31  C   UNL     1       4.200  11.851   5.101  1.00  0.00     0.010 C 
BRANCH  30  32
ATOM     32  C   UNL     1       3.725   9.368   5.096  1.00  0.00     0.002 C 
ATOM     33  C   UNL     1       3.641   9.467   6.614  1.00  0.00     0.004 C 
ENDBRANCH  30  32
ENDBRANCH  12  30
ENDBRANCH  10  12
ENDBRANCH   1  10
BRANCH   5  34
ATOM     34  C   UNL     1       0.686   8.518   0.446  1.00  0.00     0.242 C 
ATOM     35  O   UNL     1       0.659   7.493  -0.236  1.00  0.00    -0.273 OA
ATOM     36  N   UNL     1       0.161   9.712   0.006  1.00  0.00    -0.354 N 
ATOM     37  H   UNL     1       0.320  10.553   0.562  1.00  0.00     0.163 HD
BRANCH  36  38
ATOM     38  C   UNL     1      -0.691   9.799  -1.161  1.00  0.00     0.116 C 
BRANCH  38  39
ATOM     39  C   UNL     1      -0.039  10.692  -2.215  1.00  0.00     0.023 C 
BRANCH  39  40
ATOM     40  C   UNL     1       0.134  12.129  -1.734  1.00  0.00     0.026 C 
BRANCH  40  41
ATOM     41  C   UNL     1       1.518  12.661  -2.104  1.00  0.00     0.146 C 
BRANCH  41  42
ATOM     42  N   UNL     1       1.928  12.114  -3.391  1.00  0.00    -0.254 NA
ATOM     43  C   UNL     1       2.192  12.907  -4.361  1.00  0.00     0.185 C 
ATOM     44  N   UNL     1       2.158  14.251  -4.414  1.00  0.00    -0.370 N 
ATOM     45  N   UNL     1       2.564  12.383  -5.540  1.00  0.00    -0.370 N 
ATOM     46  H   UNL     1       2.150  14.730  -5.298  1.00  0.00     0.159 HD
ATOM     47  H   UNL     1       1.909  14.810  -3.603  1.00  0.00     0.159 HD
ATOM     48  H   UNL     1       2.624  11.374  -5.584  1.00  0.00     0.159 HD
ATOM     49  H   UNL     1       3.008  12.924  -6.260  1.00  0.00     0.159 HD
ENDBRANCH  41  42
ENDBRANCH  40  41
ENDBRANCH  39  40
ENDBRANCH  38  39
ENDBRANCH  36  38
ENDBRANCH   5  34
BRANCH   8  50
ATOM     50  O   UNL     1      -2.387  11.524   2.463  1.00  0.00    -0.245 OA
BRANCH  50  51
ATOM     51  S   UNL     1      -3.532  12.597   2.035  1.00  0.00     0.397 S 
ATOM     52  O   UNL     1      -3.213  13.086   0.712  1.00  0.00    -0.169 OA
ATOM     53  O   UNL     1      -3.788  13.500   3.137  1.00  0.00    -0.169 OA
BRANCH  51  54
ATOM     54  O   UNL     1      -4.823  11.656   1.854  1.00  0.00    -0.264 OA
ATOM     55  H   UNL     1      -4.558  10.886   1.311  1.00  0.00     0.236 HD
ENDBRANCH  51  54
ENDBRANCH  50  51
ENDBRANCH   8  50
TORSDOF 19
ENDMDL
MODEL 50
REMARK VINA RESULT:    -6.800      5.822      9.374
REMARK INTER + INTRA:         -16.761
REMARK INTER:                 -12.800
REMARK INTRA:                  -3.961
REMARK UNBOUND:                -3.005
REMARK SMILES CC[C@@H](C)[C@@H](NC(=O)[C@@H](O)Cc1ccc(O)c(Cl)c1)C(=O)N1[C@H](C(=O)NCCCCN=C(N)N)C[C@H]2CC[C@H](OS(=O)(=O)O)C[C@@H]21
REMARK SMILES IDX 22 1 36 2 46 3 35 4 23 5 45 6 37 7 39 8 38 9 20 10 21 11
REMARK SMILES IDX 5 12 6 13 7 14 8 15 9 17 11 18 12 19 17 20 19 21 15 22 14 23
REMARK SMILES IDX 13 24 18 25 16 26 10 28 3 30 4 31 2 32 1 33 24 34 25 35
REMARK SMILES IDX 26 36 27 38 28 39 29 40 30 41 31 42 32 43 33 44 34 45 40 50
REMARK SMILES IDX 41 51 42 52 43 53 44 54
REMARK H PARENT 6 16 16 27 10 29 26 37 33 46 33 47 34 48 34 49 44 55
ROOT
ATOM      1  N   UNL     1      -0.346   9.630   1.578  1.00  0.00    -0.326 N 
ATOM      2  C   UNL     1       0.474   8.466  -0.297  1.00  0.00     0.014 C 
ATOM      3  C   UNL     1      -0.779   9.144   0.264  1.00  0.00     0.091 C 
ATOM      4  C   UNL     1       1.121   7.876   0.947  1.00  0.00     0.041 C 
ATOM      5  C   UNL     1       0.983   9.064   1.915  1.00  0.00     0.175 C 
ATOM      6  C   UNL     1      -1.275  10.165  -0.758  1.00  0.00     0.059 C 
ATOM      7  C   UNL     1       0.123   7.554  -1.457  1.00  0.00     0.008 C 
ATOM      8  C   UNL     1      -0.995   9.764  -2.223  1.00  0.00     0.143 C 
ATOM      9  C   UNL     1      -0.894   8.235  -2.396  1.00  0.00     0.034 C 
ENDROOT
BRANCH   1  10
ATOM     10  C   UNL     1      -1.059  10.307   2.553  1.00  0.00     0.246 C 
ATOM     11  O   UNL     1      -2.010   9.742   3.104  1.00  0.00    -0.272 OA
BRANCH  10  12
ATOM     12  C   UNL     1      -0.623  11.743   2.963  1.00  0.00     0.174 C 
BRANCH  12  13
ATOM     13  N   UNL     1      -0.691  11.889   4.417  1.00  0.00    -0.342 N 
ATOM     14  C   UNL     1       0.273  11.458   5.301  1.00  0.00     0.249 C 
ATOM     15  O   UNL     1       1.321  10.923   4.960  1.00  0.00    -0.272 OA
ATOM     16  H   UNL     1      -1.565  12.170   4.854  1.00  0.00     0.164 HD
BRANCH  14  17
ATOM     17  C   UNL     1      -0.099  11.741   6.772  1.00  0.00     0.207 C 
BRANCH  17  18
ATOM     18  C   UNL     1      -0.196  13.250   7.019  1.00  0.00     0.077 C 
BRANCH  18  19
ATOM     19  C   UNL     1      -1.526  13.636   7.626  1.00  0.00    -0.043 A 
ATOM     20  C   UNL     1      -2.810  14.914   9.238  1.00  0.00     0.083 A 
ATOM     21  C   UNL     1      -1.587  14.596   8.647  1.00  0.00     0.028 A 
ATOM     22  C   UNL     1      -3.977  14.275   8.816  1.00  0.00     0.134 A 
ATOM     23  C   UNL     1      -3.931  13.322   7.806  1.00  0.00     0.048 A 
ATOM     24  C   UNL     1      -2.708  13.000   7.213  1.00  0.00     0.008 A 
ATOM     25  Cl  UNL     1      -2.865  16.097  10.492  1.00  0.00    -0.080 Cl
BRANCH  22  26
ATOM     26  O   UNL     1      -5.197  14.545   9.373  1.00  0.00    -0.506 OA
ATOM     27  H   UNL     1      -5.485  13.731   9.827  1.00  0.00     0.293 HD
ENDBRANCH  22  26
ENDBRANCH  18  19
ENDBRANCH  17  18
BRANCH  17  28
ATOM     28  O   UNL     1       0.869  11.173   7.669  1.00  0.00    -0.383 OA
ATOM     29  H   UNL     1       1.643  11.780   7.654  1.00  0.00     0.211 HD
ENDBRANCH  17  28
ENDBRANCH  14  17
ENDBRANCH  12  13
BRANCH  12  30
ATOM     30  C   UNL     1      -1.420  12.848   2.219  1.00  0.00     0.018 C 
ATOM     31  C   UNL     1      -0.602  13.417   1.049  1.00  0.00     0.010 C 
BRANCH  30  32
ATOM     32  C   UNL     1      -1.900  13.995   3.141  1.00  0.00     0.002 C 
ATOM     33  C   UNL     1      -2.362  15.257   2.423  1.00  0.00     0.004 C 
ENDBRANCH  30  32
ENDBRANCH  12  30
ENDBRANCH  10  12
ENDBRANCH   1  10
BRANCH   5  34
ATOM     34  C   UNL     1       2.102  10.117   1.691  1.00  0.00     0.242 C 
ATOM     35  O   UNL     1       1.987  11.036   0.881  1.00  0.00    -0.273 OA
ATOM     36  N   UNL     1       3.250   9.916   2.424  1.00  0.00    -0.354 N 
ATOM     37  H   UNL     1       3.331   9.070   2.988  1.00  0.00     0.163 HD
BRANCH  36  38
ATOM     38  C   UNL     1       4.301  10.910   2.502  1.00  0.00     0.116 C 
BRANCH  38  39
ATOM     39  C   UNL     1       5.556  10.393   1.803  1.00  0.00     0.023 C 
BRANCH  39  40
ATOM     40  C   UNL     1       5.897  11.194   0.550  1.00  0.00     0.026 C 
BRANCH  40  41
ATOM     41  C   UNL     1       4.939  12.374   0.384  1.00  0.00     0.146 C 
BRANCH  41  42
ATOM     42  N   UNL     1       5.009  12.876  -0.982  1.00  0.00    -0.254 NA
ATOM     43  C   UNL     1       4.042  12.649  -1.790  1.00  0.00     0.185 C 
ATOM     44  N   UNL     1       2.888  11.985  -1.594  1.00  0.00    -0.370 N 
ATOM     45  N   UNL     1       4.128  13.117  -3.046  1.00  0.00    -0.370 N 
ATOM     46  H   UNL     1       2.336  11.675  -2.376  1.00  0.00     0.159 HD
ATOM     47  H   UNL     1       2.655  11.577  -0.694  1.00  0.00     0.159 HD
ATOM     48  H   UNL     1       4.964  13.637  -3.275  1.00  0.00     0.159 HD
ATOM     49  H   UNL     1       3.332  13.189  -3.655  1.00  0.00     0.159 HD
ENDBRANCH  41  42
ENDBRANCH  40  41
ENDBRANCH  39  40
ENDBRANCH  38  39
ENDBRANCH  36  38
ENDBRANCH   5  34
BRANCH   8  50
ATOM     50  O   UNL     1       0.229  10.352  -2.666  1.00  0.00    -0.245 OA
BRANCH  50  51
ATOM     51  S   UNL     1       0.305  11.032  -4.141  1.00  0.00     0.397 S 
ATOM     52  O   UNL     1       1.499  11.845  -4.197  1.00  0.00    -0.169 OA
ATOM     53  O   UNL     1      -0.994  11.565  -4.498  1.00  0.00    -0.169 OA
BRANCH  51  54
ATOM     54  O   UNL     1       0.596   9.762  -5.082  1.00  0.00    -0.264 OA
ATOM     55  H   UNL     1       1.345   9.991  -5.669  1.00  0.00     0.236 HD
ENDBRANCH  51  54
ENDBRANCH  50  51
ENDBRANCH   8  50
TORSDOF 19
ENDMDL
