MODEL 1
REMARK VINA RESULT:    -6.933      0.000      0.000
REMARK INTER + INTRA:         -26.718
REMARK INTER:                 -20.713
REMARK INTRA:                  -6.005
REMARK UNBOUND:                -6.005
REMARK SMILES C=C1C(=O)N[C@H](C)C(=O)N[C@@H](CC(C)C)C(=O)N[C@@H](C(=O)O)[C@H](C)C(=O)N[C@@H](CCCN=C(N)N)C(=O)N[C@@H](/C=C/C(C)=C/[C@H](C)[C@H](Cc2ccccc2)OC)[C@H](C)C(=O)N[C@@H](C(=O)O)CCC(=O)N1C
REMARK SMILES IDX 39 1 38 2 37 3 36 4 28 6 27 7 25 8 26 9 23 11 24 12 19 13
REMARK SMILES IDX 18 14 16 15 17 16 11 18 10 19 8 20 9 21 12 24 13 25 14 26
REMARK SMILES IDX 15 27 20 28 21 29 22 30 29 32 30 33 31 34 32 35 33 36 34 37
REMARK SMILES IDX 35 38 57 43 58 44 59 45 60 46 61 47 62 49 66 50 67 51 68 52
REMARK SMILES IDX 69 53 70 54 71 55 2 56 1 57 3 58 4 59 5 60 6 62 7 63 63 65
REMARK SMILES IDX 64 66 65 67 40 69 41 70 42 71 44 72 43 73 45 74 46 75 47 76
REMARK SMILES IDX 55 77 56 78 48 79 49 80 50 81 54 82 51 83 53 84 52 85
REMARK H PARENT 38 5 27 10 18 17 10 22 22 31 34 39 34 40 35 41 35 42 61 48
REMARK H PARENT 5 61 65 68
REMARK Flexibility Score:  369.900
ROOT
ATOM      1  C   UNL     1       1.922   2.618  -4.777  1.00  0.00     0.117 C 
ENDROOT
BRANCH   1   2
ATOM      2  N   UNL     1       2.219   3.336  -3.538  1.00  0.00    -0.347 N 
ATOM      3  O   UNL     1       0.996   5.230  -3.974  1.00  0.00    -0.273 OA
ATOM      4  C   UNL     1       1.656   4.550  -3.194  1.00  0.00     0.243 C 
ATOM      5  H   UNL     1       2.831   2.914  -2.856  1.00  0.00     0.164 HD
BRANCH   4   6
ATOM      6  C   UNL     1       2.072   5.054  -1.789  1.00  0.00     0.171 C 
BRANCH   6   7
ATOM      7  N   UNL     1       3.089   6.112  -1.902  1.00  0.00    -0.344 N 
ATOM      8  C   UNL     1       4.426   5.792  -2.007  1.00  0.00     0.226 C 
ATOM      9  O   UNL     1       4.832   4.636  -1.991  1.00  0.00    -0.275 OA
ATOM     10  H   UNL     1       2.799   7.080  -1.851  1.00  0.00     0.164 HD
BRANCH   8  11
ATOM     11  C   UNL     1       5.344   6.990  -2.171  1.00  0.00     0.109 C 
ATOM     12  C   UNL     1       4.520   8.256  -2.406  1.00  0.00     0.021 C 
BRANCH  11  13
ATOM     13  C   UNL     1       6.322   7.065  -0.981  1.00  0.00     0.204 C 
BRANCH  13  14
ATOM     14  N   UNL     1       5.711   6.591   0.265  1.00  0.00    -0.340 N 
ATOM     15  C   UNL     1       5.676   7.348   1.416  1.00  0.00     0.243 C 
ATOM     16  O   UNL     1       6.103   8.501   1.462  1.00  0.00    -0.273 OA
ATOM     17  H   UNL     1       5.477   5.598   0.338  1.00  0.00     0.164 HD
BRANCH  15  18
ATOM     18  C   UNL     1       5.172   6.568   2.655  1.00  0.00     0.171 C 
BRANCH  18  19
ATOM     19  N   UNL     1       6.035   6.951   3.771  1.00  0.00    -0.343 N 
ATOM     20  C   UNL     1       7.079   6.151   4.192  1.00  0.00     0.242 CG0
ATOM     21  O   UNL     1       7.250   5.022   3.738  1.00  0.00    -0.273 OA
ATOM     22  H   UNL     1       5.862   7.824   4.256  1.00  0.00     0.164 HD
ATOM     23  G   UNL     1       7.926   6.757   5.331  1.00  0.00     0.000 G0
ENDBRANCH  18  19
BRANCH  18  24
ATOM     24  C   UNL     1       3.702   6.898   2.942  1.00  0.00     0.038 C 
BRANCH  24  25
ATOM     25  C   UNL     1       3.484   8.093   3.894  1.00  0.00    -0.015 C 
ATOM     26  C   UNL     1       2.515   7.767   5.030  1.00  0.00     0.007 C 
ATOM     27  C   UNL     1       2.963   9.294   3.101  1.00  0.00     0.007 C 
ENDBRANCH  24  25
ENDBRANCH  18  24
ENDBRANCH  15  18
ENDBRANCH  13  14
BRANCH  13  28
ATOM     28  C   UNL     1       7.600   6.249  -1.198  1.00  0.00     0.327 C 
ATOM     29  O   UNL     1       8.557   6.574  -1.884  1.00  0.00    -0.250 OA
BRANCH  28  30
ATOM     30  O   UNL     1       7.547   5.024  -0.636  1.00  0.00    -0.480 OA
ATOM     31  H   UNL     1       8.445   4.657  -0.775  1.00  0.00     0.296 HD
ENDBRANCH  28  30
ENDBRANCH  13  28
ENDBRANCH  11  13
ENDBRANCH   8  11
ENDBRANCH   6   7
BRANCH   6  32
ATOM     32  C   UNL     1       0.830   5.566  -1.050  1.00  0.00     0.037 C 
BRANCH  32  33
ATOM     33  C   UNL     1      -0.194   4.451  -0.796  1.00  0.00     0.026 C 
BRANCH  33  34
ATOM     34  C   UNL     1      -1.575   4.997  -0.433  1.00  0.00     0.146 C 
BRANCH  34  35
ATOM     35  N   UNL     1      -1.971   4.453   0.858  1.00  0.00    -0.254 NA
ATOM     36  C   UNL     1      -2.157   5.261   1.835  1.00  0.00     0.185 C 
ATOM     37  N   UNL     1      -2.526   4.770   3.028  1.00  0.00    -0.370 N 
ATOM     38  N   UNL     1      -2.035   6.600   1.858  1.00  0.00    -0.370 N 
ATOM     39  H   UNL     1      -2.649   3.768   3.089  1.00  0.00     0.159 HD
ATOM     40  H   UNL     1      -2.857   5.342   3.786  1.00  0.00     0.159 HD
ATOM     41  H   UNL     1      -2.073   7.111   2.724  1.00  0.00     0.159 HD
ATOM     42  H   UNL     1      -1.748   7.103   1.033  1.00  0.00     0.159 HD
ENDBRANCH  34  35
ENDBRANCH  33  34
ENDBRANCH  32  33
ENDBRANCH   6  32
ENDBRANCH   4   6
ENDBRANCH   1   2
BRANCH   1  43
ATOM     43  C   UNL     1       1.450   1.180  -4.415  1.00  0.00     0.102 C 
ATOM     44  C   UNL     1       1.976   0.102  -5.378  1.00  0.00     0.020 C 
BRANCH  43  45
ATOM     45  C   UNL     1      -0.067   1.137  -4.203  1.00  0.00     0.225 C 
ATOM     46  O   UNL     1      -0.867   0.952  -5.115  1.00  0.00    -0.275 OA
ATOM     47  N   UNL     1      -0.494   1.413  -2.924  1.00  0.00    -0.342 N 
ATOM     48  H   UNL     1       0.171   1.411  -2.163  1.00  0.00     0.164 HD
BRANCH  47  49
ATOM     49  C   UNL     1      -1.915   1.373  -2.565  1.00  0.00     0.192 C 
BRANCH  49  50
ATOM     50  C   UNL     1      -2.525   2.767  -2.726  1.00  0.00     0.047 C 
BRANCH  50  51
ATOM     51  C   UNL     1      -3.809   2.747  -3.567  1.00  0.00     0.103 C 
BRANCH  51  52
ATOM     52  C   UNL     1      -4.940   3.533  -2.907  1.00  0.00     0.226 C 
ATOM     53  O   UNL     1      -5.376   3.172  -1.812  1.00  0.00    -0.275 OA
BRANCH  52  54
ATOM     54  N   UNL     1      -5.370   4.694  -3.577  1.00  0.00    -0.311 N 
ATOM     55  C   UNL     1      -4.793   6.007  -3.262  1.00  0.00     0.153 C 
BRANCH  54  56
ATOM     56  C   UNL     1      -6.361   4.640  -4.572  1.00  0.00     0.102 C 
ATOM     57  C   UNL     1      -6.152   4.264  -5.844  1.00  0.00     0.043 C 
BRANCH  56  58
ATOM     58  C   UNL     1      -7.799   4.973  -4.253  1.00  0.00     0.268 C 
ATOM     59  O   UNL     1      -8.232   5.044  -3.111  1.00  0.00    -0.268 OA
ATOM     60  N   UNL     1      -8.549   5.253  -5.370  1.00  0.00    -0.339 N 
ATOM     61  H   UNL     1      -8.118   5.162  -6.282  1.00  0.00     0.164 HD
BRANCH  60  62
ATOM     62  C   UNL     1      -9.951   5.661  -5.285  1.00  0.00     0.168 CG0
ATOM     63  C   UNL     1     -10.863   4.623  -5.928  1.00  0.00     0.041 C 
ATOM     64  G   UNL     1     -10.131   7.037  -5.958  1.00  0.00     0.000 G0
ENDBRANCH  60  62
ENDBRANCH  56  58
ENDBRANCH  54  56
ENDBRANCH  52  54
ENDBRANCH  51  52
ENDBRANCH  50  51
ENDBRANCH  49  50
BRANCH  49  65
ATOM     65  C   UNL     1      -2.121   0.890  -1.121  1.00  0.00     0.326 C 
ATOM     66  O   UNL     1      -1.768  -0.192  -0.676  1.00  0.00    -0.250 OA
BRANCH  65  67
ATOM     67  O   UNL     1      -2.804   1.749  -0.332  1.00  0.00    -0.480 OA
ATOM     68  H   UNL     1      -2.863   1.277   0.527  1.00  0.00     0.296 HD
ENDBRANCH  65  67
ENDBRANCH  49  65
ENDBRANCH  47  49
ENDBRANCH  43  45
ENDBRANCH   1  43
BRANCH   1  69
ATOM     69  C   UNL     1       3.140   2.787  -5.668  1.00  0.00    -0.001 C 
ATOM     70  C   UNL     1       4.425   2.555  -5.347  1.00  0.00     0.001 C 
BRANCH  70  71
ATOM     71  C   UNL     1       5.590   2.701  -6.221  1.00  0.00    -0.055 C 
ATOM     72  C   UNL     1       5.632   3.777  -7.036  1.00  0.00    -0.018 C 
ATOM     73  C   UNL     1       6.663   1.646  -6.145  1.00  0.00     0.044 C 
BRANCH  72  74
ATOM     74  C   UNL     1       6.704   4.186  -8.036  1.00  0.00     0.038 C 
ATOM     75  C   UNL     1       6.556   5.695  -8.267  1.00  0.00     0.015 C 
BRANCH  74  76
ATOM     76  C   UNL     1       6.554   3.312  -9.316  1.00  0.00     0.128 C 
BRANCH  76  77
ATOM     77  O   UNL     1       6.207   4.141 -10.439  1.00  0.00    -0.381 OA
ATOM     78  C   UNL     1       4.972   3.790 -11.048  1.00  0.00     0.195 C 
ENDBRANCH  76  77
BRANCH  76  79
ATOM     79  C   UNL     1       7.771   2.397  -9.600  1.00  0.00     0.068 C 
BRANCH  79  80
ATOM     80  C   UNL     1       7.573   1.224 -10.529  1.00  0.00    -0.045 A 
ATOM     81  C   UNL     1       6.867   0.087 -10.115  1.00  0.00     0.004 A 
ATOM     82  C   UNL     1       8.121   1.243 -11.820  1.00  0.00     0.004 A 
ATOM     83  C   UNL     1       6.700  -1.000 -10.975  1.00  0.00     0.000 A 
ATOM     84  C   UNL     1       7.954   0.155 -12.680  1.00  0.00     0.000 A 
ATOM     85  C   UNL     1       7.242  -0.965 -12.258  1.00  0.00     0.000 A 
ENDBRANCH  79  80
ENDBRANCH  76  79
ENDBRANCH  74  76
ENDBRANCH  72  74
ENDBRANCH  70  71
ENDBRANCH   1  69
TORSDOF 17
ENDMDL
MODEL 2
REMARK VINA RESULT:    -6.673      4.099      7.868
REMARK INTER + INTRA:         -25.941
REMARK INTER:                 -17.700
REMARK INTRA:                  -8.241
REMARK UNBOUND:                -6.005
REMARK SMILES C=C1C(=O)N[C@H](C)C(=O)N[C@@H](CC(C)C)C(=O)N[C@@H](C(=O)O)[C@H](C)C(=O)N[C@@H](CCCN=C(N)N)C(=O)N[C@@H](/C=C/C(C)=C/[C@H](C)[C@H](Cc2ccccc2)OC)[C@H](C)C(=O)N[C@@H](C(=O)O)CCC(=O)N1C
REMARK SMILES IDX 39 1 38 2 37 3 36 4 28 6 27 7 25 8 26 9 23 11 24 12 19 13
REMARK SMILES IDX 18 14 16 15 17 16 11 18 10 19 8 20 9 21 12 24 13 25 14 26
REMARK SMILES IDX 15 27 20 28 21 29 22 30 29 32 30 33 31 34 32 35 33 36 34 37
REMARK SMILES IDX 35 38 57 43 58 44 59 45 60 46 61 47 62 49 66 50 67 51 68 52
REMARK SMILES IDX 69 53 70 54 71 55 2 56 1 57 3 58 4 59 5 60 6 62 7 63 63 65
REMARK SMILES IDX 64 66 65 67 40 69 41 70 42 71 44 72 43 73 45 74 46 75 47 76
REMARK SMILES IDX 55 77 56 78 48 79 49 80 50 81 54 82 51 83 53 84 52 85
REMARK H PARENT 38 5 27 10 18 17 10 22 22 31 34 39 34 40 35 41 35 42 61 48
REMARK H PARENT 5 61 65 68
REMARK Flexibility Score:  369.900
ROOT
ATOM      1  C   UNL     1       1.951   2.850  -3.781  1.00  0.00     0.117 C 
ENDROOT
BRANCH   1   2
ATOM      2  N   UNL     1       0.559   2.400  -3.756  1.00  0.00    -0.347 N 
ATOM      3  O   UNL     1       0.652   1.204  -1.799  1.00  0.00    -0.273 OA
ATOM      4  C   UNL     1      -0.004   1.686  -2.716  1.00  0.00     0.243 C 
ATOM      5  H   UNL     1      -0.058   2.658  -4.511  1.00  0.00     0.164 HD
BRANCH   4   6
ATOM      6  C   UNL     1      -1.518   1.408  -2.898  1.00  0.00     0.171 C 
BRANCH   6   7
ATOM      7  N   UNL     1      -2.264   2.673  -3.005  1.00  0.00    -0.344 N 
ATOM      8  C   UNL     1      -2.975   3.162  -1.931  1.00  0.00     0.226 C 
ATOM      9  O   UNL     1      -3.042   2.572  -0.859  1.00  0.00    -0.275 OA
ATOM     10  H   UNL     1      -2.288   3.154  -3.895  1.00  0.00     0.164 HD
BRANCH   8  11
ATOM     11  C   UNL     1      -3.644   4.502  -2.182  1.00  0.00     0.109 C 
ATOM     12  C   UNL     1      -4.779   4.342  -3.193  1.00  0.00     0.021 C 
BRANCH  11  13
ATOM     13  C   UNL     1      -4.057   5.138  -0.840  1.00  0.00     0.204 C 
BRANCH  13  14
ATOM     14  N   UNL     1      -2.896   5.498  -0.020  1.00  0.00    -0.340 N 
ATOM     15  C   UNL     1      -2.976   5.709   1.339  1.00  0.00     0.243 C 
ATOM     16  O   UNL     1      -4.019   5.552   1.972  1.00  0.00    -0.273 OA
ATOM     17  H   UNL     1      -2.040   5.790  -0.500  1.00  0.00     0.164 HD
BRANCH  15  18
ATOM     18  C   UNL     1      -1.675   6.279   1.955  1.00  0.00     0.171 C 
BRANCH  18  19
ATOM     19  N   UNL     1      -1.603   5.774   3.325  1.00  0.00    -0.343 N 
ATOM     20  C   UNL     1      -1.240   6.585   4.383  1.00  0.00     0.242 CG0
ATOM     21  O   UNL     1      -0.832   7.730   4.205  1.00  0.00    -0.273 OA
ATOM     22  H   UNL     1      -1.820   4.800   3.508  1.00  0.00     0.164 HD
ATOM     23  G   UNL     1      -1.298   5.896   5.762  1.00  0.00     0.000 G0
ENDBRANCH  18  19
BRANCH  18  24
ATOM     24  C   UNL     1      -0.453   5.849   1.133  1.00  0.00     0.038 C 
BRANCH  24  25
ATOM     25  C   UNL     1       0.456   7.009   0.675  1.00  0.00    -0.015 C 
ATOM     26  C   UNL     1       1.604   7.273   1.650  1.00  0.00     0.007 C 
ATOM     27  C   UNL     1      -0.379   8.281   0.505  1.00  0.00     0.007 C 
ENDBRANCH  24  25
ENDBRANCH  18  24
ENDBRANCH  15  18
ENDBRANCH  13  14
BRANCH  13  28
ATOM     28  C   UNL     1      -4.903   6.404  -1.007  1.00  0.00     0.327 C 
ATOM     29  O   UNL     1      -4.580   7.415  -1.611  1.00  0.00    -0.250 OA
BRANCH  28  30
ATOM     30  O   UNL     1      -6.054   6.367  -0.305  1.00  0.00    -0.480 OA
ATOM     31  H   UNL     1      -5.844   5.811   0.473  1.00  0.00     0.296 HD
ENDBRANCH  28  30
ENDBRANCH  13  28
ENDBRANCH  11  13
ENDBRANCH   8  11
ENDBRANCH   6   7
BRANCH   6  32
ATOM     32  C   UNL     1      -1.725   0.544  -4.147  1.00  0.00     0.037 C 
BRANCH  32  33
ATOM     33  C   UNL     1      -2.270   1.356  -5.330  1.00  0.00     0.026 C 
BRANCH  33  34
ATOM     34  C   UNL     1      -2.018   0.672  -6.675  1.00  0.00     0.146 C 
BRANCH  34  35
ATOM     35  N   UNL     1      -3.266   0.090  -7.147  1.00  0.00    -0.254 NA
ATOM     36  C   UNL     1      -3.430  -1.176  -7.049  1.00  0.00     0.185 C 
ATOM     37  N   UNL     1      -4.579  -1.722  -7.477  1.00  0.00    -0.370 N 
ATOM     38  N   UNL     1      -2.587  -2.101  -6.557  1.00  0.00    -0.370 N 
ATOM     39  H   UNL     1      -5.271  -1.087  -7.852  1.00  0.00     0.159 HD
ATOM     40  H   UNL     1      -4.852  -2.669  -7.278  1.00  0.00     0.159 HD
ATOM     41  H   UNL     1      -2.773  -3.085  -6.662  1.00  0.00     0.159 HD
ATOM     42  H   UNL     1      -1.677  -1.835  -6.214  1.00  0.00     0.159 HD
ENDBRANCH  34  35
ENDBRANCH  33  34
ENDBRANCH  32  33
ENDBRANCH   6  32
ENDBRANCH   4   6
ENDBRANCH   1   2
BRANCH   1  43
ATOM     43  C   UNL     1       1.970   4.404  -3.694  1.00  0.00     0.102 C 
ATOM     44  C   UNL     1       2.131   4.934  -2.259  1.00  0.00     0.020 C 
BRANCH  43  45
ATOM     45  C   UNL     1       0.787   5.012  -4.452  1.00  0.00     0.225 C 
ATOM     46  O   UNL     1      -0.336   5.122  -3.968  1.00  0.00    -0.275 OA
ATOM     47  N   UNL     1       1.034   5.350  -5.763  1.00  0.00    -0.342 N 
ATOM     48  H   UNL     1       1.987   5.396  -6.097  1.00  0.00     0.164 HD
BRANCH  47  49
ATOM     49  C   UNL     1       0.006   5.975  -6.600  1.00  0.00     0.192 C 
BRANCH  49  50
ATOM     50  C   UNL     1      -0.696   4.904  -7.440  1.00  0.00     0.047 C 
BRANCH  50  51
ATOM     51  C   UNL     1       0.191   3.673  -7.671  1.00  0.00     0.103 C 
BRANCH  51  52
ATOM     52  C   UNL     1       0.119   3.177  -9.114  1.00  0.00     0.226 C 
ATOM     53  O   UNL     1      -0.563   2.186  -9.385  1.00  0.00    -0.275 OA
BRANCH  52  54
ATOM     54  N   UNL     1       0.793   3.950 -10.077  1.00  0.00    -0.311 N 
ATOM     55  C   UNL     1       2.259   4.031 -10.091  1.00  0.00     0.153 C 
BRANCH  54  56
ATOM     56  C   UNL     1       0.092   4.666 -11.062  1.00  0.00     0.102 C 
ATOM     57  C   UNL     1      -0.272   5.955 -10.962  1.00  0.00     0.043 C 
BRANCH  56  58
ATOM     58  C   UNL     1      -0.274   4.020 -12.377  1.00  0.00     0.268 C 
ATOM     59  O   UNL     1      -1.127   3.148 -12.480  1.00  0.00    -0.268 OA
ATOM     60  N   UNL     1       0.399   4.556 -13.449  1.00  0.00    -0.339 N 
ATOM     61  H   UNL     1       1.098   5.269 -13.279  1.00  0.00     0.164 HD
BRANCH  60  62
ATOM     62  C   UNL     1       0.150   4.120 -14.823  1.00  0.00     0.168 CG0
ATOM     63  C   UNL     1       1.341   3.348 -15.376  1.00  0.00     0.041 C 
ATOM     64  G   UNL     1      -0.164   5.345 -15.705  1.00  0.00     0.000 G0
ENDBRANCH  60  62
ENDBRANCH  56  58
ENDBRANCH  54  56
ENDBRANCH  52  54
ENDBRANCH  51  52
ENDBRANCH  50  51
ENDBRANCH  49  50
BRANCH  49  65
ATOM     65  C   UNL     1       0.604   7.041  -7.532  1.00  0.00     0.326 C 
ATOM     66  O   UNL     1      -0.009   7.973  -8.032  1.00  0.00    -0.250 OA
BRANCH  65  67
ATOM     67  O   UNL     1       1.907   6.855  -7.838  1.00  0.00    -0.480 OA
ATOM     68  H   UNL     1       2.060   5.907  -7.633  1.00  0.00     0.296 HD
ENDBRANCH  65  67
ENDBRANCH  49  65
ENDBRANCH  47  49
ENDBRANCH  43  45
ENDBRANCH   1  43
BRANCH   1  69
ATOM     69  C   UNL     1       2.593   2.175  -4.979  1.00  0.00    -0.001 C 
ATOM     70  C   UNL     1       3.339   2.751  -5.938  1.00  0.00     0.001 C 
BRANCH  70  71
ATOM     71  C   UNL     1       3.972   2.085  -7.079  1.00  0.00    -0.055 C 
ATOM     72  C   UNL     1       5.286   2.312  -7.288  1.00  0.00    -0.018 C 
ATOM     73  C   UNL     1       3.115   1.187  -7.932  1.00  0.00     0.044 C 
BRANCH  72  74
ATOM     74  C   UNL     1       6.197   1.762  -8.376  1.00  0.00     0.038 C 
ATOM     75  C   UNL     1       7.603   1.649  -7.775  1.00  0.00     0.015 C 
BRANCH  74  76
ATOM     76  C   UNL     1       6.095   2.683  -9.628  1.00  0.00     0.128 C 
BRANCH  76  77
ATOM     77  O   UNL     1       7.387   3.228  -9.944  1.00  0.00    -0.381 OA
ATOM     78  C   UNL     1       7.358   4.611 -10.272  1.00  0.00     0.195 C 
ENDBRANCH  76  77
BRANCH  76  79
ATOM     79  C   UNL     1       5.412   2.013 -10.847  1.00  0.00     0.068 C 
BRANCH  79  80
ATOM     80  C   UNL     1       5.711   0.558 -11.114  1.00  0.00    -0.045 A 
ATOM     81  C   UNL     1       6.965   0.154 -11.591  1.00  0.00     0.004 A 
ATOM     82  C   UNL     1       4.721  -0.416 -10.913  1.00  0.00     0.004 A 
ATOM     83  C   UNL     1       7.229  -1.193 -11.848  1.00  0.00     0.000 A 
ATOM     84  C   UNL     1       4.986  -1.763 -11.171  1.00  0.00     0.000 A 
ATOM     85  C   UNL     1       6.240  -2.151 -11.637  1.00  0.00     0.000 A 
ENDBRANCH  79  80
ENDBRANCH  76  79
ENDBRANCH  74  76
ENDBRANCH  72  74
ENDBRANCH  70  71
ENDBRANCH   1  69
TORSDOF 17
ENDMDL
MODEL 3
REMARK VINA RESULT:    -6.609      5.022     12.162
REMARK INTER + INTRA:         -25.749
REMARK INTER:                 -17.804
REMARK INTRA:                  -7.946
REMARK UNBOUND:                -6.005
REMARK SMILES C=C1C(=O)N[C@H](C)C(=O)N[C@@H](CC(C)C)C(=O)N[C@@H](C(=O)O)[C@H](C)C(=O)N[C@@H](CCCN=C(N)N)C(=O)N[C@@H](/C=C/C(C)=C/[C@H](C)[C@H](Cc2ccccc2)OC)[C@H](C)C(=O)N[C@@H](C(=O)O)CCC(=O)N1C
REMARK SMILES IDX 39 1 38 2 37 3 36 4 28 6 27 7 25 8 26 9 23 11 24 12 19 13
REMARK SMILES IDX 18 14 16 15 17 16 11 18 10 19 8 20 9 21 12 24 13 25 14 26
REMARK SMILES IDX 15 27 20 28 21 29 22 30 29 32 30 33 31 34 32 35 33 36 34 37
REMARK SMILES IDX 35 38 57 43 58 44 59 45 60 46 61 47 62 49 66 50 67 51 68 52
REMARK SMILES IDX 69 53 70 54 71 55 2 56 1 57 3 58 4 59 5 60 6 62 7 63 63 65
REMARK SMILES IDX 64 66 65 67 40 69 41 70 42 71 44 72 43 73 45 74 46 75 47 76
REMARK SMILES IDX 55 77 56 78 48 79 49 80 50 81 54 82 51 83 53 84 52 85
REMARK H PARENT 38 5 27 10 18 17 10 22 22 31 34 39 34 40 35 41 35 42 61 48
REMARK H PARENT 5 61 65 68
REMARK Flexibility Score:  369.900
ROOT
ATOM      1  C   UNL     1      -4.203   5.635  -1.087  1.00  0.00     0.117 C 
ENDROOT
BRANCH   1   2
ATOM      2  N   UNL     1      -4.582   6.663  -0.118  1.00  0.00    -0.347 N 
ATOM      3  O   UNL     1      -4.020   5.516   1.790  1.00  0.00    -0.273 OA
ATOM      4  C   UNL     1      -4.374   6.556   1.244  1.00  0.00     0.243 C 
ATOM      5  H   UNL     1      -4.975   7.532  -0.446  1.00  0.00     0.164 HD
BRANCH   4   6
ATOM      6  C   UNL     1      -4.786   7.821   2.039  1.00  0.00     0.171 C 
BRANCH   6   7
ATOM      7  N   UNL     1      -4.723   7.562   3.486  1.00  0.00    -0.344 N 
ATOM      8  C   UNL     1      -5.863   7.251   4.195  1.00  0.00     0.226 C 
ATOM      9  O   UNL     1      -6.971   7.197   3.673  1.00  0.00    -0.275 OA
ATOM     10  H   UNL     1      -3.837   7.664   3.965  1.00  0.00     0.164 HD
BRANCH   8  11
ATOM     11  C   UNL     1      -5.625   6.959   5.666  1.00  0.00     0.109 C 
ATOM     12  C   UNL     1      -6.286   8.033   6.530  1.00  0.00     0.021 C 
BRANCH  11  13
ATOM     13  C   UNL     1      -6.057   5.514   5.987  1.00  0.00     0.204 C 
BRANCH  13  14
ATOM     14  N   UNL     1      -7.463   5.270   5.650  1.00  0.00    -0.340 N 
ATOM     15  C   UNL     1      -8.442   5.098   6.605  1.00  0.00     0.243 C 
ATOM     16  O   UNL     1      -8.214   5.197   7.810  1.00  0.00    -0.273 OA
ATOM     17  H   UNL     1      -7.690   5.027   4.683  1.00  0.00     0.164 HD
BRANCH  15  18
ATOM     18  C   UNL     1      -9.803   4.649   6.021  1.00  0.00     0.171 C 
BRANCH  18  19
ATOM     19  N   UNL     1     -10.831   5.435   6.702  1.00  0.00    -0.343 N 
ATOM     20  C   UNL     1     -11.918   4.840   7.313  1.00  0.00     0.242 CG0
ATOM     21  O   UNL     1     -12.141   3.637   7.199  1.00  0.00    -0.273 OA
ATOM     22  H   UNL     1     -10.751   6.445   6.723  1.00  0.00     0.164 HD
ATOM     23  G   UNL     1     -12.852   5.824   8.047  1.00  0.00     0.000 G0
ENDBRANCH  18  19
BRANCH  18  24
ATOM     24  C   UNL     1      -9.841   4.868   4.504  1.00  0.00     0.038 C 
BRANCH  24  25
ATOM     25  C   UNL     1     -10.951   4.090   3.767  1.00  0.00    -0.015 C 
ATOM     26  C   UNL     1     -10.395   3.147   2.699  1.00  0.00     0.007 C 
ATOM     27  C   UNL     1     -11.932   5.075   3.125  1.00  0.00     0.007 C 
ENDBRANCH  24  25
ENDBRANCH  18  24
ENDBRANCH  15  18
ENDBRANCH  13  14
BRANCH  13  28
ATOM     28  C   UNL     1      -5.225   4.458   5.251  1.00  0.00     0.327 C 
ATOM     29  O   UNL     1      -5.660   3.523   4.596  1.00  0.00    -0.250 OA
BRANCH  28  30
ATOM     30  O   UNL     1      -3.901   4.573   5.482  1.00  0.00    -0.480 OA
ATOM     31  H   UNL     1      -3.698   3.833   6.091  1.00  0.00     0.296 HD
ENDBRANCH  28  30
ENDBRANCH  13  28
ENDBRANCH  11  13
ENDBRANCH   8  11
ENDBRANCH   6   7
BRANCH   6  32
ATOM     32  C   UNL     1      -3.865   8.982   1.650  1.00  0.00     0.037 C 
BRANCH  32  33
ATOM     33  C   UNL     1      -2.968   9.425   2.814  1.00  0.00     0.026 C 
BRANCH  33  34
ATOM     34  C   UNL     1      -1.613   8.715   2.811  1.00  0.00     0.146 C 
BRANCH  34  35
ATOM     35  N   UNL     1      -1.541   7.836   3.969  1.00  0.00    -0.254 NA
ATOM     36  C   UNL     1      -1.302   6.591   3.783  1.00  0.00     0.185 C 
ATOM     37  N   UNL     1      -1.228   5.773   4.844  1.00  0.00    -0.370 N 
ATOM     38  N   UNL     1      -1.100   5.934   2.627  1.00  0.00    -0.370 N 
ATOM     39  H   UNL     1      -1.359   6.196   5.754  1.00  0.00     0.159 HD
ATOM     40  H   UNL     1      -0.877   4.832   4.797  1.00  0.00     0.159 HD
ATOM     41  H   UNL     1      -1.060   4.928   2.599  1.00  0.00     0.159 HD
ATOM     42  H   UNL     1      -1.143   6.422   1.745  1.00  0.00     0.159 HD
ENDBRANCH  34  35
ENDBRANCH  33  34
ENDBRANCH  32  33
ENDBRANCH   6  32
ENDBRANCH   4   6
ENDBRANCH   1   2
BRANCH   1  43
ATOM     43  C   UNL     1      -2.673   5.740  -1.348  1.00  0.00     0.102 C 
ATOM     44  C   UNL     1      -2.326   6.262  -2.753  1.00  0.00     0.020 C 
BRANCH  43  45
ATOM     45  C   UNL     1      -1.960   4.436  -0.977  1.00  0.00     0.225 C 
ATOM     46  O   UNL     1      -1.309   4.298   0.054  1.00  0.00    -0.275 OA
ATOM     47  N   UNL     1      -2.016   3.440  -1.925  1.00  0.00    -0.342 N 
ATOM     48  H   UNL     1      -2.674   3.512  -2.688  1.00  0.00     0.164 HD
BRANCH  47  49
ATOM     49  C   UNL     1      -1.410   2.126  -1.691  1.00  0.00     0.192 C 
BRANCH  49  50
ATOM     50  C   UNL     1      -0.946   1.529  -3.023  1.00  0.00     0.047 C 
BRANCH  50  51
ATOM     51  C   UNL     1       0.456   0.912  -2.928  1.00  0.00     0.103 C 
BRANCH  51  52
ATOM     52  C   UNL     1       1.549   1.916  -3.290  1.00  0.00     0.226 C 
ATOM     53  O   UNL     1       1.331   3.123  -3.177  1.00  0.00    -0.275 OA
BRANCH  52  54
ATOM     54  N   UNL     1       2.793   1.378  -3.669  1.00  0.00    -0.311 N 
ATOM     55  C   UNL     1       3.488   0.405  -2.816  1.00  0.00     0.153 C 
BRANCH  54  56
ATOM     56  C   UNL     1       3.412   1.744  -4.876  1.00  0.00     0.102 C 
ATOM     57  C   UNL     1       4.581   2.398  -4.972  1.00  0.00     0.043 C 
BRANCH  56  58
ATOM     58  C   UNL     1       2.801   1.371  -6.206  1.00  0.00     0.268 C 
ATOM     59  O   UNL     1       1.918   0.532  -6.325  1.00  0.00    -0.268 OA
ATOM     60  N   UNL     1       3.289   2.116  -7.253  1.00  0.00    -0.339 N 
ATOM     61  H   UNL     1       4.028   2.785  -7.072  1.00  0.00     0.164 HD
BRANCH  60  62
ATOM     62  C   UNL     1       2.789   1.961  -8.618  1.00  0.00     0.168 CG0
ATOM     63  C   UNL     1       3.820   1.272  -9.504  1.00  0.00     0.041 C 
ATOM     64  G   UNL     1       2.414   3.344  -9.191  1.00  0.00     0.000 G0
ENDBRANCH  60  62
ENDBRANCH  56  58
ENDBRANCH  54  56
ENDBRANCH  52  54
ENDBRANCH  51  52
ENDBRANCH  50  51
ENDBRANCH  49  50
BRANCH  49  65
ATOM     65  C   UNL     1      -2.395   1.159  -1.016  1.00  0.00     0.326 C 
ATOM     66  O   UNL     1      -2.145   0.012  -0.676  1.00  0.00    -0.250 OA
BRANCH  65  67
ATOM     67  O   UNL     1      -3.644   1.648  -0.856  1.00  0.00    -0.480 OA
ATOM     68  H   UNL     1      -4.221   0.909  -1.149  1.00  0.00     0.296 HD
ENDBRANCH  65  67
ENDBRANCH  49  65
ENDBRANCH  47  49
ENDBRANCH  43  45
ENDBRANCH   1  43
BRANCH   1  69
ATOM     69  C   UNL     1      -5.158   5.783  -2.257  1.00  0.00    -0.001 C 
ATOM     70  C   UNL     1      -6.000   6.803  -2.501  1.00  0.00     0.001 C 
BRANCH  70  71
ATOM     71  C   UNL     1      -6.902   6.945  -3.645  1.00  0.00    -0.055 C 
ATOM     72  C   UNL     1      -7.961   6.111  -3.717  1.00  0.00    -0.018 C 
ATOM     73  C   UNL     1      -6.590   8.016  -4.657  1.00  0.00     0.044 C 
BRANCH  72  74
ATOM     74  C   UNL     1      -9.053   6.030  -4.774  1.00  0.00     0.038 C 
ATOM     75  C   UNL     1     -10.395   6.211  -4.053  1.00  0.00     0.015 C 
BRANCH  74  76
ATOM     76  C   UNL     1      -8.903   4.686  -5.546  1.00  0.00     0.128 C 
BRANCH  76  77
ATOM     77  O   UNL     1     -10.143   4.350  -6.193  1.00  0.00    -0.381 OA
ATOM     78  C   UNL     1     -10.161   4.648  -7.582  1.00  0.00     0.195 C 
ENDBRANCH  76  77
BRANCH  76  79
ATOM     79  C   UNL     1      -7.693   4.647  -6.513  1.00  0.00     0.068 C 
BRANCH  79  80
ATOM     80  C   UNL     1      -6.350   4.251  -5.949  1.00  0.00    -0.045 A 
ATOM     81  C   UNL     1      -5.186   4.947  -6.300  1.00  0.00     0.004 A 
ATOM     82  C   UNL     1      -6.243   3.154  -5.081  1.00  0.00     0.004 A 
ATOM     83  C   UNL     1      -3.945   4.565  -5.786  1.00  0.00     0.000 A 
ATOM     84  C   UNL     1      -5.002   2.773  -4.567  1.00  0.00     0.000 A 
ATOM     85  C   UNL     1      -3.854   3.479  -4.918  1.00  0.00     0.000 A 
ENDBRANCH  79  80
ENDBRANCH  76  79
ENDBRANCH  74  76
ENDBRANCH  72  74
ENDBRANCH  70  71
ENDBRANCH   1  69
TORSDOF 17
ENDMDL
MODEL 4
REMARK VINA RESULT:    -6.597      3.637      5.678
REMARK INTER + INTRA:         -25.715
REMARK INTER:                 -18.822
REMARK INTRA:                  -6.893
REMARK UNBOUND:                -6.005
REMARK SMILES C=C1C(=O)N[C@H](C)C(=O)N[C@@H](CC(C)C)C(=O)N[C@@H](C(=O)O)[C@H](C)C(=O)N[C@@H](CCCN=C(N)N)C(=O)N[C@@H](/C=C/C(C)=C/[C@H](C)[C@H](Cc2ccccc2)OC)[C@H](C)C(=O)N[C@@H](C(=O)O)CCC(=O)N1C
REMARK SMILES IDX 39 1 38 2 37 3 36 4 28 6 27 7 25 8 26 9 23 11 24 12 19 13
REMARK SMILES IDX 18 14 16 15 17 16 11 18 10 19 8 20 9 21 12 24 13 25 14 26
REMARK SMILES IDX 15 27 20 28 21 29 22 30 29 32 30 33 31 34 32 35 33 36 34 37
REMARK SMILES IDX 35 38 57 43 58 44 59 45 60 46 61 47 62 49 66 50 67 51 68 52
REMARK SMILES IDX 69 53 70 54 71 55 2 56 1 57 3 58 4 59 5 60 6 62 7 63 63 65
REMARK SMILES IDX 64 66 65 67 40 69 41 70 42 71 44 72 43 73 45 74 46 75 47 76
REMARK SMILES IDX 55 77 56 78 48 79 49 80 50 81 54 82 51 83 53 84 52 85
REMARK H PARENT 38 5 27 10 18 17 10 22 22 31 34 39 34 40 35 41 35 42 61 48
REMARK H PARENT 5 61 65 68
REMARK Flexibility Score:  369.900
ROOT
ATOM      1  C   UNL     1       3.355   4.203  -4.679  1.00  0.00     0.117 C 
ENDROOT
BRANCH   1   2
ATOM      2  N   UNL     1       3.606   5.105  -3.555  1.00  0.00    -0.347 N 
ATOM      3  O   UNL     1       1.420   5.579  -3.040  1.00  0.00    -0.273 OA
ATOM      4  C   UNL     1       2.613   5.651  -2.765  1.00  0.00     0.243 C 
ATOM      5  H   UNL     1       4.557   5.316  -3.293  1.00  0.00     0.164 HD
BRANCH   4   6
ATOM      6  C   UNL     1       3.151   6.503  -1.588  1.00  0.00     0.171 C 
BRANCH   6   7
ATOM      7  N   UNL     1       2.327   6.299  -0.386  1.00  0.00    -0.344 N 
ATOM      8  C   UNL     1       1.565   7.326   0.127  1.00  0.00     0.226 C 
ATOM      9  O   UNL     1       1.551   8.447  -0.366  1.00  0.00    -0.275 OA
ATOM     10  H   UNL     1       2.365   5.405   0.089  1.00  0.00     0.164 HD
BRANCH   8  11
ATOM     11  C   UNL     1       0.730   6.942   1.336  1.00  0.00     0.109 C 
ATOM     12  C   UNL     1      -0.045   5.655   1.053  1.00  0.00     0.021 C 
BRANCH  11  13
ATOM     13  C   UNL     1       1.621   6.898   2.593  1.00  0.00     0.204 C 
BRANCH  13  14
ATOM     14  N   UNL     1       2.500   8.068   2.687  1.00  0.00    -0.340 N 
ATOM     15  C   UNL     1       3.859   7.967   2.897  1.00  0.00     0.243 C 
ATOM     16  O   UNL     1       4.439   6.885   2.961  1.00  0.00    -0.273 OA
ATOM     17  H   UNL     1       2.066   8.988   2.794  1.00  0.00     0.164 HD
BRANCH  15  18
ATOM     18  C   UNL     1       4.545   9.329   3.168  1.00  0.00     0.171 C 
BRANCH  18  19
ATOM     19  N   UNL     1       4.605   9.486   4.620  1.00  0.00    -0.343 N 
ATOM     20  C   UNL     1       3.483   9.790   5.367  1.00  0.00     0.242 CG0
ATOM     21  O   UNL     1       2.413  10.073   4.834  1.00  0.00    -0.273 OA
ATOM     22  H   UNL     1       5.493   9.375   5.096  1.00  0.00     0.164 HD
ATOM     23  G   UNL     1       3.726   9.838   6.890  1.00  0.00     0.000 G0
ENDBRANCH  18  19
BRANCH  18  24
ATOM     24  C   UNL     1       5.944   9.364   2.541  1.00  0.00     0.038 C 
BRANCH  24  25
ATOM     25  C   UNL     1       6.217  10.591   1.645  1.00  0.00    -0.015 C 
ATOM     26  C   UNL     1       6.333  11.887   2.447  1.00  0.00     0.007 C 
ATOM     27  C   UNL     1       5.103  10.726   0.604  1.00  0.00     0.007 C 
ENDBRANCH  24  25
ENDBRANCH  18  24
ENDBRANCH  15  18
ENDBRANCH  13  14
BRANCH  13  28
ATOM     28  C   UNL     1       0.821   6.827   3.898  1.00  0.00     0.327 C 
ATOM     29  O   UNL     1       0.687   5.843   4.610  1.00  0.00    -0.250 OA
BRANCH  28  30
ATOM     30  O   UNL     1       0.143   7.961   4.165  1.00  0.00    -0.480 OA
ATOM     31  H   UNL     1       0.002   7.935   5.134  1.00  0.00     0.296 HD
ENDBRANCH  28  30
ENDBRANCH  13  28
ENDBRANCH  11  13
ENDBRANCH   8  11
ENDBRANCH   6   7
BRANCH   6  32
ATOM     32  C   UNL     1       4.612   6.126  -1.320  1.00  0.00     0.037 C 
BRANCH  32  33
ATOM     33  C   UNL     1       5.436   7.321  -0.820  1.00  0.00     0.026 C 
BRANCH  33  34
ATOM     34  C   UNL     1       6.764   7.469  -1.564  1.00  0.00     0.146 C 
BRANCH  34  35
ATOM     35  N   UNL     1       7.605   8.412  -0.841  1.00  0.00    -0.254 NA
ATOM     36  C   UNL     1       8.123   9.392  -1.484  1.00  0.00     0.185 C 
ATOM     37  N   UNL     1       8.896  10.270  -0.826  1.00  0.00    -0.370 N 
ATOM     38  N   UNL     1       8.010   9.700  -2.788  1.00  0.00    -0.370 N 
ATOM     39  H   UNL     1       9.022  10.111   0.165  1.00  0.00     0.159 HD
ATOM     40  H   UNL     1       9.192  11.149  -1.214  1.00  0.00     0.159 HD
ATOM     41  H   UNL     1       8.579  10.419  -3.204  1.00  0.00     0.159 HD
ATOM     42  H   UNL     1       7.470   9.117  -3.408  1.00  0.00     0.159 HD
ENDBRANCH  34  35
ENDBRANCH  33  34
ENDBRANCH  32  33
ENDBRANCH   6  32
ENDBRANCH   4   6
ENDBRANCH   1   2
BRANCH   1  43
ATOM     43  C   UNL     1       3.346   2.740  -4.148  1.00  0.00     0.102 C 
ATOM     44  C   UNL     1       4.542   1.905  -4.636  1.00  0.00     0.020 C 
BRANCH  43  45
ATOM     45  C   UNL     1       1.987   2.076  -4.385  1.00  0.00     0.225 C 
ATOM     46  O   UNL     1       1.822   1.146  -5.169  1.00  0.00    -0.275 OA
ATOM     47  N   UNL     1       0.924   2.652  -3.728  1.00  0.00    -0.342 N 
ATOM     48  H   UNL     1       1.095   3.309  -2.979  1.00  0.00     0.164 HD
BRANCH  47  49
ATOM     49  C   UNL     1      -0.431   2.102  -3.832  1.00  0.00     0.192 C 
BRANCH  49  50
ATOM     50  C   UNL     1      -1.434   3.239  -4.042  1.00  0.00     0.047 C 
BRANCH  50  51
ATOM     51  C   UNL     1      -1.806   3.421  -5.520  1.00  0.00     0.103 C 
BRANCH  51  52
ATOM     52  C   UNL     1      -2.317   2.125  -6.146  1.00  0.00     0.226 C 
ATOM     53  O   UNL     1      -3.468   1.749  -5.917  1.00  0.00    -0.275 OA
BRANCH  52  54
ATOM     54  N   UNL     1      -1.440   1.466  -7.028  1.00  0.00    -0.311 N 
ATOM     55  C   UNL     1      -0.406   2.209  -7.761  1.00  0.00     0.153 C 
BRANCH  54  56
ATOM     56  C   UNL     1      -1.515   0.079  -7.235  1.00  0.00     0.102 C 
ATOM     57  C   UNL     1      -0.700  -0.828  -6.671  1.00  0.00     0.043 C 
BRANCH  56  58
ATOM     58  C   UNL     1      -2.593  -0.517  -8.109  1.00  0.00     0.268 C 
ATOM     59  O   UNL     1      -2.497  -0.603  -9.326  1.00  0.00    -0.268 OA
ATOM     60  N   UNL     1      -3.658  -1.010  -7.393  1.00  0.00    -0.339 N 
ATOM     61  H   UNL     1      -3.666  -0.890  -6.388  1.00  0.00     0.164 HD
BRANCH  60  62
ATOM     62  C   UNL     1      -4.784  -1.685  -8.037  1.00  0.00     0.168 CG0
ATOM     63  C   UNL     1      -5.520  -2.584  -7.051  1.00  0.00     0.041 C 
ATOM     64  G   UNL     1      -4.276  -2.501  -9.244  1.00  0.00     0.000 G0
ENDBRANCH  60  62
ENDBRANCH  56  58
ENDBRANCH  54  56
ENDBRANCH  52  54
ENDBRANCH  51  52
ENDBRANCH  50  51
ENDBRANCH  49  50
BRANCH  49  65
ATOM     65  C   UNL     1      -0.819   1.308  -2.575  1.00  0.00     0.326 C 
ATOM     66  O   UNL     1      -0.036   0.776  -1.801  1.00  0.00    -0.250 OA
BRANCH  65  67
ATOM     67  O   UNL     1      -2.149   1.168  -2.384  1.00  0.00    -0.480 OA
ATOM     68  H   UNL     1      -2.422   0.555  -3.100  1.00  0.00     0.296 HD
ENDBRANCH  65  67
ENDBRANCH  49  65
ENDBRANCH  47  49
ENDBRANCH  43  45
ENDBRANCH   1  43
BRANCH   1  69
ATOM     69  C   UNL     1       4.350   4.585  -5.760  1.00  0.00    -0.001 C 
ATOM     70  C   UNL     1       5.446   5.352  -5.627  1.00  0.00     0.001 C 
BRANCH  70  71
ATOM     71  C   UNL     1       6.410   5.697  -6.673  1.00  0.00    -0.055 C 
ATOM     72  C   UNL     1       6.502   4.873  -7.738  1.00  0.00    -0.018 C 
ATOM     73  C   UNL     1       7.226   6.950  -6.491  1.00  0.00     0.044 C 
BRANCH  72  74
ATOM     74  C   UNL     1       7.401   4.977  -8.962  1.00  0.00     0.038 C 
ATOM     75  C   UNL     1       6.559   5.584 -10.091  1.00  0.00     0.015 C 
BRANCH  74  76
ATOM     76  C   UNL     1       7.991   3.570  -9.272  1.00  0.00     0.128 C 
BRANCH  76  77
ATOM     77  O   UNL     1       9.414   3.579  -9.067  1.00  0.00    -0.381 OA
ATOM     78  C   UNL     1      10.164   3.625 -10.273  1.00  0.00     0.195 C 
ENDBRANCH  76  77
BRANCH  76  79
ATOM     79  C   UNL     1       7.285   2.412  -8.523  1.00  0.00     0.068 C 
BRANCH  79  80
ATOM     80  C   UNL     1       6.542   1.387  -9.345  1.00  0.00    -0.045 A 
ATOM     81  C   UNL     1       7.230   0.377 -10.031  1.00  0.00     0.004 A 
ATOM     82  C   UNL     1       5.145   1.448  -9.459  1.00  0.00     0.004 A 
ATOM     83  C   UNL     1       6.537  -0.560 -10.801  1.00  0.00     0.000 A 
ATOM     84  C   UNL     1       4.453   0.511 -10.230  1.00  0.00     0.000 A 
ATOM     85  C   UNL     1       5.149  -0.493 -10.899  1.00  0.00     0.000 A 
ENDBRANCH  79  80
ENDBRANCH  76  79
ENDBRANCH  74  76
ENDBRANCH  72  74
ENDBRANCH  70  71
ENDBRANCH   1  69
TORSDOF 17
ENDMDL
MODEL 5
REMARK VINA RESULT:    -6.551      4.276      9.143
REMARK INTER + INTRA:         -25.576
REMARK INTER:                 -16.970
REMARK INTRA:                  -8.605
REMARK UNBOUND:                -6.005
REMARK SMILES C=C1C(=O)N[C@H](C)C(=O)N[C@@H](CC(C)C)C(=O)N[C@@H](C(=O)O)[C@H](C)C(=O)N[C@@H](CCCN=C(N)N)C(=O)N[C@@H](/C=C/C(C)=C/[C@H](C)[C@H](Cc2ccccc2)OC)[C@H](C)C(=O)N[C@@H](C(=O)O)CCC(=O)N1C
REMARK SMILES IDX 39 1 38 2 37 3 36 4 28 6 27 7 25 8 26 9 23 11 24 12 19 13
REMARK SMILES IDX 18 14 16 15 17 16 11 18 10 19 8 20 9 21 12 24 13 25 14 26
REMARK SMILES IDX 15 27 20 28 21 29 22 30 29 32 30 33 31 34 32 35 33 36 34 37
REMARK SMILES IDX 35 38 57 43 58 44 59 45 60 46 61 47 62 49 66 50 67 51 68 52
REMARK SMILES IDX 69 53 70 54 71 55 2 56 1 57 3 58 4 59 5 60 6 62 7 63 63 65
REMARK SMILES IDX 64 66 65 67 40 69 41 70 42 71 44 72 43 73 45 74 46 75 47 76
REMARK SMILES IDX 55 77 56 78 48 79 49 80 50 81 54 82 51 83 53 84 52 85
REMARK H PARENT 38 5 27 10 18 17 10 22 22 31 34 39 34 40 35 41 35 42 61 48
REMARK H PARENT 5 61 65 68
REMARK Flexibility Score:  369.900
ROOT
ATOM      1  C   UNL     1      -1.164   2.238  -3.398  1.00  0.00     0.117 C 
ENDROOT
BRANCH   1   2
ATOM      2  N   UNL     1       0.140   1.852  -3.938  1.00  0.00    -0.347 N 
ATOM      3  O   UNL     1       0.828   0.537  -2.187  1.00  0.00    -0.273 OA
ATOM      4  C   UNL     1       0.996   0.955  -3.328  1.00  0.00     0.243 C 
ATOM      5  H   UNL     1       0.430   2.212  -4.835  1.00  0.00     0.164 HD
BRANCH   4   6
ATOM      6  C   UNL     1       2.273   0.653  -4.151  1.00  0.00     0.171 C 
BRANCH   6   7
ATOM      7  N   UNL     1       2.349   1.536  -5.326  1.00  0.00    -0.344 N 
ATOM      8  C   UNL     1       2.154   1.036  -6.595  1.00  0.00     0.226 C 
ATOM      9  O   UNL     1       1.934  -0.150  -6.811  1.00  0.00    -0.275 OA
ATOM     10  H   UNL     1       2.595   2.509  -5.194  1.00  0.00     0.164 HD
BRANCH   8  11
ATOM     11  C   UNL     1       2.209   2.081  -7.695  1.00  0.00     0.109 C 
ATOM     12  C   UNL     1       0.931   2.921  -7.688  1.00  0.00     0.021 C 
BRANCH  11  13
ATOM     13  C   UNL     1       3.517   2.890  -7.581  1.00  0.00     0.204 C 
BRANCH  13  14
ATOM     14  N   UNL     1       4.557   2.387  -8.484  1.00  0.00    -0.340 N 
ATOM     15  C   UNL     1       5.888   2.327  -8.132  1.00  0.00     0.243 C 
ATOM     16  O   UNL     1       6.289   2.634  -7.011  1.00  0.00    -0.273 OA
ATOM     17  H   UNL     1       4.316   2.261  -9.470  1.00  0.00     0.164 HD
BRANCH  15  18
ATOM     18  C   UNL     1       6.823   1.961  -9.310  1.00  0.00     0.171 C 
BRANCH  18  19
ATOM     19  N   UNL     1       8.192   2.137  -8.828  1.00  0.00    -0.343 N 
ATOM     20  C   UNL     1       9.006   3.149  -9.300  1.00  0.00     0.242 CG0
ATOM     21  O   UNL     1       8.666   3.863 -10.240  1.00  0.00    -0.273 OA
ATOM     22  H   UNL     1       8.560   1.499  -8.133  1.00  0.00     0.164 HD
ATOM     23  G   UNL     1      10.388   3.225  -8.618  1.00  0.00     0.000 G0
ENDBRANCH  18  19
BRANCH  18  24
ATOM     24  C   UNL     1       6.572   0.521  -9.775  1.00  0.00     0.038 C 
BRANCH  24  25
ATOM     25  C   UNL     1       7.415   0.080 -10.990  1.00  0.00    -0.015 C 
ATOM     26  C   UNL     1       7.460   1.142 -12.088  1.00  0.00     0.007 C 
ATOM     27  C   UNL     1       6.854  -1.226 -11.558  1.00  0.00     0.007 C 
ENDBRANCH  24  25
ENDBRANCH  18  24
ENDBRANCH  15  18
ENDBRANCH  13  14
BRANCH  13  28
ATOM     28  C   UNL     1       3.333   4.380  -7.885  1.00  0.00     0.327 C 
ATOM     29  O   UNL     1       3.274   4.890  -8.993  1.00  0.00    -0.250 OA
BRANCH  28  30
ATOM     30  O   UNL     1       3.355   5.152  -6.779  1.00  0.00    -0.480 OA
ATOM     31  H   UNL     1       3.967   4.686  -6.172  1.00  0.00     0.296 HD
ENDBRANCH  28  30
ENDBRANCH  13  28
ENDBRANCH  11  13
ENDBRANCH   8  11
ENDBRANCH   6   7
BRANCH   6  32
ATOM     32  C   UNL     1       3.504   0.830  -3.254  1.00  0.00     0.037 C 
BRANCH  32  33
ATOM     33  C   UNL     1       4.592   1.679  -3.925  1.00  0.00     0.026 C 
BRANCH  33  34
ATOM     34  C   UNL     1       4.745   3.055  -3.274  1.00  0.00     0.146 C 
BRANCH  34  35
ATOM     35  N   UNL     1       3.893   4.004  -3.978  1.00  0.00    -0.254 NA
ATOM     36  C   UNL     1       2.835   4.429  -3.396  1.00  0.00     0.185 C 
ATOM     37  N   UNL     1       2.046   5.308  -4.033  1.00  0.00    -0.370 N 
ATOM     38  N   UNL     1       2.359   4.119  -2.177  1.00  0.00    -0.370 N 
ATOM     39  H   UNL     1       2.343   5.599  -4.955  1.00  0.00     0.159 HD
ATOM     40  H   UNL     1       1.303   5.816  -3.584  1.00  0.00     0.159 HD
ATOM     41  H   UNL     1       1.441   4.413  -1.886  1.00  0.00     0.159 HD
ATOM     42  H   UNL     1       2.843   3.457  -1.591  1.00  0.00     0.159 HD
ENDBRANCH  34  35
ENDBRANCH  33  34
ENDBRANCH  32  33
ENDBRANCH   6  32
ENDBRANCH   4   6
ENDBRANCH   1   2
BRANCH   1  43
ATOM     43  C   UNL     1      -2.272   1.715  -4.356  1.00  0.00     0.102 C 
ATOM     44  C   UNL     1      -1.763   1.419  -5.777  1.00  0.00     0.020 C 
BRANCH  43  45
ATOM     45  C   UNL     1      -3.507   2.621  -4.315  1.00  0.00     0.225 C 
ATOM     46  O   UNL     1      -3.755   3.456  -5.181  1.00  0.00    -0.275 OA
ATOM     47  N   UNL     1      -4.286   2.509  -3.187  1.00  0.00    -0.342 N 
ATOM     48  H   UNL     1      -4.157   1.723  -2.565  1.00  0.00     0.164 HD
BRANCH  47  49
ATOM     49  C   UNL     1      -5.518   3.288  -3.026  1.00  0.00     0.192 C 
BRANCH  49  50
ATOM     50  C   UNL     1      -5.312   4.361  -1.955  1.00  0.00     0.047 C 
BRANCH  50  51
ATOM     51  C   UNL     1      -5.957   5.700  -2.340  1.00  0.00     0.103 C 
BRANCH  51  52
ATOM     52  C   UNL     1      -7.476   5.672  -2.179  1.00  0.00     0.226 C 
ATOM     53  O   UNL     1      -7.968   5.398  -1.083  1.00  0.00    -0.275 OA
BRANCH  52  54
ATOM     54  N   UNL     1      -8.232   6.044  -3.306  1.00  0.00    -0.311 N 
ATOM     55  C   UNL     1      -8.257   5.204  -4.511  1.00  0.00     0.153 C 
BRANCH  54  56
ATOM     56  C   UNL     1      -8.994   7.224  -3.319  1.00  0.00     0.102 C 
ATOM     57  C   UNL     1      -8.531   8.434  -3.674  1.00  0.00     0.043 C 
BRANCH  56  58
ATOM     58  C   UNL     1     -10.462   7.203  -2.963  1.00  0.00     0.268 C 
ATOM     59  O   UNL     1     -10.898   6.673  -1.950  1.00  0.00    -0.268 OA
ATOM     60  N   UNL     1     -11.245   7.894  -3.857  1.00  0.00    -0.339 N 
ATOM     61  H   UNL     1     -10.808   8.295  -4.678  1.00  0.00     0.164 HD
BRANCH  60  62
ATOM     62  C   UNL     1     -12.687   8.052  -3.670  1.00  0.00     0.168 CG0
ATOM     63  C   UNL     1     -13.087   9.521  -3.726  1.00  0.00     0.041 C 
ATOM     64  G   UNL     1     -13.105   7.423  -2.325  1.00  0.00     0.000 G0
ENDBRANCH  60  62
ENDBRANCH  56  58
ENDBRANCH  54  56
ENDBRANCH  52  54
ENDBRANCH  51  52
ENDBRANCH  50  51
ENDBRANCH  49  50
BRANCH  49  65
ATOM     65  C   UNL     1      -6.705   2.395  -2.631  1.00  0.00     0.326 C 
ATOM     66  O   UNL     1      -7.020   2.096  -1.489  1.00  0.00    -0.250 OA
BRANCH  65  67
ATOM     67  O   UNL     1      -7.393   1.879  -3.673  1.00  0.00    -0.480 OA
ATOM     68  H   UNL     1      -6.781   1.990  -4.433  1.00  0.00     0.296 HD
ENDBRANCH  65  67
ENDBRANCH  49  65
ENDBRANCH  47  49
ENDBRANCH  43  45
ENDBRANCH   1  43
BRANCH   1  69
ATOM     69  C   UNL     1      -1.081   3.727  -3.115  1.00  0.00    -0.001 C 
ATOM     70  C   UNL     1      -1.367   4.357  -1.962  1.00  0.00     0.001 C 
BRANCH  70  71
ATOM     71  C   UNL     1      -1.263   5.793  -1.694  1.00  0.00    -0.055 C 
ATOM     72  C   UNL     1      -2.326   6.567  -1.999  1.00  0.00    -0.018 C 
ATOM     73  C   UNL     1       0.020   6.304  -1.091  1.00  0.00     0.044 C 
BRANCH  72  74
ATOM     74  C   UNL     1      -2.503   8.069  -1.830  1.00  0.00     0.038 C 
ATOM     75  C   UNL     1      -3.676   8.281  -0.865  1.00  0.00     0.015 C 
BRANCH  74  76
ATOM     76  C   UNL     1      -2.690   8.712  -3.236  1.00  0.00     0.128 C 
BRANCH  76  77
ATOM     77  O   UNL     1      -3.186  10.054  -3.100  1.00  0.00    -0.381 OA
ATOM     78  C   UNL     1      -4.190  10.391  -4.048  1.00  0.00     0.195 C 
ENDBRANCH  76  77
BRANCH  76  79
ATOM     79  C   UNL     1      -1.434   8.626  -4.140  1.00  0.00     0.068 C 
BRANCH  79  80
ATOM     80  C   UNL     1      -1.535   7.828  -5.417  1.00  0.00    -0.045 A 
ATOM     81  C   UNL     1      -1.212   6.465  -5.445  1.00  0.00     0.004 A 
ATOM     82  C   UNL     1      -1.931   8.452  -6.611  1.00  0.00     0.004 A 
ATOM     83  C   UNL     1      -1.295   5.738  -6.634  1.00  0.00     0.000 A 
ATOM     84  C   UNL     1      -2.013   7.723  -7.799  1.00  0.00     0.000 A 
ATOM     85  C   UNL     1      -1.697   6.367  -7.811  1.00  0.00     0.000 A 
ENDBRANCH  79  80
ENDBRANCH  76  79
ENDBRANCH  74  76
ENDBRANCH  72  74
ENDBRANCH  70  71
ENDBRANCH   1  69
TORSDOF 17
ENDMDL
MODEL 6
REMARK VINA RESULT:    -6.535      4.504     10.679
REMARK INTER + INTRA:         -25.528
REMARK INTER:                 -16.119
REMARK INTRA:                  -9.409
REMARK UNBOUND:                -6.005
REMARK SMILES C=C1C(=O)N[C@H](C)C(=O)N[C@@H](CC(C)C)C(=O)N[C@@H](C(=O)O)[C@H](C)C(=O)N[C@@H](CCCN=C(N)N)C(=O)N[C@@H](/C=C/C(C)=C/[C@H](C)[C@H](Cc2ccccc2)OC)[C@H](C)C(=O)N[C@@H](C(=O)O)CCC(=O)N1C
REMARK SMILES IDX 39 1 38 2 37 3 36 4 28 6 27 7 25 8 26 9 23 11 24 12 19 13
REMARK SMILES IDX 18 14 16 15 17 16 11 18 10 19 8 20 9 21 12 24 13 25 14 26
REMARK SMILES IDX 15 27 20 28 21 29 22 30 29 32 30 33 31 34 32 35 33 36 34 37
REMARK SMILES IDX 35 38 57 43 58 44 59 45 60 46 61 47 62 49 66 50 67 51 68 52
REMARK SMILES IDX 69 53 70 54 71 55 2 56 1 57 3 58 4 59 5 60 6 62 7 63 63 65
REMARK SMILES IDX 64 66 65 67 40 69 41 70 42 71 44 72 43 73 45 74 46 75 47 76
REMARK SMILES IDX 55 77 56 78 48 79 49 80 50 81 54 82 51 83 53 84 52 85
REMARK H PARENT 38 5 27 10 18 17 10 22 22 31 34 39 34 40 35 41 35 42 61 48
REMARK H PARENT 5 61 65 68
REMARK Flexibility Score:  369.900
ROOT
ATOM      1  C   UNL     1       1.038   6.190  -3.235  1.00  0.00     0.117 C 
ENDROOT
BRANCH   1   2
ATOM      2  N   UNL     1      -0.084   5.540  -3.913  1.00  0.00    -0.347 N 
ATOM      3  O   UNL     1       0.591   5.923  -6.073  1.00  0.00    -0.273 OA
ATOM      4  C   UNL     1      -0.171   5.378  -5.282  1.00  0.00     0.243 C 
ATOM      5  H   UNL     1      -0.826   5.134  -3.363  1.00  0.00     0.164 HD
BRANCH   4   6
ATOM      6  C   UNL     1      -1.419   4.578  -5.737  1.00  0.00     0.171 C 
BRANCH   6   7
ATOM      7  N   UNL     1      -1.378   3.210  -5.197  1.00  0.00    -0.344 N 
ATOM      8  C   UNL     1      -1.200   2.129  -6.034  1.00  0.00     0.226 C 
ATOM      9  O   UNL     1      -1.092   2.246  -7.249  1.00  0.00    -0.275 OA
ATOM     10  H   UNL     1      -1.531   3.068  -4.206  1.00  0.00     0.164 HD
BRANCH   8  11
ATOM     11  C   UNL     1      -1.125   0.791  -5.320  1.00  0.00     0.109 C 
ATOM     12  C   UNL     1      -1.839  -0.283  -6.141  1.00  0.00     0.021 C 
BRANCH  11  13
ATOM     13  C   UNL     1       0.341   0.470  -4.968  1.00  0.00     0.204 C 
BRANCH  13  14
ATOM     14  N   UNL     1       1.285   1.280  -5.743  1.00  0.00    -0.340 N 
ATOM     15  C   UNL     1       2.010   0.778  -6.802  1.00  0.00     0.243 C 
ATOM     16  O   UNL     1       1.870  -0.374  -7.210  1.00  0.00    -0.273 OA
ATOM     17  H   UNL     1       1.559   2.191  -5.365  1.00  0.00     0.164 HD
BRANCH  15  18
ATOM     18  C   UNL     1       3.090   1.753  -7.331  1.00  0.00     0.171 C 
BRANCH  18  19
ATOM     19  N   UNL     1       2.518   2.417  -8.500  1.00  0.00    -0.343 N 
ATOM     20  C   UNL     1       2.721   1.941  -9.781  1.00  0.00     0.242 CG0
ATOM     21  O   UNL     1       3.500   1.018 -10.008  1.00  0.00    -0.273 OA
ATOM     22  H   UNL     1       1.960   3.254  -8.373  1.00  0.00     0.164 HD
ATOM     23  G   UNL     1       1.974   2.727 -10.878  1.00  0.00     0.000 G0
ENDBRANCH  18  19
BRANCH  18  24
ATOM     24  C   UNL     1       3.484   2.764  -6.247  1.00  0.00     0.038 C 
BRANCH  24  25
ATOM     25  C   UNL     1       5.000   2.858  -5.974  1.00  0.00    -0.015 C 
ATOM     26  C   UNL     1       5.839   2.396  -7.166  1.00  0.00     0.007 C 
ATOM     27  C   UNL     1       5.354   2.024  -4.740  1.00  0.00     0.007 C 
ENDBRANCH  24  25
ENDBRANCH  18  24
ENDBRANCH  15  18
ENDBRANCH  13  14
BRANCH  13  28
ATOM     28  C   UNL     1       0.667   0.685  -3.487  1.00  0.00     0.327 C 
ATOM     29  O   UNL     1       1.568   0.150  -2.860  1.00  0.00    -0.250 OA
BRANCH  28  30
ATOM     30  O   UNL     1      -0.232   1.468  -2.856  1.00  0.00    -0.480 OA
ATOM     31  H   UNL     1      -1.045   0.922  -2.823  1.00  0.00     0.296 HD
ENDBRANCH  28  30
ENDBRANCH  13  28
ENDBRANCH  11  13
ENDBRANCH   8  11
ENDBRANCH   6   7
BRANCH   6  32
ATOM     32  C   UNL     1      -2.683   5.311  -5.273  1.00  0.00     0.037 C 
BRANCH  32  33
ATOM     33  C   UNL     1      -3.935   4.430  -5.379  1.00  0.00     0.026 C 
BRANCH  33  34
ATOM     34  C   UNL     1      -4.602   4.197  -4.022  1.00  0.00     0.146 C 
BRANCH  34  35
ATOM     35  N   UNL     1      -4.017   3.013  -3.408  1.00  0.00    -0.254 NA
ATOM     36  C   UNL     1      -3.318   3.154  -2.344  1.00  0.00     0.185 C 
ATOM     37  N   UNL     1      -2.778   2.069  -1.767  1.00  0.00    -0.370 N 
ATOM     38  N   UNL     1      -3.021   4.281  -1.672  1.00  0.00    -0.370 N 
ATOM     39  H   UNL     1      -2.966   1.179  -2.210  1.00  0.00     0.159 HD
ATOM     40  H   UNL     1      -2.370   2.073  -0.849  1.00  0.00     0.159 HD
ATOM     41  H   UNL     1      -2.345   4.279  -0.926  1.00  0.00     0.159 HD
ATOM     42  H   UNL     1      -3.348   5.176  -2.001  1.00  0.00     0.159 HD
ENDBRANCH  34  35
ENDBRANCH  33  34
ENDBRANCH  32  33
ENDBRANCH   6  32
ENDBRANCH   4   6
ENDBRANCH   1   2
BRANCH   1  43
ATOM     43  C   UNL     1       1.668   5.177  -2.236  1.00  0.00     0.102 C 
ATOM     44  C   UNL     1       2.187   3.896  -2.909  1.00  0.00     0.020 C 
BRANCH  43  45
ATOM     45  C   UNL     1       0.733   4.921  -1.050  1.00  0.00     0.225 C 
ATOM     46  O   UNL     1      -0.100   4.020  -1.035  1.00  0.00    -0.275 OA
ATOM     47  N   UNL     1       0.817   5.833  -0.022  1.00  0.00    -0.342 N 
ATOM     48  H   UNL     1       1.600   6.469   0.020  1.00  0.00     0.164 HD
BRANCH  47  49
ATOM     49  C   UNL     1       0.008   5.694   1.193  1.00  0.00     0.192 C 
BRANCH  49  50
ATOM     50  C   UNL     1      -1.403   6.229   0.936  1.00  0.00     0.047 C 
BRANCH  50  51
ATOM     51  C   UNL     1      -2.479   5.404   1.655  1.00  0.00     0.103 C 
BRANCH  51  52
ATOM     52  C   UNL     1      -3.017   6.119   2.893  1.00  0.00     0.226 C 
ATOM     53  O   UNL     1      -3.533   7.232   2.779  1.00  0.00    -0.275 OA
BRANCH  52  54
ATOM     54  N   UNL     1      -2.954   5.406   4.105  1.00  0.00    -0.311 N 
ATOM     55  C   UNL     1      -1.744   5.435   4.937  1.00  0.00     0.153 C 
BRANCH  54  56
ATOM     56  C   UNL     1      -4.043   4.649   4.567  1.00  0.00     0.102 C 
ATOM     57  C   UNL     1      -4.098   3.307   4.573  1.00  0.00     0.043 C 
BRANCH  56  58
ATOM     58  C   UNL     1      -5.261   5.321   5.155  1.00  0.00     0.268 C 
ATOM     59  O   UNL     1      -6.336   5.388   4.572  1.00  0.00    -0.268 OA
ATOM     60  N   UNL     1      -5.057   5.788   6.431  1.00  0.00    -0.339 N 
ATOM     61  H   UNL     1      -4.134   5.703   6.839  1.00  0.00     0.164 HD
BRANCH  60  62
ATOM     62  C   UNL     1      -6.123   6.418   7.210  1.00  0.00     0.168 CG0
ATOM     63  C   UNL     1      -6.004   7.936   7.173  1.00  0.00     0.041 C 
ATOM     64  G   UNL     1      -6.075   5.901   8.663  1.00  0.00     0.000 G0
ENDBRANCH  60  62
ENDBRANCH  56  58
ENDBRANCH  54  56
ENDBRANCH  52  54
ENDBRANCH  51  52
ENDBRANCH  50  51
ENDBRANCH  49  50
BRANCH  49  65
ATOM     65  C   UNL     1       0.631   6.448   2.378  1.00  0.00     0.326 C 
ATOM     66  O   UNL     1       0.350   7.587   2.722  1.00  0.00    -0.250 OA
BRANCH  65  67
ATOM     67  O   UNL     1       1.605   5.773   3.027  1.00  0.00    -0.480 OA
ATOM     68  H   UNL     1       2.391   6.353   2.933  1.00  0.00     0.296 HD
ENDBRANCH  65  67
ENDBRANCH  49  65
ENDBRANCH  47  49
ENDBRANCH  43  45
ENDBRANCH   1  43
BRANCH   1  69
ATOM     69  C   UNL     1       0.506   7.509  -2.705  1.00  0.00    -0.001 C 
ATOM     70  C   UNL     1      -0.246   8.410  -3.362  1.00  0.00     0.001 C 
BRANCH  70  71
ATOM     71  C   UNL     1      -0.772   9.670  -2.832  1.00  0.00    -0.055 C 
ATOM     72  C   UNL     1      -1.242   9.672  -1.567  1.00  0.00    -0.018 C 
ATOM     73  C   UNL     1      -0.744  10.877  -3.734  1.00  0.00     0.044 C 
BRANCH  72  74
ATOM     74  C   UNL     1      -1.838  10.818  -0.762  1.00  0.00     0.038 C 
ATOM     75  C   UNL     1      -0.996  10.962   0.511  1.00  0.00     0.015 C 
BRANCH  74  76
ATOM     76  C   UNL     1      -3.348  10.527  -0.517  1.00  0.00     0.128 C 
BRANCH  76  77
ATOM     77  O   UNL     1      -3.739  11.019   0.775  1.00  0.00    -0.381 OA
ATOM     78  C   UNL     1      -5.145  11.019   0.985  1.00  0.00     0.195 C 
ENDBRANCH  76  77
BRANCH  76  79
ATOM     79  C   UNL     1      -4.277  11.023  -1.654  1.00  0.00     0.068 C 
BRANCH  79  80
ATOM     80  C   UNL     1      -4.459  10.130  -2.858  1.00  0.00    -0.045 A 
ATOM     81  C   UNL     1      -4.396  10.650  -4.158  1.00  0.00     0.004 A 
ATOM     82  C   UNL     1      -4.725   8.763  -2.691  1.00  0.00     0.004 A 
ATOM     83  C   UNL     1      -4.580   9.820  -5.266  1.00  0.00     0.000 A 
ATOM     84  C   UNL     1      -4.910   7.934  -3.799  1.00  0.00     0.000 A 
ATOM     85  C   UNL     1      -4.836   8.462  -5.086  1.00  0.00     0.000 A 
ENDBRANCH  79  80
ENDBRANCH  76  79
ENDBRANCH  74  76
ENDBRANCH  72  74
ENDBRANCH  70  71
ENDBRANCH   1  69
TORSDOF 17
ENDMDL
MODEL 7
REMARK VINA RESULT:    -6.525      2.264      3.923
REMARK INTER + INTRA:         -25.501
REMARK INTER:                 -17.583
REMARK INTRA:                  -7.918
REMARK UNBOUND:                -6.005
REMARK SMILES C=C1C(=O)N[C@H](C)C(=O)N[C@@H](CC(C)C)C(=O)N[C@@H](C(=O)O)[C@H](C)C(=O)N[C@@H](CCCN=C(N)N)C(=O)N[C@@H](/C=C/C(C)=C/[C@H](C)[C@H](Cc2ccccc2)OC)[C@H](C)C(=O)N[C@@H](C(=O)O)CCC(=O)N1C
REMARK SMILES IDX 39 1 38 2 37 3 36 4 28 6 27 7 25 8 26 9 23 11 24 12 19 13
REMARK SMILES IDX 18 14 16 15 17 16 11 18 10 19 8 20 9 21 12 24 13 25 14 26
REMARK SMILES IDX 15 27 20 28 21 29 22 30 29 32 30 33 31 34 32 35 33 36 34 37
REMARK SMILES IDX 35 38 57 43 58 44 59 45 60 46 61 47 62 49 66 50 67 51 68 52
REMARK SMILES IDX 69 53 70 54 71 55 2 56 1 57 3 58 4 59 5 60 6 62 7 63 63 65
REMARK SMILES IDX 64 66 65 67 40 69 41 70 42 71 44 72 43 73 45 74 46 75 47 76
REMARK SMILES IDX 55 77 56 78 48 79 49 80 50 81 54 82 51 83 53 84 52 85
REMARK H PARENT 38 5 27 10 18 17 10 22 22 31 34 39 34 40 35 41 35 42 61 48
REMARK H PARENT 5 61 65 68
REMARK Flexibility Score:  369.900
ROOT
ATOM      1  C   UNL     1      -0.297   4.307  -2.844  1.00  0.00     0.117 C 
ENDROOT
BRANCH   1   2
ATOM      2  N   UNL     1       0.352   4.819  -1.637  1.00  0.00    -0.347 N 
ATOM      3  O   UNL     1      -0.699   6.858  -1.557  1.00  0.00    -0.273 OA
ATOM      4  C   UNL     1       0.031   6.021  -1.036  1.00  0.00     0.243 C 
ATOM      5  H   UNL     1       1.044   4.253  -1.170  1.00  0.00     0.164 HD
BRANCH   4   6
ATOM      6  C   UNL     1       0.805   6.287   0.279  1.00  0.00     0.171 C 
BRANCH   6   7
ATOM      7  N   UNL     1       1.759   7.394   0.100  1.00  0.00    -0.344 N 
ATOM      8  C   UNL     1       2.940   7.200  -0.584  1.00  0.00     0.226 C 
ATOM      9  O   UNL     1       3.262   6.114  -1.049  1.00  0.00    -0.275 OA
ATOM     10  H   UNL     1       1.558   8.289   0.529  1.00  0.00     0.164 HD
BRANCH   8  11
ATOM     11  C   UNL     1       3.789   8.450  -0.731  1.00  0.00     0.109 C 
ATOM     12  C   UNL     1       2.911   9.698  -0.636  1.00  0.00     0.021 C 
BRANCH  11  13
ATOM     13  C   UNL     1       4.961   8.405   0.270  1.00  0.00     0.204 C 
BRANCH  13  14
ATOM     14  N   UNL     1       4.598   7.720   1.515  1.00  0.00    -0.340 N 
ATOM     15  C   UNL     1       4.349   8.391   2.692  1.00  0.00     0.243 C 
ATOM     16  O   UNL     1       4.355   9.619   2.767  1.00  0.00    -0.273 OA
ATOM     17  H   UNL     1       4.723   6.705   1.559  1.00  0.00     0.164 HD
BRANCH  15  18
ATOM     18  C   UNL     1       4.191   7.455   3.916  1.00  0.00     0.171 C 
BRANCH  18  19
ATOM     19  N   UNL     1       5.494   7.403   4.574  1.00  0.00    -0.343 N 
ATOM     20  C   UNL     1       6.480   6.522   4.170  1.00  0.00     0.242 CG0
ATOM     21  O   UNL     1       6.261   5.654   3.329  1.00  0.00    -0.273 OA
ATOM     22  H   UNL     1       5.684   8.024   5.353  1.00  0.00     0.164 HD
ATOM     23  G   UNL     1       7.814   6.668   4.931  1.00  0.00     0.000 G0
ENDBRANCH  18  19
BRANCH  18  24
ATOM     24  C   UNL     1       3.104   7.980   4.862  1.00  0.00     0.038 C 
BRANCH  24  25
ATOM     25  C   UNL     1       1.933   7.004   5.104  1.00  0.00    -0.015 C 
ATOM     26  C   UNL     1       2.001   5.773   4.199  1.00  0.00     0.007 C 
ATOM     27  C   UNL     1       0.604   7.731   4.887  1.00  0.00     0.007 C 
ENDBRANCH  24  25
ENDBRANCH  18  24
ENDBRANCH  15  18
ENDBRANCH  13  14
BRANCH  13  28
ATOM     28  C   UNL     1       6.204   7.704  -0.287  1.00  0.00     0.327 C 
ATOM     29  O   UNL     1       6.448   6.508  -0.226  1.00  0.00    -0.250 OA
BRANCH  28  30
ATOM     30  O   UNL     1       7.119   8.562  -0.781  1.00  0.00    -0.480 OA
ATOM     31  H   UNL     1       7.947   8.041  -0.812  1.00  0.00     0.296 HD
ENDBRANCH  28  30
ENDBRANCH  13  28
ENDBRANCH  11  13
ENDBRANCH   8  11
ENDBRANCH   6   7
BRANCH   6  32
ATOM     32  C   UNL     1      -0.195   6.602   1.398  1.00  0.00     0.037 C 
BRANCH  32  33
ATOM     33  C   UNL     1      -1.171   5.444   1.644  1.00  0.00     0.026 C 
BRANCH  33  34
ATOM     34  C   UNL     1      -2.120   5.718   2.812  1.00  0.00     0.146 C 
BRANCH  34  35
ATOM     35  N   UNL     1      -2.894   4.514   3.080  1.00  0.00    -0.254 NA
ATOM     36  C   UNL     1      -3.284   4.288   4.280  1.00  0.00     0.185 C 
ATOM     37  N   UNL     1      -4.002   3.184   4.538  1.00  0.00    -0.370 N 
ATOM     38  N   UNL     1      -3.078   5.024   5.387  1.00  0.00    -0.370 N 
ATOM     39  H   UNL     1      -4.208   2.582   3.750  1.00  0.00     0.159 HD
ATOM     40  H   UNL     1      -4.487   3.026   5.404  1.00  0.00     0.159 HD
ATOM     41  H   UNL     1      -3.316   4.670   6.299  1.00  0.00     0.159 HD
ATOM     42  H   UNL     1      -2.539   5.874   5.344  1.00  0.00     0.159 HD
ENDBRANCH  34  35
ENDBRANCH  33  34
ENDBRANCH  32  33
ENDBRANCH   6  32
ENDBRANCH   4   6
ENDBRANCH   1   2
BRANCH   1  43
ATOM     43  C   UNL     1      -1.101   3.028  -2.470  1.00  0.00     0.102 C 
ATOM     44  C   UNL     1      -1.119   1.969  -3.585  1.00  0.00     0.020 C 
BRANCH  43  45
ATOM     45  C   UNL     1      -2.489   3.388  -1.933  1.00  0.00     0.225 C 
ATOM     46  O   UNL     1      -3.168   2.619  -1.259  1.00  0.00    -0.275 OA
ATOM     47  N   UNL     1      -2.980   4.610  -2.332  1.00  0.00    -0.342 N 
ATOM     48  H   UNL     1      -2.358   5.286  -2.752  1.00  0.00     0.164 HD
BRANCH  47  49
ATOM     49  C   UNL     1      -4.280   5.103  -1.866  1.00  0.00     0.192 C 
BRANCH  49  50
ATOM     50  C   UNL     1      -4.943   5.930  -2.971  1.00  0.00     0.047 C 
BRANCH  50  51
ATOM     51  C   UNL     1      -6.436   6.164  -2.707  1.00  0.00     0.103 C 
BRANCH  51  52
ATOM     52  C   UNL     1      -7.193   4.854  -2.496  1.00  0.00     0.226 C 
ATOM     53  O   UNL     1      -7.770   4.648  -1.426  1.00  0.00    -0.275 OA
BRANCH  52  54
ATOM     54  N   UNL     1      -7.247   3.977  -3.595  1.00  0.00    -0.311 N 
ATOM     55  C   UNL     1      -7.016   2.537  -3.425  1.00  0.00     0.153 C 
BRANCH  54  56
ATOM     56  C   UNL     1      -7.528   4.443  -4.891  1.00  0.00     0.102 C 
ATOM     57  C   UNL     1      -6.693   4.349  -5.939  1.00  0.00     0.043 C 
BRANCH  56  58
ATOM     58  C   UNL     1      -8.864   5.068  -5.217  1.00  0.00     0.268 C 
ATOM     59  O   UNL     1      -9.183   6.193  -4.855  1.00  0.00    -0.268 OA
ATOM     60  N   UNL     1      -9.652   4.273  -6.013  1.00  0.00    -0.339 N 
ATOM     61  H   UNL     1      -9.319   3.349  -6.261  1.00  0.00     0.164 HD
BRANCH  60  62
ATOM     62  C   UNL     1     -10.960   4.711  -6.499  1.00  0.00     0.168 CG0
ATOM     63  C   UNL     1     -12.070   4.273  -5.551  1.00  0.00     0.041 C 
ATOM     64  G   UNL     1     -11.200   4.150  -7.916  1.00  0.00     0.000 G0
ENDBRANCH  60  62
ENDBRANCH  56  58
ENDBRANCH  54  56
ENDBRANCH  52  54
ENDBRANCH  51  52
ENDBRANCH  50  51
ENDBRANCH  49  50
BRANCH  49  65
ATOM     65  C   UNL     1      -4.140   5.963  -0.601  1.00  0.00     0.326 C 
ATOM     66  O   UNL     1      -4.724   5.773   0.456  1.00  0.00    -0.250 OA
BRANCH  65  67
ATOM     67  O   UNL     1      -3.334   7.039  -0.737  1.00  0.00    -0.480 OA
ATOM     68  H   UNL     1      -3.225   7.125  -1.709  1.00  0.00     0.296 HD
ENDBRANCH  65  67
ENDBRANCH  49  65
ENDBRANCH  47  49
ENDBRANCH  43  45
ENDBRANCH   1  43
BRANCH   1  69
ATOM     69  C   UNL     1       0.789   4.209  -3.900  1.00  0.00    -0.001 C 
ATOM     70  C   UNL     1       1.531   5.210  -4.405  1.00  0.00     0.001 C 
BRANCH  70  71
ATOM     71  C   UNL     1       2.591   5.100  -5.409  1.00  0.00    -0.055 C 
ATOM     72  C   UNL     1       2.276   4.540  -6.596  1.00  0.00    -0.018 C 
ATOM     73  C   UNL     1       3.956   5.625  -5.049  1.00  0.00     0.044 C 
BRANCH  72  74
ATOM     74  C   UNL     1       3.159   4.300  -7.812  1.00  0.00     0.038 C 
ATOM     75  C   UNL     1       2.385   4.797  -9.039  1.00  0.00     0.015 C 
BRANCH  74  76
ATOM     76  C   UNL     1       3.553   2.794  -7.855  1.00  0.00     0.128 C 
BRANCH  76  77
ATOM     77  O   UNL     1       3.895   2.414  -9.198  1.00  0.00    -0.381 OA
ATOM     78  C   UNL     1       5.289   2.227  -9.402  1.00  0.00     0.195 C 
ENDBRANCH  76  77
BRANCH  76  79
ATOM     79  C   UNL     1       4.642   2.398  -6.825  1.00  0.00     0.068 C 
BRANCH  79  80
ATOM     80  C   UNL     1       4.190   1.946  -5.457  1.00  0.00    -0.045 A 
ATOM     81  C   UNL     1       5.024   2.082  -4.340  1.00  0.00     0.004 A 
ATOM     82  C   UNL     1       2.930   1.352  -5.289  1.00  0.00     0.004 A 
ATOM     83  C   UNL     1       4.605   1.648  -3.081  1.00  0.00     0.000 A 
ATOM     84  C   UNL     1       2.512   0.917  -4.030  1.00  0.00     0.000 A 
ATOM     85  C   UNL     1       3.348   1.067  -2.926  1.00  0.00     0.000 A 
ENDBRANCH  79  80
ENDBRANCH  76  79
ENDBRANCH  74  76
ENDBRANCH  72  74
ENDBRANCH  70  71
ENDBRANCH   1  69
TORSDOF 17
ENDMDL
MODEL 8
REMARK VINA RESULT:    -6.505      5.451     10.777
REMARK INTER + INTRA:         -25.441
REMARK INTER:                 -17.931
REMARK INTRA:                  -7.510
REMARK UNBOUND:                -6.005
REMARK SMILES C=C1C(=O)N[C@H](C)C(=O)N[C@@H](CC(C)C)C(=O)N[C@@H](C(=O)O)[C@H](C)C(=O)N[C@@H](CCCN=C(N)N)C(=O)N[C@@H](/C=C/C(C)=C/[C@H](C)[C@H](Cc2ccccc2)OC)[C@H](C)C(=O)N[C@@H](C(=O)O)CCC(=O)N1C
REMARK SMILES IDX 39 1 38 2 37 3 36 4 28 6 27 7 25 8 26 9 23 11 24 12 19 13
REMARK SMILES IDX 18 14 16 15 17 16 11 18 10 19 8 20 9 21 12 24 13 25 14 26
REMARK SMILES IDX 15 27 20 28 21 29 22 30 29 32 30 33 31 34 32 35 33 36 34 37
REMARK SMILES IDX 35 38 57 43 58 44 59 45 60 46 61 47 62 49 66 50 67 51 68 52
REMARK SMILES IDX 69 53 70 54 71 55 2 56 1 57 3 58 4 59 5 60 6 62 7 63 63 65
REMARK SMILES IDX 64 66 65 67 40 69 41 70 42 71 44 72 43 73 45 74 46 75 47 76
REMARK SMILES IDX 55 77 56 78 48 79 49 80 50 81 54 82 51 83 53 84 52 85
REMARK H PARENT 38 5 27 10 18 17 10 22 22 31 34 39 34 40 35 41 35 42 61 48
REMARK H PARENT 5 61 65 68
REMARK Flexibility Score:  369.900
ROOT
ATOM      1  C   UNL     1       2.872   3.746 -10.474  1.00  0.00     0.117 C 
ENDROOT
BRANCH   1   2
ATOM      2  N   UNL     1       2.369   3.743  -9.100  1.00  0.00    -0.347 N 
ATOM      3  O   UNL     1       0.411   4.879  -9.480  1.00  0.00    -0.273 OA
ATOM      4  C   UNL     1       1.131   4.231  -8.728  1.00  0.00     0.243 C 
ATOM      5  H   UNL     1       2.923   3.319  -8.371  1.00  0.00     0.164 HD
BRANCH   4   6
ATOM      6  C   UNL     1       0.807   4.029  -7.226  1.00  0.00     0.171 C 
BRANCH   6   7
ATOM      7  N   UNL     1       0.784   2.596  -6.893  1.00  0.00    -0.344 N 
ATOM      8  C   UNL     1      -0.160   1.761  -7.450  1.00  0.00     0.226 C 
ATOM      9  O   UNL     1      -1.025   2.162  -8.219  1.00  0.00    -0.275 OA
ATOM     10  H   UNL     1       1.441   2.240  -6.210  1.00  0.00     0.164 HD
BRANCH   8  11
ATOM     11  C   UNL     1      -0.018   0.302  -7.050  1.00  0.00     0.109 C 
ATOM     12  C   UNL     1       1.307   0.083  -6.320  1.00  0.00     0.021 C 
BRANCH  11  13
ATOM     13  C   UNL     1      -1.270  -0.149  -6.271  1.00  0.00     0.204 C 
BRANCH  13  14
ATOM     14  N   UNL     1      -2.168   0.971  -5.975  1.00  0.00    -0.340 N 
ATOM     15  C   UNL     1      -2.466   1.373  -4.691  1.00  0.00     0.243 C 
ATOM     16  O   UNL     1      -1.949   0.857  -3.701  1.00  0.00    -0.273 OA
ATOM     17  H   UNL     1      -2.744   1.340  -6.737  1.00  0.00     0.164 HD
BRANCH  15  18
ATOM     18  C   UNL     1      -3.592   2.433  -4.619  1.00  0.00     0.171 C 
BRANCH  18  19
ATOM     19  N   UNL     1      -3.785   2.744  -3.204  1.00  0.00    -0.343 N 
ATOM     20  C   UNL     1      -5.043   2.927  -2.663  1.00  0.00     0.242 CG0
ATOM     21  O   UNL     1      -6.047   2.969  -3.370  1.00  0.00    -0.273 OA
ATOM     22  H   UNL     1      -2.976   2.834  -2.600  1.00  0.00     0.164 HD
ATOM     23  G   UNL     1      -5.052   3.169  -1.139  1.00  0.00     0.000 G0
ENDBRANCH  18  19
BRANCH  18  24
ATOM     24  C   UNL     1      -3.211   3.683  -5.422  1.00  0.00     0.038 C 
BRANCH  24  25
ATOM     25  C   UNL     1      -2.966   4.946  -4.570  1.00  0.00    -0.015 C 
ATOM     26  C   UNL     1      -4.028   6.022  -4.798  1.00  0.00     0.007 C 
ATOM     27  C   UNL     1      -1.580   5.517  -4.883  1.00  0.00     0.007 C 
ENDBRANCH  24  25
ENDBRANCH  18  24
ENDBRANCH  15  18
ENDBRANCH  13  14
BRANCH  13  28
ATOM     28  C   UNL     1      -2.093  -1.207  -7.011  1.00  0.00     0.327 C 
ATOM     29  O   UNL     1      -2.929  -1.948  -6.518  1.00  0.00    -0.250 OA
BRANCH  28  30
ATOM     30  O   UNL     1      -1.730  -1.352  -8.302  1.00  0.00    -0.480 OA
ATOM     31  H   UNL     1      -0.761  -1.203  -8.298  1.00  0.00     0.296 HD
ENDBRANCH  28  30
ENDBRANCH  13  28
ENDBRANCH  11  13
ENDBRANCH   8  11
ENDBRANCH   6   7
BRANCH   6  32
ATOM     32  C   UNL     1       1.850   4.770  -6.382  1.00  0.00     0.037 C 
BRANCH  32  33
ATOM     33  C   UNL     1       2.541   3.845  -5.371  1.00  0.00     0.026 C 
BRANCH  33  34
ATOM     34  C   UNL     1       1.947   3.964  -3.967  1.00  0.00     0.146 C 
BRANCH  34  35
ATOM     35  N   UNL     1       1.117   2.795  -3.708  1.00  0.00    -0.254 NA
ATOM     36  C   UNL     1       1.641   1.789  -3.114  1.00  0.00     0.185 C 
ATOM     37  N   UNL     1       0.884   0.709  -2.865  1.00  0.00    -0.370 N 
ATOM     38  N   UNL     1       2.901   1.631  -2.672  1.00  0.00    -0.370 N 
ATOM     39  H   UNL     1      -0.083   0.755  -3.159  1.00  0.00     0.159 HD
ATOM     40  H   UNL     1       1.167  -0.041  -2.258  1.00  0.00     0.159 HD
ATOM     41  H   UNL     1       3.231   0.737  -2.345  1.00  0.00     0.159 HD
ATOM     42  H   UNL     1       3.586   2.358  -2.806  1.00  0.00     0.159 HD
ENDBRANCH  34  35
ENDBRANCH  33  34
ENDBRANCH  32  33
ENDBRANCH   6  32
ENDBRANCH   4   6
ENDBRANCH   1   2
BRANCH   1  43
ATOM     43  C   UNL     1       2.374   2.455 -11.186  1.00  0.00     0.102 C 
ATOM     44  C   UNL     1       3.499   1.452 -11.492  1.00  0.00     0.020 C 
BRANCH  43  45
ATOM     45  C   UNL     1       1.501   2.797 -12.397  1.00  0.00     0.225 C 
ATOM     46  O   UNL     1       1.314   2.021 -13.330  1.00  0.00    -0.275 OA
ATOM     47  N   UNL     1       1.004   4.081 -12.426  1.00  0.00    -0.342 N 
ATOM     48  H   UNL     1       1.038   4.649 -11.592  1.00  0.00     0.164 HD
BRANCH  47  49
ATOM     49  C   UNL     1       0.124   4.538 -13.506  1.00  0.00     0.192 C 
BRANCH  49  50
ATOM     50  C   UNL     1       0.427   6.002 -13.831  1.00  0.00     0.047 C 
BRANCH  50  51
ATOM     51  C   UNL     1       1.793   6.448 -13.292  1.00  0.00     0.103 C 
BRANCH  51  52
ATOM     52  C   UNL     1       2.630   7.150 -14.359  1.00  0.00     0.226 C 
ATOM     53  O   UNL     1       2.942   6.544 -15.386  1.00  0.00    -0.275 OA
BRANCH  52  54
ATOM     54  N   UNL     1       2.935   8.504 -14.127  1.00  0.00    -0.311 N 
ATOM     55  C   UNL     1       2.996   9.041 -12.761  1.00  0.00     0.153 C 
BRANCH  54  56
ATOM     56  C   UNL     1       3.196   9.389 -15.186  1.00  0.00     0.102 C 
ATOM     57  C   UNL     1       2.267  10.114 -15.829  1.00  0.00     0.043 C 
BRANCH  56  58
ATOM     58  C   UNL     1       4.609   9.628 -15.665  1.00  0.00     0.268 C 
ATOM     59  O   UNL     1       5.223  10.664 -15.448  1.00  0.00    -0.268 OA
ATOM     60  N   UNL     1       5.152   8.542 -16.309  1.00  0.00    -0.339 N 
ATOM     61  H   UNL     1       4.574   7.724 -16.458  1.00  0.00     0.164 HD
BRANCH  60  62
ATOM     62  C   UNL     1       6.530   8.536 -16.799  1.00  0.00     0.168 CG0
ATOM     63  C   UNL     1       7.522   8.580 -15.643  1.00  0.00     0.041 C 
ATOM     64  G   UNL     1       6.746   9.731 -17.749  1.00  0.00     0.000 G0
ENDBRANCH  60  62
ENDBRANCH  56  58
ENDBRANCH  54  56
ENDBRANCH  52  54
ENDBRANCH  51  52
ENDBRANCH  50  51
ENDBRANCH  49  50
BRANCH  49  65
ATOM     65  C   UNL     1      -1.358   4.396 -13.127  1.00  0.00     0.326 C 
ATOM     66  O   UNL     1      -2.224   3.884 -13.822  1.00  0.00    -0.250 OA
BRANCH  65  67
ATOM     67  O   UNL     1      -1.692   4.950 -11.940  1.00  0.00    -0.480 OA
ATOM     68  H   UNL     1      -2.171   5.769 -12.193  1.00  0.00     0.296 HD
ENDBRANCH  65  67
ENDBRANCH  49  65
ENDBRANCH  47  49
ENDBRANCH  43  45
ENDBRANCH   1  43
BRANCH   1  69
ATOM     69  C   UNL     1       4.365   4.001 -10.379  1.00  0.00    -0.001 C 
ATOM     70  C   UNL     1       5.017   5.146 -10.648  1.00  0.00     0.001 C 
BRANCH  70  71
ATOM     71  C   UNL     1       6.456   5.387 -10.531  1.00  0.00    -0.055 C 
ATOM     72  C   UNL     1       7.291   4.489 -11.096  1.00  0.00    -0.018 C 
ATOM     73  C   UNL     1       6.905   6.624  -9.798  1.00  0.00     0.044 C 
BRANCH  72  74
ATOM     74  C   UNL     1       8.812   4.480 -11.136  1.00  0.00     0.038 C 
ATOM     75  C   UNL     1       9.226   4.579 -12.610  1.00  0.00     0.015 C 
BRANCH  74  76
ATOM     76  C   UNL     1       9.326   3.209 -10.398  1.00  0.00     0.128 C 
BRANCH  76  77
ATOM     77  O   UNL     1      10.309   3.576  -9.415  1.00  0.00    -0.381 OA
ATOM     78  C   UNL     1      10.199   4.923  -8.973  1.00  0.00     0.195 C 
ENDBRANCH  76  77
BRANCH  76  79
ATOM     79  C   UNL     1       8.198   2.321  -9.814  1.00  0.00     0.068 C 
BRANCH  79  80
ATOM     80  C   UNL     1       7.758   1.120 -10.616  1.00  0.00    -0.045 A 
ATOM     81  C   UNL     1       6.933   0.138 -10.051  1.00  0.00     0.004 A 
ATOM     82  C   UNL     1       8.195   0.954 -11.939  1.00  0.00     0.004 A 
ATOM     83  C   UNL     1       6.543  -0.978 -10.795  1.00  0.00     0.000 A 
ATOM     84  C   UNL     1       7.804  -0.163 -12.681  1.00  0.00     0.000 A 
ATOM     85  C   UNL     1       6.977  -1.127 -12.110  1.00  0.00     0.000 A 
ENDBRANCH  79  80
ENDBRANCH  76  79
ENDBRANCH  74  76
ENDBRANCH  72  74
ENDBRANCH  70  71
ENDBRANCH   1  69
TORSDOF 17
ENDMDL
MODEL 9
REMARK VINA RESULT:    -6.486      3.999      9.254
REMARK INTER + INTRA:         -25.382
REMARK INTER:                 -16.621
REMARK INTRA:                  -8.761
REMARK UNBOUND:                -6.005
REMARK SMILES C=C1C(=O)N[C@H](C)C(=O)N[C@@H](CC(C)C)C(=O)N[C@@H](C(=O)O)[C@H](C)C(=O)N[C@@H](CCCN=C(N)N)C(=O)N[C@@H](/C=C/C(C)=C/[C@H](C)[C@H](Cc2ccccc2)OC)[C@H](C)C(=O)N[C@@H](C(=O)O)CCC(=O)N1C
REMARK SMILES IDX 39 1 38 2 37 3 36 4 28 6 27 7 25 8 26 9 23 11 24 12 19 13
REMARK SMILES IDX 18 14 16 15 17 16 11 18 10 19 8 20 9 21 12 24 13 25 14 26
REMARK SMILES IDX 15 27 20 28 21 29 22 30 29 32 30 33 31 34 32 35 33 36 34 37
REMARK SMILES IDX 35 38 57 43 58 44 59 45 60 46 61 47 62 49 66 50 67 51 68 52
REMARK SMILES IDX 69 53 70 54 71 55 2 56 1 57 3 58 4 59 5 60 6 62 7 63 63 65
REMARK SMILES IDX 64 66 65 67 40 69 41 70 42 71 44 72 43 73 45 74 46 75 47 76
REMARK SMILES IDX 55 77 56 78 48 79 49 80 50 81 54 82 51 83 53 84 52 85
REMARK H PARENT 38 5 27 10 18 17 10 22 22 31 34 39 34 40 35 41 35 42 61 48
REMARK H PARENT 5 61 65 68
REMARK Flexibility Score:  369.900
ROOT
ATOM      1  C   UNL     1       4.290   5.060  -1.796  1.00  0.00     0.117 C 
ENDROOT
BRANCH   1   2
ATOM      2  N   UNL     1       4.803   6.389  -1.459  1.00  0.00    -0.347 N 
ATOM      3  O   UNL     1       6.732   5.722  -0.407  1.00  0.00    -0.273 OA
ATOM      4  C   UNL     1       6.032   6.616  -0.870  1.00  0.00     0.243 C 
ATOM      5  H   UNL     1       4.265   7.204  -1.708  1.00  0.00     0.164 HD
BRANCH   4   6
ATOM      6  C   UNL     1       6.373   8.119  -0.700  1.00  0.00     0.171 C 
BRANCH   6   7
ATOM      7  N   UNL     1       6.478   8.464   0.727  1.00  0.00    -0.344 N 
ATOM      8  C   UNL     1       5.351   8.536   1.517  1.00  0.00     0.226 C 
ATOM      9  O   UNL     1       4.224   8.344   1.079  1.00  0.00    -0.275 OA
ATOM     10  H   UNL     1       7.386   8.695   1.110  1.00  0.00     0.164 HD
BRANCH   8  11
ATOM     11  C   UNL     1       5.630   8.849   2.977  1.00  0.00     0.109 C 
ATOM     12  C   UNL     1       5.056  10.218   3.341  1.00  0.00     0.021 C 
BRANCH  11  13
ATOM     13  C   UNL     1       5.142   7.685   3.862  1.00  0.00     0.204 C 
BRANCH  13  14
ATOM     14  N   UNL     1       3.754   7.313   3.569  1.00  0.00    -0.340 N 
ATOM     15  C   UNL     1       2.732   7.455   4.482  1.00  0.00     0.243 C 
ATOM     16  O   UNL     1       2.903   7.962   5.590  1.00  0.00    -0.273 OA
ATOM     17  H   UNL     1       3.574   6.752   2.732  1.00  0.00     0.164 HD
BRANCH  15  18
ATOM     18  C   UNL     1       1.401   6.807   4.028  1.00  0.00     0.171 C 
BRANCH  18  19
ATOM     19  N   UNL     1       0.371   7.273   4.954  1.00  0.00    -0.343 N 
ATOM     20  C   UNL     1      -0.702   6.479   5.310  1.00  0.00     0.242 CG0
ATOM     21  O   UNL     1      -0.911   5.398   4.765  1.00  0.00    -0.273 OA
ATOM     22  H   UNL     1       0.438   8.206   5.344  1.00  0.00     0.164 HD
ATOM     23  G   UNL     1      -1.641   7.110   6.358  1.00  0.00     0.000 G0
ENDBRANCH  18  19
BRANCH  18  24
ATOM     24  C   UNL     1       1.075   7.199   2.581  1.00  0.00     0.038 C 
BRANCH  24  25
ATOM     25  C   UNL     1       0.288   8.518   2.433  1.00  0.00    -0.015 C 
ATOM     26  C   UNL     1      -1.129   8.298   1.902  1.00  0.00     0.007 C 
ATOM     27  C   UNL     1       1.046   9.467   1.500  1.00  0.00     0.007 C 
ENDBRANCH  24  25
ENDBRANCH  18  24
ENDBRANCH  15  18
ENDBRANCH  13  14
BRANCH  13  28
ATOM     28  C   UNL     1       5.991   6.418   3.717  1.00  0.00     0.327 C 
ATOM     29  O   UNL     1       7.164   6.294   4.033  1.00  0.00    -0.250 OA
BRANCH  28  30
ATOM     30  O   UNL     1       5.348   5.422   3.074  1.00  0.00    -0.480 OA
ATOM     31  H   UNL     1       6.067   4.896   2.665  1.00  0.00     0.296 HD
ENDBRANCH  28  30
ENDBRANCH  13  28
ENDBRANCH  11  13
ENDBRANCH   8  11
ENDBRANCH   6   7
BRANCH   6  32
ATOM     32  C   UNL     1       7.682   8.425  -1.435  1.00  0.00     0.037 C 
BRANCH  32  33
ATOM     33  C   UNL     1       7.707   9.849  -2.007  1.00  0.00     0.026 C 
BRANCH  33  34
ATOM     34  C   UNL     1       7.175   9.914  -3.439  1.00  0.00     0.146 C 
BRANCH  34  35
ATOM     35  N   UNL     1       7.656   8.750  -4.171  1.00  0.00    -0.254 NA
ATOM     36  C   UNL     1       6.921   8.263  -5.101  1.00  0.00     0.185 C 
ATOM     37  N   UNL     1       7.356   7.194  -5.786  1.00  0.00    -0.370 N 
ATOM     38  N   UNL     1       5.715   8.676  -5.528  1.00  0.00    -0.370 N 
ATOM     39  H   UNL     1       8.265   6.829  -5.529  1.00  0.00     0.159 HD
ATOM     40  H   UNL     1       6.927   6.864  -6.633  1.00  0.00     0.159 HD
ATOM     41  H   UNL     1       5.175   8.124  -6.175  1.00  0.00     0.159 HD
ATOM     42  H   UNL     1       5.258   9.461  -5.092  1.00  0.00     0.159 HD
ENDBRANCH  34  35
ENDBRANCH  33  34
ENDBRANCH  32  33
ENDBRANCH   6  32
ENDBRANCH   4   6
ENDBRANCH   1   2
BRANCH   1  43
ATOM     43  C   UNL     1       4.987   4.576  -3.100  1.00  0.00     0.102 C 
ATOM     44  C   UNL     1       4.569   5.372  -4.349  1.00  0.00     0.020 C 
BRANCH  43  45
ATOM     45  C   UNL     1       4.861   3.058  -3.260  1.00  0.00     0.225 C 
ATOM     46  O   UNL     1       5.780   2.280  -3.020  1.00  0.00    -0.275 OA
ATOM     47  N   UNL     1       3.669   2.615  -3.786  1.00  0.00    -0.342 N 
ATOM     48  H   UNL     1       2.879   3.242  -3.834  1.00  0.00     0.164 HD
BRANCH  47  49
ATOM     49  C   UNL     1       3.394   1.185  -3.962  1.00  0.00     0.192 C 
BRANCH  49  50
ATOM     50  C   UNL     1       2.360   0.994  -5.074  1.00  0.00     0.047 C 
BRANCH  50  51
ATOM     51  C   UNL     1       2.701   1.803  -6.333  1.00  0.00     0.103 C 
BRANCH  51  52
ATOM     52  C   UNL     1       1.790   1.450  -7.506  1.00  0.00     0.226 C 
ATOM     53  O   UNL     1       0.844   0.679  -7.334  1.00  0.00    -0.275 OA
BRANCH  52  54
ATOM     54  N   UNL     1       2.054   2.104  -8.724  1.00  0.00    -0.311 N 
ATOM     55  C   UNL     1       0.985   2.796  -9.457  1.00  0.00     0.153 C 
BRANCH  54  56
ATOM     56  C   UNL     1       3.344   2.126  -9.279  1.00  0.00     0.102 C 
ATOM     57  C   UNL     1       4.126   3.215  -9.362  1.00  0.00     0.043 C 
BRANCH  56  58
ATOM     58  C   UNL     1       3.984   0.862  -9.803  1.00  0.00     0.268 C 
ATOM     59  O   UNL     1       3.480  -0.245  -9.676  1.00  0.00    -0.268 OA
ATOM     60  N   UNL     1       5.151   1.093 -10.491  1.00  0.00    -0.339 N 
ATOM     61  H   UNL     1       5.508   2.040 -10.542  1.00  0.00     0.164 HD
BRANCH  60  62
ATOM     62  C   UNL     1       5.902   0.016 -11.135  1.00  0.00     0.168 CG0
ATOM     63  C   UNL     1       7.230  -0.224 -10.428  1.00  0.00     0.041 C 
ATOM     64  G   UNL     1       6.129   0.361 -12.621  1.00  0.00     0.000 G0
ENDBRANCH  60  62
ENDBRANCH  56  58
ENDBRANCH  54  56
ENDBRANCH  52  54
ENDBRANCH  51  52
ENDBRANCH  50  51
ENDBRANCH  49  50
BRANCH  49  65
ATOM     65  C   UNL     1       2.873   0.545  -2.666  1.00  0.00     0.326 C 
ATOM     66  O   UNL     1       1.697   0.415  -2.361  1.00  0.00    -0.250 OA
BRANCH  65  67
ATOM     67  O   UNL     1       3.837   0.159  -1.801  1.00  0.00    -0.480 OA
ATOM     68  H   UNL     1       4.607   0.715  -2.049  1.00  0.00     0.296 HD
ENDBRANCH  65  67
ENDBRANCH  49  65
ENDBRANCH  47  49
ENDBRANCH  43  45
ENDBRANCH   1  43
BRANCH   1  69
ATOM     69  C   UNL     1       2.777   5.172  -1.770  1.00  0.00    -0.001 C 
ATOM     70  C   UNL     1       2.033   6.031  -1.052  1.00  0.00     0.001 C 
BRANCH  70  71
ATOM     71  C   UNL     1       0.573   6.143  -1.052  1.00  0.00    -0.055 C 
ATOM     72  C   UNL     1      -0.141   5.045  -0.727  1.00  0.00    -0.018 C 
ATOM     73  C   UNL     1      -0.029   7.478  -1.406  1.00  0.00     0.044 C 
BRANCH  72  74
ATOM     74  C   UNL     1      -1.650   4.868  -0.641  1.00  0.00     0.038 C 
ATOM     75  C   UNL     1      -2.026   4.900   0.846  1.00  0.00     0.015 C 
BRANCH  74  76
ATOM     76  C   UNL     1      -2.044   3.558  -1.385  1.00  0.00     0.128 C 
BRANCH  76  77
ATOM     77  O   UNL     1      -3.100   2.889  -0.676  1.00  0.00    -0.381 OA
ATOM     78  C   UNL     1      -2.895   1.489  -0.533  1.00  0.00     0.195 C 
ENDBRANCH  76  77
BRANCH  76  79
ATOM     79  C   UNL     1      -2.365   3.760  -2.888  1.00  0.00     0.068 C 
BRANCH  79  80
ATOM     80  C   UNL     1      -1.358   4.502  -3.732  1.00  0.00    -0.045 A 
ATOM     81  C   UNL     1      -1.619   5.798  -4.196  1.00  0.00     0.004 A 
ATOM     82  C   UNL     1      -0.148   3.888  -4.092  1.00  0.00     0.004 A 
ATOM     83  C   UNL     1      -0.687   6.471  -4.989  1.00  0.00     0.000 A 
ATOM     84  C   UNL     1       0.782   4.562  -4.886  1.00  0.00     0.000 A 
ATOM     85  C   UNL     1       0.513   5.854  -5.332  1.00  0.00     0.000 A 
ENDBRANCH  79  80
ENDBRANCH  76  79
ENDBRANCH  74  76
ENDBRANCH  72  74
ENDBRANCH  70  71
ENDBRANCH   1  69
TORSDOF 17
ENDMDL
MODEL 10
REMARK VINA RESULT:    -6.479      4.719     10.591
REMARK INTER + INTRA:         -25.361
REMARK INTER:                 -18.094
REMARK INTRA:                  -7.266
REMARK UNBOUND:                -6.005
REMARK SMILES C=C1C(=O)N[C@H](C)C(=O)N[C@@H](CC(C)C)C(=O)N[C@@H](C(=O)O)[C@H](C)C(=O)N[C@@H](CCCN=C(N)N)C(=O)N[C@@H](/C=C/C(C)=C/[C@H](C)[C@H](Cc2ccccc2)OC)[C@H](C)C(=O)N[C@@H](C(=O)O)CCC(=O)N1C
REMARK SMILES IDX 39 1 38 2 37 3 36 4 28 6 27 7 25 8 26 9 23 11 24 12 19 13
REMARK SMILES IDX 18 14 16 15 17 16 11 18 10 19 8 20 9 21 12 24 13 25 14 26
REMARK SMILES IDX 15 27 20 28 21 29 22 30 29 32 30 33 31 34 32 35 33 36 34 37
REMARK SMILES IDX 35 38 57 43 58 44 59 45 60 46 61 47 62 49 66 50 67 51 68 52
REMARK SMILES IDX 69 53 70 54 71 55 2 56 1 57 3 58 4 59 5 60 6 62 7 63 63 65
REMARK SMILES IDX 64 66 65 67 40 69 41 70 42 71 44 72 43 73 45 74 46 75 47 76
REMARK SMILES IDX 55 77 56 78 48 79 49 80 50 81 54 82 51 83 53 84 52 85
REMARK H PARENT 38 5 27 10 18 17 10 22 22 31 34 39 34 40 35 41 35 42 61 48
REMARK H PARENT 5 61 65 68
REMARK Flexibility Score:  369.900
ROOT
ATOM      1  C   UNL     1       2.438   3.264  -7.468  1.00  0.00     0.117 C 
ENDROOT
BRANCH   1   2
ATOM      2  N   UNL     1       3.660   3.086  -8.253  1.00  0.00    -0.347 N 
ATOM      3  O   UNL     1       3.386   0.864  -8.761  1.00  0.00    -0.273 OA
ATOM      4  C   UNL     1       3.991   1.920  -8.916  1.00  0.00     0.243 C 
ATOM      5  H   UNL     1       4.289   3.866  -8.372  1.00  0.00     0.164 HD
BRANCH   4   6
ATOM      6  C   UNL     1       5.295   2.024  -9.746  1.00  0.00     0.171 C 
BRANCH   6   7
ATOM      7  N   UNL     1       5.843   3.387  -9.675  1.00  0.00    -0.344 N 
ATOM      8  C   UNL     1       6.153   4.081 -10.825  1.00  0.00     0.226 C 
ATOM      9  O   UNL     1       6.012   3.602 -11.943  1.00  0.00    -0.275 OA
ATOM     10  H   UNL     1       6.036   3.792  -8.767  1.00  0.00     0.164 HD
BRANCH   8  11
ATOM     11  C   UNL     1       6.656   5.494 -10.586  1.00  0.00     0.109 C 
ATOM     12  C   UNL     1       5.949   6.108  -9.378  1.00  0.00     0.021 C 
BRANCH  11  13
ATOM     13  C   UNL     1       8.196   5.492 -10.504  1.00  0.00     0.204 C 
BRANCH  13  14
ATOM     14  N   UNL     1       8.801   4.618 -11.515  1.00  0.00    -0.340 N 
ATOM     15  C   UNL     1       9.539   3.500 -11.192  1.00  0.00     0.243 C 
ATOM     16  O   UNL     1       9.692   3.122 -10.032  1.00  0.00    -0.273 OA
ATOM     17  H   UNL     1       8.841   4.956 -12.480  1.00  0.00     0.164 HD
BRANCH  15  18
ATOM     18  C   UNL     1      10.250   2.856 -12.407  1.00  0.00     0.171 C 
BRANCH  18  19
ATOM     19  N   UNL     1      11.574   2.442 -11.947  1.00  0.00    -0.343 N 
ATOM     20  C   UNL     1      12.689   2.536 -12.757  1.00  0.00     0.242 CG0
ATOM     21  O   UNL     1      12.599   2.846 -13.942  1.00  0.00    -0.273 OA
ATOM     22  H   UNL     1      11.681   2.068 -11.011  1.00  0.00     0.164 HD
ATOM     23  G   UNL     1      14.009   2.126 -12.072  1.00  0.00     0.000 G0
ENDBRANCH  18  19
BRANCH  18  24
ATOM     24  C   UNL     1       9.442   1.666 -12.938  1.00  0.00     0.038 C 
BRANCH  24  25
ATOM     25  C   UNL     1       9.089   1.744 -14.439  1.00  0.00    -0.015 C 
ATOM     26  C   UNL     1       9.991   0.859 -15.299  1.00  0.00     0.007 C 
ATOM     27  C   UNL     1       9.186   3.196 -14.915  1.00  0.00     0.007 C 
ENDBRANCH  24  25
ENDBRANCH  18  24
ENDBRANCH  15  18
ENDBRANCH  13  14
BRANCH  13  28
ATOM     28  C   UNL     1       8.812   6.883 -10.680  1.00  0.00     0.327 C 
ATOM     29  O   UNL     1       8.976   7.717  -9.803  1.00  0.00    -0.250 OA
BRANCH  28  30
ATOM     30  O   UNL     1       9.074   7.187 -11.968  1.00  0.00    -0.480 OA
ATOM     31  H   UNL     1       9.388   6.343 -12.355  1.00  0.00     0.296 HD
ENDBRANCH  28  30
ENDBRANCH  13  28
ENDBRANCH  11  13
ENDBRANCH   8  11
ENDBRANCH   6   7
BRANCH   6  32
ATOM     32  C   UNL     1       6.307   0.999  -9.223  1.00  0.00     0.037 C 
BRANCH  32  33
ATOM     33  C   UNL     1       7.145   0.383 -10.352  1.00  0.00     0.026 C 
BRANCH  33  34
ATOM     34  C   UNL     1       6.286  -0.344 -11.388  1.00  0.00     0.146 C 
BRANCH  34  35
ATOM     35  N   UNL     1       6.930  -1.605 -11.731  1.00  0.00    -0.254 NA
ATOM     36  C   UNL     1       6.262  -2.691 -11.602  1.00  0.00     0.185 C 
ATOM     37  N   UNL     1       6.844  -3.857 -11.920  1.00  0.00    -0.370 N 
ATOM     38  N   UNL     1       4.998  -2.859 -11.176  1.00  0.00    -0.370 N 
ATOM     39  H   UNL     1       7.796  -3.812 -12.260  1.00  0.00     0.159 HD
ATOM     40  H   UNL     1       6.341  -4.723 -12.013  1.00  0.00     0.159 HD
ATOM     41  H   UNL     1       4.630  -3.777 -10.986  1.00  0.00     0.159 HD
ATOM     42  H   UNL     1       4.444  -2.068 -10.888  1.00  0.00     0.159 HD
ENDBRANCH  34  35
ENDBRANCH  33  34
ENDBRANCH  32  33
ENDBRANCH   6  32
ENDBRANCH   4   6
ENDBRANCH   1   2
BRANCH   1  43
ATOM     43  C   UNL     1       1.243   3.450  -8.446  1.00  0.00     0.102 C 
ATOM     44  C   UNL     1       0.682   4.882  -8.463  1.00  0.00     0.020 C 
BRANCH  43  45
ATOM     45  C   UNL     1       0.179   2.369  -8.227  1.00  0.00     0.225 C 
ATOM     46  O   UNL     1      -0.625   2.035  -9.092  1.00  0.00    -0.275 OA
ATOM     47  N   UNL     1       0.116   1.850  -6.954  1.00  0.00    -0.342 N 
ATOM     48  H   UNL     1       0.872   2.020  -6.306  1.00  0.00     0.164 HD
BRANCH  47  49
ATOM     49  C   UNL     1      -0.829   0.784  -6.608  1.00  0.00     0.192 C 
BRANCH  49  50
ATOM     50  C   UNL     1      -1.133   0.833  -5.109  1.00  0.00     0.047 C 
BRANCH  50  51
ATOM     51  C   UNL     1      -0.215   1.808  -4.360  1.00  0.00     0.103 C 
BRANCH  51  52
ATOM     52  C   UNL     1      -0.527   1.858  -2.866  1.00  0.00     0.226 C 
ATOM     53  O   UNL     1      -0.216   0.908  -2.145  1.00  0.00    -0.275 OA
BRANCH  52  54
ATOM     54  N   UNL     1      -1.099   3.051  -2.385  1.00  0.00    -0.311 N 
ATOM     55  C   UNL     1      -0.390   3.889  -1.408  1.00  0.00     0.153 C 
BRANCH  54  56
ATOM     56  C   UNL     1      -2.360   3.487  -2.823  1.00  0.00     0.102 C 
ATOM     57  C   UNL     1      -2.567   4.357  -3.825  1.00  0.00     0.043 C 
BRANCH  56  58
ATOM     58  C   UNL     1      -3.626   2.950  -2.197  1.00  0.00     0.268 C 
ATOM     59  O   UNL     1      -3.659   2.437  -1.087  1.00  0.00    -0.268 OA
ATOM     60  N   UNL     1      -4.742   3.155  -2.974  1.00  0.00    -0.339 N 
ATOM     61  H   UNL     1      -4.628   3.578  -3.887  1.00  0.00     0.164 HD
BRANCH  60  62
ATOM     62  C   UNL     1      -6.081   2.769  -2.531  1.00  0.00     0.168 CG0
ATOM     63  C   UNL     1      -6.770   3.919  -1.807  1.00  0.00     0.041 C 
ATOM     64  G   UNL     1      -5.986   1.528  -1.619  1.00  0.00     0.000 G0
ENDBRANCH  60  62
ENDBRANCH  56  58
ENDBRANCH  54  56
ENDBRANCH  52  54
ENDBRANCH  51  52
ENDBRANCH  50  51
ENDBRANCH  49  50
BRANCH  49  65
ATOM     65  C   UNL     1      -0.275  -0.603  -6.970  1.00  0.00     0.326 C 
ATOM     66  O   UNL     1      -0.937  -1.624  -7.090  1.00  0.00    -0.250 OA
BRANCH  65  67
ATOM     67  O   UNL     1       1.069  -0.657  -7.103  1.00  0.00    -0.480 OA
ATOM     68  H   UNL     1       1.399  -0.189  -6.306  1.00  0.00     0.296 HD
ENDBRANCH  65  67
ENDBRANCH  49  65
ENDBRANCH  47  49
ENDBRANCH  43  45
ENDBRANCH   1  43
BRANCH   1  69
ATOM     69  C   UNL     1       2.738   4.358  -6.459  1.00  0.00    -0.001 C 
ATOM     70  C   UNL     1       3.743   5.250  -6.496  1.00  0.00     0.001 C 
BRANCH  70  71
ATOM     71  C   UNL     1       4.010   6.315  -5.528  1.00  0.00    -0.055 C 
ATOM     72  C   UNL     1       5.260   6.410  -5.027  1.00  0.00    -0.018 C 
ATOM     73  C   UNL     1       2.874   7.236  -5.166  1.00  0.00     0.044 C 
BRANCH  72  74
ATOM     74  C   UNL     1       5.821   7.405  -4.021  1.00  0.00     0.038 C 
ATOM     75  C   UNL     1       6.725   8.371  -4.796  1.00  0.00     0.015 C 
BRANCH  74  76
ATOM     76  C   UNL     1       6.533   6.617  -2.882  1.00  0.00     0.128 C 
BRANCH  76  77
ATOM     77  O   UNL     1       7.467   7.473  -2.202  1.00  0.00    -0.381 OA
ATOM     78  C   UNL     1       8.817   7.274  -2.599  1.00  0.00     0.195 C 
ENDBRANCH  76  77
BRANCH  76  79
ATOM     79  C   UNL     1       5.561   5.900  -1.910  1.00  0.00     0.068 C 
BRANCH  79  80
ATOM     80  C   UNL     1       4.865   4.654  -2.400  1.00  0.00    -0.045 A 
ATOM     81  C   UNL     1       3.469   4.601  -2.506  1.00  0.00     0.004 A 
ATOM     82  C   UNL     1       5.609   3.511  -2.730  1.00  0.00     0.004 A 
ATOM     83  C   UNL     1       2.831   3.440  -2.946  1.00  0.00     0.000 A 
ATOM     84  C   UNL     1       4.970   2.349  -3.170  1.00  0.00     0.000 A 
ATOM     85  C   UNL     1       3.582   2.314  -3.279  1.00  0.00     0.000 A 
ENDBRANCH  79  80
ENDBRANCH  76  79
ENDBRANCH  74  76
ENDBRANCH  72  74
ENDBRANCH  70  71
ENDBRANCH   1  69
TORSDOF 17
ENDMDL
MODEL 11
REMARK VINA RESULT:    -6.477      4.090     10.801
REMARK INTER + INTRA:         -25.356
REMARK INTER:                 -16.890
REMARK INTRA:                  -8.466
REMARK UNBOUND:                -6.005
REMARK SMILES C=C1C(=O)N[C@H](C)C(=O)N[C@@H](CC(C)C)C(=O)N[C@@H](C(=O)O)[C@H](C)C(=O)N[C@@H](CCCN=C(N)N)C(=O)N[C@@H](/C=C/C(C)=C/[C@H](C)[C@H](Cc2ccccc2)OC)[C@H](C)C(=O)N[C@@H](C(=O)O)CCC(=O)N1C
REMARK SMILES IDX 39 1 38 2 37 3 36 4 28 6 27 7 25 8 26 9 23 11 24 12 19 13
REMARK SMILES IDX 18 14 16 15 17 16 11 18 10 19 8 20 9 21 12 24 13 25 14 26
REMARK SMILES IDX 15 27 20 28 21 29 22 30 29 32 30 33 31 34 32 35 33 36 34 37
REMARK SMILES IDX 35 38 57 43 58 44 59 45 60 46 61 47 62 49 66 50 67 51 68 52
REMARK SMILES IDX 69 53 70 54 71 55 2 56 1 57 3 58 4 59 5 60 6 62 7 63 63 65
REMARK SMILES IDX 64 66 65 67 40 69 41 70 42 71 44 72 43 73 45 74 46 75 47 76
REMARK SMILES IDX 55 77 56 78 48 79 49 80 50 81 54 82 51 83 53 84 52 85
REMARK H PARENT 38 5 27 10 18 17 10 22 22 31 34 39 34 40 35 41 35 42 61 48
REMARK H PARENT 5 61 65 68
REMARK Flexibility Score:  369.900
ROOT
ATOM      1  C   UNL     1       2.472   3.229  -3.306  1.00  0.00     0.117 C 
ENDROOT
BRANCH   1   2
ATOM      2  N   UNL     1       1.320   3.322  -2.407  1.00  0.00    -0.347 N 
ATOM      3  O   UNL     1      -0.329   3.159  -3.995  1.00  0.00    -0.273 OA
ATOM      4  C   UNL     1       0.008   3.188  -2.816  1.00  0.00     0.243 C 
ATOM      5  H   UNL     1       1.474   3.443  -1.418  1.00  0.00     0.164 HD
BRANCH   4   6
ATOM      6  C   UNL     1      -1.016   3.241  -1.654  1.00  0.00     0.171 C 
BRANCH   6   7
ATOM      7  N   UNL     1      -1.280   4.636  -1.265  1.00  0.00    -0.344 N 
ATOM      8  C   UNL     1      -0.545   5.238  -0.266  1.00  0.00     0.226 C 
ATOM      9  O   UNL     1       0.332   4.649   0.354  1.00  0.00    -0.275 OA
ATOM     10  H   UNL     1      -2.042   5.133  -1.708  1.00  0.00     0.164 HD
BRANCH   8  11
ATOM     11  C   UNL     1      -0.900   6.693  -0.019  1.00  0.00     0.109 C 
ATOM     12  C   UNL     1      -0.762   7.495  -1.314  1.00  0.00     0.021 C 
BRANCH  11  13
ATOM     13  C   UNL     1      -2.282   6.786   0.657  1.00  0.00     0.204 C 
BRANCH  13  14
ATOM     14  N   UNL     1      -2.221   6.460   2.085  1.00  0.00    -0.340 N 
ATOM     15  C   UNL     1      -3.309   5.999   2.795  1.00  0.00     0.243 C 
ATOM     16  O   UNL     1      -4.395   5.772   2.265  1.00  0.00    -0.273 OA
ATOM     17  H   UNL     1      -1.400   6.768   2.613  1.00  0.00     0.164 HD
BRANCH  15  18
ATOM     18  C   UNL     1      -3.064   5.923   4.322  1.00  0.00     0.171 C 
BRANCH  18  19
ATOM     19  N   UNL     1      -4.090   5.036   4.866  1.00  0.00    -0.343 N 
ATOM     20  C   UNL     1      -4.930   5.435   5.888  1.00  0.00     0.242 CG0
ATOM     21  O   UNL     1      -4.767   6.502   6.476  1.00  0.00    -0.273 OA
ATOM     22  H   UNL     1      -4.189   4.100   4.491  1.00  0.00     0.164 HD
ATOM     23  G   UNL     1      -6.000   4.394   6.276  1.00  0.00     0.000 G0
ENDBRANCH  18  19
BRANCH  18  24
ATOM     24  C   UNL     1      -1.653   5.398   4.618  1.00  0.00     0.038 C 
BRANCH  24  25
ATOM     25  C   UNL     1      -0.714   6.421   5.291  1.00  0.00    -0.015 C 
ATOM     26  C   UNL     1      -1.309   7.828   5.326  1.00  0.00     0.007 C 
ATOM     27  C   UNL     1       0.629   6.448   4.556  1.00  0.00     0.007 C 
ENDBRANCH  24  25
ENDBRANCH  18  24
ENDBRANCH  15  18
ENDBRANCH  13  14
BRANCH  13  28
ATOM     28  C   UNL     1      -2.922   8.173   0.535  1.00  0.00     0.327 C 
ATOM     29  O   UNL     1      -2.583   9.180   1.137  1.00  0.00    -0.250 OA
BRANCH  28  30
ATOM     30  O   UNL     1      -4.022   8.181  -0.245  1.00  0.00    -0.480 OA
ATOM     31  H   UNL     1      -4.210   9.132  -0.386  1.00  0.00     0.296 HD
ENDBRANCH  28  30
ENDBRANCH  13  28
ENDBRANCH  11  13
ENDBRANCH   8  11
ENDBRANCH   6   7
BRANCH   6  32
ATOM     32  C   UNL     1      -2.308   2.541  -2.088  1.00  0.00     0.037 C 
BRANCH  32  33
ATOM     33  C   UNL     1      -3.469   3.528  -2.273  1.00  0.00     0.026 C 
BRANCH  33  34
ATOM     34  C   UNL     1      -3.824   3.746  -3.744  1.00  0.00     0.146 C 
BRANCH  34  35
ATOM     35  N   UNL     1      -3.828   2.458  -4.422  1.00  0.00    -0.254 NA
ATOM     36  C   UNL     1      -3.276   2.368  -5.575  1.00  0.00     0.185 C 
ATOM     37  N   UNL     1      -3.270   1.184  -6.207  1.00  0.00    -0.370 N 
ATOM     38  N   UNL     1      -2.667   3.326  -6.296  1.00  0.00    -0.370 N 
ATOM     39  H   UNL     1      -3.702   0.408  -5.722  1.00  0.00     0.159 HD
ATOM     40  H   UNL     1      -2.714   0.992  -7.022  1.00  0.00     0.159 HD
ATOM     41  H   UNL     1      -2.395   3.164  -7.252  1.00  0.00     0.159 HD
ATOM     42  H   UNL     1      -2.611   4.271  -5.950  1.00  0.00     0.159 HD
ENDBRANCH  34  35
ENDBRANCH  33  34
ENDBRANCH  32  33
ENDBRANCH   6  32
ENDBRANCH   4   6
ENDBRANCH   1   2
BRANCH   1  43
ATOM     43  C   UNL     1       3.000   1.766  -3.282  1.00  0.00     0.102 C 
ATOM     44  C   UNL     1       4.534   1.668  -3.341  1.00  0.00     0.020 C 
BRANCH  43  45
ATOM     45  C   UNL     1       2.283   0.905  -4.326  1.00  0.00     0.225 C 
ATOM     46  O   UNL     1       1.984  -0.271  -4.135  1.00  0.00    -0.275 OA
ATOM     47  N   UNL     1       2.071   1.506  -5.546  1.00  0.00    -0.342 N 
ATOM     48  H   UNL     1       2.181   2.506  -5.636  1.00  0.00     0.164 HD
BRANCH  47  49
ATOM     49  C   UNL     1       1.364   0.815  -6.628  1.00  0.00     0.192 C 
BRANCH  49  50
ATOM     50  C   UNL     1       2.349   0.470  -7.748  1.00  0.00     0.047 C 
BRANCH  50  51
ATOM     51  C   UNL     1       3.445   1.532  -7.906  1.00  0.00     0.103 C 
BRANCH  51  52
ATOM     52  C   UNL     1       3.912   1.664  -9.354  1.00  0.00     0.226 C 
ATOM     53  O   UNL     1       3.176   1.287 -10.269  1.00  0.00    -0.275 OA
BRANCH  52  54
ATOM     54  N   UNL     1       5.153   2.294  -9.558  1.00  0.00    -0.311 N 
ATOM     55  C   UNL     1       5.249   3.755  -9.683  1.00  0.00     0.153 C 
BRANCH  54  56
ATOM     56  C   UNL     1       6.345   1.554  -9.645  1.00  0.00     0.102 C 
ATOM     57  C   UNL     1       7.297   1.518  -8.699  1.00  0.00     0.043 C 
BRANCH  56  58
ATOM     58  C   UNL     1       6.626   0.675 -10.841  1.00  0.00     0.268 C 
ATOM     59  O   UNL     1       6.940   1.118 -11.937  1.00  0.00    -0.268 OA
ATOM     60  N   UNL     1       6.558  -0.667 -10.553  1.00  0.00    -0.339 N 
ATOM     61  H   UNL     1       6.280  -0.952  -9.621  1.00  0.00     0.164 HD
BRANCH  60  62
ATOM     62  C   UNL     1       6.856  -1.694 -11.550  1.00  0.00     0.168 CG0
ATOM     63  C   UNL     1       5.586  -2.410 -11.994  1.00  0.00     0.041 C 
ATOM     64  G   UNL     1       7.875  -2.696 -10.971  1.00  0.00     0.000 G0
ENDBRANCH  60  62
ENDBRANCH  56  58
ENDBRANCH  54  56
ENDBRANCH  52  54
ENDBRANCH  51  52
ENDBRANCH  50  51
ENDBRANCH  49  50
BRANCH  49  65
ATOM     65  C   UNL     1       0.224   1.673  -7.199  1.00  0.00     0.326 C 
ATOM     66  O   UNL     1      -0.673   1.271  -7.926  1.00  0.00    -0.250 OA
BRANCH  65  67
ATOM     67  O   UNL     1       0.296   2.986  -6.887  1.00  0.00    -0.480 OA
ATOM     68  H   UNL     1      -0.525   3.147  -6.374  1.00  0.00     0.296 HD
ENDBRANCH  65  67
ENDBRANCH  49  65
ENDBRANCH  47  49
ENDBRANCH  43  45
ENDBRANCH   1  43
BRANCH   1  69
ATOM     69  C   UNL     1       3.410   4.354  -2.910  1.00  0.00    -0.001 C 
ATOM     70  C   UNL     1       3.172   5.347  -2.035  1.00  0.00     0.001 C 
BRANCH  70  71
ATOM     71  C   UNL     1       4.094   6.416  -1.645  1.00  0.00    -0.055 C 
ATOM     72  C   UNL     1       4.335   6.587  -0.328  1.00  0.00    -0.018 C 
ATOM     73  C   UNL     1       4.714   7.243  -2.741  1.00  0.00     0.044 C 
BRANCH  72  74
ATOM     74  C   UNL     1       5.237   7.601   0.362  1.00  0.00     0.038 C 
ATOM     75  C   UNL     1       6.103   6.828   1.364  1.00  0.00     0.015 C 
BRANCH  74  76
ATOM     76  C   UNL     1       4.350   8.716   0.989  1.00  0.00     0.128 C 
BRANCH  76  77
ATOM     77  O   UNL     1       4.296   9.853   0.111  1.00  0.00    -0.381 OA
ATOM     78  C   UNL     1       4.877  11.027   0.662  1.00  0.00     0.195 C 
ENDBRANCH  76  77
BRANCH  76  79
ATOM     79  C   UNL     1       2.945   8.230   1.428  1.00  0.00     0.068 C 
BRANCH  79  80
ATOM     80  C   UNL     1       2.177   9.081   2.410  1.00  0.00    -0.045 A 
ATOM     81  C   UNL     1       2.729   9.429   3.650  1.00  0.00     0.004 A 
ATOM     82  C   UNL     1       0.879   9.517   2.103  1.00  0.00     0.004 A 
ATOM     83  C   UNL     1       2.006  10.205   4.558  1.00  0.00     0.000 A 
ATOM     84  C   UNL     1       0.157  10.293   3.013  1.00  0.00     0.000 A 
ATOM     85  C   UNL     1       0.721  10.638   4.239  1.00  0.00     0.000 A 
ENDBRANCH  79  80
ENDBRANCH  76  79
ENDBRANCH  74  76
ENDBRANCH  72  74
ENDBRANCH  70  71
ENDBRANCH   1  69
TORSDOF 17
ENDMDL
MODEL 12
REMARK VINA RESULT:    -6.447      2.244      2.768
REMARK INTER + INTRA:         -25.267
REMARK INTER:                 -19.282
REMARK INTRA:                  -5.985
REMARK UNBOUND:                -6.005
REMARK SMILES C=C1C(=O)N[C@H](C)C(=O)N[C@@H](CC(C)C)C(=O)N[C@@H](C(=O)O)[C@H](C)C(=O)N[C@@H](CCCN=C(N)N)C(=O)N[C@@H](/C=C/C(C)=C/[C@H](C)[C@H](Cc2ccccc2)OC)[C@H](C)C(=O)N[C@@H](C(=O)O)CCC(=O)N1C
REMARK SMILES IDX 39 1 38 2 37 3 36 4 28 6 27 7 25 8 26 9 23 11 24 12 19 13
REMARK SMILES IDX 18 14 16 15 17 16 11 18 10 19 8 20 9 21 12 24 13 25 14 26
REMARK SMILES IDX 15 27 20 28 21 29 22 30 29 32 30 33 31 34 32 35 33 36 34 37
REMARK SMILES IDX 35 38 57 43 58 44 59 45 60 46 61 47 62 49 66 50 67 51 68 52
REMARK SMILES IDX 69 53 70 54 71 55 2 56 1 57 3 58 4 59 5 60 6 62 7 63 63 65
REMARK SMILES IDX 64 66 65 67 40 69 41 70 42 71 44 72 43 73 45 74 46 75 47 76
REMARK SMILES IDX 55 77 56 78 48 79 49 80 50 81 54 82 51 83 53 84 52 85
REMARK H PARENT 38 5 27 10 18 17 10 22 22 31 34 39 34 40 35 41 35 42 61 48
REMARK H PARENT 5 61 65 68
REMARK Flexibility Score:  369.900
ROOT
ATOM      1  C   UNL     1       2.364   3.344  -3.704  1.00  0.00     0.117 C 
ENDROOT
BRANCH   1   2
ATOM      2  N   UNL     1       2.803   4.370  -2.758  1.00  0.00    -0.347 N 
ATOM      3  O   UNL     1       0.731   5.186  -2.199  1.00  0.00    -0.273 OA
ATOM      4  C   UNL     1       1.943   5.150  -2.010  1.00  0.00     0.243 C 
ATOM      5  H   UNL     1       3.789   4.498  -2.590  1.00  0.00     0.164 HD
BRANCH   4   6
ATOM      6  C   UNL     1       2.664   6.100  -1.020  1.00  0.00     0.171 C 
BRANCH   6   7
ATOM      7  N   UNL     1       4.025   6.400  -1.494  1.00  0.00    -0.344 N 
ATOM      8  C   UNL     1       5.056   6.587  -0.599  1.00  0.00     0.226 C 
ATOM      9  O   UNL     1       4.894   6.537   0.614  1.00  0.00    -0.275 OA
ATOM     10  H   UNL     1       4.183   6.517  -2.487  1.00  0.00     0.164 HD
BRANCH   8  11
ATOM     11  C   UNL     1       6.408   6.835  -1.246  1.00  0.00     0.109 C 
ATOM     12  C   UNL     1       6.452   6.195  -2.633  1.00  0.00     0.021 C 
BRANCH  11  13
ATOM     13  C   UNL     1       6.731   8.342  -1.216  1.00  0.00     0.204 C 
BRANCH  13  14
ATOM     14  N   UNL     1       6.894   8.845   0.151  1.00  0.00    -0.340 N 
ATOM     15  C   UNL     1       6.217   9.945   0.629  1.00  0.00     0.243 C 
ATOM     16  O   UNL     1       5.380  10.548  -0.040  1.00  0.00    -0.273 OA
ATOM     17  H   UNL     1       7.678   8.487   0.704  1.00  0.00     0.164 HD
BRANCH  15  18
ATOM     18  C   UNL     1       6.702  10.413   2.024  1.00  0.00     0.171 C 
BRANCH  18  19
ATOM     19  N   UNL     1       7.212  11.772   1.856  1.00  0.00    -0.343 N 
ATOM     20  C   UNL     1       8.442  12.156   2.354  1.00  0.00     0.242 CG0
ATOM     21  O   UNL     1       9.105  11.414   3.074  1.00  0.00    -0.273 OA
ATOM     22  H   UNL     1       6.648  12.458   1.366  1.00  0.00     0.164 HD
ATOM     23  G   UNL     1       8.844  13.606   2.010  1.00  0.00     0.000 G0
ENDBRANCH  18  19
BRANCH  18  24
ATOM     24  C   UNL     1       5.555  10.364   3.041  1.00  0.00     0.038 C 
BRANCH  24  25
ATOM     25  C   UNL     1       4.630   9.136   2.910  1.00  0.00    -0.015 C 
ATOM     26  C   UNL     1       3.182   9.452   3.284  1.00  0.00     0.007 C 
ATOM     27  C   UNL     1       5.154   8.001   3.794  1.00  0.00     0.007 C 
ENDBRANCH  24  25
ENDBRANCH  18  24
ENDBRANCH  15  18
ENDBRANCH  13  14
BRANCH  13  28
ATOM     28  C   UNL     1       8.006   8.701  -1.987  1.00  0.00     0.327 C 
ATOM     29  O   UNL     1       9.119   8.233  -1.800  1.00  0.00    -0.250 OA
BRANCH  28  30
ATOM     30  O   UNL     1       7.828   9.710  -2.863  1.00  0.00    -0.480 OA
ATOM     31  H   UNL     1       7.239  10.336  -2.393  1.00  0.00     0.296 HD
ENDBRANCH  28  30
ENDBRANCH  13  28
ENDBRANCH  11  13
ENDBRANCH   8  11
ENDBRANCH   6   7
BRANCH   6  32
ATOM     32  C   UNL     1       1.842   7.384  -0.865  1.00  0.00     0.037 C 
BRANCH  32  33
ATOM     33  C   UNL     1       1.488   7.672   0.601  1.00  0.00     0.026 C 
BRANCH  33  34
ATOM     34  C   UNL     1       0.994   6.426   1.339  1.00  0.00     0.146 C 
BRANCH  34  35
ATOM     35  N   UNL     1       0.471   6.826   2.638  1.00  0.00    -0.254 NA
ATOM     36  C   UNL     1       1.114   6.483   3.691  1.00  0.00     0.185 C 
ATOM     37  N   UNL     1       0.644   6.850   4.893  1.00  0.00    -0.370 N 
ATOM     38  N   UNL     1       2.251   5.772   3.792  1.00  0.00    -0.370 N 
ATOM     39  H   UNL     1      -0.207   7.399   4.900  1.00  0.00     0.159 HD
ATOM     40  H   UNL     1       1.173   6.772   5.745  1.00  0.00     0.159 HD
ATOM     41  H   UNL     1       2.584   5.447   4.685  1.00  0.00     0.159 HD
ATOM     42  H   UNL     1       2.708   5.416   2.968  1.00  0.00     0.159 HD
ENDBRANCH  34  35
ENDBRANCH  33  34
ENDBRANCH  32  33
ENDBRANCH   6  32
ENDBRANCH   4   6
ENDBRANCH   1   2
BRANCH   1  43
ATOM     43  C   UNL     1       2.170   2.008  -2.931  1.00  0.00     0.102 C 
ATOM     44  C   UNL     1       3.215   0.937  -3.286  1.00  0.00     0.020 C 
BRANCH  43  45
ATOM     45  C   UNL     1       0.722   1.519  -3.032  1.00  0.00     0.225 C 
ATOM     46  O   UNL     1       0.395   0.511  -3.652  1.00  0.00    -0.275 OA
ATOM     47  N   UNL     1      -0.222   2.339  -2.456  1.00  0.00    -0.342 N 
ATOM     48  H   UNL     1       0.071   3.073  -1.827  1.00  0.00     0.164 HD
BRANCH  47  49
ATOM     49  C   UNL     1      -1.643   1.981  -2.445  1.00  0.00     0.192 C 
BRANCH  49  50
ATOM     50  C   UNL     1      -2.480   3.185  -2.886  1.00  0.00     0.047 C 
BRANCH  50  51
ATOM     51  C   UNL     1      -3.855   2.770  -3.429  1.00  0.00     0.103 C 
BRANCH  51  52
ATOM     52  C   UNL     1      -4.998   3.423  -2.654  1.00  0.00     0.226 C 
ATOM     53  O   UNL     1      -5.605   2.774  -1.801  1.00  0.00    -0.275 OA
BRANCH  52  54
ATOM     54  N   UNL     1      -5.240   4.784  -2.921  1.00  0.00    -0.311 N 
ATOM     55  C   UNL     1      -4.793   5.828  -1.989  1.00  0.00     0.153 C 
BRANCH  54  56
ATOM     56  C   UNL     1      -5.909   5.194  -4.086  1.00  0.00     0.102 C 
ATOM     57  C   UNL     1      -5.316   5.742  -5.159  1.00  0.00     0.043 C 
BRANCH  56  58
ATOM     58  C   UNL     1      -7.399   4.996  -4.234  1.00  0.00     0.268 C 
ATOM     59  O   UNL     1      -8.180   5.064  -3.295  1.00  0.00    -0.268 OA
ATOM     60  N   UNL     1      -7.791   4.799  -5.537  1.00  0.00    -0.339 N 
ATOM     61  H   UNL     1      -7.080   4.745  -6.257  1.00  0.00     0.164 HD
BRANCH  60  62
ATOM     62  C   UNL     1      -9.195   4.647  -5.913  1.00  0.00     0.168 CG0
ATOM     63  C   UNL     1      -9.776   5.969  -6.401  1.00  0.00     0.041 C 
ATOM     64  G   UNL     1      -9.998   4.109  -4.711  1.00  0.00     0.000 G0
ENDBRANCH  60  62
ENDBRANCH  56  58
ENDBRANCH  54  56
ENDBRANCH  52  54
ENDBRANCH  51  52
ENDBRANCH  50  51
ENDBRANCH  49  50
BRANCH  49  65
ATOM     65  C   UNL     1      -2.102   1.526  -1.051  1.00  0.00     0.326 C 
ATOM     66  O   UNL     1      -2.677   2.225  -0.228  1.00  0.00    -0.250 OA
BRANCH  65  67
ATOM     67  O   UNL     1      -1.770   0.255  -0.735  1.00  0.00    -0.480 OA
ATOM     68  H   UNL     1      -2.080   0.159   0.192  1.00  0.00     0.296 HD
ENDBRANCH  65  67
ENDBRANCH  49  65
ENDBRANCH  47  49
ENDBRANCH  43  45
ENDBRANCH   1  43
BRANCH   1  69
ATOM     69  C   UNL     1       3.346   3.385  -4.860  1.00  0.00    -0.001 C 
ATOM     70  C   UNL     1       4.197   4.378  -5.174  1.00  0.00     0.001 C 
BRANCH  70  71
ATOM     71  C   UNL     1       5.156   4.398  -6.281  1.00  0.00    -0.055 C 
ATOM     72  C   UNL     1       5.123   3.373  -7.158  1.00  0.00    -0.018 C 
ATOM     73  C   UNL     1       6.106   5.564  -6.366  1.00  0.00     0.044 C 
BRANCH  72  74
ATOM     74  C   UNL     1       5.984   3.132  -8.390  1.00  0.00     0.038 C 
ATOM     75  C   UNL     1       5.559   4.157  -9.448  1.00  0.00     0.015 C 
BRANCH  74  76
ATOM     76  C   UNL     1       5.832   1.644  -8.824  1.00  0.00     0.128 C 
BRANCH  76  77
ATOM     77  O   UNL     1       4.899   1.544  -9.913  1.00  0.00    -0.381 OA
ATOM     78  C   UNL     1       3.889   0.564  -9.712  1.00  0.00     0.195 C 
ENDBRANCH  76  77
BRANCH  76  79
ATOM     79  C   UNL     1       7.177   0.933  -9.118  1.00  0.00     0.068 C 
BRANCH  79  80
ATOM     80  C   UNL     1       7.601   0.792 -10.560  1.00  0.00    -0.045 A 
ATOM     81  C   UNL     1       8.343   1.795 -11.196  1.00  0.00     0.004 A 
ATOM     82  C   UNL     1       7.230  -0.343 -11.298  1.00  0.00     0.004 A 
ATOM     83  C   UNL     1       8.719   1.663 -12.534  1.00  0.00     0.000 A 
ATOM     84  C   UNL     1       7.606  -0.474 -12.636  1.00  0.00     0.000 A 
ATOM     85  C   UNL     1       8.352   0.528 -13.254  1.00  0.00     0.000 A 
ENDBRANCH  79  80
ENDBRANCH  76  79
ENDBRANCH  74  76
ENDBRANCH  72  74
ENDBRANCH  70  71
ENDBRANCH   1  69
TORSDOF 17
ENDMDL
MODEL 13
REMARK VINA RESULT:    -6.424      3.734      5.416
REMARK INTER + INTRA:         -25.199
REMARK INTER:                 -20.293
REMARK INTRA:                  -4.905
REMARK UNBOUND:                -6.005
REMARK SMILES C=C1C(=O)N[C@H](C)C(=O)N[C@@H](CC(C)C)C(=O)N[C@@H](C(=O)O)[C@H](C)C(=O)N[C@@H](CCCN=C(N)N)C(=O)N[C@@H](/C=C/C(C)=C/[C@H](C)[C@H](Cc2ccccc2)OC)[C@H](C)C(=O)N[C@@H](C(=O)O)CCC(=O)N1C
REMARK SMILES IDX 39 1 38 2 37 3 36 4 28 6 27 7 25 8 26 9 23 11 24 12 19 13
REMARK SMILES IDX 18 14 16 15 17 16 11 18 10 19 8 20 9 21 12 24 13 25 14 26
REMARK SMILES IDX 15 27 20 28 21 29 22 30 29 32 30 33 31 34 32 35 33 36 34 37
REMARK SMILES IDX 35 38 57 43 58 44 59 45 60 46 61 47 62 49 66 50 67 51 68 52
REMARK SMILES IDX 69 53 70 54 71 55 2 56 1 57 3 58 4 59 5 60 6 62 7 63 63 65
REMARK SMILES IDX 64 66 65 67 40 69 41 70 42 71 44 72 43 73 45 74 46 75 47 76
REMARK SMILES IDX 55 77 56 78 48 79 49 80 50 81 54 82 51 83 53 84 52 85
REMARK H PARENT 38 5 27 10 18 17 10 22 22 31 34 39 34 40 35 41 35 42 61 48
REMARK H PARENT 5 61 65 68
REMARK Flexibility Score:  369.900
ROOT
ATOM      1  C   UNL     1       2.573   3.146  -4.122  1.00  0.00     0.117 C 
ENDROOT
BRANCH   1   2
ATOM      2  N   UNL     1       2.417   4.420  -3.419  1.00  0.00    -0.347 N 
ATOM      3  O   UNL     1       4.554   4.590  -2.600  1.00  0.00    -0.273 OA
ATOM      4  C   UNL     1       3.449   5.087  -2.789  1.00  0.00     0.243 C 
ATOM      5  H   UNL     1       1.520   4.881  -3.425  1.00  0.00     0.164 HD
BRANCH   4   6
ATOM      6  C   UNL     1       3.036   6.458  -2.196  1.00  0.00     0.171 C 
BRANCH   6   7
ATOM      7  N   UNL     1       4.016   6.901  -1.192  1.00  0.00    -0.344 N 
ATOM      8  C   UNL     1       3.613   7.236   0.083  1.00  0.00     0.226 C 
ATOM      9  O   UNL     1       2.440   7.205   0.434  1.00  0.00    -0.275 OA
ATOM     10  H   UNL     1       4.985   7.003  -1.464  1.00  0.00     0.164 HD
BRANCH   8  11
ATOM     11  C   UNL     1       4.748   7.620   1.016  1.00  0.00     0.109 C 
ATOM     12  C   UNL     1       6.004   7.949   0.210  1.00  0.00     0.021 C 
BRANCH  11  13
ATOM     13  C   UNL     1       4.281   8.734   1.974  1.00  0.00     0.204 C 
BRANCH  13  14
ATOM     14  N   UNL     1       3.641   8.195   3.178  1.00  0.00    -0.340 N 
ATOM     15  C   UNL     1       2.350   8.509   3.543  1.00  0.00     0.243 C 
ATOM     16  O   UNL     1       1.622   9.218   2.851  1.00  0.00    -0.273 OA
ATOM     17  H   UNL     1       4.234   7.727   3.869  1.00  0.00     0.164 HD
BRANCH  15  18
ATOM     18  C   UNL     1       1.963   7.993   4.951  1.00  0.00     0.171 C 
BRANCH  18  19
ATOM     19  N   UNL     1       1.045   8.978   5.520  1.00  0.00    -0.343 N 
ATOM     20  C   UNL     1       1.473   9.942   6.413  1.00  0.00     0.242 CG0
ATOM     21  O   UNL     1       2.613   9.934   6.871  1.00  0.00    -0.273 OA
ATOM     22  H   UNL     1       0.066   8.953   5.261  1.00  0.00     0.164 HD
ATOM     23  G   UNL     1       0.379  10.941   6.844  1.00  0.00     0.000 G0
ENDBRANCH  18  19
BRANCH  18  24
ATOM     24  C   UNL     1       1.313   6.607   4.859  1.00  0.00     0.038 C 
BRANCH  24  25
ATOM     25  C   UNL     1      -0.152   6.612   4.372  1.00  0.00    -0.015 C 
ATOM     26  C   UNL     1      -1.057   5.729   5.231  1.00  0.00     0.007 C 
ATOM     27  C   UNL     1      -0.211   6.148   2.915  1.00  0.00     0.007 C 
ENDBRANCH  24  25
ENDBRANCH  18  24
ENDBRANCH  15  18
ENDBRANCH  13  14
BRANCH  13  28
ATOM     28  C   UNL     1       5.419   9.649   2.436  1.00  0.00     0.327 C 
ATOM     29  O   UNL     1       6.216   9.415   3.332  1.00  0.00    -0.250 OA
BRANCH  28  30
ATOM     30  O   UNL     1       5.413  10.851   1.824  1.00  0.00    -0.480 OA
ATOM     31  H   UNL     1       5.905  11.436   2.438  1.00  0.00     0.296 HD
ENDBRANCH  28  30
ENDBRANCH  13  28
ENDBRANCH  11  13
ENDBRANCH   8  11
ENDBRANCH   6   7
BRANCH   6  32
ATOM     32  C   UNL     1       2.914   7.481  -3.331  1.00  0.00     0.037 C 
BRANCH  32  33
ATOM     33  C   UNL     1       4.093   8.463  -3.354  1.00  0.00     0.026 C 
BRANCH  33  34
ATOM     34  C   UNL     1       5.218   8.006  -4.284  1.00  0.00     0.146 C 
BRANCH  34  35
ATOM     35  N   UNL     1       6.319   7.499  -3.476  1.00  0.00    -0.254 NA
ATOM     36  C   UNL     1       7.445   8.108  -3.522  1.00  0.00     0.185 C 
ATOM     37  N   UNL     1       8.465   7.653  -2.778  1.00  0.00    -0.370 N 
ATOM     38  N   UNL     1       7.791   9.193  -4.238  1.00  0.00    -0.370 N 
ATOM     39  H   UNL     1       8.280   6.842  -2.201  1.00  0.00     0.159 HD
ATOM     40  H   UNL     1       9.315   8.168  -2.625  1.00  0.00     0.159 HD
ATOM     41  H   UNL     1       8.750   9.495  -4.296  1.00  0.00     0.159 HD
ATOM     42  H   UNL     1       7.126   9.632  -4.856  1.00  0.00     0.159 HD
ENDBRANCH  34  35
ENDBRANCH  33  34
ENDBRANCH  32  33
ENDBRANCH   6  32
ENDBRANCH   4   6
ENDBRANCH   1   2
BRANCH   1  43
ATOM     43  C   UNL     1       2.881   2.037  -3.074  1.00  0.00     0.102 C 
ATOM     44  C   UNL     1       4.215   1.314  -3.323  1.00  0.00     0.020 C 
BRANCH  43  45
ATOM     45  C   UNL     1       1.686   1.094  -2.904  1.00  0.00     0.225 C 
ATOM     46  O   UNL     1       1.801  -0.123  -2.799  1.00  0.00    -0.275 OA
ATOM     47  N   UNL     1       0.447   1.691  -2.969  1.00  0.00    -0.342 N 
ATOM     48  H   UNL     1       0.372   2.696  -2.902  1.00  0.00     0.164 HD
BRANCH  47  49
ATOM     49  C   UNL     1      -0.786   0.918  -2.786  1.00  0.00     0.192 C 
BRANCH  49  50
ATOM     50  C   UNL     1      -1.765   1.238  -3.919  1.00  0.00     0.047 C 
BRANCH  50  51
ATOM     51  C   UNL     1      -1.201   2.272  -4.902  1.00  0.00     0.103 C 
BRANCH  51  52
ATOM     52  C   UNL     1      -1.862   2.179  -6.275  1.00  0.00     0.226 C 
ATOM     53  O   UNL     1      -2.892   2.817  -6.501  1.00  0.00    -0.275 OA
BRANCH  52  54
ATOM     54  N   UNL     1      -1.192   1.407  -7.242  1.00  0.00    -0.311 N 
ATOM     55  C   UNL     1      -0.223   2.019  -8.160  1.00  0.00     0.153 C 
BRANCH  54  56
ATOM     56  C   UNL     1      -1.419   0.026  -7.362  1.00  0.00     0.102 C 
ATOM     57  C   UNL     1      -0.686  -0.928  -6.766  1.00  0.00     0.043 C 
BRANCH  56  58
ATOM     58  C   UNL     1      -2.582  -0.501  -8.170  1.00  0.00     0.268 C 
ATOM     59  O   UNL     1      -2.561  -0.596  -9.390  1.00  0.00    -0.268 OA
ATOM     60  N   UNL     1      -3.633  -0.923  -7.392  1.00  0.00    -0.339 N 
ATOM     61  H   UNL     1      -3.576  -0.800  -6.388  1.00  0.00     0.164 HD
BRANCH  60  62
ATOM     62  C   UNL     1      -4.835  -1.525  -7.967  1.00  0.00     0.168 CG0
ATOM     63  C   UNL     1      -5.480  -2.499  -6.989  1.00  0.00     0.041 C 
ATOM     64  G   UNL     1      -4.476  -2.236  -9.288  1.00  0.00     0.000 G0
ENDBRANCH  60  62
ENDBRANCH  56  58
ENDBRANCH  54  56
ENDBRANCH  52  54
ENDBRANCH  51  52
ENDBRANCH  50  51
ENDBRANCH  49  50
BRANCH  49  65
ATOM     65  C   UNL     1      -1.452   1.224  -1.436  1.00  0.00     0.326 C 
ATOM     66  O   UNL     1      -1.691   2.340  -0.998  1.00  0.00    -0.250 OA
BRANCH  65  67
ATOM     67  O   UNL     1      -1.726   0.135  -0.683  1.00  0.00    -0.480 OA
ATOM     68  H   UNL     1      -2.699   0.174  -0.566  1.00  0.00     0.296 HD
ENDBRANCH  65  67
ENDBRANCH  49  65
ENDBRANCH  47  49
ENDBRANCH  43  45
ENDBRANCH   1  43
BRANCH   1  69
ATOM     69  C   UNL     1       3.570   3.397  -5.239  1.00  0.00    -0.001 C 
ATOM     70  C   UNL     1       3.517   2.934  -6.500  1.00  0.00     0.001 C 
BRANCH  70  71
ATOM     71  C   UNL     1       4.474   3.201  -7.576  1.00  0.00    -0.055 C 
ATOM     72  C   UNL     1       5.786   3.046  -7.301  1.00  0.00    -0.018 C 
ATOM     73  C   UNL     1       3.927   3.622  -8.915  1.00  0.00     0.044 C 
BRANCH  72  74
ATOM     74  C   UNL     1       6.991   3.246  -8.209  1.00  0.00     0.038 C 
ATOM     75  C   UNL     1       7.278   4.751  -8.255  1.00  0.00     0.015 C 
BRANCH  74  76
ATOM     76  C   UNL     1       6.689   2.596  -9.592  1.00  0.00     0.128 C 
BRANCH  76  77
ATOM     77  O   UNL     1       6.965   3.534 -10.646  1.00  0.00    -0.381 OA
ATOM     78  C   UNL     1       5.996   3.526 -11.685  1.00  0.00     0.195 C 
ENDBRANCH  76  77
BRANCH  76  79
ATOM     79  C   UNL     1       7.384   1.228  -9.809  1.00  0.00     0.068 C 
BRANCH  79  80
ATOM     80  C   UNL     1       6.570   0.110 -10.415  1.00  0.00    -0.045 A 
ATOM     81  C   UNL     1       7.185  -0.926 -11.130  1.00  0.00     0.004 A 
ATOM     82  C   UNL     1       5.172   0.108 -10.295  1.00  0.00     0.004 A 
ATOM     83  C   UNL     1       6.424  -1.949 -11.700  1.00  0.00     0.000 A 
ATOM     84  C   UNL     1       4.411  -0.915 -10.866  1.00  0.00     0.000 A 
ATOM     85  C   UNL     1       5.037  -1.943 -11.566  1.00  0.00     0.000 A 
ENDBRANCH  79  80
ENDBRANCH  76  79
ENDBRANCH  74  76
ENDBRANCH  72  74
ENDBRANCH  70  71
ENDBRANCH   1  69
TORSDOF 17
ENDMDL
MODEL 14
REMARK VINA RESULT:    -6.418      2.187      3.244
REMARK INTER + INTRA:         -25.180
REMARK INTER:                 -18.970
REMARK INTRA:                  -6.210
REMARK UNBOUND:                -6.005
REMARK SMILES C=C1C(=O)N[C@H](C)C(=O)N[C@@H](CC(C)C)C(=O)N[C@@H](C(=O)O)[C@H](C)C(=O)N[C@@H](CCCN=C(N)N)C(=O)N[C@@H](/C=C/C(C)=C/[C@H](C)[C@H](Cc2ccccc2)OC)[C@H](C)C(=O)N[C@@H](C(=O)O)CCC(=O)N1C
REMARK SMILES IDX 39 1 38 2 37 3 36 4 28 6 27 7 25 8 26 9 23 11 24 12 19 13
REMARK SMILES IDX 18 14 16 15 17 16 11 18 10 19 8 20 9 21 12 24 13 25 14 26
REMARK SMILES IDX 15 27 20 28 21 29 22 30 29 32 30 33 31 34 32 35 33 36 34 37
REMARK SMILES IDX 35 38 57 43 58 44 59 45 60 46 61 47 62 49 66 50 67 51 68 52
REMARK SMILES IDX 69 53 70 54 71 55 2 56 1 57 3 58 4 59 5 60 6 62 7 63 63 65
REMARK SMILES IDX 64 66 65 67 40 69 41 70 42 71 44 72 43 73 45 74 46 75 47 76
REMARK SMILES IDX 55 77 56 78 48 79 49 80 50 81 54 82 51 83 53 84 52 85
REMARK H PARENT 38 5 27 10 18 17 10 22 22 31 34 39 34 40 35 41 35 42 61 48
REMARK H PARENT 5 61 65 68
REMARK Flexibility Score:  369.900
ROOT
ATOM      1  C   UNL     1      -0.132   3.714  -2.806  1.00  0.00     0.117 C 
ENDROOT
BRANCH   1   2
ATOM      2  N   UNL     1       0.475   4.332  -1.627  1.00  0.00    -0.347 N 
ATOM      3  O   UNL     1      -0.224   6.486  -2.007  1.00  0.00    -0.273 OA
ATOM      4  C   UNL     1       0.303   5.656  -1.273  1.00  0.00     0.243 C 
ATOM      5  H   UNL     1       1.017   3.763  -0.994  1.00  0.00     0.164 HD
BRANCH   4   6
ATOM      6  C   UNL     1       0.982   6.037   0.068  1.00  0.00     0.171 C 
BRANCH   6   7
ATOM      7  N   UNL     1       1.888   7.181  -0.121  1.00  0.00    -0.344 N 
ATOM      8  C   UNL     1       3.138   7.003  -0.673  1.00  0.00     0.226 C 
ATOM      9  O   UNL     1       3.563   5.903  -1.007  1.00  0.00    -0.275 OA
ATOM     10  H   UNL     1       1.599   8.094   0.205  1.00  0.00     0.164 HD
BRANCH   8  11
ATOM     11  C   UNL     1       3.931   8.286  -0.852  1.00  0.00     0.109 C 
ATOM     12  C   UNL     1       2.983   9.482  -0.941  1.00  0.00     0.021 C 
BRANCH  11  13
ATOM     13  C   UNL     1       5.007   8.392   0.247  1.00  0.00     0.204 C 
BRANCH  13  14
ATOM     14  N   UNL     1       4.598   7.723   1.486  1.00  0.00    -0.340 N 
ATOM     15  C   UNL     1       4.411   8.396   2.674  1.00  0.00     0.243 C 
ATOM     16  O   UNL     1       4.514   9.618   2.764  1.00  0.00    -0.273 OA
ATOM     17  H   UNL     1       4.643   6.701   1.517  1.00  0.00     0.164 HD
BRANCH  15  18
ATOM     18  C   UNL     1       4.187   7.460   3.887  1.00  0.00     0.171 C 
BRANCH  18  19
ATOM     19  N   UNL     1       5.473   7.349   4.572  1.00  0.00    -0.343 N 
ATOM     20  C   UNL     1       6.479   6.524   4.107  1.00  0.00     0.242 CG0
ATOM     21  O   UNL     1       6.292   5.746   3.173  1.00  0.00    -0.273 OA
ATOM     22  H   UNL     1       5.634   7.885   5.417  1.00  0.00     0.164 HD
ATOM     23  G   UNL     1       7.790   6.598   4.916  1.00  0.00     0.000 G0
ENDBRANCH  18  19
BRANCH  18  24
ATOM     24  C   UNL     1       3.103   8.024   4.813  1.00  0.00     0.038 C 
BRANCH  24  25
ATOM     25  C   UNL     1       1.889   7.094   5.025  1.00  0.00    -0.015 C 
ATOM     26  C   UNL     1       1.983   5.811   4.199  1.00  0.00     0.007 C 
ATOM     27  C   UNL     1       0.601   7.841   4.672  1.00  0.00     0.007 C 
ENDBRANCH  24  25
ENDBRANCH  18  24
ENDBRANCH  15  18
ENDBRANCH  13  14
BRANCH  13  28
ATOM     28  C   UNL     1       6.355   7.795  -0.168  1.00  0.00     0.327 C 
ATOM     29  O   UNL     1       7.218   8.350  -0.831  1.00  0.00    -0.250 OA
BRANCH  28  30
ATOM     30  O   UNL     1       6.486   6.497   0.173  1.00  0.00    -0.480 OA
ATOM     31  H   UNL     1       6.179   6.461   1.103  1.00  0.00     0.296 HD
ENDBRANCH  28  30
ENDBRANCH  13  28
ENDBRANCH  11  13
ENDBRANCH   8  11
ENDBRANCH   6   7
BRANCH   6  32
ATOM     32  C   UNL     1      -0.099   6.360   1.106  1.00  0.00     0.037 C 
BRANCH  32  33
ATOM     33  C   UNL     1      -1.163   5.257   1.196  1.00  0.00     0.026 C 
BRANCH  33  34
ATOM     34  C   UNL     1      -2.230   5.559   2.250  1.00  0.00     0.146 C 
BRANCH  34  35
ATOM     35  N   UNL     1      -2.895   4.315   2.614  1.00  0.00    -0.254 NA
ATOM     36  C   UNL     1      -2.977   4.003   3.853  1.00  0.00     0.185 C 
ATOM     37  N   UNL     1      -3.592   2.862   4.200  1.00  0.00    -0.370 N 
ATOM     38  N   UNL     1      -2.520   4.673   4.926  1.00  0.00    -0.370 N 
ATOM     39  H   UNL     1      -3.974   2.304   3.447  1.00  0.00     0.159 HD
ATOM     40  H   UNL     1      -3.849   2.634   5.145  1.00  0.00     0.159 HD
ATOM     41  H   UNL     1      -2.523   4.255   5.842  1.00  0.00     0.159 HD
ATOM     42  H   UNL     1      -2.022   5.542   4.813  1.00  0.00     0.159 HD
ENDBRANCH  34  35
ENDBRANCH  33  34
ENDBRANCH  32  33
ENDBRANCH   6  32
ENDBRANCH   4   6
ENDBRANCH   1   2
BRANCH   1  43
ATOM     43  C   UNL     1      -1.248   2.738  -2.335  1.00  0.00     0.102 C 
ATOM     44  C   UNL     1      -1.356   1.469  -3.197  1.00  0.00     0.020 C 
BRANCH  43  45
ATOM     45  C   UNL     1      -2.577   3.474  -2.143  1.00  0.00     0.225 C 
ATOM     46  O   UNL     1      -3.560   2.958  -1.619  1.00  0.00    -0.275 OA
ATOM     47  N   UNL     1      -2.638   4.738  -2.684  1.00  0.00    -0.342 N 
ATOM     48  H   UNL     1      -1.787   5.201  -2.972  1.00  0.00     0.164 HD
BRANCH  47  49
ATOM     49  C   UNL     1      -3.835   5.574  -2.547  1.00  0.00     0.192 C 
BRANCH  49  50
ATOM     50  C   UNL     1      -3.770   6.733  -3.545  1.00  0.00     0.047 C 
BRANCH  50  51
ATOM     51  C   UNL     1      -4.754   6.553  -4.710  1.00  0.00     0.103 C 
BRANCH  51  52
ATOM     52  C   UNL     1      -6.189   6.883  -4.305  1.00  0.00     0.226 C 
ATOM     53  O   UNL     1      -6.445   7.982  -3.809  1.00  0.00    -0.275 OA
BRANCH  52  54
ATOM     54  N   UNL     1      -7.163   5.912  -4.602  1.00  0.00    -0.311 N 
ATOM     55  C   UNL     1      -8.389   5.801  -3.800  1.00  0.00     0.153 C 
BRANCH  54  56
ATOM     56  C   UNL     1      -7.004   5.020  -5.675  1.00  0.00     0.102 C 
ATOM     57  C   UNL     1      -6.715   3.714  -5.552  1.00  0.00     0.043 C 
BRANCH  56  58
ATOM     58  C   UNL     1      -7.201   5.479  -7.101  1.00  0.00     0.268 C 
ATOM     59  O   UNL     1      -6.440   6.252  -7.666  1.00  0.00    -0.268 OA
ATOM     60  N   UNL     1      -8.281   4.890  -7.714  1.00  0.00    -0.339 N 
ATOM     61  H   UNL     1      -8.869   4.268  -7.172  1.00  0.00     0.164 HD
BRANCH  60  62
ATOM     62  C   UNL     1      -8.617   5.145  -9.114  1.00  0.00     0.168 CG0
ATOM     63  C   UNL     1     -10.020   4.648  -9.439  1.00  0.00     0.041 C 
ATOM     64  G   UNL     1      -7.574   4.471 -10.027  1.00  0.00     0.000 G0
ENDBRANCH  60  62
ENDBRANCH  56  58
ENDBRANCH  54  56
ENDBRANCH  52  54
ENDBRANCH  51  52
ENDBRANCH  50  51
ENDBRANCH  49  50
BRANCH  49  65
ATOM     65  C   UNL     1      -3.973   6.136  -1.123  1.00  0.00     0.326 C 
ATOM     66  O   UNL     1      -3.410   7.133  -0.695  1.00  0.00    -0.250 OA
BRANCH  65  67
ATOM     67  O   UNL     1      -4.749   5.398  -0.299  1.00  0.00    -0.480 OA
ATOM     68  H   UNL     1      -5.421   5.010  -0.899  1.00  0.00     0.296 HD
ENDBRANCH  65  67
ENDBRANCH  49  65
ENDBRANCH  47  49
ENDBRANCH  43  45
ENDBRANCH   1  43
BRANCH   1  69
ATOM     69  C   UNL     1       1.016   3.170  -3.638  1.00  0.00    -0.001 C 
ATOM     70  C   UNL     1       2.236   2.806  -3.206  1.00  0.00     0.001 C 
BRANCH  70  71
ATOM     71  C   UNL     1       3.329   2.262  -4.015  1.00  0.00    -0.055 C 
ATOM     72  C   UNL     1       3.284   2.464  -5.349  1.00  0.00    -0.018 C 
ATOM     73  C   UNL     1       4.430   1.521  -3.301  1.00  0.00     0.044 C 
BRANCH  72  74
ATOM     74  C   UNL     1       4.267   2.024  -6.424  1.00  0.00     0.038 C 
ATOM     75  C   UNL     1       5.293   3.152  -6.589  1.00  0.00     0.015 C 
BRANCH  74  76
ATOM     76  C   UNL     1       3.472   1.669  -7.715  1.00  0.00     0.128 C 
BRANCH  76  77
ATOM     77  O   UNL     1       2.133   2.185  -7.624  1.00  0.00    -0.381 OA
ATOM     78  C   UNL     1       1.758   2.994  -8.730  1.00  0.00     0.195 C 
ENDBRANCH  76  77
BRANCH  76  79
ATOM     79  C   UNL     1       4.186   2.081  -9.027  1.00  0.00     0.068 C 
BRANCH  79  80
ATOM     80  C   UNL     1       5.031   1.045  -9.727  1.00  0.00    -0.045 A 
ATOM     81  C   UNL     1       4.441  -0.016 -10.426  1.00  0.00     0.004 A 
ATOM     82  C   UNL     1       6.431   1.114  -9.665  1.00  0.00     0.004 A 
ATOM     83  C   UNL     1       5.230  -0.979 -11.059  1.00  0.00     0.000 A 
ATOM     84  C   UNL     1       7.219   0.151 -10.298  1.00  0.00     0.000 A 
ATOM     85  C   UNL     1       6.619  -0.894 -10.996  1.00  0.00     0.000 A 
ENDBRANCH  79  80
ENDBRANCH  76  79
ENDBRANCH  74  76
ENDBRANCH  72  74
ENDBRANCH  70  71
ENDBRANCH   1  69
TORSDOF 17
ENDMDL
MODEL 15
REMARK VINA RESULT:    -6.316      5.507     12.307
REMARK INTER + INTRA:         -24.875
REMARK INTER:                 -17.321
REMARK INTRA:                  -7.554
REMARK UNBOUND:                -6.005
REMARK SMILES C=C1C(=O)N[C@H](C)C(=O)N[C@@H](CC(C)C)C(=O)N[C@@H](C(=O)O)[C@H](C)C(=O)N[C@@H](CCCN=C(N)N)C(=O)N[C@@H](/C=C/C(C)=C/[C@H](C)[C@H](Cc2ccccc2)OC)[C@H](C)C(=O)N[C@@H](C(=O)O)CCC(=O)N1C
REMARK SMILES IDX 39 1 38 2 37 3 36 4 28 6 27 7 25 8 26 9 23 11 24 12 19 13
REMARK SMILES IDX 18 14 16 15 17 16 11 18 10 19 8 20 9 21 12 24 13 25 14 26
REMARK SMILES IDX 15 27 20 28 21 29 22 30 29 32 30 33 31 34 32 35 33 36 34 37
REMARK SMILES IDX 35 38 57 43 58 44 59 45 60 46 61 47 62 49 66 50 67 51 68 52
REMARK SMILES IDX 69 53 70 54 71 55 2 56 1 57 3 58 4 59 5 60 6 62 7 63 63 65
REMARK SMILES IDX 64 66 65 67 40 69 41 70 42 71 44 72 43 73 45 74 46 75 47 76
REMARK SMILES IDX 55 77 56 78 48 79 49 80 50 81 54 82 51 83 53 84 52 85
REMARK H PARENT 38 5 27 10 18 17 10 22 22 31 34 39 34 40 35 41 35 42 61 48
REMARK H PARENT 5 61 65 68
REMARK Flexibility Score:  369.900
ROOT
ATOM      1  C   UNL     1       3.600   3.823 -10.742  1.00  0.00     0.117 C 
ENDROOT
BRANCH   1   2
ATOM      2  N   UNL     1       3.482   3.561  -9.307  1.00  0.00    -0.347 N 
ATOM      3  O   UNL     1       1.604   4.820  -8.912  1.00  0.00    -0.273 OA
ATOM      4  C   UNL     1       2.437   4.008  -8.522  1.00  0.00     0.243 C 
ATOM      5  H   UNL     1       4.169   2.978  -8.853  1.00  0.00     0.164 HD
BRANCH   4   6
ATOM      6  C   UNL     1       2.506   3.519  -7.053  1.00  0.00     0.171 C 
BRANCH   6   7
ATOM      7  N   UNL     1       2.073   2.116  -6.957  1.00  0.00    -0.344 N 
ATOM      8  C   UNL     1       0.747   1.777  -7.122  1.00  0.00     0.226 C 
ATOM      9  O   UNL     1      -0.126   2.611  -7.330  1.00  0.00    -0.275 OA
ATOM     10  H   UNL     1       2.755   1.407  -6.720  1.00  0.00     0.164 HD
BRANCH   8  11
ATOM     11  C   UNL     1       0.469   0.286  -7.049  1.00  0.00     0.109 C 
ATOM     12  C   UNL     1       1.682  -0.448  -6.479  1.00  0.00     0.021 C 
BRANCH  11  13
ATOM     13  C   UNL     1      -0.852   0.039  -6.293  1.00  0.00     0.204 C 
BRANCH  13  14
ATOM     14  N   UNL     1      -1.443   1.284  -5.792  1.00  0.00    -0.340 N 
ATOM     15  C   UNL     1      -1.647   1.530  -4.452  1.00  0.00     0.243 C 
ATOM     16  O   UNL     1      -1.291   0.745  -3.575  1.00  0.00    -0.273 OA
ATOM     17  H   UNL     1      -1.895   1.907  -6.468  1.00  0.00     0.164 HD
BRANCH  15  18
ATOM     18  C   UNL     1      -2.470   2.813  -4.177  1.00  0.00     0.171 C 
BRANCH  18  19
ATOM     19  N   UNL     1      -3.869   2.401  -4.087  1.00  0.00    -0.343 N 
ATOM     20  C   UNL     1      -4.800   2.769  -5.039  1.00  0.00     0.242 CG0
ATOM     21  O   UNL     1      -4.526   3.568  -5.932  1.00  0.00    -0.273 OA
ATOM     22  H   UNL     1      -4.172   1.834  -3.303  1.00  0.00     0.164 HD
ATOM     23  G   UNL     1      -6.206   2.175  -4.819  1.00  0.00     0.000 G0
ENDBRANCH  18  19
BRANCH  18  24
ATOM     24  C   UNL     1      -2.000   3.491  -2.884  1.00  0.00     0.038 C 
BRANCH  24  25
ATOM     25  C   UNL     1      -3.007   3.422  -1.717  1.00  0.00    -0.015 C 
ATOM     26  C   UNL     1      -3.226   4.781  -1.051  1.00  0.00     0.007 C 
ATOM     27  C   UNL     1      -2.521   2.411  -0.676  1.00  0.00     0.007 C 
ENDBRANCH  24  25
ENDBRANCH  18  24
ENDBRANCH  15  18
ENDBRANCH  13  14
BRANCH  13  28
ATOM     28  C   UNL     1      -1.916  -0.656  -7.147  1.00  0.00     0.327 C 
ATOM     29  O   UNL     1      -1.972  -0.663  -8.368  1.00  0.00    -0.250 OA
BRANCH  28  30
ATOM     30  O   UNL     1      -2.910  -1.200  -6.416  1.00  0.00    -0.480 OA
ATOM     31  H   UNL     1      -3.724  -0.782  -6.766  1.00  0.00     0.296 HD
ENDBRANCH  28  30
ENDBRANCH  13  28
ENDBRANCH  11  13
ENDBRANCH   8  11
ENDBRANCH   6   7
BRANCH   6  32
ATOM     32  C   UNL     1       3.939   3.686  -6.535  1.00  0.00     0.037 C 
BRANCH  32  33
ATOM     33  C   UNL     1       4.488   2.389  -5.923  1.00  0.00     0.026 C 
BRANCH  33  34
ATOM     34  C   UNL     1       4.328   2.345  -4.403  1.00  0.00     0.146 C 
BRANCH  34  35
ATOM     35  N   UNL     1       3.010   1.814  -4.085  1.00  0.00    -0.254 NA
ATOM     36  C   UNL     1       2.893   1.013  -3.092  1.00  0.00     0.185 C 
ATOM     37  N   UNL     1       1.682   0.522  -2.787  1.00  0.00    -0.370 N 
ATOM     38  N   UNL     1       3.844   0.560  -2.256  1.00  0.00    -0.370 N 
ATOM     39  H   UNL     1       0.910   0.826  -3.365  1.00  0.00     0.159 HD
ATOM     40  H   UNL     1       1.480   0.035  -1.931  1.00  0.00     0.159 HD
ATOM     41  H   UNL     1       3.651  -0.177  -1.598  1.00  0.00     0.159 HD
ATOM     42  H   UNL     1       4.807   0.835  -2.377  1.00  0.00     0.159 HD
ENDBRANCH  34  35
ENDBRANCH  33  34
ENDBRANCH  32  33
ENDBRANCH   6  32
ENDBRANCH   4   6
ENDBRANCH   1   2
BRANCH   1  43
ATOM     43  C   UNL     1       3.283   2.509 -11.513  1.00  0.00     0.102 C 
ATOM     44  C   UNL     1       1.805   2.380 -11.921  1.00  0.00     0.020 C 
BRANCH  43  45
ATOM     45  C   UNL     1       3.831   1.288 -10.768  1.00  0.00     0.225 C 
ATOM     46  O   UNL     1       3.255   0.769  -9.817  1.00  0.00    -0.275 OA
ATOM     47  N   UNL     1       5.073   0.856 -11.174  1.00  0.00    -0.342 N 
ATOM     48  H   UNL     1       5.460   1.191 -12.045  1.00  0.00     0.164 HD
BRANCH  47  49
ATOM     49  C   UNL     1       5.706  -0.323 -10.576  1.00  0.00     0.192 C 
BRANCH  49  50
ATOM     50  C   UNL     1       7.229  -0.189 -10.661  1.00  0.00     0.047 C 
BRANCH  50  51
ATOM     51  C   UNL     1       7.661   1.143 -11.291  1.00  0.00     0.103 C 
BRANCH  51  52
ATOM     52  C   UNL     1       8.346   0.943 -12.641  1.00  0.00     0.226 C 
ATOM     53  O   UNL     1       7.972   0.036 -13.387  1.00  0.00    -0.275 OA
BRANCH  52  54
ATOM     54  N   UNL     1       9.336   1.882 -12.986  1.00  0.00    -0.311 N 
ATOM     55  C   UNL     1      10.263   2.409 -11.976  1.00  0.00     0.153 C 
BRANCH  54  56
ATOM     56  C   UNL     1       9.480   2.344 -14.305  1.00  0.00     0.102 C 
ATOM     57  C   UNL     1       8.851   3.414 -14.817  1.00  0.00     0.043 C 
BRANCH  56  58
ATOM     58  C   UNL     1      10.428   1.665 -15.265  1.00  0.00     0.268 C 
ATOM     59  O   UNL     1      10.265   0.522 -15.672  1.00  0.00    -0.268 OA
ATOM     60  N   UNL     1      11.451   2.482 -15.683  1.00  0.00    -0.339 N 
ATOM     61  H   UNL     1      11.522   3.413 -15.290  1.00  0.00     0.164 HD
BRANCH  60  62
ATOM     62  C   UNL     1      12.447   2.046 -16.661  1.00  0.00     0.168 CG0
ATOM     63  C   UNL     1      13.842   2.024 -16.049  1.00  0.00     0.041 C 
ATOM     64  G   UNL     1      12.404   2.975 -17.891  1.00  0.00     0.000 G0
ENDBRANCH  60  62
ENDBRANCH  56  58
ENDBRANCH  54  56
ENDBRANCH  52  54
ENDBRANCH  51  52
ENDBRANCH  50  51
ENDBRANCH  49  50
BRANCH  49  65
ATOM     65  C   UNL     1       5.270  -1.619 -11.278  1.00  0.00     0.326 C 
ATOM     66  O   UNL     1       5.766  -2.077 -12.297  1.00  0.00    -0.250 OA
BRANCH  65  67
ATOM     67  O   UNL     1       4.209  -2.236 -10.712  1.00  0.00    -0.480 OA
ATOM     68  H   UNL     1       3.453  -1.655 -10.942  1.00  0.00     0.296 HD
ENDBRANCH  65  67
ENDBRANCH  49  65
ENDBRANCH  47  49
ENDBRANCH  43  45
ENDBRANCH   1  43
BRANCH   1  69
ATOM     69  C   UNL     1       4.952   4.483 -10.943  1.00  0.00    -0.001 C 
ATOM     70  C   UNL     1       6.065   4.304 -10.210  1.00  0.00     0.001 C 
BRANCH  70  71
ATOM     71  C   UNL     1       7.371   4.931 -10.427  1.00  0.00    -0.055 C 
ATOM     72  C   UNL     1       8.329   4.721  -9.500  1.00  0.00    -0.018 C 
ATOM     73  C   UNL     1       7.554   5.760 -11.671  1.00  0.00     0.044 C 
BRANCH  72  74
ATOM     74  C   UNL     1       9.761   5.235  -9.462  1.00  0.00     0.038 C 
ATOM     75  C   UNL     1      10.637   4.096  -8.926  1.00  0.00     0.015 C 
BRANCH  74  76
ATOM     76  C   UNL     1       9.802   6.543  -8.618  1.00  0.00     0.128 C 
BRANCH  76  77
ATOM     77  O   UNL     1       9.586   7.682  -9.467  1.00  0.00    -0.381 OA
ATOM     78  C   UNL     1      10.572   7.836 -10.479  1.00  0.00     0.195 C 
ENDBRANCH  76  77
BRANCH  76  79
ATOM     79  C   UNL     1       8.863   6.526  -7.386  1.00  0.00     0.068 C 
BRANCH  79  80
ATOM     80  C   UNL     1       7.804   7.598  -7.289  1.00  0.00    -0.045 A 
ATOM     81  C   UNL     1       8.115   8.879  -6.815  1.00  0.00     0.004 A 
ATOM     82  C   UNL     1       6.478   7.316  -7.650  1.00  0.00     0.004 A 
ATOM     83  C   UNL     1       7.127   9.861  -6.715  1.00  0.00     0.000 A 
ATOM     84  C   UNL     1       5.490   8.299  -7.549  1.00  0.00     0.000 A 
ATOM     85  C   UNL     1       5.815   9.571  -7.084  1.00  0.00     0.000 A 
ENDBRANCH  79  80
ENDBRANCH  76  79
ENDBRANCH  74  76
ENDBRANCH  72  74
ENDBRANCH  70  71
ENDBRANCH   1  69
TORSDOF 17
ENDMDL
MODEL 16
REMARK VINA RESULT:    -6.262      4.032      9.941
REMARK INTER + INTRA:         -24.715
REMARK INTER:                 -16.666
REMARK INTRA:                  -8.049
REMARK UNBOUND:                -6.005
REMARK SMILES C=C1C(=O)N[C@H](C)C(=O)N[C@@H](CC(C)C)C(=O)N[C@@H](C(=O)O)[C@H](C)C(=O)N[C@@H](CCCN=C(N)N)C(=O)N[C@@H](/C=C/C(C)=C/[C@H](C)[C@H](Cc2ccccc2)OC)[C@H](C)C(=O)N[C@@H](C(=O)O)CCC(=O)N1C
REMARK SMILES IDX 39 1 38 2 37 3 36 4 28 6 27 7 25 8 26 9 23 11 24 12 19 13
REMARK SMILES IDX 18 14 16 15 17 16 11 18 10 19 8 20 9 21 12 24 13 25 14 26
REMARK SMILES IDX 15 27 20 28 21 29 22 30 29 32 30 33 31 34 32 35 33 36 34 37
REMARK SMILES IDX 35 38 57 43 58 44 59 45 60 46 61 47 62 49 66 50 67 51 68 52
REMARK SMILES IDX 69 53 70 54 71 55 2 56 1 57 3 58 4 59 5 60 6 62 7 63 63 65
REMARK SMILES IDX 64 66 65 67 40 69 41 70 42 71 44 72 43 73 45 74 46 75 47 76
REMARK SMILES IDX 55 77 56 78 48 79 49 80 50 81 54 82 51 83 53 84 52 85
REMARK H PARENT 38 5 27 10 18 17 10 22 22 31 34 39 34 40 35 41 35 42 61 48
REMARK H PARENT 5 61 65 68
REMARK Flexibility Score:  369.900
ROOT
ATOM      1  C   UNL     1       3.546   3.822  -3.737  1.00  0.00     0.117 C 
ENDROOT
BRANCH   1   2
ATOM      2  N   UNL     1       2.404   4.429  -3.054  1.00  0.00    -0.347 N 
ATOM      3  O   UNL     1       0.898   4.295  -4.782  1.00  0.00    -0.273 OA
ATOM      4  C   UNL     1       1.140   4.533  -3.603  1.00  0.00     0.243 C 
ATOM      5  H   UNL     1       2.510   4.753  -2.105  1.00  0.00     0.164 HD
BRANCH   4   6
ATOM      6  C   UNL     1       0.089   5.138  -2.638  1.00  0.00     0.171 C 
BRANCH   6   7
ATOM      7  N   UNL     1       0.735   6.044  -1.676  1.00  0.00    -0.344 N 
ATOM      8  C   UNL     1       0.846   5.696  -0.347  1.00  0.00     0.226 C 
ATOM      9  O   UNL     1       0.402   4.645   0.099  1.00  0.00    -0.275 OA
ATOM     10  H   UNL     1       1.054   6.951  -1.994  1.00  0.00     0.164 HD
BRANCH   8  11
ATOM     11  C   UNL     1       1.585   6.712   0.506  1.00  0.00     0.109 C 
ATOM     12  C   UNL     1       2.280   7.742  -0.385  1.00  0.00     0.021 C 
BRANCH  11  13
ATOM     13  C   UNL     1       0.627   7.306   1.558  1.00  0.00     0.204 C 
BRANCH  13  14
ATOM     14  N   UNL     1      -0.750   6.837   1.376  1.00  0.00    -0.340 N 
ATOM     15  C   UNL     1      -1.842   7.674   1.451  1.00  0.00     0.243 C 
ATOM     16  O   UNL     1      -1.733   8.888   1.614  1.00  0.00    -0.273 OA
ATOM     17  H   UNL     1      -0.919   5.827   1.389  1.00  0.00     0.164 HD
BRANCH  15  18
ATOM     18  C   UNL     1      -3.198   6.926   1.436  1.00  0.00     0.171 C 
BRANCH  18  19
ATOM     19  N   UNL     1      -3.359   6.324   2.758  1.00  0.00    -0.343 N 
ATOM     20  C   UNL     1      -2.966   5.026   3.021  1.00  0.00     0.242 CG0
ATOM     21  O   UNL     1      -2.588   4.274   2.125  1.00  0.00    -0.273 OA
ATOM     22  H   UNL     1      -3.774   6.869   3.505  1.00  0.00     0.164 HD
ATOM     23  G   UNL     1      -3.141   4.593   4.491  1.00  0.00     0.000 G0
ENDBRANCH  18  19
BRANCH  18  24
ATOM     24  C   UNL     1      -4.345   7.891   1.114  1.00  0.00     0.038 C 
BRANCH  24  25
ATOM     25  C   UNL     1      -5.047   7.631  -0.236  1.00  0.00    -0.015 C 
ATOM     26  C   UNL     1      -4.947   6.170  -0.675  1.00  0.00     0.007 C 
ATOM     27  C   UNL     1      -4.444   8.536  -1.313  1.00  0.00     0.007 C 
ENDBRANCH  24  25
ENDBRANCH  18  24
ENDBRANCH  15  18
ENDBRANCH  13  14
BRANCH  13  28
ATOM     28  C   UNL     1       1.033   6.977   2.998  1.00  0.00     0.327 C 
ATOM     29  O   UNL     1       0.560   7.468   4.012  1.00  0.00    -0.250 OA
BRANCH  28  30
ATOM     30  O   UNL     1       2.087   6.141   3.072  1.00  0.00    -0.480 OA
ATOM     31  H   UNL     1       2.778   6.664   3.529  1.00  0.00     0.296 HD
ENDBRANCH  28  30
ENDBRANCH  13  28
ENDBRANCH  11  13
ENDBRANCH   8  11
ENDBRANCH   6   7
BRANCH   6  32
ATOM     32  C   UNL     1      -0.978   5.875  -3.454  1.00  0.00     0.037 C 
BRANCH  32  33
ATOM     33  C   UNL     1      -2.388   5.324  -3.197  1.00  0.00     0.026 C 
BRANCH  33  34
ATOM     34  C   UNL     1      -2.371   4.033  -2.378  1.00  0.00     0.146 C 
BRANCH  34  35
ATOM     35  N   UNL     1      -2.848   2.940  -3.214  1.00  0.00    -0.254 NA
ATOM     36  C   UNL     1      -2.098   1.914  -3.371  1.00  0.00     0.185 C 
ATOM     37  N   UNL     1      -2.530   0.899  -4.135  1.00  0.00    -0.370 N 
ATOM     38  N   UNL     1      -0.875   1.675  -2.863  1.00  0.00    -0.370 N 
ATOM     39  H   UNL     1      -3.449   0.999  -4.546  1.00  0.00     0.159 HD
ATOM     40  H   UNL     1      -2.084  -0.002  -4.167  1.00  0.00     0.159 HD
ATOM     41  H   UNL     1      -0.327   0.890  -3.173  1.00  0.00     0.159 HD
ATOM     42  H   UNL     1      -0.419   2.361  -2.282  1.00  0.00     0.159 HD
ENDBRANCH  34  35
ENDBRANCH  33  34
ENDBRANCH  32  33
ENDBRANCH   6  32
ENDBRANCH   4   6
ENDBRANCH   1   2
BRANCH   1  43
ATOM     43  C   UNL     1       3.753   2.385  -3.177  1.00  0.00     0.102 C 
ATOM     44  C   UNL     1       5.229   2.034  -2.923  1.00  0.00     0.020 C 
BRANCH  43  45
ATOM     45  C   UNL     1       3.005   1.352  -4.024  1.00  0.00     0.225 C 
ATOM     46  O   UNL     1       2.735   0.224  -3.621  1.00  0.00    -0.275 OA
ATOM     47  N   UNL     1       2.729   1.733  -5.317  1.00  0.00    -0.342 N 
ATOM     48  H   UNL     1       2.819   2.704  -5.582  1.00  0.00     0.164 HD
BRANCH  47  49
ATOM     49  C   UNL     1       1.987   0.860  -6.232  1.00  0.00     0.192 C 
BRANCH  49  50
ATOM     50  C   UNL     1       2.147   1.365  -7.668  1.00  0.00     0.047 C 
BRANCH  50  51
ATOM     51  C   UNL     1       3.596   1.754  -7.990  1.00  0.00     0.103 C 
BRANCH  51  52
ATOM     52  C   UNL     1       4.089   1.110  -9.284  1.00  0.00     0.226 C 
ATOM     53  O   UNL     1       3.481   0.148  -9.757  1.00  0.00    -0.275 OA
BRANCH  52  54
ATOM     54  N   UNL     1       5.192   1.721  -9.909  1.00  0.00    -0.311 N 
ATOM     55  C   UNL     1       5.030   2.953 -10.692  1.00  0.00     0.153 C 
BRANCH  54  56
ATOM     56  C   UNL     1       6.485   1.183  -9.802  1.00  0.00     0.102 C 
ATOM     57  C   UNL     1       7.331   1.411  -8.783  1.00  0.00     0.043 C 
BRANCH  56  58
ATOM     58  C   UNL     1       7.019   0.234 -10.849  1.00  0.00     0.268 C 
ATOM     59  O   UNL     1       6.854  -0.977 -10.801  1.00  0.00    -0.268 OA
ATOM     60  N   UNL     1       7.647   0.876 -11.889  1.00  0.00    -0.339 N 
ATOM     61  H   UNL     1       7.752   1.883 -11.849  1.00  0.00     0.164 HD
BRANCH  60  62
ATOM     62  C   UNL     1       8.183   0.152 -13.041  1.00  0.00     0.168 CG0
ATOM     63  C   UNL     1       9.364   0.895 -13.654  1.00  0.00     0.041 C 
ATOM     64  G   UNL     1       7.067  -0.055 -14.086  1.00  0.00     0.000 G0
ENDBRANCH  60  62
ENDBRANCH  56  58
ENDBRANCH  54  56
ENDBRANCH  52  54
ENDBRANCH  51  52
ENDBRANCH  50  51
ENDBRANCH  49  50
BRANCH  49  65
ATOM     65  C   UNL     1       0.494   0.804  -5.875  1.00  0.00     0.326 C 
ATOM     66  O   UNL     1      -0.114  -0.193  -5.513  1.00  0.00    -0.250 OA
BRANCH  65  67
ATOM     67  O   UNL     1      -0.170   1.969  -6.045  1.00  0.00    -0.480 OA
ATOM     68  H   UNL     1       0.448   2.512  -6.580  1.00  0.00     0.296 HD
ENDBRANCH  65  67
ENDBRANCH  49  65
ENDBRANCH  47  49
ENDBRANCH  43  45
ENDBRANCH   1  43
BRANCH   1  69
ATOM     69  C   UNL     1       4.684   4.822  -3.631  1.00  0.00    -0.001 C 
ATOM     70  C   UNL     1       4.979   5.817  -4.485  1.00  0.00     0.001 C 
BRANCH  70  71
ATOM     71  C   UNL     1       6.067   6.789  -4.361  1.00  0.00    -0.055 C 
ATOM     72  C   UNL     1       6.569   7.015  -3.128  1.00  0.00    -0.018 C 
ATOM     73  C   UNL     1       6.555   7.462  -5.617  1.00  0.00     0.044 C 
BRANCH  72  74
ATOM     74  C   UNL     1       7.688   7.954  -2.701  1.00  0.00     0.038 C 
ATOM     75  C   UNL     1       8.973   7.122  -2.626  1.00  0.00     0.015 C 
BRANCH  74  76
ATOM     76  C   UNL     1       7.279   8.647  -1.368  1.00  0.00     0.128 C 
BRANCH  76  77
ATOM     77  O   UNL     1       7.307  10.075  -1.527  1.00  0.00    -0.381 OA
ATOM     78  C   UNL     1       8.250  10.725  -0.686  1.00  0.00     0.195 C 
ENDBRANCH  76  77
BRANCH  76  79
ATOM     79  C   UNL     1       5.940   8.136  -0.778  1.00  0.00     0.068 C 
BRANCH  79  80
ATOM     80  C   UNL     1       5.891   7.824   0.698  1.00  0.00    -0.045 A 
ATOM     81  C   UNL     1       6.105   6.522   1.169  1.00  0.00     0.004 A 
ATOM     82  C   UNL     1       5.601   8.836   1.626  1.00  0.00     0.004 A 
ATOM     83  C   UNL     1       6.044   6.239   2.535  1.00  0.00     0.000 A 
ATOM     84  C   UNL     1       5.539   8.552   2.992  1.00  0.00     0.000 A 
ATOM     85  C   UNL     1       5.762   7.254   3.446  1.00  0.00     0.000 A 
ENDBRANCH  79  80
ENDBRANCH  76  79
ENDBRANCH  74  76
ENDBRANCH  72  74
ENDBRANCH  70  71
ENDBRANCH   1  69
TORSDOF 17
ENDMDL
MODEL 17
REMARK VINA RESULT:    -6.247      3.505      4.865
REMARK INTER + INTRA:         -24.669
REMARK INTER:                 -18.727
REMARK INTRA:                  -5.942
REMARK UNBOUND:                -6.005
REMARK SMILES C=C1C(=O)N[C@H](C)C(=O)N[C@@H](CC(C)C)C(=O)N[C@@H](C(=O)O)[C@H](C)C(=O)N[C@@H](CCCN=C(N)N)C(=O)N[C@@H](/C=C/C(C)=C/[C@H](C)[C@H](Cc2ccccc2)OC)[C@H](C)C(=O)N[C@@H](C(=O)O)CCC(=O)N1C
REMARK SMILES IDX 39 1 38 2 37 3 36 4 28 6 27 7 25 8 26 9 23 11 24 12 19 13
REMARK SMILES IDX 18 14 16 15 17 16 11 18 10 19 8 20 9 21 12 24 13 25 14 26
REMARK SMILES IDX 15 27 20 28 21 29 22 30 29 32 30 33 31 34 32 35 33 36 34 37
REMARK SMILES IDX 35 38 57 43 58 44 59 45 60 46 61 47 62 49 66 50 67 51 68 52
REMARK SMILES IDX 69 53 70 54 71 55 2 56 1 57 3 58 4 59 5 60 6 62 7 63 63 65
REMARK SMILES IDX 64 66 65 67 40 69 41 70 42 71 44 72 43 73 45 74 46 75 47 76
REMARK SMILES IDX 55 77 56 78 48 79 49 80 50 81 54 82 51 83 53 84 52 85
REMARK H PARENT 38 5 27 10 18 17 10 22 22 31 34 39 34 40 35 41 35 42 61 48
REMARK H PARENT 5 61 65 68
REMARK Flexibility Score:  369.900
ROOT
ATOM      1  C   UNL     1       1.948   3.075  -3.825  1.00  0.00     0.117 C 
ENDROOT
BRANCH   1   2
ATOM      2  N   UNL     1       2.266   4.252  -3.016  1.00  0.00    -0.347 N 
ATOM      3  O   UNL     1       4.470   3.760  -2.601  1.00  0.00    -0.273 OA
ATOM      4  C   UNL     1       3.531   4.547  -2.544  1.00  0.00     0.243 C 
ATOM      5  H   UNL     1       1.543   4.928  -2.822  1.00  0.00     0.164 HD
BRANCH   4   6
ATOM      6  C   UNL     1       3.614   5.897  -1.788  1.00  0.00     0.171 C 
BRANCH   6   7
ATOM      7  N   UNL     1       4.868   6.594  -2.117  1.00  0.00    -0.344 N 
ATOM      8  C   UNL     1       5.895   6.662  -1.200  1.00  0.00     0.226 C 
ATOM      9  O   UNL     1       5.812   6.177  -0.078  1.00  0.00    -0.275 OA
ATOM     10  H   UNL     1       4.948   7.065  -3.009  1.00  0.00     0.164 HD
BRANCH   8  11
ATOM     11  C   UNL     1       7.141   7.367  -1.709  1.00  0.00     0.109 C 
ATOM     12  C   UNL     1       7.245   7.220  -3.227  1.00  0.00     0.021 C 
BRANCH  11  13
ATOM     13  C   UNL     1       7.165   8.820  -1.195  1.00  0.00     0.204 C 
BRANCH  13  14
ATOM     14  N   UNL     1       6.900   8.900   0.245  1.00  0.00    -0.340 N 
ATOM     15  C   UNL     1       6.099   9.872   0.806  1.00  0.00     0.243 C 
ATOM     16  O   UNL     1       5.501  10.706   0.128  1.00  0.00    -0.273 OA
ATOM     17  H   UNL     1       7.481   8.338   0.873  1.00  0.00     0.164 HD
BRANCH  15  18
ATOM     18  C   UNL     1       6.133   9.884   2.354  1.00  0.00     0.171 C 
BRANCH  18  19
ATOM     19  N   UNL     1       5.417  11.085   2.778  1.00  0.00    -0.343 N 
ATOM     20  C   UNL     1       6.081  12.203   3.245  1.00  0.00     0.242 CG0
ATOM     21  O   UNL     1       7.292  12.193   3.451  1.00  0.00    -0.273 OA
ATOM     22  H   UNL     1       4.404  11.101   2.736  1.00  0.00     0.164 HD
ATOM     23  G   UNL     1       5.163  13.399   3.571  1.00  0.00     0.000 G0
ENDBRANCH  18  19
BRANCH  18  24
ATOM     24  C   UNL     1       5.486   8.614   2.920  1.00  0.00     0.038 C 
BRANCH  24  25
ATOM     25  C   UNL     1       4.037   8.797   3.417  1.00  0.00    -0.015 C 
ATOM     26  C   UNL     1       3.850   8.326   4.860  1.00  0.00     0.007 C 
ATOM     27  C   UNL     1       3.078   8.035   2.499  1.00  0.00     0.007 C 
ENDBRANCH  24  25
ENDBRANCH  18  24
ENDBRANCH  15  18
ENDBRANCH  13  14
BRANCH  13  28
ATOM     28  C   UNL     1       8.499   9.529  -1.450  1.00  0.00     0.327 C 
ATOM     29  O   UNL     1       9.593   9.184  -1.030  1.00  0.00    -0.250 OA
BRANCH  28  30
ATOM     30  O   UNL     1       8.360  10.692  -2.119  1.00  0.00    -0.480 OA
ATOM     31  H   UNL     1       9.029  10.641  -2.832  1.00  0.00     0.296 HD
ENDBRANCH  28  30
ENDBRANCH  13  28
ENDBRANCH  11  13
ENDBRANCH   8  11
ENDBRANCH   6   7
BRANCH   6  32
ATOM     32  C   UNL     1       2.399   6.756  -2.155  1.00  0.00     0.037 C 
BRANCH  32  33
ATOM     33  C   UNL     1       2.203   7.928  -1.183  1.00  0.00     0.026 C 
BRANCH  33  34
ATOM     34  C   UNL     1       2.487   9.282  -1.836  1.00  0.00     0.146 C 
BRANCH  34  35
ATOM     35  N   UNL     1       3.338   9.073  -2.999  1.00  0.00    -0.254 NA
ATOM     36  C   UNL     1       4.242   9.942  -3.263  1.00  0.00     0.185 C 
ATOM     37  N   UNL     1       5.035   9.758  -4.329  1.00  0.00    -0.370 N 
ATOM     38  N   UNL     1       4.542  11.075  -2.604  1.00  0.00    -0.370 N 
ATOM     39  H   UNL     1       4.878   8.918  -4.873  1.00  0.00     0.159 HD
ATOM     40  H   UNL     1       5.869  10.293  -4.502  1.00  0.00     0.159 HD
ATOM     41  H   UNL     1       5.184  11.748  -2.990  1.00  0.00     0.159 HD
ATOM     42  H   UNL     1       4.015  11.350  -1.789  1.00  0.00     0.159 HD
ENDBRANCH  34  35
ENDBRANCH  33  34
ENDBRANCH  32  33
ENDBRANCH   6  32
ENDBRANCH   4   6
ENDBRANCH   1   2
BRANCH   1  43
ATOM     43  C   UNL     1       1.934   1.826  -2.897  1.00  0.00     0.102 C 
ATOM     44  C   UNL     1       2.905   0.720  -3.344  1.00  0.00     0.020 C 
BRANCH  43  45
ATOM     45  C   UNL     1       0.503   1.335  -2.656  1.00  0.00     0.225 C 
ATOM     46  O   UNL     1       0.218   0.153  -2.488  1.00  0.00    -0.275 OA
ATOM     47  N   UNL     1      -0.475   2.301  -2.733  1.00  0.00    -0.342 N 
ATOM     48  H   UNL     1      -0.216   3.277  -2.719  1.00  0.00     0.164 HD
BRANCH  47  49
ATOM     49  C   UNL     1      -1.885   1.984  -2.489  1.00  0.00     0.192 C 
BRANCH  49  50
ATOM     50  C   UNL     1      -2.754   2.645  -3.562  1.00  0.00     0.047 C 
BRANCH  50  51
ATOM     51  C   UNL     1      -1.949   3.019  -4.814  1.00  0.00     0.103 C 
BRANCH  51  52
ATOM     52  C   UNL     1      -2.326   2.157  -6.017  1.00  0.00     0.226 C 
ATOM     53  O   UNL     1      -3.514   1.985  -6.296  1.00  0.00    -0.275 OA
BRANCH  52  54
ATOM     54  N   UNL     1      -1.261   1.663  -6.794  1.00  0.00    -0.311 N 
ATOM     55  C   UNL     1      -0.649   2.485  -7.846  1.00  0.00     0.153 C 
BRANCH  54  56
ATOM     56  C   UNL     1      -0.741   0.374  -6.589  1.00  0.00     0.102 C 
ATOM     57  C   UNL     1       0.413   0.103  -5.957  1.00  0.00     0.043 C 
BRANCH  56  58
ATOM     58  C   UNL     1      -1.500  -0.849  -7.046  1.00  0.00     0.268 C 
ATOM     59  O   UNL     1      -1.029  -1.684  -7.806  1.00  0.00    -0.268 OA
ATOM     60  N   UNL     1      -2.743  -0.960  -6.470  1.00  0.00    -0.339 N 
ATOM     61  H   UNL     1      -3.065  -0.219  -5.859  1.00  0.00     0.164 HD
BRANCH  60  62
ATOM     62  C   UNL     1      -3.621  -2.101  -6.725  1.00  0.00     0.168 CG0
ATOM     63  C   UNL     1      -4.791  -1.703  -7.618  1.00  0.00     0.041 C 
ATOM     64  G   UNL     1      -4.127  -2.674  -5.385  1.00  0.00     0.000 G0
ENDBRANCH  60  62
ENDBRANCH  56  58
ENDBRANCH  54  56
ENDBRANCH  52  54
ENDBRANCH  51  52
ENDBRANCH  50  51
ENDBRANCH  49  50
BRANCH  49  65
ATOM     65  C   UNL     1      -2.341   2.460  -1.101  1.00  0.00     0.326 C 
ATOM     66  O   UNL     1      -1.855   3.389  -0.473  1.00  0.00    -0.250 OA
BRANCH  65  67
ATOM     67  O   UNL     1      -3.330   1.722  -0.548  1.00  0.00    -0.480 OA
ATOM     68  H   UNL     1      -3.380   2.056   0.373  1.00  0.00     0.296 HD
ENDBRANCH  65  67
ENDBRANCH  49  65
ENDBRANCH  47  49
ENDBRANCH  43  45
ENDBRANCH   1  43
BRANCH   1  69
ATOM     69  C   UNL     1       2.901   3.101  -5.005  1.00  0.00    -0.001 C 
ATOM     70  C   UNL     1       2.597   3.324  -6.296  1.00  0.00     0.001 C 
BRANCH  70  71
ATOM     71  C   UNL     1       3.530   3.368  -7.424  1.00  0.00    -0.055 C 
ATOM     72  C   UNL     1       4.746   2.807  -7.256  1.00  0.00    -0.018 C 
ATOM     73  C   UNL     1       3.064   4.028  -8.696  1.00  0.00     0.044 C 
BRANCH  72  74
ATOM     74  C   UNL     1       5.903   2.701  -8.239  1.00  0.00     0.038 C 
ATOM     75  C   UNL     1       5.990   4.041  -8.981  1.00  0.00     0.015 C 
BRANCH  74  76
ATOM     76  C   UNL     1       5.671   1.462  -9.154  1.00  0.00     0.128 C 
BRANCH  76  77
ATOM     77  O   UNL     1       4.966   1.855 -10.343  1.00  0.00    -0.381 OA
ATOM     78  C   UNL     1       3.872   1.007 -10.666  1.00  0.00     0.195 C 
ENDBRANCH  76  77
BRANCH  76  79
ATOM     79  C   UNL     1       6.958   0.655  -9.458  1.00  0.00     0.068 C 
BRANCH  79  80
ATOM     80  C   UNL     1       7.597   0.829 -10.814  1.00  0.00    -0.045 A 
ATOM     81  C   UNL     1       8.376   1.957 -11.107  1.00  0.00     0.004 A 
ATOM     82  C   UNL     1       7.397  -0.131 -11.818  1.00  0.00     0.004 A 
ATOM     83  C   UNL     1       8.952   2.117 -12.368  1.00  0.00     0.000 A 
ATOM     84  C   UNL     1       7.973   0.031 -13.080  1.00  0.00     0.000 A 
ATOM     85  C   UNL     1       8.752   1.153 -13.354  1.00  0.00     0.000 A 
ENDBRANCH  79  80
ENDBRANCH  76  79
ENDBRANCH  74  76
ENDBRANCH  72  74
ENDBRANCH  70  71
ENDBRANCH   1  69
TORSDOF 17
ENDMDL
MODEL 18
REMARK VINA RESULT:    -6.245      1.608      2.086
REMARK INTER + INTRA:         -24.663
REMARK INTER:                 -17.742
REMARK INTRA:                  -6.921
REMARK UNBOUND:                -6.005
REMARK SMILES C=C1C(=O)N[C@H](C)C(=O)N[C@@H](CC(C)C)C(=O)N[C@@H](C(=O)O)[C@H](C)C(=O)N[C@@H](CCCN=C(N)N)C(=O)N[C@@H](/C=C/C(C)=C/[C@H](C)[C@H](Cc2ccccc2)OC)[C@H](C)C(=O)N[C@@H](C(=O)O)CCC(=O)N1C
REMARK SMILES IDX 39 1 38 2 37 3 36 4 28 6 27 7 25 8 26 9 23 11 24 12 19 13
REMARK SMILES IDX 18 14 16 15 17 16 11 18 10 19 8 20 9 21 12 24 13 25 14 26
REMARK SMILES IDX 15 27 20 28 21 29 22 30 29 32 30 33 31 34 32 35 33 36 34 37
REMARK SMILES IDX 35 38 57 43 58 44 59 45 60 46 61 47 62 49 66 50 67 51 68 52
REMARK SMILES IDX 69 53 70 54 71 55 2 56 1 57 3 58 4 59 5 60 6 62 7 63 63 65
REMARK SMILES IDX 64 66 65 67 40 69 41 70 42 71 44 72 43 73 45 74 46 75 47 76
REMARK SMILES IDX 55 77 56 78 48 79 49 80 50 81 54 82 51 83 53 84 52 85
REMARK H PARENT 38 5 27 10 18 17 10 22 22 31 34 39 34 40 35 41 35 42 61 48
REMARK H PARENT 5 61 65 68
REMARK Flexibility Score:  369.900
ROOT
ATOM      1  C   UNL     1       1.453   3.129  -4.158  1.00  0.00     0.117 C 
ENDROOT
BRANCH   1   2
ATOM      2  N   UNL     1       1.880   3.857  -2.962  1.00  0.00    -0.347 N 
ATOM      3  O   UNL     1       0.453   5.644  -3.158  1.00  0.00    -0.273 OA
ATOM      4  C   UNL     1       1.280   5.015  -2.507  1.00  0.00     0.243 C 
ATOM      5  H   UNL     1       2.624   3.481  -2.394  1.00  0.00     0.164 HD
BRANCH   4   6
ATOM      6  C   UNL     1       1.867   5.537  -1.171  1.00  0.00     0.171 C 
BRANCH   6   7
ATOM      7  N   UNL     1       2.909   6.544  -1.425  1.00  0.00    -0.344 N 
ATOM      8  C   UNL     1       4.197   6.162  -1.728  1.00  0.00     0.226 C 
ATOM      9  O   UNL     1       4.543   4.987  -1.777  1.00  0.00    -0.275 OA
ATOM     10  H   UNL     1       2.677   7.525  -1.327  1.00  0.00     0.164 HD
BRANCH   8  11
ATOM     11  C   UNL     1       5.141   7.316  -2.018  1.00  0.00     0.109 C 
ATOM     12  C   UNL     1       4.356   8.623  -2.127  1.00  0.00     0.021 C 
BRANCH  11  13
ATOM     13  C   UNL     1       6.282   7.330  -0.981  1.00  0.00     0.204 C 
BRANCH  13  14
ATOM     14  N   UNL     1       5.860   6.777   0.310  1.00  0.00    -0.340 N 
ATOM     15  C   UNL     1       5.837   7.520   1.471  1.00  0.00     0.243 C 
ATOM     16  O   UNL     1       6.111   8.719   1.493  1.00  0.00    -0.273 OA
ATOM     17  H   UNL     1       5.768   5.761   0.391  1.00  0.00     0.164 HD
BRANCH  15  18
ATOM     18  C   UNL     1       5.561   6.677   2.740  1.00  0.00     0.171 C 
BRANCH  18  19
ATOM     19  N   UNL     1       6.349   7.272   3.817  1.00  0.00    -0.343 N 
ATOM     20  C   UNL     1       7.230   6.523   4.574  1.00  0.00     0.242 CG0
ATOM     21  O   UNL     1       7.293   5.301   4.467  1.00  0.00    -0.273 OA
ATOM     22  H   UNL     1       6.246   8.259   4.022  1.00  0.00     0.164 HD
ATOM     23  G   UNL     1       8.030   7.338   5.611  1.00  0.00     0.000 G0
ENDBRANCH  18  19
BRANCH  18  24
ATOM     24  C   UNL     1       4.064   6.676   3.074  1.00  0.00     0.038 C 
BRANCH  24  25
ATOM     25  C   UNL     1       3.463   8.072   3.344  1.00  0.00    -0.015 C 
ATOM     26  C   UNL     1       3.045   8.256   4.803  1.00  0.00     0.007 C 
ATOM     27  C   UNL     1       2.256   8.298   2.430  1.00  0.00     0.007 C 
ENDBRANCH  24  25
ENDBRANCH  18  24
ENDBRANCH  15  18
ENDBRANCH  13  14
BRANCH  13  28
ATOM     28  C   UNL     1       7.516   6.542  -1.430  1.00  0.00     0.327 C 
ATOM     29  O   UNL     1       8.374   6.926  -2.210  1.00  0.00    -0.250 OA
BRANCH  28  30
ATOM     30  O   UNL     1       7.534   5.276  -0.965  1.00  0.00    -0.480 OA
ATOM     31  H   UNL     1       8.378   4.908  -1.300  1.00  0.00     0.296 HD
ENDBRANCH  28  30
ENDBRANCH  13  28
ENDBRANCH  11  13
ENDBRANCH   8  11
ENDBRANCH   6   7
BRANCH   6  32
ATOM     32  C   UNL     1       0.735   6.123  -0.319  1.00  0.00     0.037 C 
BRANCH  32  33
ATOM     33  C   UNL     1      -0.039   5.037   0.441  1.00  0.00     0.026 C 
BRANCH  33  34
ATOM     34  C   UNL     1      -1.306   5.578   1.105  1.00  0.00     0.146 C 
BRANCH  34  35
ATOM     35  N   UNL     1      -1.733   6.776   0.396  1.00  0.00    -0.254 NA
ATOM     36  C   UNL     1      -2.962   6.880   0.050  1.00  0.00     0.185 C 
ATOM     37  N   UNL     1      -3.367   7.982  -0.600  1.00  0.00    -0.370 N 
ATOM     38  N   UNL     1      -3.971   6.013   0.245  1.00  0.00    -0.370 N 
ATOM     39  H   UNL     1      -2.665   8.690  -0.776  1.00  0.00     0.159 HD
ATOM     40  H   UNL     1      -4.334   8.216  -0.749  1.00  0.00     0.159 HD
ATOM     41  H   UNL     1      -4.866   6.146  -0.197  1.00  0.00     0.159 HD
ATOM     42  H   UNL     1      -3.808   5.132   0.708  1.00  0.00     0.159 HD
ENDBRANCH  34  35
ENDBRANCH  33  34
ENDBRANCH  32  33
ENDBRANCH   6  32
ENDBRANCH   4   6
ENDBRANCH   1   2
BRANCH   1  43
ATOM     43  C   UNL     1       1.133   1.660  -3.756  1.00  0.00     0.102 C 
ATOM     44  C   UNL     1       1.297   0.659  -4.912  1.00  0.00     0.020 C 
BRANCH  43  45
ATOM     45  C   UNL     1      -0.219   1.568  -3.041  1.00  0.00     0.225 C 
ATOM     46  O   UNL     1      -0.437   0.792  -2.115  1.00  0.00    -0.275 OA
ATOM     47  N   UNL     1      -1.221   2.352  -3.566  1.00  0.00    -0.342 N 
ATOM     48  H   UNL     1      -0.990   3.087  -4.219  1.00  0.00     0.164 HD
BRANCH  47  49
ATOM     49  C   UNL     1      -2.557   2.393  -2.963  1.00  0.00     0.192 C 
BRANCH  49  50
ATOM     50  C   UNL     1      -3.590   2.768  -4.029  1.00  0.00     0.047 C 
BRANCH  50  51
ATOM     51  C   UNL     1      -4.948   3.140  -3.417  1.00  0.00     0.103 C 
BRANCH  51  52
ATOM     52  C   UNL     1      -5.403   4.536  -3.839  1.00  0.00     0.226 C 
ATOM     53  O   UNL     1      -4.564   5.418  -4.036  1.00  0.00    -0.275 OA
BRANCH  52  54
ATOM     54  N   UNL     1      -6.783   4.707  -4.053  1.00  0.00    -0.311 N 
ATOM     55  C   UNL     1      -7.500   3.897  -5.047  1.00  0.00     0.153 C 
BRANCH  54  56
ATOM     56  C   UNL     1      -7.526   5.650  -3.324  1.00  0.00     0.102 C 
ATOM     57  C   UNL     1      -7.769   5.584  -2.005  1.00  0.00     0.043 C 
BRANCH  56  58
ATOM     58  C   UNL     1      -8.090   6.880  -3.996  1.00  0.00     0.268 C 
ATOM     59  O   UNL     1      -7.561   7.419  -4.959  1.00  0.00    -0.268 OA
ATOM     60  N   UNL     1      -9.287   7.289  -3.458  1.00  0.00    -0.339 N 
ATOM     61  H   UNL     1      -9.654   6.795  -2.653  1.00  0.00     0.164 HD
BRANCH  60  62
ATOM     62  C   UNL     1     -10.037   8.422  -3.998  1.00  0.00     0.168 CG0
ATOM     63  C   UNL     1      -9.645   9.719  -3.301  1.00  0.00     0.041 C 
ATOM     64  G   UNL     1     -11.550   8.158  -3.850  1.00  0.00     0.000 G0
ENDBRANCH  60  62
ENDBRANCH  56  58
ENDBRANCH  54  56
ENDBRANCH  52  54
ENDBRANCH  51  52
ENDBRANCH  50  51
ENDBRANCH  49  50
BRANCH  49  65
ATOM     65  C   UNL     1      -2.626   3.404  -1.808  1.00  0.00     0.326 C 
ATOM     66  O   UNL     1      -3.025   3.165  -0.678  1.00  0.00    -0.250 OA
BRANCH  65  67
ATOM     67  O   UNL     1      -2.258   4.662  -2.137  1.00  0.00    -0.480 OA
ATOM     68  H   UNL     1      -2.026   5.068  -1.274  1.00  0.00     0.296 HD
ENDBRANCH  65  67
ENDBRANCH  49  65
ENDBRANCH  47  49
ENDBRANCH  43  45
ENDBRANCH   1  43
BRANCH   1  69
ATOM     69  C   UNL     1       2.515   3.386  -5.212  1.00  0.00    -0.001 C 
ATOM     70  C   UNL     1       3.825   3.615  -5.013  1.00  0.00     0.001 C 
BRANCH  70  71
ATOM     71  C   UNL     1       4.844   3.840  -6.040  1.00  0.00    -0.055 C 
ATOM     72  C   UNL     1       4.921   2.952  -7.053  1.00  0.00    -0.018 C 
ATOM     73  C   UNL     1       5.730   5.051  -5.897  1.00  0.00     0.044 C 
BRANCH  72  74
ATOM     74  C   UNL     1       5.865   2.933  -8.247  1.00  0.00     0.038 C 
ATOM     75  C   UNL     1       5.435   4.068  -9.183  1.00  0.00     0.015 C 
BRANCH  74  76
ATOM     76  C   UNL     1       5.835   1.513  -8.886  1.00  0.00     0.128 C 
BRANCH  76  77
ATOM     77  O   UNL     1       4.884   1.480  -9.964  1.00  0.00    -0.381 OA
ATOM     78  C   UNL     1       4.162   0.259 -10.051  1.00  0.00     0.195 C 
ENDBRANCH  76  77
BRANCH  76  79
ATOM     79  C   UNL     1       7.229   0.979  -9.300  1.00  0.00     0.068 C 
BRANCH  79  80
ATOM     80  C   UNL     1       7.635   1.111 -10.749  1.00  0.00    -0.045 A 
ATOM     81  C   UNL     1       7.590   0.009 -11.614  1.00  0.00     0.004 A 
ATOM     82  C   UNL     1       8.093   2.340 -11.246  1.00  0.00     0.004 A 
ATOM     83  C   UNL     1       7.980   0.136 -12.948  1.00  0.00     0.000 A 
ATOM     84  C   UNL     1       8.484   2.465 -12.581  1.00  0.00     0.000 A 
ATOM     85  C   UNL     1       8.426   1.364 -13.432  1.00  0.00     0.000 A 
ENDBRANCH  79  80
ENDBRANCH  76  79
ENDBRANCH  74  76
ENDBRANCH  72  74
ENDBRANCH  70  71
ENDBRANCH   1  69
TORSDOF 17
ENDMDL
MODEL 19
REMARK VINA RESULT:    -6.240      5.324     11.806
REMARK INTER + INTRA:         -24.647
REMARK INTER:                 -16.256
REMARK INTRA:                  -8.391
REMARK UNBOUND:                -6.005
REMARK SMILES C=C1C(=O)N[C@H](C)C(=O)N[C@@H](CC(C)C)C(=O)N[C@@H](C(=O)O)[C@H](C)C(=O)N[C@@H](CCCN=C(N)N)C(=O)N[C@@H](/C=C/C(C)=C/[C@H](C)[C@H](Cc2ccccc2)OC)[C@H](C)C(=O)N[C@@H](C(=O)O)CCC(=O)N1C
REMARK SMILES IDX 39 1 38 2 37 3 36 4 28 6 27 7 25 8 26 9 23 11 24 12 19 13
REMARK SMILES IDX 18 14 16 15 17 16 11 18 10 19 8 20 9 21 12 24 13 25 14 26
REMARK SMILES IDX 15 27 20 28 21 29 22 30 29 32 30 33 31 34 32 35 33 36 34 37
REMARK SMILES IDX 35 38 57 43 58 44 59 45 60 46 61 47 62 49 66 50 67 51 68 52
REMARK SMILES IDX 69 53 70 54 71 55 2 56 1 57 3 58 4 59 5 60 6 62 7 63 63 65
REMARK SMILES IDX 64 66 65 67 40 69 41 70 42 71 44 72 43 73 45 74 46 75 47 76
REMARK SMILES IDX 55 77 56 78 48 79 49 80 50 81 54 82 51 83 53 84 52 85
REMARK H PARENT 38 5 27 10 18 17 10 22 22 31 34 39 34 40 35 41 35 42 61 48
REMARK H PARENT 5 61 65 68
REMARK Flexibility Score:  369.900
ROOT
ATOM      1  C   UNL     1       0.589   6.404  -7.474  1.00  0.00     0.117 C 
ENDROOT
BRANCH   1   2
ATOM      2  N   UNL     1      -0.815   6.430  -7.063  1.00  0.00    -0.347 N 
ATOM      3  O   UNL     1      -0.762   8.403  -5.890  1.00  0.00    -0.273 OA
ATOM      4  C   UNL     1      -1.402   7.477  -6.379  1.00  0.00     0.243 C 
ATOM      5  H   UNL     1      -1.422   5.669  -7.328  1.00  0.00     0.164 HD
BRANCH   4   6
ATOM      6  C   UNL     1      -2.922   7.293  -6.142  1.00  0.00     0.171 C 
BRANCH   6   7
ATOM      7  N   UNL     1      -3.163   6.248  -5.134  1.00  0.00    -0.344 N 
ATOM      8  C   UNL     1      -3.285   4.927  -5.507  1.00  0.00     0.226 C 
ATOM      9  O   UNL     1      -3.225   4.563  -6.675  1.00  0.00    -0.275 OA
ATOM     10  H   UNL     1      -3.286   6.518  -4.166  1.00  0.00     0.164 HD
BRANCH   8  11
ATOM     11  C   UNL     1      -3.476   3.964  -4.348  1.00  0.00     0.109 C 
ATOM     12  C   UNL     1      -2.122   3.605  -3.735  1.00  0.00     0.021 C 
BRANCH  11  13
ATOM     13  C   UNL     1      -4.504   4.541  -3.355  1.00  0.00     0.204 C 
BRANCH  13  14
ATOM     14  N   UNL     1      -5.882   4.376  -3.829  1.00  0.00    -0.340 N 
ATOM     15  C   UNL     1      -6.640   5.424  -4.306  1.00  0.00     0.243 C 
ATOM     16  O   UNL     1      -6.192   6.563  -4.424  1.00  0.00    -0.273 OA
ATOM     17  H   UNL     1      -6.360   3.496  -3.619  1.00  0.00     0.164 HD
BRANCH  15  18
ATOM     18  C   UNL     1      -8.123   5.053  -4.552  1.00  0.00     0.171 C 
BRANCH  18  19
ATOM     19  N   UNL     1      -8.881   6.301  -4.497  1.00  0.00    -0.343 N 
ATOM     20  C   UNL     1      -9.383   6.798  -3.310  1.00  0.00     0.242 CG0
ATOM     21  O   UNL     1      -9.332   6.148  -2.268  1.00  0.00    -0.273 OA
ATOM     22  H   UNL     1      -9.051   6.818  -5.353  1.00  0.00     0.164 HD
ATOM     23  G   UNL     1     -10.087   8.164  -3.438  1.00  0.00     0.000 G0
ENDBRANCH  18  19
BRANCH  18  24
ATOM     24  C   UNL     1      -8.289   4.353  -5.906  1.00  0.00     0.038 C 
BRANCH  24  25
ATOM     25  C   UNL     1      -8.737   5.277  -7.058  1.00  0.00    -0.015 C 
ATOM     26  C   UNL     1      -9.819   4.641  -7.931  1.00  0.00     0.007 C 
ATOM     27  C   UNL     1      -7.529   5.646  -7.923  1.00  0.00     0.007 C 
ENDBRANCH  24  25
ENDBRANCH  18  24
ENDBRANCH  15  18
ENDBRANCH  13  14
BRANCH  13  28
ATOM     28  C   UNL     1      -4.424   3.904  -1.964  1.00  0.00     0.327 C 
ATOM     29  O   UNL     1      -4.782   2.775  -1.665  1.00  0.00    -0.250 OA
BRANCH  28  30
ATOM     30  O   UNL     1      -4.009   4.764  -1.012  1.00  0.00    -0.480 OA
ATOM     31  H   UNL     1      -3.946   5.625  -1.475  1.00  0.00     0.296 HD
ENDBRANCH  28  30
ENDBRANCH  13  28
ENDBRANCH  11  13
ENDBRANCH   8  11
ENDBRANCH   6   7
BRANCH   6  32
ATOM     32  C   UNL     1      -3.528   8.630  -5.699  1.00  0.00     0.037 C 
BRANCH  32  33
ATOM     33  C   UNL     1      -4.671   9.081  -6.619  1.00  0.00     0.026 C 
BRANCH  33  34
ATOM     34  C   UNL     1      -4.176   9.495  -8.006  1.00  0.00     0.146 C 
BRANCH  34  35
ATOM     35  N   UNL     1      -5.164   9.091  -8.997  1.00  0.00    -0.254 NA
ATOM     36  C   UNL     1      -4.946   8.033  -9.686  1.00  0.00     0.185 C 
ATOM     37  N   UNL     1      -5.851   7.649 -10.598  1.00  0.00    -0.370 N 
ATOM     38  N   UNL     1      -3.894   7.197  -9.638  1.00  0.00    -0.370 N 
ATOM     39  H   UNL     1      -6.679   8.224 -10.687  1.00  0.00     0.159 HD
ATOM     40  H   UNL     1      -5.840   6.750 -11.049  1.00  0.00     0.159 HD
ATOM     41  H   UNL     1      -3.771   6.475 -10.330  1.00  0.00     0.159 HD
ATOM     42  H   UNL     1      -3.127   7.372  -9.008  1.00  0.00     0.159 HD
ENDBRANCH  34  35
ENDBRANCH  33  34
ENDBRANCH  32  33
ENDBRANCH   6  32
ENDBRANCH   4   6
ENDBRANCH   1   2
BRANCH   1  43
ATOM     43  C   UNL     1       0.649   6.256  -9.022  1.00  0.00     0.102 C 
ATOM     44  C   UNL     1      -0.229   7.273  -9.769  1.00  0.00     0.020 C 
BRANCH  43  45
ATOM     45  C   UNL     1       0.413   4.803  -9.445  1.00  0.00     0.225 C 
ATOM     46  O   UNL     1      -0.503   4.115  -9.002  1.00  0.00    -0.275 OA
ATOM     47  N   UNL     1       1.357   4.272 -10.294  1.00  0.00    -0.342 N 
ATOM     48  H   UNL     1       2.008   4.885 -10.764  1.00  0.00     0.164 HD
BRANCH  47  49
ATOM     49  C   UNL     1       1.241   2.905 -10.810  1.00  0.00     0.192 C 
BRANCH  49  50
ATOM     50  C   UNL     1       2.603   2.433 -11.326  1.00  0.00     0.047 C 
BRANCH  50  51
ATOM     51  C   UNL     1       3.385   1.643 -10.267  1.00  0.00     0.103 C 
BRANCH  51  52
ATOM     52  C   UNL     1       4.227   2.556  -9.377  1.00  0.00     0.226 C 
ATOM     53  O   UNL     1       3.753   2.988  -8.325  1.00  0.00    -0.275 OA
BRANCH  52  54
ATOM     54  N   UNL     1       5.551   2.788  -9.793  1.00  0.00    -0.311 N 
ATOM     55  C   UNL     1       5.964   4.102 -10.304  1.00  0.00     0.153 C 
BRANCH  54  56
ATOM     56  C   UNL     1       6.526   1.779  -9.729  1.00  0.00     0.102 C 
ATOM     57  C   UNL     1       7.208   1.437  -8.623  1.00  0.00     0.043 C 
BRANCH  56  58
ATOM     58  C   UNL     1       6.857   0.942 -10.943  1.00  0.00     0.268 C 
ATOM     59  O   UNL     1       7.388   1.399 -11.946  1.00  0.00    -0.268 OA
ATOM     60  N   UNL     1       6.561  -0.390 -10.778  1.00  0.00    -0.339 N 
ATOM     61  H   UNL     1       6.112  -0.686  -9.920  1.00  0.00     0.164 HD
BRANCH  60  62
ATOM     62  C   UNL     1       6.857  -1.387 -11.806  1.00  0.00     0.168 CG0
ATOM     63  C   UNL     1       5.733  -2.409 -11.917  1.00  0.00     0.041 C 
ATOM     64  G   UNL     1       8.196  -2.081 -11.481  1.00  0.00     0.000 G0
ENDBRANCH  60  62
ENDBRANCH  56  58
ENDBRANCH  54  56
ENDBRANCH  52  54
ENDBRANCH  51  52
ENDBRANCH  50  51
ENDBRANCH  49  50
BRANCH  49  65
ATOM     65  C   UNL     1       0.208   2.813 -11.944  1.00  0.00     0.326 C 
ATOM     66  O   UNL     1       0.403   3.123 -13.110  1.00  0.00    -0.250 OA
BRANCH  65  67
ATOM     67  O   UNL     1      -1.019   2.400 -11.557  1.00  0.00    -0.480 OA
ATOM     68  H   UNL     1      -1.068   1.478 -11.888  1.00  0.00     0.296 HD
ENDBRANCH  65  67
ENDBRANCH  49  65
ENDBRANCH  47  49
ENDBRANCH  43  45
ENDBRANCH   1  43
BRANCH   1  69
ATOM     69  C   UNL     1       1.264   5.355  -6.610  1.00  0.00    -0.001 C 
ATOM     70  C   UNL     1       1.067   5.126  -5.299  1.00  0.00     0.001 C 
BRANCH  70  71
ATOM     71  C   UNL     1       1.710   4.095  -4.480  1.00  0.00    -0.055 C 
ATOM     72  C   UNL     1       2.343   3.090  -5.120  1.00  0.00    -0.018 C 
ATOM     73  C   UNL     1       1.625   4.235  -2.983  1.00  0.00     0.044 C 
BRANCH  72  74
ATOM     74  C   UNL     1       3.091   1.898  -4.539  1.00  0.00     0.038 C 
ATOM     75  C   UNL     1       4.552   2.017  -4.989  1.00  0.00     0.015 C 
BRANCH  74  76
ATOM     76  C   UNL     1       2.374   0.590  -4.986  1.00  0.00     0.128 C 
BRANCH  76  77
ATOM     77  O   UNL     1       1.455   0.161  -3.966  1.00  0.00    -0.381 OA
ATOM     78  C   UNL     1       1.847   0.532  -2.652  1.00  0.00     0.195 C 
ENDBRANCH  76  77
BRANCH  76  79
ATOM     79  C   UNL     1       1.716   0.680  -6.386  1.00  0.00     0.068 C 
BRANCH  79  80
ATOM     80  C   UNL     1       0.240   0.382  -6.495  1.00  0.00    -0.045 A 
ATOM     81  C   UNL     1      -0.220  -0.929  -6.674  1.00  0.00     0.004 A 
ATOM     82  C   UNL     1      -0.697   1.425  -6.446  1.00  0.00     0.004 A 
ATOM     83  C   UNL     1      -1.587  -1.194  -6.787  1.00  0.00     0.000 A 
ATOM     84  C   UNL     1      -2.063   1.159  -6.560  1.00  0.00     0.000 A 
ATOM     85  C   UNL     1      -2.508  -0.150  -6.729  1.00  0.00     0.000 A 
ENDBRANCH  79  80
ENDBRANCH  76  79
ENDBRANCH  74  76
ENDBRANCH  72  74
ENDBRANCH  70  71
ENDBRANCH   1  69
TORSDOF 17
ENDMDL
MODEL 20
REMARK VINA RESULT:    -6.226      5.035     10.829
REMARK INTER + INTRA:         -24.607
REMARK INTER:                 -17.409
REMARK INTRA:                  -7.198
REMARK UNBOUND:                -6.005
REMARK SMILES C=C1C(=O)N[C@H](C)C(=O)N[C@@H](CC(C)C)C(=O)N[C@@H](C(=O)O)[C@H](C)C(=O)N[C@@H](CCCN=C(N)N)C(=O)N[C@@H](/C=C/C(C)=C/[C@H](C)[C@H](Cc2ccccc2)OC)[C@H](C)C(=O)N[C@@H](C(=O)O)CCC(=O)N1C
REMARK SMILES IDX 39 1 38 2 37 3 36 4 28 6 27 7 25 8 26 9 23 11 24 12 19 13
REMARK SMILES IDX 18 14 16 15 17 16 11 18 10 19 8 20 9 21 12 24 13 25 14 26
REMARK SMILES IDX 15 27 20 28 21 29 22 30 29 32 30 33 31 34 32 35 33 36 34 37
REMARK SMILES IDX 35 38 57 43 58 44 59 45 60 46 61 47 62 49 66 50 67 51 68 52
REMARK SMILES IDX 69 53 70 54 71 55 2 56 1 57 3 58 4 59 5 60 6 62 7 63 63 65
REMARK SMILES IDX 64 66 65 67 40 69 41 70 42 71 44 72 43 73 45 74 46 75 47 76
REMARK SMILES IDX 55 77 56 78 48 79 49 80 50 81 54 82 51 83 53 84 52 85
REMARK H PARENT 38 5 27 10 18 17 10 22 22 31 34 39 34 40 35 41 35 42 61 48
REMARK H PARENT 5 61 65 68
REMARK Flexibility Score:  369.900
ROOT
ATOM      1  C   UNL     1       4.681   2.876  -6.720  1.00  0.00     0.117 C 
ENDROOT
BRANCH   1   2
ATOM      2  N   UNL     1       5.486   3.031  -7.932  1.00  0.00    -0.347 N 
ATOM      3  O   UNL     1       7.224   1.657  -7.333  1.00  0.00    -0.273 OA
ATOM      4  C   UNL     1       6.653   2.335  -8.180  1.00  0.00     0.243 C 
ATOM      5  H   UNL     1       5.161   3.642  -8.666  1.00  0.00     0.164 HD
BRANCH   4   6
ATOM      6  C   UNL     1       7.264   2.620  -9.576  1.00  0.00     0.171 C 
BRANCH   6   7
ATOM      7  N   UNL     1       8.299   3.662  -9.481  1.00  0.00    -0.344 N 
ATOM      8  C   UNL     1       8.168   4.847 -10.173  1.00  0.00     0.226 C 
ATOM      9  O   UNL     1       7.215   5.082 -10.906  1.00  0.00    -0.275 OA
ATOM     10  H   UNL     1       9.133   3.477  -8.939  1.00  0.00     0.164 HD
BRANCH   8  11
ATOM     11  C   UNL     1       9.291   5.840  -9.929  1.00  0.00     0.109 C 
ATOM     12  C   UNL     1       9.916   5.600  -8.555  1.00  0.00     0.021 C 
BRANCH  11  13
ATOM     13  C   UNL     1      10.283   5.806 -11.108  1.00  0.00     0.204 C 
BRANCH  13  14
ATOM     14  N   UNL     1       9.788   4.992 -12.222  1.00  0.00    -0.340 N 
ATOM     15  C   UNL     1      10.329   3.769 -12.554  1.00  0.00     0.243 C 
ATOM     16  O   UNL     1      11.228   3.244 -11.898  1.00  0.00    -0.273 OA
ATOM     17  H   UNL     1       9.153   5.432 -12.893  1.00  0.00     0.164 HD
BRANCH  15  18
ATOM     18  C   UNL     1       9.787   3.193 -13.885  1.00  0.00     0.171 C 
BRANCH  18  19
ATOM     19  N   UNL     1       9.748   1.740 -13.728  1.00  0.00    -0.343 N 
ATOM     20  C   UNL     1      10.228   0.888 -14.704  1.00  0.00     0.242 CG0
ATOM     21  O   UNL     1      10.588   1.306 -15.802  1.00  0.00    -0.273 OA
ATOM     22  H   UNL     1       9.353   1.342 -12.884  1.00  0.00     0.164 HD
ATOM     23  G   UNL     1      10.176  -0.606 -14.326  1.00  0.00     0.000 G0
ENDBRANCH  18  19
BRANCH  18  24
ATOM     24  C   UNL     1       8.397   3.762 -14.195  1.00  0.00     0.038 C 
BRANCH  24  25
ATOM     25  C   UNL     1       8.323   4.621 -15.475  1.00  0.00    -0.015 C 
ATOM     26  C   UNL     1       9.678   4.749 -16.173  1.00  0.00     0.007 C 
ATOM     27  C   UNL     1       7.788   6.014 -15.130  1.00  0.00     0.007 C 
ENDBRANCH  24  25
ENDBRANCH  18  24
ENDBRANCH  15  18
ENDBRANCH  13  14
BRANCH  13  28
ATOM     28  C   UNL     1      10.604   7.195 -11.668  1.00  0.00     0.327 C 
ATOM     29  O   UNL     1      10.186   8.261 -11.241  1.00  0.00    -0.250 OA
BRANCH  28  30
ATOM     30  O   UNL     1      11.334   7.153 -12.801  1.00  0.00    -0.480 OA
ATOM     31  H   UNL     1      12.261   7.228 -12.493  1.00  0.00     0.296 HD
ENDBRANCH  28  30
ENDBRANCH  13  28
ENDBRANCH  11  13
ENDBRANCH   8  11
ENDBRANCH   6   7
BRANCH   6  32
ATOM     32  C   UNL     1       7.845   1.321 -10.146  1.00  0.00     0.037 C 
BRANCH  32  33
ATOM     33  C   UNL     1       7.230   0.959 -11.504  1.00  0.00     0.026 C 
BRANCH  33  34
ATOM     34  C   UNL     1       7.204  -0.550 -11.751  1.00  0.00     0.146 C 
BRANCH  34  35
ATOM     35  N   UNL     1       5.953  -1.089 -11.234  1.00  0.00    -0.254 NA
ATOM     36  C   UNL     1       5.726  -2.343 -11.361  1.00  0.00     0.185 C 
ATOM     37  N   UNL     1       4.579  -2.851 -10.884  1.00  0.00    -0.370 N 
ATOM     38  N   UNL     1       6.496  -3.289 -11.927  1.00  0.00    -0.370 N 
ATOM     39  H   UNL     1       3.948  -2.202 -10.431  1.00  0.00     0.159 HD
ATOM     40  H   UNL     1       4.405  -3.837 -10.788  1.00  0.00     0.159 HD
ATOM     41  H   UNL     1       6.145  -4.218 -12.090  1.00  0.00     0.159 HD
ATOM     42  H   UNL     1       7.382  -3.047 -12.343  1.00  0.00     0.159 HD
ENDBRANCH  34  35
ENDBRANCH  33  34
ENDBRANCH  32  33
ENDBRANCH   6  32
ENDBRANCH   4   6
ENDBRANCH   1   2
BRANCH   1  43
ATOM     43  C   UNL     1       3.199   2.645  -7.134  1.00  0.00     0.102 C 
ATOM     44  C   UNL     1       2.367   3.938  -7.172  1.00  0.00     0.020 C 
BRANCH  43  45
ATOM     45  C   UNL     1       2.565   1.522  -6.309  1.00  0.00     0.225 C 
ATOM     46  O   UNL     1       1.999   0.556  -6.814  1.00  0.00    -0.275 OA
ATOM     47  N   UNL     1       2.585   1.705  -4.946  1.00  0.00    -0.342 N 
ATOM     48  H   UNL     1       3.179   2.416  -4.545  1.00  0.00     0.164 HD
BRANCH  47  49
ATOM     49  C   UNL     1       2.046   0.695  -4.029  1.00  0.00     0.192 C 
BRANCH  49  50
ATOM     50  C   UNL     1       0.743   1.205  -3.409  1.00  0.00     0.047 C 
BRANCH  50  51
ATOM     51  C   UNL     1      -0.480   0.887  -4.280  1.00  0.00     0.103 C 
BRANCH  51  52
ATOM     52  C   UNL     1      -1.129   2.150  -4.842  1.00  0.00     0.226 C 
ATOM     53  O   UNL     1      -1.284   2.266  -6.059  1.00  0.00    -0.275 OA
BRANCH  52  54
ATOM     54  N   UNL     1      -1.588   3.091  -3.901  1.00  0.00    -0.311 N 
ATOM     55  C   UNL     1      -0.992   4.431  -3.821  1.00  0.00     0.153 C 
BRANCH  54  56
ATOM     56  C   UNL     1      -2.632   2.787  -3.012  1.00  0.00     0.102 C 
ATOM     57  C   UNL     1      -2.468   2.440  -1.725  1.00  0.00     0.043 C 
BRANCH  56  58
ATOM     58  C   UNL     1      -4.074   2.879  -3.450  1.00  0.00     0.268 C 
ATOM     59  O   UNL     1      -4.414   2.979  -4.621  1.00  0.00    -0.268 OA
ATOM     60  N   UNL     1      -4.963   2.772  -2.407  1.00  0.00    -0.339 N 
ATOM     61  H   UNL     1      -4.601   2.702  -1.463  1.00  0.00     0.164 HD
BRANCH  60  62
ATOM     62  C   UNL     1      -6.411   2.773  -2.614  1.00  0.00     0.168 CG0
ATOM     63  C   UNL     1      -7.009   4.137  -2.293  1.00  0.00     0.041 C 
ATOM     64  G   UNL     1      -7.058   1.675  -1.745  1.00  0.00     0.000 G0
ENDBRANCH  60  62
ENDBRANCH  56  58
ENDBRANCH  54  56
ENDBRANCH  52  54
ENDBRANCH  51  52
ENDBRANCH  50  51
ENDBRANCH  49  50
BRANCH  49  65
ATOM     65  C   UNL     1       3.043   0.355  -2.911  1.00  0.00     0.326 C 
ATOM     66  O   UNL     1       3.105  -0.709  -2.312  1.00  0.00    -0.250 OA
BRANCH  65  67
ATOM     67  O   UNL     1       3.863   1.371  -2.559  1.00  0.00    -0.480 OA
ATOM     68  H   UNL     1       4.468   0.963  -1.902  1.00  0.00     0.296 HD
ENDBRANCH  65  67
ENDBRANCH  49  65
ENDBRANCH  47  49
ENDBRANCH  43  45
ENDBRANCH   1  43
BRANCH   1  69
ATOM     69  C   UNL     1       5.019   4.059  -5.832  1.00  0.00    -0.001 C 
ATOM     70  C   UNL     1       4.994   4.107  -4.488  1.00  0.00     0.001 C 
BRANCH  70  71
ATOM     71  C   UNL     1       5.343   5.249  -3.641  1.00  0.00    -0.055 C 
ATOM     72  C   UNL     1       5.560   6.436  -4.247  1.00  0.00    -0.018 C 
ATOM     73  C   UNL     1       5.426   5.022  -2.155  1.00  0.00     0.044 C 
BRANCH  72  74
ATOM     74  C   UNL     1       5.930   7.778  -3.631  1.00  0.00     0.038 C 
ATOM     75  C   UNL     1       4.967   8.822  -4.209  1.00  0.00     0.015 C 
BRANCH  74  76
ATOM     76  C   UNL     1       7.437   8.056  -3.906  1.00  0.00     0.128 C 
BRANCH  76  77
ATOM     77  O   UNL     1       8.199   7.864  -2.702  1.00  0.00    -0.381 OA
ATOM     78  C   UNL     1       7.616   8.468  -1.555  1.00  0.00     0.195 C 
ENDBRANCH  76  77
BRANCH  76  79
ATOM     79  C   UNL     1       8.013   7.272  -5.111  1.00  0.00     0.068 C 
BRANCH  79  80
ATOM     80  C   UNL     1       7.853   7.872  -6.487  1.00  0.00    -0.045 A 
ATOM     81  C   UNL     1       8.705   8.891  -6.934  1.00  0.00     0.004 A 
ATOM     82  C   UNL     1       6.824   7.434  -7.334  1.00  0.00     0.004 A 
ATOM     83  C   UNL     1       8.541   9.450  -8.203  1.00  0.00     0.000 A 
ATOM     84  C   UNL     1       6.660   7.995  -8.602  1.00  0.00     0.000 A 
ATOM     85  C   UNL     1       7.520   9.001  -9.037  1.00  0.00     0.000 A 
ENDBRANCH  79  80
ENDBRANCH  76  79
ENDBRANCH  74  76
ENDBRANCH  72  74
ENDBRANCH  70  71
ENDBRANCH   1  69
TORSDOF 17
ENDMDL
MODEL 21
REMARK VINA RESULT:    -6.213      3.880     11.019
REMARK INTER + INTRA:         -24.568
REMARK INTER:                 -16.100
REMARK INTRA:                  -8.468
REMARK UNBOUND:                -6.005
REMARK SMILES C=C1C(=O)N[C@H](C)C(=O)N[C@@H](CC(C)C)C(=O)N[C@@H](C(=O)O)[C@H](C)C(=O)N[C@@H](CCCN=C(N)N)C(=O)N[C@@H](/C=C/C(C)=C/[C@H](C)[C@H](Cc2ccccc2)OC)[C@H](C)C(=O)N[C@@H](C(=O)O)CCC(=O)N1C
REMARK SMILES IDX 39 1 38 2 37 3 36 4 28 6 27 7 25 8 26 9 23 11 24 12 19 13
REMARK SMILES IDX 18 14 16 15 17 16 11 18 10 19 8 20 9 21 12 24 13 25 14 26
REMARK SMILES IDX 15 27 20 28 21 29 22 30 29 32 30 33 31 34 32 35 33 36 34 37
REMARK SMILES IDX 35 38 57 43 58 44 59 45 60 46 61 47 62 49 66 50 67 51 68 52
REMARK SMILES IDX 69 53 70 54 71 55 2 56 1 57 3 58 4 59 5 60 6 62 7 63 63 65
REMARK SMILES IDX 64 66 65 67 40 69 41 70 42 71 44 72 43 73 45 74 46 75 47 76
REMARK SMILES IDX 55 77 56 78 48 79 49 80 50 81 54 82 51 83 53 84 52 85
REMARK H PARENT 38 5 27 10 18 17 10 22 22 31 34 39 34 40 35 41 35 42 61 48
REMARK H PARENT 5 61 65 68
REMARK Flexibility Score:  369.900
ROOT
ATOM      1  C   UNL     1       2.464   3.273  -3.281  1.00  0.00     0.117 C 
ENDROOT
BRANCH   1   2
ATOM      2  N   UNL     1       1.237   3.297  -2.484  1.00  0.00    -0.347 N 
ATOM      3  O   UNL     1      -0.264   3.147  -4.215  1.00  0.00    -0.273 OA
ATOM      4  C   UNL     1      -0.031   3.140  -3.011  1.00  0.00     0.243 C 
ATOM      5  H   UNL     1       1.300   3.385  -1.481  1.00  0.00     0.164 HD
BRANCH   4   6
ATOM      6  C   UNL     1      -1.152   3.119  -1.941  1.00  0.00     0.171 C 
BRANCH   6   7
ATOM      7  N   UNL     1      -1.461   4.486  -1.492  1.00  0.00    -0.344 N 
ATOM      8  C   UNL     1      -0.754   5.063  -0.459  1.00  0.00     0.226 C 
ATOM      9  O   UNL     1       0.135   4.473   0.143  1.00  0.00    -0.275 OA
ATOM     10  H   UNL     1      -2.233   4.980  -1.921  1.00  0.00     0.164 HD
BRANCH   8  11
ATOM     11  C   UNL     1      -1.154   6.495  -0.151  1.00  0.00     0.109 C 
ATOM     12  C   UNL     1      -0.392   7.461  -1.059  1.00  0.00     0.021 C 
BRANCH  11  13
ATOM     13  C   UNL     1      -2.689   6.631  -0.203  1.00  0.00     0.204 C 
BRANCH  13  14
ATOM     14  N   UNL     1      -3.222   7.325   0.973  1.00  0.00    -0.340 N 
ATOM     15  C   UNL     1      -3.883   6.672   1.991  1.00  0.00     0.243 C 
ATOM     16  O   UNL     1      -4.019   5.451   2.014  1.00  0.00    -0.273 OA
ATOM     17  H   UNL     1      -3.276   8.346   0.944  1.00  0.00     0.164 HD
BRANCH  15  18
ATOM     18  C   UNL     1      -4.535   7.630   3.019  1.00  0.00     0.171 C 
BRANCH  18  19
ATOM     19  N   UNL     1      -5.521   8.422   2.286  1.00  0.00    -0.343 N 
ATOM     20  C   UNL     1      -5.521   9.803   2.325  1.00  0.00     0.242 CG0
ATOM     21  O   UNL     1      -4.778  10.425   3.080  1.00  0.00    -0.273 OA
ATOM     22  H   UNL     1      -6.230   7.949   1.738  1.00  0.00     0.164 HD
ATOM     23  G   UNL     1      -6.586  10.465   1.427  1.00  0.00     0.000 G0
ENDBRANCH  18  19
BRANCH  18  24
ATOM     24  C   UNL     1      -5.185   6.838   4.160  1.00  0.00     0.038 C 
BRANCH  24  25
ATOM     25  C   UNL     1      -4.391   6.845   5.483  1.00  0.00    -0.015 C 
ATOM     26  C   UNL     1      -3.373   7.984   5.550  1.00  0.00     0.007 C 
ATOM     27  C   UNL     1      -3.675   5.503   5.661  1.00  0.00     0.007 C 
ENDBRANCH  24  25
ENDBRANCH  18  24
ENDBRANCH  15  18
ENDBRANCH  13  14
BRANCH  13  28
ATOM     28  C   UNL     1      -3.187   7.386  -1.440  1.00  0.00     0.327 C 
ATOM     29  O   UNL     1      -3.191   6.969  -2.588  1.00  0.00    -0.250 OA
BRANCH  28  30
ATOM     30  O   UNL     1      -3.537   8.661  -1.175  1.00  0.00    -0.480 OA
ATOM     31  H   UNL     1      -4.385   8.781  -1.650  1.00  0.00     0.296 HD
ENDBRANCH  28  30
ENDBRANCH  13  28
ENDBRANCH  11  13
ENDBRANCH   8  11
ENDBRANCH   6   7
BRANCH   6  32
ATOM     32  C   UNL     1      -2.395   2.442  -2.529  1.00  0.00     0.037 C 
BRANCH  32  33
ATOM     33  C   UNL     1      -3.591   3.401  -2.616  1.00  0.00     0.026 C 
BRANCH  33  34
ATOM     34  C   UNL     1      -4.040   3.647  -4.057  1.00  0.00     0.146 C 
BRANCH  34  35
ATOM     35  N   UNL     1      -4.054   2.375  -4.768  1.00  0.00    -0.254 NA
ATOM     36  C   UNL     1      -3.269   2.221  -5.768  1.00  0.00     0.185 C 
ATOM     37  N   UNL     1      -3.271   1.052  -6.427  1.00  0.00    -0.370 N 
ATOM     38  N   UNL     1      -2.391   3.093  -6.295  1.00  0.00    -0.370 N 
ATOM     39  H   UNL     1      -3.900   0.338  -6.082  1.00  0.00     0.159 HD
ATOM     40  H   UNL     1      -2.572   0.793  -7.101  1.00  0.00     0.159 HD
ATOM     41  H   UNL     1      -1.930   2.904  -7.169  1.00  0.00     0.159 HD
ATOM     42  H   UNL     1      -2.295   4.020  -5.909  1.00  0.00     0.159 HD
ENDBRANCH  34  35
ENDBRANCH  33  34
ENDBRANCH  32  33
ENDBRANCH   6  32
ENDBRANCH   4   6
ENDBRANCH   1   2
BRANCH   1  43
ATOM     43  C   UNL     1       3.073   1.843  -3.207  1.00  0.00     0.102 C 
ATOM     44  C   UNL     1       4.611   1.834  -3.187  1.00  0.00     0.020 C 
BRANCH  43  45
ATOM     45  C   UNL     1       2.460   0.928  -4.271  1.00  0.00     0.225 C 
ATOM     46  O   UNL     1       2.110  -0.226  -4.043  1.00  0.00    -0.275 OA
ATOM     47  N   UNL     1       2.409   1.451  -5.543  1.00  0.00    -0.342 N 
ATOM     48  H   UNL     1       2.555   2.440  -5.684  1.00  0.00     0.164 HD
BRANCH  47  49
ATOM     49  C   UNL     1       1.815   0.702  -6.656  1.00  0.00     0.192 C 
BRANCH  49  50
ATOM     50  C   UNL     1       2.444   1.157  -7.975  1.00  0.00     0.047 C 
BRANCH  50  51
ATOM     51  C   UNL     1       3.750   1.934  -7.760  1.00  0.00     0.103 C 
BRANCH  51  52
ATOM     52  C   UNL     1       4.626   1.941  -9.011  1.00  0.00     0.226 C 
ATOM     53  O   UNL     1       4.795   0.896  -9.643  1.00  0.00    -0.275 OA
BRANCH  52  54
ATOM     54  N   UNL     1       5.135   3.190  -9.413  1.00  0.00    -0.311 N 
ATOM     55  C   UNL     1       4.253   4.221  -9.974  1.00  0.00     0.153 C 
BRANCH  54  56
ATOM     56  C   UNL     1       6.500   3.499  -9.288  1.00  0.00     0.102 C 
ATOM     57  C   UNL     1       7.001   4.455  -8.489  1.00  0.00     0.043 C 
BRANCH  56  58
ATOM     58  C   UNL     1       7.545   2.712 -10.043  1.00  0.00     0.268 C 
ATOM     59  O   UNL     1       8.625   2.398  -9.560  1.00  0.00    -0.268 OA
ATOM     60  N   UNL     1       7.133   2.331 -11.298  1.00  0.00    -0.339 N 
ATOM     61  H   UNL     1       6.227   2.641 -11.628  1.00  0.00     0.164 HD
BRANCH  60  62
ATOM     62  C   UNL     1       7.965   1.509 -12.175  1.00  0.00     0.168 CG0
ATOM     63  C   UNL     1       7.602   0.035 -12.050  1.00  0.00     0.041 C 
ATOM     64  G   UNL     1       9.453   1.735 -11.837  1.00  0.00     0.000 G0
ENDBRANCH  60  62
ENDBRANCH  56  58
ENDBRANCH  54  56
ENDBRANCH  52  54
ENDBRANCH  51  52
ENDBRANCH  50  51
ENDBRANCH  49  50
BRANCH  49  65
ATOM     65  C   UNL     1       0.293   0.899  -6.723  1.00  0.00     0.326 C 
ATOM     66  O   UNL     1      -0.320   1.385  -7.663  1.00  0.00    -0.250 OA
BRANCH  65  67
ATOM     67  O   UNL     1      -0.372   0.541  -5.603  1.00  0.00    -0.480 OA
ATOM     68  H   UNL     1       0.206   0.862  -4.877  1.00  0.00     0.296 HD
ENDBRANCH  65  67
ENDBRANCH  49  65
ENDBRANCH  47  49
ENDBRANCH  43  45
ENDBRANCH   1  43
BRANCH   1  69
ATOM     69  C   UNL     1       3.298   4.451  -2.812  1.00  0.00    -0.001 C 
ATOM     70  C   UNL     1       2.913   5.453  -2.002  1.00  0.00     0.001 C 
BRANCH  70  71
ATOM     71  C   UNL     1       3.734   6.574  -1.539  1.00  0.00    -0.055 C 
ATOM     72  C   UNL     1       3.753   6.833  -0.214  1.00  0.00    -0.018 C 
ATOM     73  C   UNL     1       4.505   7.354  -2.571  1.00  0.00     0.044 C 
BRANCH  72  74
ATOM     74  C   UNL     1       4.506   7.915   0.545  1.00  0.00     0.038 C 
ATOM     75  C   UNL     1       5.917   7.380   0.817  1.00  0.00     0.015 C 
BRANCH  74  76
ATOM     76  C   UNL     1       3.693   8.291   1.819  1.00  0.00     0.128 C 
BRANCH  76  77
ATOM     77  O   UNL     1       3.996   9.640   2.214  1.00  0.00    -0.381 OA
ATOM     78  C   UNL     1       4.693   9.731   3.449  1.00  0.00     0.195 C 
ENDBRANCH  76  77
BRANCH  76  79
ATOM     79  C   UNL     1       2.171   8.030   1.695  1.00  0.00     0.068 C 
BRANCH  79  80
ATOM     80  C   UNL     1       1.485   7.300   2.824  1.00  0.00    -0.045 A 
ATOM     81  C   UNL     1       0.092   7.147   2.844  1.00  0.00     0.004 A 
ATOM     82  C   UNL     1       2.234   6.784   3.891  1.00  0.00     0.004 A 
ATOM     83  C   UNL     1      -0.537   6.483   3.899  1.00  0.00     0.000 A 
ATOM     84  C   UNL     1       1.605   6.120   4.947  1.00  0.00     0.000 A 
ATOM     85  C   UNL     1       0.220   5.968   4.949  1.00  0.00     0.000 A 
ENDBRANCH  79  80
ENDBRANCH  76  79
ENDBRANCH  74  76
ENDBRANCH  72  74
ENDBRANCH  70  71
ENDBRANCH   1  69
TORSDOF 17
ENDMDL
MODEL 22
REMARK VINA RESULT:    -6.209      7.032     13.257
REMARK INTER + INTRA:         -24.555
REMARK INTER:                 -17.170
REMARK INTRA:                  -7.385
REMARK UNBOUND:                -6.005
REMARK SMILES C=C1C(=O)N[C@H](C)C(=O)N[C@@H](CC(C)C)C(=O)N[C@@H](C(=O)O)[C@H](C)C(=O)N[C@@H](CCCN=C(N)N)C(=O)N[C@@H](/C=C/C(C)=C/[C@H](C)[C@H](Cc2ccccc2)OC)[C@H](C)C(=O)N[C@@H](C(=O)O)CCC(=O)N1C
REMARK SMILES IDX 39 1 38 2 37 3 36 4 28 6 27 7 25 8 26 9 23 11 24 12 19 13
REMARK SMILES IDX 18 14 16 15 17 16 11 18 10 19 8 20 9 21 12 24 13 25 14 26
REMARK SMILES IDX 15 27 20 28 21 29 22 30 29 32 30 33 31 34 32 35 33 36 34 37
REMARK SMILES IDX 35 38 57 43 58 44 59 45 60 46 61 47 62 49 66 50 67 51 68 52
REMARK SMILES IDX 69 53 70 54 71 55 2 56 1 57 3 58 4 59 5 60 6 62 7 63 63 65
REMARK SMILES IDX 64 66 65 67 40 69 41 70 42 71 44 72 43 73 45 74 46 75 47 76
REMARK SMILES IDX 55 77 56 78 48 79 49 80 50 81 54 82 51 83 53 84 52 85
REMARK H PARENT 38 5 27 10 18 17 10 22 22 31 34 39 34 40 35 41 35 42 61 48
REMARK H PARENT 5 61 65 68
REMARK Flexibility Score:  369.900
ROOT
ATOM      1  C   UNL     1      -8.861   4.739  -6.128  1.00  0.00     0.117 C 
ENDROOT
BRANCH   1   2
ATOM      2  N   UNL     1      -7.966   4.917  -4.984  1.00  0.00    -0.347 N 
ATOM      3  O   UNL     1      -6.532   3.182  -5.436  1.00  0.00    -0.273 OA
ATOM      4  C   UNL     1      -6.817   4.179  -4.779  1.00  0.00     0.243 C 
ATOM      5  H   UNL     1      -8.154   5.651  -4.318  1.00  0.00     0.164 HD
BRANCH   4   6
ATOM      6  C   UNL     1      -6.002   4.625  -3.539  1.00  0.00     0.171 C 
BRANCH   6   7
ATOM      7  N   UNL     1      -4.665   4.010  -3.553  1.00  0.00    -0.344 N 
ATOM      8  C   UNL     1      -4.315   3.065  -2.613  1.00  0.00     0.226 C 
ATOM      9  O   UNL     1      -5.075   2.711  -1.719  1.00  0.00    -0.275 OA
ATOM     10  H   UNL     1      -3.986   4.326  -4.235  1.00  0.00     0.164 HD
BRANCH   8  11
ATOM     11  C   UNL     1      -2.923   2.487  -2.795  1.00  0.00     0.109 C 
ATOM     12  C   UNL     1      -2.202   3.201  -3.937  1.00  0.00     0.021 C 
BRANCH  11  13
ATOM     13  C   UNL     1      -2.174   2.498  -1.447  1.00  0.00     0.204 C 
BRANCH  13  14
ATOM     14  N   UNL     1      -2.646   3.567  -0.562  1.00  0.00    -0.340 N 
ATOM     15  C   UNL     1      -1.793   4.369   0.164  1.00  0.00     0.243 C 
ATOM     16  O   UNL     1      -0.570   4.284   0.074  1.00  0.00    -0.273 OA
ATOM     17  H   UNL     1      -3.642   3.590  -0.326  1.00  0.00     0.164 HD
BRANCH  15  18
ATOM     18  C   UNL     1      -2.520   5.283   1.182  1.00  0.00     0.171 C 
BRANCH  18  19
ATOM     19  N   UNL     1      -2.064   4.875   2.510  1.00  0.00    -0.343 N 
ATOM     20  C   UNL     1      -2.948   4.668   3.551  1.00  0.00     0.242 CG0
ATOM     21  O   UNL     1      -4.141   4.945   3.448  1.00  0.00    -0.273 OA
ATOM     22  H   UNL     1      -1.073   4.746   2.678  1.00  0.00     0.164 HD
ATOM     23  G   UNL     1      -2.291   4.166   4.854  1.00  0.00     0.000 G0
ENDBRANCH  18  19
BRANCH  18  24
ATOM     24  C   UNL     1      -2.203   6.758   0.907  1.00  0.00     0.038 C 
BRANCH  24  25
ATOM     25  C   UNL     1      -3.030   7.394  -0.230  1.00  0.00    -0.015 C 
ATOM     26  C   UNL     1      -2.571   8.813  -0.565  1.00  0.00     0.007 C 
ATOM     27  C   UNL     1      -4.511   7.410   0.158  1.00  0.00     0.007 C 
ENDBRANCH  24  25
ENDBRANCH  18  24
ENDBRANCH  15  18
ENDBRANCH  13  14
BRANCH  13  28
ATOM     28  C   UNL     1      -2.300   1.181  -0.676  1.00  0.00     0.327 C 
ATOM     29  O   UNL     1      -1.688   0.148  -0.904  1.00  0.00    -0.250 OA
BRANCH  28  30
ATOM     30  O   UNL     1      -3.271   1.206   0.259  1.00  0.00    -0.480 OA
ATOM     31  H   UNL     1      -4.087   0.981  -0.234  1.00  0.00     0.296 HD
ENDBRANCH  28  30
ENDBRANCH  13  28
ENDBRANCH  11  13
ENDBRANCH   8  11
ENDBRANCH   6   7
BRANCH   6  32
ATOM     32  C   UNL     1      -5.901   6.154  -3.527  1.00  0.00     0.037 C 
BRANCH  32  33
ATOM     33  C   UNL     1      -4.444   6.639  -3.516  1.00  0.00     0.026 C 
BRANCH  33  34
ATOM     34  C   UNL     1      -4.035   7.292  -4.836  1.00  0.00     0.146 C 
BRANCH  34  35
ATOM     35  N   UNL     1      -2.975   6.499  -5.444  1.00  0.00    -0.254 NA
ATOM     36  C   UNL     1      -3.259   5.767  -6.456  1.00  0.00     0.185 C 
ATOM     37  N   UNL     1      -2.290   5.036  -7.028  1.00  0.00    -0.370 N 
ATOM     38  N   UNL     1      -4.442   5.604  -7.075  1.00  0.00    -0.370 N 
ATOM     39  H   UNL     1      -1.365   5.113  -6.624  1.00  0.00     0.159 HD
ATOM     40  H   UNL     1      -2.389   4.578  -7.917  1.00  0.00     0.159 HD
ATOM     41  H   UNL     1      -4.570   4.892  -7.776  1.00  0.00     0.159 HD
ATOM     42  H   UNL     1      -5.265   6.081  -6.743  1.00  0.00     0.159 HD
ENDBRANCH  34  35
ENDBRANCH  33  34
ENDBRANCH  32  33
ENDBRANCH   6  32
ENDBRANCH   4   6
ENDBRANCH   1   2
BRANCH   1  43
ATOM     43  C   UNL     1      -8.184   5.354  -7.387  1.00  0.00     0.102 C 
ATOM     44  C   UNL     1      -7.866   6.852  -7.241  1.00  0.00     0.020 C 
BRANCH  43  45
ATOM     45  C   UNL     1      -8.965   5.005  -8.657  1.00  0.00     0.225 C 
ATOM     46  O   UNL     1      -9.645   3.989  -8.769  1.00  0.00    -0.275 OA
ATOM     47  N   UNL     1      -8.785   5.863  -9.718  1.00  0.00    -0.342 N 
ATOM     48  H   UNL     1      -8.352   6.763  -9.565  1.00  0.00     0.164 HD
BRANCH  47  49
ATOM     49  C   UNL     1      -9.497   5.674 -10.986  1.00  0.00     0.192 C 
BRANCH  49  50
ATOM     50  C   UNL     1      -8.530   5.881 -12.154  1.00  0.00     0.047 C 
BRANCH  50  51
ATOM     51  C   UNL     1      -7.421   4.820 -12.186  1.00  0.00     0.103 C 
BRANCH  51  52
ATOM     52  C   UNL     1      -6.261   5.230 -13.091  1.00  0.00     0.226 C 
ATOM     53  O   UNL     1      -5.283   5.804 -12.608  1.00  0.00    -0.275 OA
BRANCH  52  54
ATOM     54  N   UNL     1      -6.355   4.849 -14.442  1.00  0.00    -0.311 N 
ATOM     55  C   UNL     1      -6.271   3.436 -14.837  1.00  0.00     0.153 C 
BRANCH  54  56
ATOM     56  C   UNL     1      -6.538   5.799 -15.461  1.00  0.00     0.102 C 
ATOM     57  C   UNL     1      -5.609   6.142 -16.368  1.00  0.00     0.043 C 
BRANCH  56  58
ATOM     58  C   UNL     1      -7.866   6.498 -15.639  1.00  0.00     0.268 C 
ATOM     59  O   UNL     1      -8.936   5.905 -15.668  1.00  0.00    -0.268 OA
ATOM     60  N   UNL     1      -7.752   7.866 -15.699  1.00  0.00    -0.339 N 
ATOM     61  H   UNL     1      -6.828   8.280 -15.678  1.00  0.00     0.164 HD
BRANCH  60  62
ATOM     62  C   UNL     1      -8.919   8.741 -15.807  1.00  0.00     0.168 CG0
ATOM     63  C   UNL     1      -9.270   9.355 -14.457  1.00  0.00     0.041 C 
ATOM     64  G   UNL     1     -10.113   7.942 -16.370  1.00  0.00     0.000 G0
ENDBRANCH  60  62
ENDBRANCH  56  58
ENDBRANCH  54  56
ENDBRANCH  52  54
ENDBRANCH  51  52
ENDBRANCH  50  51
ENDBRANCH  49  50
BRANCH  49  65
ATOM     65  C   UNL     1     -10.677   6.649 -11.123  1.00  0.00     0.326 C 
ATOM     66  O   UNL     1     -10.592   7.828 -11.436  1.00  0.00    -0.250 OA
BRANCH  65  67
ATOM     67  O   UNL     1     -11.881   6.124 -10.808  1.00  0.00    -0.480 OA
ATOM     68  H   UNL     1     -11.899   5.275 -11.298  1.00  0.00     0.296 HD
ENDBRANCH  65  67
ENDBRANCH  49  65
ENDBRANCH  47  49
ENDBRANCH  43  45
ENDBRANCH   1  43
BRANCH   1  69
ATOM     69  C   UNL     1     -10.216   5.267  -5.692  1.00  0.00    -0.001 C 
ATOM     70  C   UNL     1     -11.409   4.661  -5.821  1.00  0.00     0.001 C 
BRANCH  70  71
ATOM     71  C   UNL     1     -12.708   5.172  -5.378  1.00  0.00    -0.055 C 
ATOM     72  C   UNL     1     -12.850   6.509  -5.263  1.00  0.00    -0.018 C 
ATOM     73  C   UNL     1     -13.795   4.170  -5.089  1.00  0.00     0.044 C 
BRANCH  72  74
ATOM     74  C   UNL     1     -14.068   7.314  -4.833  1.00  0.00     0.038 C 
ATOM     75  C   UNL     1     -14.888   7.604  -6.096  1.00  0.00     0.015 C 
BRANCH  74  76
ATOM     76  C   UNL     1     -13.586   8.579  -4.063  1.00  0.00     0.128 C 
BRANCH  76  77
ATOM     77  O   UNL     1     -14.675   9.139  -3.308  1.00  0.00    -0.381 OA
ATOM     78  C   UNL     1     -14.520   9.010  -1.901  1.00  0.00     0.195 C 
ENDBRANCH  76  77
BRANCH  76  79
ATOM     79  C   UNL     1     -12.318   8.347  -3.203  1.00  0.00     0.068 C 
BRANCH  79  80
ATOM     80  C   UNL     1     -10.995   8.827  -3.751  1.00  0.00    -0.045 A 
ATOM     81  C   UNL     1     -10.935   9.887  -4.666  1.00  0.00     0.004 A 
ATOM     82  C   UNL     1      -9.801   8.196  -3.370  1.00  0.00     0.004 A 
ATOM     83  C   UNL     1      -9.709  10.315  -5.178  1.00  0.00     0.000 A 
ATOM     84  C   UNL     1      -8.576   8.626  -3.884  1.00  0.00     0.000 A 
ATOM     85  C   UNL     1      -8.530   9.686  -4.786  1.00  0.00     0.000 A 
ENDBRANCH  79  80
ENDBRANCH  76  79
ENDBRANCH  74  76
ENDBRANCH  72  74
ENDBRANCH  70  71
ENDBRANCH   1  69
TORSDOF 17
ENDMDL
MODEL 23
REMARK VINA RESULT:    -6.187      5.716     11.694
REMARK INTER + INTRA:         -24.490
REMARK INTER:                 -16.803
REMARK INTRA:                  -7.688
REMARK UNBOUND:                -6.005
REMARK SMILES C=C1C(=O)N[C@H](C)C(=O)N[C@@H](CC(C)C)C(=O)N[C@@H](C(=O)O)[C@H](C)C(=O)N[C@@H](CCCN=C(N)N)C(=O)N[C@@H](/C=C/C(C)=C/[C@H](C)[C@H](Cc2ccccc2)OC)[C@H](C)C(=O)N[C@@H](C(=O)O)CCC(=O)N1C
REMARK SMILES IDX 39 1 38 2 37 3 36 4 28 6 27 7 25 8 26 9 23 11 24 12 19 13
REMARK SMILES IDX 18 14 16 15 17 16 11 18 10 19 8 20 9 21 12 24 13 25 14 26
REMARK SMILES IDX 15 27 20 28 21 29 22 30 29 32 30 33 31 34 32 35 33 36 34 37
REMARK SMILES IDX 35 38 57 43 58 44 59 45 60 46 61 47 62 49 66 50 67 51 68 52
REMARK SMILES IDX 69 53 70 54 71 55 2 56 1 57 3 58 4 59 5 60 6 62 7 63 63 65
REMARK SMILES IDX 64 66 65 67 40 69 41 70 42 71 44 72 43 73 45 74 46 75 47 76
REMARK SMILES IDX 55 77 56 78 48 79 49 80 50 81 54 82 51 83 53 84 52 85
REMARK H PARENT 38 5 27 10 18 17 10 22 22 31 34 39 34 40 35 41 35 42 61 48
REMARK H PARENT 5 61 65 68
REMARK Flexibility Score:  369.900
ROOT
ATOM      1  C   UNL     1       2.188   2.365 -11.236  1.00  0.00     0.117 C 
ENDROOT
BRANCH   1   2
ATOM      2  N   UNL     1       1.743   2.970  -9.980  1.00  0.00    -0.347 N 
ATOM      3  O   UNL     1      -0.470   2.374 -10.112  1.00  0.00    -0.273 OA
ATOM      4  C   UNL     1       0.464   2.847  -9.473  1.00  0.00     0.243 C 
ATOM      5  H   UNL     1       2.407   3.470  -9.410  1.00  0.00     0.164 HD
BRANCH   4   6
ATOM      6  C   UNL     1       0.277   3.510  -8.084  1.00  0.00     0.171 C 
BRANCH   6   7
ATOM      7  N   UNL     1       0.722   2.600  -7.016  1.00  0.00    -0.344 N 
ATOM      8  C   UNL     1      -0.072   1.549  -6.612  1.00  0.00     0.226 C 
ATOM      9  O   UNL     1      -1.177   1.333  -7.095  1.00  0.00    -0.275 OA
ATOM     10  H   UNL     1       1.599   2.787  -6.547  1.00  0.00     0.164 HD
BRANCH   8  11
ATOM     11  C   UNL     1       0.550   0.671  -5.541  1.00  0.00     0.109 C 
ATOM     12  C   UNL     1       1.607  -0.244  -6.158  1.00  0.00     0.021 C 
BRANCH  11  13
ATOM     13  C   UNL     1       1.051   1.547  -4.375  1.00  0.00     0.204 C 
BRANCH  13  14
ATOM     14  N   UNL     1      -0.032   1.922  -3.461  1.00  0.00    -0.340 N 
ATOM     15  C   UNL     1      -0.647   3.155  -3.496  1.00  0.00     0.243 C 
ATOM     16  O   UNL     1      -0.371   4.008  -4.338  1.00  0.00    -0.273 OA
ATOM     17  H   UNL     1      -0.203   1.325  -2.648  1.00  0.00     0.164 HD
BRANCH  15  18
ATOM     18  C   UNL     1      -1.611   3.399  -2.309  1.00  0.00     0.171 C 
BRANCH  18  19
ATOM     19  N   UNL     1      -1.443   2.271  -1.394  1.00  0.00    -0.343 N 
ATOM     20  C   UNL     1      -2.520   1.670  -0.773  1.00  0.00     0.242 CG0
ATOM     21  O   UNL     1      -3.653   2.138  -0.854  1.00  0.00    -0.273 OA
ATOM     22  H   UNL     1      -0.511   1.920  -1.203  1.00  0.00     0.164 HD
ATOM     23  G   UNL     1      -2.155   0.447   0.093  1.00  0.00     0.000 G0
ENDBRANCH  18  19
BRANCH  18  24
ATOM     24  C   UNL     1      -1.295   4.733  -1.620  1.00  0.00     0.038 C 
BRANCH  24  25
ATOM     25  C   UNL     1      -0.213   4.651  -0.523  1.00  0.00    -0.015 C 
ATOM     26  C   UNL     1      -0.652   5.314   0.783  1.00  0.00     0.007 C 
ATOM     27  C   UNL     1       1.078   5.304  -1.023  1.00  0.00     0.007 C 
ENDBRANCH  24  25
ENDBRANCH  18  24
ENDBRANCH  15  18
ENDBRANCH  13  14
BRANCH  13  28
ATOM     28  C   UNL     1       2.139   0.870  -3.536  1.00  0.00     0.327 C 
ATOM     29  O   UNL     1       1.964   0.032  -2.665  1.00  0.00    -0.250 OA
BRANCH  28  30
ATOM     30  O   UNL     1       3.370   1.374  -3.760  1.00  0.00    -0.480 OA
ATOM     31  H   UNL     1       3.211   2.320  -3.960  1.00  0.00     0.296 HD
ENDBRANCH  28  30
ENDBRANCH  13  28
ENDBRANCH  11  13
ENDBRANCH   8  11
ENDBRANCH   6   7
BRANCH   6  32
ATOM     32  C   UNL     1       1.062   4.825  -8.045  1.00  0.00     0.037 C 
BRANCH  32  33
ATOM     33  C   UNL     1       0.681   5.692  -6.837  1.00  0.00     0.026 C 
BRANCH  33  34
ATOM     34  C   UNL     1       1.832   6.584  -6.370  1.00  0.00     0.146 C 
BRANCH  34  35
ATOM     35  N   UNL     1       2.887   6.554  -7.374  1.00  0.00    -0.254 NA
ATOM     36  C   UNL     1       4.057   6.171  -7.024  1.00  0.00     0.185 C 
ATOM     37  N   UNL     1       5.036   6.134  -7.942  1.00  0.00    -0.370 N 
ATOM     38  N   UNL     1       4.490   5.774  -5.814  1.00  0.00    -0.370 N 
ATOM     39  H   UNL     1       4.785   6.410  -8.883  1.00  0.00     0.159 HD
ATOM     40  H   UNL     1       5.923   5.686  -7.792  1.00  0.00     0.159 HD
ATOM     41  H   UNL     1       5.469   5.629  -5.632  1.00  0.00     0.159 HD
ATOM     42  H   UNL     1       3.864   5.766  -5.023  1.00  0.00     0.159 HD
ENDBRANCH  34  35
ENDBRANCH  33  34
ENDBRANCH  32  33
ENDBRANCH   6  32
ENDBRANCH   4   6
ENDBRANCH   1   2
BRANCH   1  43
ATOM     43  C   UNL     1       3.674   1.932 -11.078  1.00  0.00     0.102 C 
ATOM     44  C   UNL     1       3.855   0.413 -10.921  1.00  0.00     0.020 C 
BRANCH  43  45
ATOM     45  C   UNL     1       4.374   2.756  -9.994  1.00  0.00     0.225 C 
ATOM     46  O   UNL     1       4.396   3.984  -9.993  1.00  0.00    -0.275 OA
ATOM     47  N   UNL     1       5.070   2.030  -9.054  1.00  0.00    -0.342 N 
ATOM     48  H   UNL     1       4.918   1.034  -8.979  1.00  0.00     0.164 HD
BRANCH  47  49
ATOM     49  C   UNL     1       5.759   2.683  -7.937  1.00  0.00     0.192 C 
BRANCH  49  50
ATOM     50  C   UNL     1       7.193   2.156  -7.838  1.00  0.00     0.047 C 
BRANCH  50  51
ATOM     51  C   UNL     1       8.056   2.588  -9.032  1.00  0.00     0.103 C 
BRANCH  51  52
ATOM     52  C   UNL     1       7.905   1.641 -10.221  1.00  0.00     0.226 C 
ATOM     53  O   UNL     1       7.604   0.461 -10.027  1.00  0.00    -0.275 OA
BRANCH  52  54
ATOM     54  N   UNL     1       8.050   2.211 -11.499  1.00  0.00    -0.311 N 
ATOM     55  C   UNL     1       7.430   3.502 -11.825  1.00  0.00     0.153 C 
BRANCH  54  56
ATOM     56  C   UNL     1       8.795   1.574 -12.505  1.00  0.00     0.102 C 
ATOM     57  C   UNL     1       8.362   0.539 -13.243  1.00  0.00     0.043 C 
BRANCH  56  58
ATOM     58  C   UNL     1      10.177   2.061 -12.872  1.00  0.00     0.268 C 
ATOM     59  O   UNL     1      11.016   2.385 -12.041  1.00  0.00    -0.268 OA
ATOM     60  N   UNL     1      10.416   2.040 -14.225  1.00  0.00    -0.339 N 
ATOM     61  H   UNL     1       9.665   1.768 -14.848  1.00  0.00     0.164 HD
BRANCH  60  62
ATOM     62  C   UNL     1      11.711   2.411 -14.793  1.00  0.00     0.168 CG0
ATOM     63  C   UNL     1      11.908   1.779 -16.166  1.00  0.00     0.041 C 
ATOM     64  G   UNL     1      12.839   1.986 -13.830  1.00  0.00     0.000 G0
ENDBRANCH  60  62
ENDBRANCH  56  58
ENDBRANCH  54  56
ENDBRANCH  52  54
ENDBRANCH  51  52
ENDBRANCH  50  51
ENDBRANCH  49  50
BRANCH  49  65
ATOM     65  C   UNL     1       5.034   2.441  -6.604  1.00  0.00     0.326 C 
ATOM     66  O   UNL     1       5.553   2.023  -5.579  1.00  0.00    -0.250 OA
BRANCH  65  67
ATOM     67  O   UNL     1       3.703   2.673  -6.636  1.00  0.00    -0.480 OA
ATOM     68  H   UNL     1       3.617   3.446  -7.234  1.00  0.00     0.296 HD
ENDBRANCH  65  67
ENDBRANCH  49  65
ENDBRANCH  47  49
ENDBRANCH  43  45
ENDBRANCH   1  43
BRANCH   1  69
ATOM     69  C   UNL     1       1.823   3.348 -12.333  1.00  0.00    -0.001 C 
ATOM     70  C   UNL     1       1.626   3.082 -13.636  1.00  0.00     0.001 C 
BRANCH  70  71
ATOM     71  C   UNL     1       1.253   4.037 -14.682  1.00  0.00    -0.055 C 
ATOM     72  C   UNL     1       1.294   5.350 -14.376  1.00  0.00    -0.018 C 
ATOM     73  C   UNL     1       0.858   3.485 -16.027  1.00  0.00     0.044 C 
BRANCH  72  74
ATOM     74  C   UNL     1       0.968   6.553 -15.250  1.00  0.00     0.038 C 
ATOM     75  C   UNL     1       1.977   7.654 -14.899  1.00  0.00     0.015 C 
BRANCH  74  76
ATOM     76  C   UNL     1      -0.524   6.941 -15.033  1.00  0.00     0.128 C 
BRANCH  76  77
ATOM     77  O   UNL     1      -0.659   8.372 -14.994  1.00  0.00    -0.381 OA
ATOM     78  C   UNL     1      -1.995   8.814 -14.798  1.00  0.00     0.195 C 
ENDBRANCH  76  77
BRANCH  76  79
ATOM     79  C   UNL     1      -1.500   6.274 -16.035  1.00  0.00     0.068 C 
BRANCH  79  80
ATOM     80  C   UNL     1      -2.520   5.304 -15.489  1.00  0.00    -0.045 A 
ATOM     81  C   UNL     1      -3.692   5.014 -16.199  1.00  0.00     0.004 A 
ATOM     82  C   UNL     1      -2.320   4.696 -14.241  1.00  0.00     0.004 A 
ATOM     83  C   UNL     1      -4.638   4.127 -15.681  1.00  0.00     0.000 A 
ATOM     84  C   UNL     1      -3.266   3.809 -13.723  1.00  0.00     0.000 A 
ATOM     85  C   UNL     1      -4.424   3.523 -14.443  1.00  0.00     0.000 A 
ENDBRANCH  79  80
ENDBRANCH  76  79
ENDBRANCH  74  76
ENDBRANCH  72  74
ENDBRANCH  70  71
ENDBRANCH   1  69
TORSDOF 17
ENDMDL
MODEL 24
REMARK VINA RESULT:    -6.173      4.288      9.507
REMARK INTER + INTRA:         -24.448
REMARK INTER:                 -18.095
REMARK INTRA:                  -6.353
REMARK UNBOUND:                -6.005
REMARK SMILES C=C1C(=O)N[C@H](C)C(=O)N[C@@H](CC(C)C)C(=O)N[C@@H](C(=O)O)[C@H](C)C(=O)N[C@@H](CCCN=C(N)N)C(=O)N[C@@H](/C=C/C(C)=C/[C@H](C)[C@H](Cc2ccccc2)OC)[C@H](C)C(=O)N[C@@H](C(=O)O)CCC(=O)N1C
REMARK SMILES IDX 39 1 38 2 37 3 36 4 28 6 27 7 25 8 26 9 23 11 24 12 19 13
REMARK SMILES IDX 18 14 16 15 17 16 11 18 10 19 8 20 9 21 12 24 13 25 14 26
REMARK SMILES IDX 15 27 20 28 21 29 22 30 29 32 30 33 31 34 32 35 33 36 34 37
REMARK SMILES IDX 35 38 57 43 58 44 59 45 60 46 61 47 62 49 66 50 67 51 68 52
REMARK SMILES IDX 69 53 70 54 71 55 2 56 1 57 3 58 4 59 5 60 6 62 7 63 63 65
REMARK SMILES IDX 64 66 65 67 40 69 41 70 42 71 44 72 43 73 45 74 46 75 47 76
REMARK SMILES IDX 55 77 56 78 48 79 49 80 50 81 54 82 51 83 53 84 52 85
REMARK H PARENT 38 5 27 10 18 17 10 22 22 31 34 39 34 40 35 41 35 42 61 48
REMARK H PARENT 5 61 65 68
REMARK Flexibility Score:  369.900
ROOT
ATOM      1  C   UNL     1       2.602   3.398  -3.303  1.00  0.00     0.117 C 
ENDROOT
BRANCH   1   2
ATOM      2  N   UNL     1       1.184   3.132  -3.059  1.00  0.00    -0.347 N 
ATOM      3  O   UNL     1       1.381   0.934  -2.428  1.00  0.00    -0.273 OA
ATOM      4  C   UNL     1       0.696   1.944  -2.551  1.00  0.00     0.243 C 
ATOM      5  H   UNL     1       0.509   3.865  -3.218  1.00  0.00     0.164 HD
BRANCH   4   6
ATOM      6  C   UNL     1      -0.834   1.952  -2.306  1.00  0.00     0.171 C 
BRANCH   6   7
ATOM      7  N   UNL     1      -1.319   3.330  -2.129  1.00  0.00    -0.344 N 
ATOM      8  C   UNL     1      -2.011   3.691  -0.993  1.00  0.00     0.226 C 
ATOM      9  O   UNL     1      -2.274   2.896  -0.100  1.00  0.00    -0.275 OA
ATOM     10  H   UNL     1      -1.180   3.999  -2.876  1.00  0.00     0.164 HD
BRANCH   8  11
ATOM     11  C   UNL     1      -2.395   5.160  -0.935  1.00  0.00     0.109 C 
ATOM     12  C   UNL     1      -2.859   5.637  -2.311  1.00  0.00     0.021 C 
BRANCH  11  13
ATOM     13  C   UNL     1      -3.407   5.389   0.205  1.00  0.00     0.204 C 
BRANCH  13  14
ATOM     14  N   UNL     1      -2.762   5.892   1.422  1.00  0.00    -0.340 N 
ATOM     15  C   UNL     1      -2.582   5.119   2.548  1.00  0.00     0.243 C 
ATOM     16  O   UNL     1      -2.897   3.931   2.591  1.00  0.00    -0.273 OA
ATOM     17  H   UNL     1      -2.617   6.902   1.507  1.00  0.00     0.164 HD
BRANCH  15  18
ATOM     18  C   UNL     1      -2.072   5.918   3.773  1.00  0.00     0.171 C 
BRANCH  18  19
ATOM     19  N   UNL     1      -2.420   5.136   4.958  1.00  0.00    -0.343 N 
ATOM     20  C   UNL     1      -3.558   5.398   5.695  1.00  0.00     0.242 CG0
ATOM     21  O   UNL     1      -4.259   6.382   5.469  1.00  0.00    -0.273 OA
ATOM     22  H   UNL     1      -1.809   4.383   5.254  1.00  0.00     0.164 HD
ATOM     23  G   UNL     1      -3.800   4.419   6.863  1.00  0.00     0.000 G0
ENDBRANCH  18  19
BRANCH  18  24
ATOM     24  C   UNL     1      -0.559   6.148   3.676  1.00  0.00     0.038 C 
BRANCH  24  25
ATOM     25  C   UNL     1       0.119   6.545   5.005  1.00  0.00    -0.015 C 
ATOM     26  C   UNL     1      -0.043   8.032   5.323  1.00  0.00     0.007 C 
ATOM     27  C   UNL     1       1.607   6.189   4.950  1.00  0.00     0.007 C 
ENDBRANCH  24  25
ENDBRANCH  18  24
ENDBRANCH  15  18
ENDBRANCH  13  14
BRANCH  13  28
ATOM     28  C   UNL     1      -4.517   6.379  -0.162  1.00  0.00     0.327 C 
ATOM     29  O   UNL     1      -4.462   7.595  -0.064  1.00  0.00    -0.250 OA
BRANCH  28  30
ATOM     30  O   UNL     1      -5.668   5.774  -0.518  1.00  0.00    -0.480 OA
ATOM     31  H   UNL     1      -6.360   6.266  -0.029  1.00  0.00     0.296 HD
ENDBRANCH  28  30
ENDBRANCH  13  28
ENDBRANCH  11  13
ENDBRANCH   8  11
ENDBRANCH   6   7
BRANCH   6  32
ATOM     32  C   UNL     1      -1.537   1.272  -3.487  1.00  0.00     0.037 C 
BRANCH  32  33
ATOM     33  C   UNL     1      -1.762   2.236  -4.660  1.00  0.00     0.026 C 
BRANCH  33  34
ATOM     34  C   UNL     1      -1.234   1.681  -5.983  1.00  0.00     0.146 C 
BRANCH  34  35
ATOM     35  N   UNL     1      -0.002   0.949  -5.727  1.00  0.00    -0.254 NA
ATOM     36  C   UNL     1       0.097  -0.255  -6.153  1.00  0.00     0.185 C 
ATOM     37  N   UNL     1       1.230  -0.938  -5.926  1.00  0.00    -0.370 N 
ATOM     38  N   UNL     1      -0.804  -0.989  -6.830  1.00  0.00    -0.370 N 
ATOM     39  H   UNL     1       1.964  -0.449  -5.429  1.00  0.00     0.159 HD
ATOM     40  H   UNL     1       1.452  -1.812  -6.372  1.00  0.00     0.159 HD
ATOM     41  H   UNL     1      -0.662  -1.973  -6.988  1.00  0.00     0.159 HD
ATOM     42  H   UNL     1      -1.709  -0.607  -7.056  1.00  0.00     0.159 HD
ENDBRANCH  34  35
ENDBRANCH  33  34
ENDBRANCH  32  33
ENDBRANCH   6  32
ENDBRANCH   4   6
ENDBRANCH   1   2
BRANCH   1  43
ATOM     43  C   UNL     1       2.870   4.913  -3.069  1.00  0.00     0.102 C 
ATOM     44  C   UNL     1       2.451   5.400  -1.672  1.00  0.00     0.020 C 
BRANCH  43  45
ATOM     45  C   UNL     1       2.303   5.755  -4.216  1.00  0.00     0.225 C 
ATOM     46  O   UNL     1       1.101   5.848  -4.450  1.00  0.00    -0.275 OA
ATOM     47  N   UNL     1       3.238   6.336  -5.042  1.00  0.00    -0.342 N 
ATOM     48  H   UNL     1       4.205   6.376  -4.753  1.00  0.00     0.164 HD
BRANCH  47  49
ATOM     49  C   UNL     1       2.842   7.198  -6.160  1.00  0.00     0.192 C 
BRANCH  49  50
ATOM     50  C   UNL     1       3.720   6.898  -7.377  1.00  0.00     0.047 C 
BRANCH  50  51
ATOM     51  C   UNL     1       5.177   6.617  -6.988  1.00  0.00     0.103 C 
BRANCH  51  52
ATOM     52  C   UNL     1       6.053   7.863  -7.106  1.00  0.00     0.226 C 
ATOM     53  O   UNL     1       5.871   8.651  -8.036  1.00  0.00    -0.275 OA
BRANCH  52  54
ATOM     54  N   UNL     1       6.986   8.073  -6.074  1.00  0.00    -0.311 N 
ATOM     55  C   UNL     1       6.594   8.735  -4.823  1.00  0.00     0.153 C 
BRANCH  54  56
ATOM     56  C   UNL     1       8.321   7.653  -6.197  1.00  0.00     0.102 C 
ATOM     57  C   UNL     1       9.105   7.273  -5.175  1.00  0.00     0.043 C 
BRANCH  56  58
ATOM     58  C   UNL     1       8.980   7.553  -7.553  1.00  0.00     0.268 C 
ATOM     59  O   UNL     1       9.119   8.511  -8.302  1.00  0.00    -0.268 OA
ATOM     60  N   UNL     1       9.464   6.296  -7.827  1.00  0.00    -0.339 N 
ATOM     61  H   UNL     1       9.298   5.554  -7.158  1.00  0.00     0.164 HD
BRANCH  60  62
ATOM     62  C   UNL     1      10.192   5.994  -9.058  1.00  0.00     0.168 CG0
ATOM     63  C   UNL     1      10.255   4.491  -9.302  1.00  0.00     0.041 C 
ATOM     64  G   UNL     1      11.611   6.594  -8.980  1.00  0.00     0.000 G0
ENDBRANCH  60  62
ENDBRANCH  56  58
ENDBRANCH  54  56
ENDBRANCH  52  54
ENDBRANCH  51  52
ENDBRANCH  50  51
ENDBRANCH  49  50
BRANCH  49  65
ATOM     65  C   UNL     1       2.964   8.687  -5.798  1.00  0.00     0.326 C 
ATOM     66  O   UNL     1       2.928   9.148  -4.667  1.00  0.00    -0.250 OA
BRANCH  65  67
ATOM     67  O   UNL     1       3.064   9.518  -6.859  1.00  0.00    -0.480 OA
ATOM     68  H   UNL     1       2.224  10.025  -6.835  1.00  0.00     0.296 HD
ENDBRANCH  65  67
ENDBRANCH  49  65
ENDBRANCH  47  49
ENDBRANCH  43  45
ENDBRANCH   1  43
BRANCH   1  69
ATOM     69  C   UNL     1       2.919   2.798  -4.660  1.00  0.00    -0.001 C 
ATOM     70  C   UNL     1       4.059   2.921  -5.362  1.00  0.00     0.001 C 
BRANCH  70  71
ATOM     71  C   UNL     1       4.360   2.320  -6.663  1.00  0.00    -0.055 C 
ATOM     72  C   UNL     1       5.631   2.398  -7.111  1.00  0.00    -0.018 C 
ATOM     73  C   UNL     1       3.234   1.648  -7.405  1.00  0.00     0.044 C 
BRANCH  72  74
ATOM     74  C   UNL     1       6.230   1.869  -8.406  1.00  0.00     0.038 C 
ATOM     75  C   UNL     1       7.747   1.777  -8.200  1.00  0.00     0.015 C 
BRANCH  74  76
ATOM     76  C   UNL     1       5.786   2.793  -9.578  1.00  0.00     0.128 C 
BRANCH  76  77
ATOM     77  O   UNL     1       6.888   3.613 -10.001  1.00  0.00    -0.381 OA
ATOM     78  C   UNL     1       6.643   5.008  -9.873  1.00  0.00     0.195 C 
ENDBRANCH  76  77
BRANCH  76  79
ATOM     79  C   UNL     1       5.113   2.040 -10.754  1.00  0.00     0.068 C 
BRANCH  79  80
ATOM     80  C   UNL     1       5.558   0.624 -11.033  1.00  0.00    -0.045 A 
ATOM     81  C   UNL     1       6.832   0.357 -11.552  1.00  0.00     0.004 A 
ATOM     82  C   UNL     1       4.685  -0.450 -10.803  1.00  0.00     0.004 A 
ATOM     83  C   UNL     1       7.230  -0.954 -11.821  1.00  0.00     0.000 A 
ATOM     84  C   UNL     1       5.084  -1.760 -11.073  1.00  0.00     0.000 A 
ATOM     85  C   UNL     1       6.357  -2.012 -11.580  1.00  0.00     0.000 A 
ENDBRANCH  79  80
ENDBRANCH  76  79
ENDBRANCH  74  76
ENDBRANCH  72  74
ENDBRANCH  70  71
ENDBRANCH   1  69
TORSDOF 17
ENDMDL
MODEL 25
REMARK VINA RESULT:    -6.171      4.874     11.236
REMARK INTER + INTRA:         -24.443
REMARK INTER:                 -17.095
REMARK INTRA:                  -7.348
REMARK UNBOUND:                -6.005
REMARK SMILES C=C1C(=O)N[C@H](C)C(=O)N[C@@H](CC(C)C)C(=O)N[C@@H](C(=O)O)[C@H](C)C(=O)N[C@@H](CCCN=C(N)N)C(=O)N[C@@H](/C=C/C(C)=C/[C@H](C)[C@H](Cc2ccccc2)OC)[C@H](C)C(=O)N[C@@H](C(=O)O)CCC(=O)N1C
REMARK SMILES IDX 39 1 38 2 37 3 36 4 28 6 27 7 25 8 26 9 23 11 24 12 19 13
REMARK SMILES IDX 18 14 16 15 17 16 11 18 10 19 8 20 9 21 12 24 13 25 14 26
REMARK SMILES IDX 15 27 20 28 21 29 22 30 29 32 30 33 31 34 32 35 33 36 34 37
REMARK SMILES IDX 35 38 57 43 58 44 59 45 60 46 61 47 62 49 66 50 67 51 68 52
REMARK SMILES IDX 69 53 70 54 71 55 2 56 1 57 3 58 4 59 5 60 6 62 7 63 63 65
REMARK SMILES IDX 64 66 65 67 40 69 41 70 42 71 44 72 43 73 45 74 46 75 47 76
REMARK SMILES IDX 55 77 56 78 48 79 49 80 50 81 54 82 51 83 53 84 52 85
REMARK H PARENT 38 5 27 10 18 17 10 22 22 31 34 39 34 40 35 41 35 42 61 48
REMARK H PARENT 5 61 65 68
REMARK Flexibility Score:  369.900
ROOT
ATOM      1  C   UNL     1      -2.044   6.672   1.137  1.00  0.00     0.117 C 
ENDROOT
BRANCH   1   2
ATOM      2  N   UNL     1      -1.925   6.298  -0.273  1.00  0.00    -0.347 N 
ATOM      3  O   UNL     1      -3.229   4.410  -0.207  1.00  0.00    -0.273 OA
ATOM      4  C   UNL     1      -2.604   5.244  -0.853  1.00  0.00     0.243 C 
ATOM      5  H   UNL     1      -1.356   6.861  -0.887  1.00  0.00     0.164 HD
BRANCH   4   6
ATOM      6  C   UNL     1      -2.369   5.116  -2.380  1.00  0.00     0.171 C 
BRANCH   6   7
ATOM      7  N   UNL     1      -1.756   3.817  -2.698  1.00  0.00    -0.344 N 
ATOM      8  C   UNL     1      -0.446   3.556  -2.359  1.00  0.00     0.226 C 
ATOM      9  O   UNL     1       0.270   4.382  -1.806  1.00  0.00    -0.275 OA
ATOM     10  H   UNL     1      -2.295   3.134  -3.215  1.00  0.00     0.164 HD
BRANCH   8  11
ATOM     11  C   UNL     1       0.022   2.154  -2.706  1.00  0.00     0.109 C 
ATOM     12  C   UNL     1      -1.147   1.173  -2.622  1.00  0.00     0.021 C 
BRANCH  11  13
ATOM     13  C   UNL     1       0.759   2.170  -4.061  1.00  0.00     0.204 C 
BRANCH  13  14
ATOM     14  N   UNL     1       2.053   2.853  -3.976  1.00  0.00    -0.340 N 
ATOM     15  C   UNL     1       2.672   3.422  -5.069  1.00  0.00     0.243 C 
ATOM     16  O   UNL     1       2.151   3.449  -6.182  1.00  0.00    -0.273 OA
ATOM     17  H   UNL     1       2.605   2.734  -3.122  1.00  0.00     0.164 HD
BRANCH  15  18
ATOM     18  C   UNL     1       4.117   3.898  -4.783  1.00  0.00     0.171 C 
BRANCH  18  19
ATOM     19  N   UNL     1       4.996   3.107  -5.641  1.00  0.00    -0.343 N 
ATOM     20  C   UNL     1       5.703   2.023  -5.158  1.00  0.00     0.242 CG0
ATOM     21  O   UNL     1       5.730   1.754  -3.959  1.00  0.00    -0.273 OA
ATOM     22  H   UNL     1       5.098   3.361  -6.617  1.00  0.00     0.164 HD
ATOM     23  G   UNL     1       6.516   1.264  -6.228  1.00  0.00     0.000 G0
ENDBRANCH  18  19
BRANCH  18  24
ATOM     24  C   UNL     1       4.258   5.399  -5.065  1.00  0.00     0.038 C 
BRANCH  24  25
ATOM     25  C   UNL     1       5.488   5.782  -5.914  1.00  0.00    -0.015 C 
ATOM     26  C   UNL     1       6.416   6.760  -5.193  1.00  0.00     0.007 C 
ATOM     27  C   UNL     1       5.028   6.392  -7.241  1.00  0.00     0.007 C 
ENDBRANCH  24  25
ENDBRANCH  18  24
ENDBRANCH  15  18
ENDBRANCH  13  14
BRANCH  13  28
ATOM     28  C   UNL     1       1.020   0.769  -4.622  1.00  0.00     0.327 C 
ATOM     29  O   UNL     1       1.683  -0.110  -4.093  1.00  0.00    -0.250 OA
BRANCH  28  30
ATOM     30  O   UNL     1       0.532   0.600  -5.868  1.00  0.00    -0.480 OA
ATOM     31  H   UNL     1       0.177  -0.314  -5.866  1.00  0.00     0.296 HD
ENDBRANCH  28  30
ENDBRANCH  13  28
ENDBRANCH  11  13
ENDBRANCH   8  11
ENDBRANCH   6   7
BRANCH   6  32
ATOM     32  C   UNL     1      -3.706   5.285  -3.111  1.00  0.00     0.037 C 
BRANCH  32  33
ATOM     33  C   UNL     1      -3.522   5.827  -4.535  1.00  0.00     0.026 C 
BRANCH  33  34
ATOM     34  C   UNL     1      -3.996   4.840  -5.602  1.00  0.00     0.146 C 
BRANCH  34  35
ATOM     35  N   UNL     1      -2.933   3.878  -5.858  1.00  0.00    -0.254 NA
ATOM     36  C   UNL     1      -3.209   2.628  -5.804  1.00  0.00     0.185 C 
ATOM     37  N   UNL     1      -2.238   1.733  -6.043  1.00  0.00    -0.370 N 
ATOM     38  N   UNL     1      -4.384   2.033  -5.531  1.00  0.00    -0.370 N 
ATOM     39  H   UNL     1      -1.324   2.104  -6.267  1.00  0.00     0.159 HD
ATOM     40  H   UNL     1      -2.409   0.753  -6.190  1.00  0.00     0.159 HD
ATOM     41  H   UNL     1      -4.442   1.040  -5.381  1.00  0.00     0.159 HD
ATOM     42  H   UNL     1      -5.200   2.585  -5.315  1.00  0.00     0.159 HD
ENDBRANCH  34  35
ENDBRANCH  33  34
ENDBRANCH  32  33
ENDBRANCH   6  32
ENDBRANCH   4   6
ENDBRANCH   1   2
BRANCH   1  43
ATOM     43  C   UNL     1      -3.369   7.465   1.329  1.00  0.00     0.102 C 
ATOM     44  C   UNL     1      -3.153   8.968   1.575  1.00  0.00     0.020 C 
BRANCH  43  45
ATOM     45  C   UNL     1      -4.270   6.788   2.367  1.00  0.00     0.225 C 
ATOM     46  O   UNL     1      -5.492   6.899   2.368  1.00  0.00    -0.275 OA
ATOM     47  N   UNL     1      -3.613   6.114   3.371  1.00  0.00    -0.342 N 
ATOM     48  H   UNL     1      -2.629   5.905   3.273  1.00  0.00     0.164 HD
BRANCH  47  49
ATOM     49  C   UNL     1      -4.346   5.388   4.413  1.00  0.00     0.192 C 
BRANCH  49  50
ATOM     50  C   UNL     1      -3.998   5.969   5.786  1.00  0.00     0.047 C 
BRANCH  50  51
ATOM     51  C   UNL     1      -4.351   7.459   5.893  1.00  0.00     0.103 C 
BRANCH  51  52
ATOM     52  C   UNL     1      -5.303   7.740   7.054  1.00  0.00     0.226 C 
ATOM     53  O   UNL     1      -4.924   8.433   8.000  1.00  0.00    -0.275 OA
BRANCH  52  54
ATOM     54  N   UNL     1      -6.612   7.238   6.927  1.00  0.00    -0.311 N 
ATOM     55  C   UNL     1      -7.477   7.654   5.816  1.00  0.00     0.153 C 
BRANCH  54  56
ATOM     56  C   UNL     1      -7.136   6.318   7.851  1.00  0.00     0.102 C 
ATOM     57  C   UNL     1      -7.456   5.045   7.571  1.00  0.00     0.043 C 
BRANCH  56  58
ATOM     58  C   UNL     1      -7.341   6.704   9.297  1.00  0.00     0.268 C 
ATOM     59  O   UNL     1      -8.390   7.166   9.725  1.00  0.00    -0.268 OA
ATOM     60  N   UNL     1      -6.254   6.422  10.091  1.00  0.00    -0.339 N 
ATOM     61  H   UNL     1      -5.418   6.050   9.658  1.00  0.00     0.164 HD
BRANCH  60  62
ATOM     62  C   UNL     1      -6.262   6.658  11.534  1.00  0.00     0.168 CG0
ATOM     63  C   UNL     1      -5.589   7.982  11.875  1.00  0.00     0.041 C 
ATOM     64  G   UNL     1      -5.560   5.488  12.253  1.00  0.00     0.000 G0
ENDBRANCH  60  62
ENDBRANCH  56  58
ENDBRANCH  54  56
ENDBRANCH  52  54
ENDBRANCH  51  52
ENDBRANCH  50  51
ENDBRANCH  49  50
BRANCH  49  65
ATOM     65  C   UNL     1      -4.016   3.887   4.397  1.00  0.00     0.326 C 
ATOM     66  O   UNL     1      -3.271   3.332   3.603  1.00  0.00    -0.250 OA
BRANCH  65  67
ATOM     67  O   UNL     1      -4.673   3.156   5.325  1.00  0.00    -0.480 OA
ATOM     68  H   UNL     1      -5.101   2.446   4.799  1.00  0.00     0.296 HD
ENDBRANCH  65  67
ENDBRANCH  49  65
ENDBRANCH  47  49
ENDBRANCH  43  45
ENDBRANCH   1  43
BRANCH   1  69
ATOM     69  C   UNL     1      -0.732   7.336   1.512  1.00  0.00    -0.001 C 
ATOM     70  C   UNL     1       0.370   7.457   0.750  1.00  0.00     0.001 C 
BRANCH  70  71
ATOM     71  C   UNL     1       1.624   8.118   1.115  1.00  0.00    -0.055 C 
ATOM     72  C   UNL     1       2.715   7.343   1.288  1.00  0.00    -0.018 C 
ATOM     73  C   UNL     1       1.609   9.618   1.263  1.00  0.00     0.044 C 
BRANCH  72  74
ATOM     74  C   UNL     1       4.134   7.748   1.662  1.00  0.00     0.038 C 
ATOM     75  C   UNL     1       5.047   7.311   0.509  1.00  0.00     0.015 C 
BRANCH  74  76
ATOM     76  C   UNL     1       4.485   7.125   3.045  1.00  0.00     0.128 C 
BRANCH  76  77
ATOM     77  O   UNL     1       5.912   7.026   3.191  1.00  0.00    -0.381 OA
ATOM     78  C   UNL     1       6.369   5.705   3.451  1.00  0.00     0.195 C 
ENDBRANCH  76  77
BRANCH  76  79
ATOM     79  C   UNL     1       3.808   7.834   4.245  1.00  0.00     0.068 C 
BRANCH  79  80
ATOM     80  C   UNL     1       2.377   7.472   4.564  1.00  0.00    -0.045 A 
ATOM     81  C   UNL     1       1.423   8.464   4.827  1.00  0.00     0.004 A 
ATOM     82  C   UNL     1       1.987   6.126   4.631  1.00  0.00     0.004 A 
ATOM     83  C   UNL     1       0.105   8.120   5.136  1.00  0.00     0.000 A 
ATOM     84  C   UNL     1       0.669   5.784   4.940  1.00  0.00     0.000 A 
ATOM     85  C   UNL     1      -0.272   6.780   5.191  1.00  0.00     0.000 A 
ENDBRANCH  79  80
ENDBRANCH  76  79
ENDBRANCH  74  76
ENDBRANCH  72  74
ENDBRANCH  70  71
ENDBRANCH   1  69
TORSDOF 17
ENDMDL
MODEL 26
REMARK VINA RESULT:    -6.167      5.376     12.520
REMARK INTER + INTRA:         -24.430
REMARK INTER:                 -17.509
REMARK INTRA:                  -6.921
REMARK UNBOUND:                -6.005
REMARK SMILES C=C1C(=O)N[C@H](C)C(=O)N[C@@H](CC(C)C)C(=O)N[C@@H](C(=O)O)[C@H](C)C(=O)N[C@@H](CCCN=C(N)N)C(=O)N[C@@H](/C=C/C(C)=C/[C@H](C)[C@H](Cc2ccccc2)OC)[C@H](C)C(=O)N[C@@H](C(=O)O)CCC(=O)N1C
REMARK SMILES IDX 39 1 38 2 37 3 36 4 28 6 27 7 25 8 26 9 23 11 24 12 19 13
REMARK SMILES IDX 18 14 16 15 17 16 11 18 10 19 8 20 9 21 12 24 13 25 14 26
REMARK SMILES IDX 15 27 20 28 21 29 22 30 29 32 30 33 31 34 32 35 33 36 34 37
REMARK SMILES IDX 35 38 57 43 58 44 59 45 60 46 61 47 62 49 66 50 67 51 68 52
REMARK SMILES IDX 69 53 70 54 71 55 2 56 1 57 3 58 4 59 5 60 6 62 7 63 63 65
REMARK SMILES IDX 64 66 65 67 40 69 41 70 42 71 44 72 43 73 45 74 46 75 47 76
REMARK SMILES IDX 55 77 56 78 48 79 49 80 50 81 54 82 51 83 53 84 52 85
REMARK H PARENT 38 5 27 10 18 17 10 22 22 31 34 39 34 40 35 41 35 42 61 48
REMARK H PARENT 5 61 65 68
REMARK Flexibility Score:  369.900
ROOT
ATOM      1  C   UNL     1       4.742   3.068 -10.838  1.00  0.00     0.117 C 
ENDROOT
BRANCH   1   2
ATOM      2  N   UNL     1       3.509   3.269 -10.077  1.00  0.00    -0.347 N 
ATOM      3  O   UNL     1       3.087   1.069  -9.577  1.00  0.00    -0.273 OA
ATOM      4  C   UNL     1       2.827   2.258  -9.428  1.00  0.00     0.243 C 
ATOM      5  H   UNL     1       3.143   4.203  -9.966  1.00  0.00     0.164 HD
BRANCH   4   6
ATOM      6  C   UNL     1       1.598   2.752  -8.622  1.00  0.00     0.171 C 
BRANCH   6   7
ATOM      7  N   UNL     1       1.377   1.896  -7.446  1.00  0.00    -0.344 N 
ATOM      8  C   UNL     1       0.200   1.194  -7.299  1.00  0.00     0.226 C 
ATOM      9  O   UNL     1      -0.715   1.262  -8.112  1.00  0.00    -0.275 OA
ATOM     10  H   UNL     1       2.082   1.867  -6.720  1.00  0.00     0.164 HD
BRANCH   8  11
ATOM     11  C   UNL     1       0.146   0.315  -6.062  1.00  0.00     0.109 C 
ATOM     12  C   UNL     1       1.173  -0.812  -6.172  1.00  0.00     0.021 C 
BRANCH  11  13
ATOM     13  C   UNL     1       0.273   1.187  -4.797  1.00  0.00     0.204 C 
BRANCH  13  14
ATOM     14  N   UNL     1      -1.032   1.477  -4.193  1.00  0.00    -0.340 N 
ATOM     15  C   UNL     1      -1.674   2.686  -4.345  1.00  0.00     0.243 C 
ATOM     16  O   UNL     1      -1.225   3.589  -5.050  1.00  0.00    -0.273 OA
ATOM     17  H   UNL     1      -1.384   0.834  -3.479  1.00  0.00     0.164 HD
BRANCH  15  18
ATOM     18  C   UNL     1      -2.931   2.836  -3.452  1.00  0.00     0.171 C 
BRANCH  18  19
ATOM     19  N   UNL     1      -2.468   3.340  -2.161  1.00  0.00    -0.343 N 
ATOM     20  C   UNL     1      -2.033   2.492  -1.161  1.00  0.00     0.242 CG0
ATOM     21  O   UNL     1      -2.140   1.272  -1.260  1.00  0.00    -0.273 OA
ATOM     22  H   UNL     1      -2.470   4.339  -1.987  1.00  0.00     0.164 HD
ATOM     23  G   UNL     1      -1.510   3.210   0.100  1.00  0.00     0.000 G0
ENDBRANCH  18  19
BRANCH  18  24
ATOM     24  C   UNL     1      -3.943   3.790  -4.098  1.00  0.00     0.038 C 
BRANCH  24  25
ATOM     25  C   UNL     1      -5.130   3.092  -4.797  1.00  0.00    -0.015 C 
ATOM     26  C   UNL     1      -5.723   3.936  -5.925  1.00  0.00     0.007 C 
ATOM     27  C   UNL     1      -6.217   2.772  -3.767  1.00  0.00     0.007 C 
ENDBRANCH  24  25
ENDBRANCH  18  24
ENDBRANCH  15  18
ENDBRANCH  13  14
BRANCH  13  28
ATOM     28  C   UNL     1       1.144   0.550  -3.710  1.00  0.00     0.327 C 
ATOM     29  O   UNL     1       2.292   0.153  -3.844  1.00  0.00    -0.250 OA
BRANCH  28  30
ATOM     30  O   UNL     1       0.480   0.342  -2.555  1.00  0.00    -0.480 OA
ATOM     31  H   UNL     1       0.279   1.243  -2.227  1.00  0.00     0.296 HD
ENDBRANCH  28  30
ENDBRANCH  13  28
ENDBRANCH  11  13
ENDBRANCH   8  11
ENDBRANCH   6   7
BRANCH   6  32
ATOM     32  C   UNL     1       1.823   4.209  -8.204  1.00  0.00     0.037 C 
BRANCH  32  33
ATOM     33  C   UNL     1       1.909   4.368  -6.680  1.00  0.00     0.026 C 
BRANCH  33  34
ATOM     34  C   UNL     1       3.344   4.269  -6.161  1.00  0.00     0.146 C 
BRANCH  34  35
ATOM     35  N   UNL     1       3.308   4.041  -4.722  1.00  0.00    -0.254 NA
ATOM     36  C   UNL     1       3.888   3.001  -4.250  1.00  0.00     0.185 C 
ATOM     37  N   UNL     1       3.866   2.784  -2.926  1.00  0.00    -0.370 N 
ATOM     38  N   UNL     1       4.555   2.035  -4.906  1.00  0.00    -0.370 N 
ATOM     39  H   UNL     1       3.390   3.476  -2.361  1.00  0.00     0.159 HD
ATOM     40  H   UNL     1       4.437   2.097  -2.466  1.00  0.00     0.159 HD
ATOM     41  H   UNL     1       4.847   1.193  -4.437  1.00  0.00     0.159 HD
ATOM     42  H   UNL     1       4.638   2.060  -5.911  1.00  0.00     0.159 HD
ENDBRANCH  34  35
ENDBRANCH  33  34
ENDBRANCH  32  33
ENDBRANCH   6  32
ENDBRANCH   4   6
ENDBRANCH   1   2
BRANCH   1  43
ATOM     43  C   UNL     1       5.932   2.987  -9.839  1.00  0.00     0.102 C 
ATOM     44  C   UNL     1       6.902   4.176  -9.943  1.00  0.00     0.020 C 
BRANCH  43  45
ATOM     45  C   UNL     1       6.618   1.619  -9.910  1.00  0.00     0.225 C 
ATOM     46  O   UNL     1       7.608   1.329  -9.245  1.00  0.00    -0.275 OA
ATOM     47  N   UNL     1       6.108   0.749 -10.847  1.00  0.00    -0.342 N 
ATOM     48  H   UNL     1       5.212   0.941 -11.272  1.00  0.00     0.164 HD
BRANCH  47  49
ATOM     49  C   UNL     1       6.641  -0.608 -11.002  1.00  0.00     0.192 C 
BRANCH  49  50
ATOM     50  C   UNL     1       7.606  -0.648 -12.189  1.00  0.00     0.047 C 
BRANCH  50  51
ATOM     51  C   UNL     1       7.659   0.688 -12.942  1.00  0.00     0.103 C 
BRANCH  51  52
ATOM     52  C   UNL     1       9.084   1.228 -13.054  1.00  0.00     0.226 C 
ATOM     53  O   UNL     1       9.990   0.483 -13.432  1.00  0.00    -0.275 OA
BRANCH  52  54
ATOM     54  N   UNL     1       9.258   2.597 -12.781  1.00  0.00    -0.311 N 
ATOM     55  C   UNL     1       8.313   3.597 -13.296  1.00  0.00     0.153 C 
BRANCH  54  56
ATOM     56  C   UNL     1      10.335   3.058 -12.005  1.00  0.00     0.102 C 
ATOM     57  C   UNL     1      10.334   3.146 -10.665  1.00  0.00     0.043 C 
BRANCH  56  58
ATOM     58  C   UNL     1      11.639   3.461 -12.651  1.00  0.00     0.268 C 
ATOM     59  O   UNL     1      11.960   4.626 -12.843  1.00  0.00    -0.268 OA
ATOM     60  N   UNL     1      12.453   2.391 -12.940  1.00  0.00    -0.339 N 
ATOM     61  H   UNL     1      12.109   1.456 -12.760  1.00  0.00     0.164 HD
BRANCH  60  62
ATOM     62  C   UNL     1      13.788   2.560 -13.511  1.00  0.00     0.168 CG0
ATOM     63  C   UNL     1      13.742   2.504 -15.033  1.00  0.00     0.041 C 
ATOM     64  G   UNL     1      14.730   1.473 -12.953  1.00  0.00     0.000 G0
ENDBRANCH  60  62
ENDBRANCH  56  58
ENDBRANCH  54  56
ENDBRANCH  52  54
ENDBRANCH  51  52
ENDBRANCH  50  51
ENDBRANCH  49  50
BRANCH  49  65
ATOM     65  C   UNL     1       5.519  -1.635 -11.223  1.00  0.00     0.326 C 
ATOM     66  O   UNL     1       5.604  -2.642 -11.911  1.00  0.00    -0.250 OA
BRANCH  65  67
ATOM     67  O   UNL     1       4.345  -1.325 -10.631  1.00  0.00    -0.480 OA
ATOM     68  H   UNL     1       3.878  -0.790 -11.309  1.00  0.00     0.296 HD
ENDBRANCH  65  67
ENDBRANCH  49  65
ENDBRANCH  47  49
ENDBRANCH  43  45
ENDBRANCH   1  43
BRANCH   1  69
ATOM     69  C   UNL     1       4.758   4.141 -11.911  1.00  0.00    -0.001 C 
ATOM     70  C   UNL     1       3.701   4.674 -12.549  1.00  0.00     0.001 C 
BRANCH  70  71
ATOM     71  C   UNL     1       3.727   5.725 -13.569  1.00  0.00    -0.055 C 
ATOM     72  C   UNL     1       4.891   5.943 -14.216  1.00  0.00    -0.018 C 
ATOM     73  C   UNL     1       2.452   6.483 -13.829  1.00  0.00     0.044 C 
BRANCH  72  74
ATOM     74  C   UNL     1       5.211   6.952 -15.309  1.00  0.00     0.038 C 
ATOM     75  C   UNL     1       5.955   6.197 -16.418  1.00  0.00     0.015 C 
BRANCH  74  76
ATOM     76  C   UNL     1       6.003   8.137 -14.682  1.00  0.00     0.128 C 
BRANCH  76  77
ATOM     77  O   UNL     1       7.416   7.893 -14.786  1.00  0.00    -0.381 OA
ATOM     78  C   UNL     1       8.077   7.823 -13.530  1.00  0.00     0.195 C 
ENDBRANCH  76  77
BRANCH  76  79
ATOM     79  C   UNL     1       5.592   9.527 -15.228  1.00  0.00     0.068 C 
BRANCH  79  80
ATOM     80  C   UNL     1       4.182  10.001 -14.970  1.00  0.00    -0.045 A 
ATOM     81  C   UNL     1       3.414  10.574 -15.992  1.00  0.00     0.004 A 
ATOM     82  C   UNL     1       3.626   9.898 -13.686  1.00  0.00     0.004 A 
ATOM     83  C   UNL     1       2.116  11.022 -15.741  1.00  0.00     0.000 A 
ATOM     84  C   UNL     1       2.327  10.347 -13.436  1.00  0.00     0.000 A 
ATOM     85  C   UNL     1       1.572  10.907 -14.463  1.00  0.00     0.000 A 
ENDBRANCH  79  80
ENDBRANCH  76  79
ENDBRANCH  74  76
ENDBRANCH  72  74
ENDBRANCH  70  71
ENDBRANCH   1  69
TORSDOF 17
ENDMDL
MODEL 27
REMARK VINA RESULT:    -6.117      2.009      3.752
REMARK INTER + INTRA:         -24.282
REMARK INTER:                 -16.873
REMARK INTRA:                  -7.408
REMARK UNBOUND:                -6.005
REMARK SMILES C=C1C(=O)N[C@H](C)C(=O)N[C@@H](CC(C)C)C(=O)N[C@@H](C(=O)O)[C@H](C)C(=O)N[C@@H](CCCN=C(N)N)C(=O)N[C@@H](/C=C/C(C)=C/[C@H](C)[C@H](Cc2ccccc2)OC)[C@H](C)C(=O)N[C@@H](C(=O)O)CCC(=O)N1C
REMARK SMILES IDX 39 1 38 2 37 3 36 4 28 6 27 7 25 8 26 9 23 11 24 12 19 13
REMARK SMILES IDX 18 14 16 15 17 16 11 18 10 19 8 20 9 21 12 24 13 25 14 26
REMARK SMILES IDX 15 27 20 28 21 29 22 30 29 32 30 33 31 34 32 35 33 36 34 37
REMARK SMILES IDX 35 38 57 43 58 44 59 45 60 46 61 47 62 49 66 50 67 51 68 52
REMARK SMILES IDX 69 53 70 54 71 55 2 56 1 57 3 58 4 59 5 60 6 62 7 63 63 65
REMARK SMILES IDX 64 66 65 67 40 69 41 70 42 71 44 72 43 73 45 74 46 75 47 76
REMARK SMILES IDX 55 77 56 78 48 79 49 80 50 81 54 82 51 83 53 84 52 85
REMARK H PARENT 38 5 27 10 18 17 10 22 22 31 34 39 34 40 35 41 35 42 61 48
REMARK H PARENT 5 61 65 68
REMARK Flexibility Score:  369.900
ROOT
ATOM      1  C   UNL     1      -0.389   3.589  -2.575  1.00  0.00     0.117 C 
ENDROOT
BRANCH   1   2
ATOM      2  N   UNL     1       0.320   4.372  -1.561  1.00  0.00    -0.347 N 
ATOM      3  O   UNL     1      -0.094   6.456  -2.430  1.00  0.00    -0.273 OA
ATOM      4  C   UNL     1       0.333   5.753  -1.520  1.00  0.00     0.243 C 
ATOM      5  H   UNL     1       0.793   3.894  -0.809  1.00  0.00     0.164 HD
BRANCH   4   6
ATOM      6  C   UNL     1       1.084   6.333  -0.295  1.00  0.00     0.171 C 
BRANCH   6   7
ATOM      7  N   UNL     1       2.213   7.170  -0.733  1.00  0.00    -0.344 N 
ATOM      8  C   UNL     1       3.337   6.598  -1.289  1.00  0.00     0.226 C 
ATOM      9  O   UNL     1       3.464   5.387  -1.424  1.00  0.00    -0.275 OA
ATOM     10  H   UNL     1       2.173   8.169  -0.575  1.00  0.00     0.164 HD
BRANCH   8  11
ATOM     11  C   UNL     1       4.389   7.597  -1.739  1.00  0.00     0.109 C 
ATOM     12  C   UNL     1       3.768   8.987  -1.878  1.00  0.00     0.021 C 
BRANCH  11  13
ATOM     13  C   UNL     1       5.612   7.524  -0.804  1.00  0.00     0.204 C 
BRANCH  13  14
ATOM     14  N   UNL     1       5.262   7.007   0.523  1.00  0.00    -0.340 N 
ATOM     15  C   UNL     1       5.689   7.598   1.692  1.00  0.00     0.243 C 
ATOM     16  O   UNL     1       6.346   8.638   1.705  1.00  0.00    -0.273 OA
ATOM     17  H   UNL     1       4.852   6.071   0.581  1.00  0.00     0.164 HD
BRANCH  15  18
ATOM     18  C   UNL     1       5.373   6.764   2.958  1.00  0.00     0.171 C 
BRANCH  18  19
ATOM     19  N   UNL     1       6.269   7.243   4.009  1.00  0.00    -0.343 N 
ATOM     20  C   UNL     1       7.231   6.428   4.574  1.00  0.00     0.242 CG0
ATOM     21  O   UNL     1       7.291   5.228   4.315  1.00  0.00    -0.273 OA
ATOM     22  H   UNL     1       6.182   8.197   4.341  1.00  0.00     0.164 HD
ATOM     23  G   UNL     1       8.132   7.130   5.610  1.00  0.00     0.000 G0
ENDBRANCH  18  19
BRANCH  18  24
ATOM     24  C   UNL     1       3.901   6.924   3.358  1.00  0.00     0.038 C 
BRANCH  24  25
ATOM     25  C   UNL     1       3.634   8.024   4.407  1.00  0.00    -0.015 C 
ATOM     26  C   UNL     1       2.458   7.686   5.324  1.00  0.00     0.007 C 
ATOM     27  C   UNL     1       3.370   9.356   3.700  1.00  0.00     0.007 C 
ENDBRANCH  24  25
ENDBRANCH  18  24
ENDBRANCH  15  18
ENDBRANCH  13  14
BRANCH  13  28
ATOM     28  C   UNL     1       6.738   6.641  -1.352  1.00  0.00     0.327 C 
ATOM     29  O   UNL     1       7.812   7.028  -1.787  1.00  0.00    -0.250 OA
BRANCH  28  30
ATOM     30  O   UNL     1       6.400   5.338  -1.428  1.00  0.00    -0.480 OA
ATOM     31  H   UNL     1       7.258   4.867  -1.455  1.00  0.00     0.296 HD
ENDBRANCH  28  30
ENDBRANCH  13  28
ENDBRANCH  11  13
ENDBRANCH   8  11
ENDBRANCH   6   7
BRANCH   6  32
ATOM     32  C   UNL     1       0.103   7.142   0.561  1.00  0.00     0.037 C 
BRANCH  32  33
ATOM     33  C   UNL     1       0.712   7.550   1.910  1.00  0.00     0.026 C 
BRANCH  33  34
ATOM     34  C   UNL     1      -0.190   7.190   3.091  1.00  0.00     0.146 C 
BRANCH  34  35
ATOM     35  N   UNL     1      -1.084   6.113   2.689  1.00  0.00    -0.254 NA
ATOM     36  C   UNL     1      -2.062   5.806   3.457  1.00  0.00     0.185 C 
ATOM     37  N   UNL     1      -2.895   4.819   3.094  1.00  0.00    -0.370 N 
ATOM     38  N   UNL     1      -2.409   6.347   4.639  1.00  0.00    -0.370 N 
ATOM     39  H   UNL     1      -2.705   4.367   2.208  1.00  0.00     0.159 HD
ATOM     40  H   UNL     1      -3.773   4.637   3.548  1.00  0.00     0.159 HD
ATOM     41  H   UNL     1      -3.118   5.925   5.216  1.00  0.00     0.159 HD
ATOM     42  H   UNL     1      -1.862   7.090   5.043  1.00  0.00     0.159 HD
ENDBRANCH  34  35
ENDBRANCH  33  34
ENDBRANCH  32  33
ENDBRANCH   6  32
ENDBRANCH   4   6
ENDBRANCH   1   2
BRANCH   1  43
ATOM     43  C   UNL     1      -1.416   2.666  -1.858  1.00  0.00     0.102 C 
ATOM     44  C   UNL     1      -1.636   1.323  -2.576  1.00  0.00     0.020 C 
BRANCH  43  45
ATOM     45  C   UNL     1      -2.710   3.422  -1.545  1.00  0.00     0.225 C 
ATOM     46  O   UNL     1      -3.699   2.885  -1.053  1.00  0.00    -0.275 OA
ATOM     47  N   UNL     1      -2.736   4.741  -1.937  1.00  0.00    -0.342 N 
ATOM     48  H   UNL     1      -1.875   5.203  -2.196  1.00  0.00     0.164 HD
BRANCH  47  49
ATOM     49  C   UNL     1      -3.895   5.598  -1.670  1.00  0.00     0.192 C 
BRANCH  49  50
ATOM     50  C   UNL     1      -3.957   6.719  -2.710  1.00  0.00     0.047 C 
BRANCH  50  51
ATOM     51  C   UNL     1      -5.152   6.565  -3.661  1.00  0.00     0.103 C 
BRANCH  51  52
ATOM     52  C   UNL     1      -6.414   6.114  -2.927  1.00  0.00     0.226 C 
ATOM     53  O   UNL     1      -6.997   6.898  -2.176  1.00  0.00    -0.275 OA
BRANCH  52  54
ATOM     54  N   UNL     1      -6.882   4.820  -3.224  1.00  0.00    -0.311 N 
ATOM     55  C   UNL     1      -7.020   3.806  -2.171  1.00  0.00     0.153 C 
BRANCH  54  56
ATOM     56  C   UNL     1      -7.240   4.453  -4.532  1.00  0.00     0.102 C 
ATOM     57  C   UNL     1      -6.639   3.491  -5.251  1.00  0.00     0.043 C 
BRANCH  56  58
ATOM     58  C   UNL     1      -8.404   5.114  -5.232  1.00  0.00     0.268 C 
ATOM     59  O   UNL     1      -8.555   6.327  -5.279  1.00  0.00    -0.268 OA
ATOM     60  N   UNL     1      -9.234   4.218  -5.862  1.00  0.00    -0.339 N 
ATOM     61  H   UNL     1      -9.046   3.228  -5.766  1.00  0.00     0.164 HD
BRANCH  60  62
ATOM     62  C   UNL     1     -10.388   4.648  -6.651  1.00  0.00     0.168 CG0
ATOM     63  C   UNL     1     -10.019   4.799  -8.122  1.00  0.00     0.041 C 
ATOM     64  G   UNL     1     -10.935   5.976  -6.087  1.00  0.00     0.000 G0
ENDBRANCH  60  62
ENDBRANCH  56  58
ENDBRANCH  54  56
ENDBRANCH  52  54
ENDBRANCH  51  52
ENDBRANCH  50  51
ENDBRANCH  49  50
BRANCH  49  65
ATOM     65  C   UNL     1      -3.833   6.212  -0.263  1.00  0.00     0.326 C 
ATOM     66  O   UNL     1      -4.395   5.773   0.730  1.00  0.00    -0.250 OA
BRANCH  65  67
ATOM     67  O   UNL     1      -3.131   7.364  -0.181  1.00  0.00    -0.480 OA
ATOM     68  H   UNL     1      -2.737   7.459  -1.075  1.00  0.00     0.296 HD
ENDBRANCH  65  67
ENDBRANCH  49  65
ENDBRANCH  47  49
ENDBRANCH  43  45
ENDBRANCH   1  43
BRANCH   1  69
ATOM     69  C   UNL     1       0.681   2.959  -3.447  1.00  0.00    -0.001 C 
ATOM     70  C   UNL     1       1.993   2.844  -3.177  1.00  0.00     0.001 C 
BRANCH  70  71
ATOM     71  C   UNL     1       3.013   2.214  -4.018  1.00  0.00    -0.055 C 
ATOM     72  C   UNL     1       3.403   2.871  -5.130  1.00  0.00    -0.018 C 
ATOM     73  C   UNL     1       3.560   0.880  -3.579  1.00  0.00     0.044 C 
BRANCH  72  74
ATOM     74  C   UNL     1       4.432   2.467  -6.177  1.00  0.00     0.038 C 
ATOM     75  C   UNL     1       5.649   3.381  -5.991  1.00  0.00     0.015 C 
BRANCH  74  76
ATOM     76  C   UNL     1       3.770   2.540  -7.584  1.00  0.00     0.128 C 
BRANCH  76  77
ATOM     77  O   UNL     1       4.735   2.967  -8.560  1.00  0.00    -0.381 OA
ATOM     78  C   UNL     1       5.152   1.933  -9.441  1.00  0.00     0.195 C 
ENDBRANCH  76  77
BRANCH  76  79
ATOM     79  C   UNL     1       3.031   1.243  -8.000  1.00  0.00     0.068 C 
BRANCH  79  80
ATOM     80  C   UNL     1       1.736   0.910  -7.298  1.00  0.00    -0.045 A 
ATOM     81  C   UNL     1       0.656   1.802  -7.316  1.00  0.00     0.004 A 
ATOM     82  C   UNL     1       1.605  -0.293  -6.589  1.00  0.00     0.004 A 
ATOM     83  C   UNL     1      -0.533   1.494  -6.652  1.00  0.00     0.000 A 
ATOM     84  C   UNL     1       0.415  -0.601  -5.925  1.00  0.00     0.000 A 
ATOM     85  C   UNL     1      -0.654   0.292  -5.958  1.00  0.00     0.000 A 
ENDBRANCH  79  80
ENDBRANCH  76  79
ENDBRANCH  74  76
ENDBRANCH  72  74
ENDBRANCH  70  71
ENDBRANCH   1  69
TORSDOF 17
ENDMDL
MODEL 28
REMARK VINA RESULT:    -6.097      4.879     10.815
REMARK INTER + INTRA:         -24.221
REMARK INTER:                 -17.006
REMARK INTRA:                  -7.215
REMARK UNBOUND:                -6.005
REMARK SMILES C=C1C(=O)N[C@H](C)C(=O)N[C@@H](CC(C)C)C(=O)N[C@@H](C(=O)O)[C@H](C)C(=O)N[C@@H](CCCN=C(N)N)C(=O)N[C@@H](/C=C/C(C)=C/[C@H](C)[C@H](Cc2ccccc2)OC)[C@H](C)C(=O)N[C@@H](C(=O)O)CCC(=O)N1C
REMARK SMILES IDX 39 1 38 2 37 3 36 4 28 6 27 7 25 8 26 9 23 11 24 12 19 13
REMARK SMILES IDX 18 14 16 15 17 16 11 18 10 19 8 20 9 21 12 24 13 25 14 26
REMARK SMILES IDX 15 27 20 28 21 29 22 30 29 32 30 33 31 34 32 35 33 36 34 37
REMARK SMILES IDX 35 38 57 43 58 44 59 45 60 46 61 47 62 49 66 50 67 51 68 52
REMARK SMILES IDX 69 53 70 54 71 55 2 56 1 57 3 58 4 59 5 60 6 62 7 63 63 65
REMARK SMILES IDX 64 66 65 67 40 69 41 70 42 71 44 72 43 73 45 74 46 75 47 76
REMARK SMILES IDX 55 77 56 78 48 79 49 80 50 81 54 82 51 83 53 84 52 85
REMARK H PARENT 38 5 27 10 18 17 10 22 22 31 34 39 34 40 35 41 35 42 61 48
REMARK H PARENT 5 61 65 68
REMARK Flexibility Score:  369.900
ROOT
ATOM      1  C   UNL     1       3.264   3.760  -7.272  1.00  0.00     0.117 C 
ENDROOT
BRANCH   1   2
ATOM      2  N   UNL     1       4.174   4.013  -8.389  1.00  0.00    -0.347 N 
ATOM      3  O   UNL     1       5.807   2.508  -7.810  1.00  0.00    -0.273 OA
ATOM      4  C   UNL     1       5.334   3.299  -8.619  1.00  0.00     0.243 C 
ATOM      5  H   UNL     1       3.934   4.715  -9.073  1.00  0.00     0.164 HD
BRANCH   4   6
ATOM      6  C   UNL     1       6.072   3.710  -9.919  1.00  0.00     0.171 C 
BRANCH   6   7
ATOM      7  N   UNL     1       7.386   4.292  -9.602  1.00  0.00    -0.344 N 
ATOM      8  C   UNL     1       7.817   5.438 -10.235  1.00  0.00     0.226 C 
ATOM      9  O   UNL     1       7.154   6.009 -11.093  1.00  0.00    -0.275 OA
ATOM     10  H   UNL     1       7.991   3.812  -8.948  1.00  0.00     0.164 HD
BRANCH   8  11
ATOM     11  C   UNL     1       9.168   5.944  -9.760  1.00  0.00     0.109 C 
ATOM     12  C   UNL     1       9.671   5.089  -8.597  1.00  0.00     0.021 C 
BRANCH  11  13
ATOM     13  C   UNL     1      10.136   6.046 -10.956  1.00  0.00     0.204 C 
BRANCH  13  14
ATOM     14  N   UNL     1       9.829   5.063 -11.999  1.00  0.00    -0.340 N 
ATOM     15  C   UNL     1      10.487   3.857 -12.108  1.00  0.00     0.243 C 
ATOM     16  O   UNL     1      11.338   3.494 -11.299  1.00  0.00    -0.273 OA
ATOM     17  H   UNL     1       9.246   5.363 -12.785  1.00  0.00     0.164 HD
BRANCH  15  18
ATOM     18  C   UNL     1      10.142   3.079 -13.402  1.00  0.00     0.171 C 
BRANCH  18  19
ATOM     19  N   UNL     1      10.711   3.840 -14.512  1.00  0.00    -0.343 N 
ATOM     20  C   UNL     1       9.939   4.267 -15.575  1.00  0.00     0.242 CG0
ATOM     21  O   UNL     1       8.769   3.914 -15.703  1.00  0.00    -0.273 OA
ATOM     22  H   UNL     1      11.701   4.058 -14.510  1.00  0.00     0.164 HD
ATOM     23  G   UNL     1      10.698   5.123 -16.611  1.00  0.00     0.000 G0
ENDBRANCH  18  19
BRANCH  18  24
ATOM     24  C   UNL     1      10.711   1.656 -13.346  1.00  0.00     0.038 C 
BRANCH  24  25
ATOM     25  C   UNL     1       9.867   0.595 -14.083  1.00  0.00    -0.015 C 
ATOM     26  C   UNL     1      10.191   0.523 -15.576  1.00  0.00     0.007 C 
ATOM     27  C   UNL     1       8.378   0.898 -13.893  1.00  0.00     0.007 C 
ENDBRANCH  24  25
ENDBRANCH  18  24
ENDBRANCH  15  18
ENDBRANCH  13  14
BRANCH  13  28
ATOM     28  C   UNL     1      10.134   7.427 -11.618  1.00  0.00     0.327 C 
ATOM     29  O   UNL     1       9.545   7.736 -12.643  1.00  0.00    -0.250 OA
BRANCH  28  30
ATOM     30  O   UNL     1      10.966   8.302 -11.018  1.00  0.00    -0.480 OA
ATOM     31  H   UNL     1      11.565   7.739 -10.485  1.00  0.00     0.296 HD
ENDBRANCH  28  30
ENDBRANCH  13  28
ENDBRANCH  11  13
ENDBRANCH   8  11
ENDBRANCH   6   7
BRANCH   6  32
ATOM     32  C   UNL     1       6.221   2.481 -10.823  1.00  0.00     0.037 C 
BRANCH  32  33
ATOM     33  C   UNL     1       7.508   1.698 -10.528  1.00  0.00     0.026 C 
BRANCH  33  34
ATOM     34  C   UNL     1       7.230   0.323  -9.919  1.00  0.00     0.146 C 
BRANCH  34  35
ATOM     35  N   UNL     1       7.230  -0.671 -10.984  1.00  0.00    -0.254 NA
ATOM     36  C   UNL     1       6.119  -1.211 -11.320  1.00  0.00     0.185 C 
ATOM     37  N   UNL     1       6.106  -2.124 -12.304  1.00  0.00    -0.370 N 
ATOM     38  N   UNL     1       4.889  -0.997 -10.819  1.00  0.00    -0.370 N 
ATOM     39  H   UNL     1       6.995  -2.333 -12.741  1.00  0.00     0.159 HD
ATOM     40  H   UNL     1       5.265  -2.460 -12.740  1.00  0.00     0.159 HD
ATOM     41  H   UNL     1       4.113  -1.586 -11.072  1.00  0.00     0.159 HD
ATOM     42  H   UNL     1       4.751  -0.346 -10.061  1.00  0.00     0.159 HD
ENDBRANCH  34  35
ENDBRANCH  33  34
ENDBRANCH  32  33
ENDBRANCH   6  32
ENDBRANCH   4   6
ENDBRANCH   1   2
BRANCH   1  43
ATOM     43  C   UNL     1       1.803   3.799  -7.805  1.00  0.00     0.102 C 
ATOM     44  C   UNL     1       1.035   5.066  -7.392  1.00  0.00     0.020 C 
BRANCH  43  45
ATOM     45  C   UNL     1       1.065   2.495  -7.487  1.00  0.00     0.225 C 
ATOM     46  O   UNL     1       0.806   1.646  -8.336  1.00  0.00    -0.275 OA
ATOM     47  N   UNL     1       0.620   2.367  -6.191  1.00  0.00    -0.342 N 
ATOM     48  H   UNL     1       0.969   2.992  -5.479  1.00  0.00     0.164 HD
BRANCH  47  49
ATOM     49  C   UNL     1      -0.069   1.156  -5.734  1.00  0.00     0.192 C 
BRANCH  49  50
ATOM     50  C   UNL     1      -1.142   1.532  -4.709  1.00  0.00     0.047 C 
BRANCH  50  51
ATOM     51  C   UNL     1      -0.868   2.891  -4.050  1.00  0.00     0.103 C 
BRANCH  51  52
ATOM     52  C   UNL     1      -1.013   2.831  -2.531  1.00  0.00     0.226 C 
ATOM     53  O   UNL     1      -0.372   1.996  -1.889  1.00  0.00    -0.275 OA
BRANCH  52  54
ATOM     54  N   UNL     1      -1.834   3.810  -1.941  1.00  0.00    -0.311 N 
ATOM     55  C   UNL     1      -1.848   4.008  -0.485  1.00  0.00     0.153 C 
BRANCH  54  56
ATOM     56  C   UNL     1      -2.663   4.635  -2.718  1.00  0.00     0.102 C 
ATOM     57  C   UNL     1      -2.238   5.668  -3.464  1.00  0.00     0.043 C 
BRANCH  56  58
ATOM     58  C   UNL     1      -4.149   4.379  -2.805  1.00  0.00     0.268 C 
ATOM     59  O   UNL     1      -4.991   5.171  -2.404  1.00  0.00    -0.268 OA
ATOM     60  N   UNL     1      -4.457   3.198  -3.439  1.00  0.00    -0.339 N 
ATOM     61  H   UNL     1      -3.701   2.592  -3.733  1.00  0.00     0.164 HD
BRANCH  60  62
ATOM     62  C   UNL     1      -5.838   2.784  -3.687  1.00  0.00     0.168 CG0
ATOM     63  C   UNL     1      -6.164   2.831  -5.174  1.00  0.00     0.041 C 
ATOM     64  G   UNL     1      -6.800   3.688  -2.888  1.00  0.00     0.000 G0
ENDBRANCH  60  62
ENDBRANCH  56  58
ENDBRANCH  54  56
ENDBRANCH  52  54
ENDBRANCH  51  52
ENDBRANCH  50  51
ENDBRANCH  49  50
BRANCH  49  65
ATOM     65  C   UNL     1       0.908   0.151  -5.104  1.00  0.00     0.326 C 
ATOM     66  O   UNL     1       1.605  -0.643  -5.718  1.00  0.00    -0.250 OA
BRANCH  65  67
ATOM     67  O   UNL     1       0.919   0.148  -3.753  1.00  0.00    -0.480 OA
ATOM     68  H   UNL     1       1.462  -0.638  -3.528  1.00  0.00     0.296 HD
ENDBRANCH  65  67
ENDBRANCH  49  65
ENDBRANCH  47  49
ENDBRANCH  43  45
ENDBRANCH   1  43
BRANCH   1  69
ATOM     69  C   UNL     1       3.668   4.720  -6.169  1.00  0.00    -0.001 C 
ATOM     70  C   UNL     1       4.504   5.770  -6.265  1.00  0.00     0.001 C 
BRANCH  70  71
ATOM     71  C   UNL     1       4.870   6.703  -5.198  1.00  0.00    -0.055 C 
ATOM     72  C   UNL     1       5.987   6.439  -4.489  1.00  0.00    -0.018 C 
ATOM     73  C   UNL     1       3.979   7.897  -4.973  1.00  0.00     0.044 C 
BRANCH  72  74
ATOM     74  C   UNL     1       6.607   7.221  -3.340  1.00  0.00     0.038 C 
ATOM     75  C   UNL     1       8.022   7.621  -3.775  1.00  0.00     0.015 C 
BRANCH  74  76
ATOM     76  C   UNL     1       6.541   6.352  -2.049  1.00  0.00     0.128 C 
BRANCH  76  77
ATOM     77  O   UNL     1       7.238   7.011  -0.978  1.00  0.00    -0.381 OA
ATOM     78  C   UNL     1       6.470   8.016  -0.330  1.00  0.00     0.195 C 
ENDBRANCH  76  77
BRANCH  76  79
ATOM     79  C   UNL     1       5.107   5.919  -1.654  1.00  0.00     0.068 C 
BRANCH  79  80
ATOM     80  C   UNL     1       4.554   4.657  -2.272  1.00  0.00    -0.045 A 
ATOM     81  C   UNL     1       3.187   4.529  -2.551  1.00  0.00     0.004 A 
ATOM     82  C   UNL     1       5.404   3.576  -2.551  1.00  0.00     0.004 A 
ATOM     83  C   UNL     1       2.682   3.353  -3.110  1.00  0.00     0.000 A 
ATOM     84  C   UNL     1       4.897   2.400  -3.108  1.00  0.00     0.000 A 
ATOM     85  C   UNL     1       3.537   2.289  -3.389  1.00  0.00     0.000 A 
ENDBRANCH  79  80
ENDBRANCH  76  79
ENDBRANCH  74  76
ENDBRANCH  72  74
ENDBRANCH  70  71
ENDBRANCH   1  69
TORSDOF 17
ENDMDL
MODEL 29
REMARK VINA RESULT:    -6.092      3.044      5.602
REMARK INTER + INTRA:         -24.205
REMARK INTER:                 -18.349
REMARK INTRA:                  -5.856
REMARK UNBOUND:                -6.005
REMARK SMILES C=C1C(=O)N[C@H](C)C(=O)N[C@@H](CC(C)C)C(=O)N[C@@H](C(=O)O)[C@H](C)C(=O)N[C@@H](CCCN=C(N)N)C(=O)N[C@@H](/C=C/C(C)=C/[C@H](C)[C@H](Cc2ccccc2)OC)[C@H](C)C(=O)N[C@@H](C(=O)O)CCC(=O)N1C
REMARK SMILES IDX 39 1 38 2 37 3 36 4 28 6 27 7 25 8 26 9 23 11 24 12 19 13
REMARK SMILES IDX 18 14 16 15 17 16 11 18 10 19 8 20 9 21 12 24 13 25 14 26
REMARK SMILES IDX 15 27 20 28 21 29 22 30 29 32 30 33 31 34 32 35 33 36 34 37
REMARK SMILES IDX 35 38 57 43 58 44 59 45 60 46 61 47 62 49 66 50 67 51 68 52
REMARK SMILES IDX 69 53 70 54 71 55 2 56 1 57 3 58 4 59 5 60 6 62 7 63 63 65
REMARK SMILES IDX 64 66 65 67 40 69 41 70 42 71 44 72 43 73 45 74 46 75 47 76
REMARK SMILES IDX 55 77 56 78 48 79 49 80 50 81 54 82 51 83 53 84 52 85
REMARK H PARENT 38 5 27 10 18 17 10 22 22 31 34 39 34 40 35 41 35 42 61 48
REMARK H PARENT 5 61 65 68
REMARK Flexibility Score:  369.900
ROOT
ATOM      1  C   UNL     1      -1.286   2.767  -3.784  1.00  0.00     0.117 C 
ENDROOT
BRANCH   1   2
ATOM      2  N   UNL     1      -0.984   4.198  -3.730  1.00  0.00    -0.347 N 
ATOM      3  O   UNL     1       0.682   4.106  -2.153  1.00  0.00    -0.273 OA
ATOM      4  C   UNL     1       0.043   4.743  -2.983  1.00  0.00     0.243 C 
ATOM      5  H   UNL     1      -1.513   4.837  -4.303  1.00  0.00     0.164 HD
BRANCH   4   6
ATOM      6  C   UNL     1       0.204   6.273  -3.169  1.00  0.00     0.171 C 
BRANCH   6   7
ATOM      7  N   UNL     1      -0.396   6.995  -2.036  1.00  0.00    -0.344 N 
ATOM      8  C   UNL     1      -1.761   7.167  -1.955  1.00  0.00     0.226 C 
ATOM      9  O   UNL     1      -2.530   6.756  -2.815  1.00  0.00    -0.275 OA
ATOM     10  H   UNL     1       0.213   7.408  -1.340  1.00  0.00     0.164 HD
BRANCH   8  11
ATOM     11  C   UNL     1      -2.228   7.883  -0.700  1.00  0.00     0.109 C 
ATOM     12  C   UNL     1      -3.293   8.921  -1.053  1.00  0.00     0.021 C 
BRANCH  11  13
ATOM     13  C   UNL     1      -2.655   6.851   0.362  1.00  0.00     0.204 C 
BRANCH  13  14
ATOM     14  N   UNL     1      -1.806   6.902   1.556  1.00  0.00    -0.340 N 
ATOM     15  C   UNL     1      -0.639   6.178   1.676  1.00  0.00     0.243 C 
ATOM     16  O   UNL     1      -0.196   5.483   0.763  1.00  0.00    -0.273 OA
ATOM     17  H   UNL     1      -2.189   7.336   2.400  1.00  0.00     0.164 HD
BRANCH  15  18
ATOM     18  C   UNL     1      -0.023   6.229   3.096  1.00  0.00     0.171 C 
BRANCH  18  19
ATOM     19  N   UNL     1       1.415   6.423   2.921  1.00  0.00    -0.343 N 
ATOM     20  C   UNL     1       2.333   5.918   3.822  1.00  0.00     0.242 CG0
ATOM     21  O   UNL     1       1.980   5.399   4.878  1.00  0.00    -0.273 OA
ATOM     22  H   UNL     1       1.753   6.948   2.122  1.00  0.00     0.164 HD
ATOM     23  G   UNL     1       3.806   6.156   3.430  1.00  0.00     0.000 G0
ENDBRANCH  18  19
BRANCH  18  24
ATOM     24  C   UNL     1      -0.648   7.363   3.917  1.00  0.00     0.038 C 
BRANCH  24  25
ATOM     25  C   UNL     1      -1.567   6.896   5.066  1.00  0.00    -0.015 C 
ATOM     26  C   UNL     1      -1.874   5.400   4.998  1.00  0.00     0.007 C 
ATOM     27  C   UNL     1      -2.874   7.692   5.037  1.00  0.00     0.007 C 
ENDBRANCH  24  25
ENDBRANCH  18  24
ENDBRANCH  15  18
ENDBRANCH  13  14
BRANCH  13  28
ATOM     28  C   UNL     1      -4.104   7.028   0.828  1.00  0.00     0.327 C 
ATOM     29  O   UNL     1      -4.489   7.761   1.727  1.00  0.00    -0.250 OA
BRANCH  28  30
ATOM     30  O   UNL     1      -4.963   6.188   0.217  1.00  0.00    -0.480 OA
ATOM     31  H   UNL     1      -4.400   5.674  -0.399  1.00  0.00     0.296 HD
ENDBRANCH  28  30
ENDBRANCH  13  28
ENDBRANCH  11  13
ENDBRANCH   8  11
ENDBRANCH   6   7
BRANCH   6  32
ATOM     32  C   UNL     1       1.693   6.610  -3.306  1.00  0.00     0.037 C 
BRANCH  32  33
ATOM     33  C   UNL     1       2.251   6.219  -4.682  1.00  0.00     0.026 C 
BRANCH  33  34
ATOM     34  C   UNL     1       3.539   5.402  -4.580  1.00  0.00     0.146 C 
BRANCH  34  35
ATOM     35  N   UNL     1       3.195   4.017  -4.288  1.00  0.00    -0.254 NA
ATOM     36  C   UNL     1       3.637   3.489  -3.208  1.00  0.00     0.185 C 
ATOM     37  N   UNL     1       3.322   2.215  -2.926  1.00  0.00    -0.370 N 
ATOM     38  N   UNL     1       4.410   4.038  -2.254  1.00  0.00    -0.370 N 
ATOM     39  H   UNL     1       2.731   1.735  -3.593  1.00  0.00     0.159 HD
ATOM     40  H   UNL     1       3.479   1.789  -2.029  1.00  0.00     0.159 HD
ATOM     41  H   UNL     1       4.807   3.477  -1.518  1.00  0.00     0.159 HD
ATOM     42  H   UNL     1       4.737   4.987  -2.342  1.00  0.00     0.159 HD
ENDBRANCH  34  35
ENDBRANCH  33  34
ENDBRANCH  32  33
ENDBRANCH   6  32
ENDBRANCH   4   6
ENDBRANCH   1   2
BRANCH   1  43
ATOM     43  C   UNL     1      -1.758   2.307  -2.375  1.00  0.00     0.102 C 
ATOM     44  C   UNL     1      -1.296   0.887  -2.008  1.00  0.00     0.020 C 
BRANCH  43  45
ATOM     45  C   UNL     1      -3.262   2.536  -2.196  1.00  0.00     0.225 C 
ATOM     46  O   UNL     1      -3.842   2.379  -1.126  1.00  0.00    -0.275 OA
ATOM     47  N   UNL     1      -3.955   2.844  -3.345  1.00  0.00    -0.342 N 
ATOM     48  H   UNL     1      -3.449   3.116  -4.176  1.00  0.00     0.164 HD
BRANCH  47  49
ATOM     49  C   UNL     1      -5.394   3.124  -3.320  1.00  0.00     0.192 C 
BRANCH  49  50
ATOM     50  C   UNL     1      -5.884   3.425  -4.739  1.00  0.00     0.047 C 
BRANCH  50  51
ATOM     51  C   UNL     1      -7.413   3.523  -4.818  1.00  0.00     0.103 C 
BRANCH  51  52
ATOM     52  C   UNL     1      -7.876   4.902  -5.284  1.00  0.00     0.226 C 
ATOM     53  O   UNL     1      -7.847   5.853  -4.499  1.00  0.00    -0.275 OA
BRANCH  52  54
ATOM     54  N   UNL     1      -8.245   5.016  -6.637  1.00  0.00    -0.311 N 
ATOM     55  C   UNL     1      -7.269   5.427  -7.655  1.00  0.00     0.153 C 
BRANCH  54  56
ATOM     56  C   UNL     1      -9.554   4.737  -7.065  1.00  0.00     0.102 C 
ATOM     57  C   UNL     1     -10.583   4.445  -6.252  1.00  0.00     0.043 C 
BRANCH  56  58
ATOM     58  C   UNL     1      -9.918   4.791  -8.530  1.00  0.00     0.268 C 
ATOM     59  O   UNL     1      -9.647   3.898  -9.321  1.00  0.00    -0.268 OA
ATOM     60  N   UNL     1     -10.641   5.911  -8.865  1.00  0.00    -0.339 N 
ATOM     61  H   UNL     1     -10.815   6.610  -8.153  1.00  0.00     0.164 HD
BRANCH  60  62
ATOM     62  C   UNL     1     -11.149   6.134 -10.218  1.00  0.00     0.168 CG0
ATOM     63  C   UNL     1     -10.159   6.941 -11.049  1.00  0.00     0.041 C 
ATOM     64  G   UNL     1     -12.513   6.851 -10.146  1.00  0.00     0.000 G0
ENDBRANCH  60  62
ENDBRANCH  56  58
ENDBRANCH  54  56
ENDBRANCH  52  54
ENDBRANCH  51  52
ENDBRANCH  50  51
ENDBRANCH  49  50
BRANCH  49  65
ATOM     65  C   UNL     1      -5.723   4.314  -2.405  1.00  0.00     0.326 C 
ATOM     66  O   UNL     1      -6.454   4.276  -1.426  1.00  0.00    -0.250 OA
BRANCH  65  67
ATOM     67  O   UNL     1      -5.179   5.489  -2.790  1.00  0.00    -0.480 OA
ATOM     68  H   UNL     1      -5.586   5.656  -3.667  1.00  0.00     0.296 HD
ENDBRANCH  65  67
ENDBRANCH  49  65
ENDBRANCH  47  49
ENDBRANCH  43  45
ENDBRANCH   1  43
BRANCH   1  69
ATOM     69  C   UNL     1      -0.072   2.100  -4.405  1.00  0.00    -0.001 C 
ATOM     70  C   UNL     1       0.049   1.629  -5.659  1.00  0.00     0.001 C 
BRANCH  70  71
ATOM     71  C   UNL     1       1.234   1.007  -6.253  1.00  0.00    -0.055 C 
ATOM     72  C   UNL     1       2.133   1.814  -6.854  1.00  0.00    -0.018 C 
ATOM     73  C   UNL     1       1.369  -0.490  -6.146  1.00  0.00     0.044 C 
BRANCH  72  74
ATOM     74  C   UNL     1       3.440   1.455  -7.545  1.00  0.00     0.038 C 
ATOM     75  C   UNL     1       4.461   2.537  -7.174  1.00  0.00     0.015 C 
BRANCH  74  76
ATOM     76  C   UNL     1       3.174   1.304  -9.072  1.00  0.00     0.128 C 
BRANCH  76  77
ATOM     77  O   UNL     1       1.980   2.016  -9.436  1.00  0.00    -0.381 OA
ATOM     78  C   UNL     1       2.188   3.010 -10.431  1.00  0.00     0.195 C 
ENDBRANCH  76  77
BRANCH  76  79
ATOM     79  C   UNL     1       4.388   1.674  -9.962  1.00  0.00     0.068 C 
BRANCH  79  80
ATOM     80  C   UNL     1       5.186   0.549 -10.574  1.00  0.00    -0.045 A 
ATOM     81  C   UNL     1       4.606  -0.706 -10.803  1.00  0.00     0.004 A 
ATOM     82  C   UNL     1       6.538   0.736 -10.900  1.00  0.00     0.004 A 
ATOM     83  C   UNL     1       5.355  -1.747 -11.357  1.00  0.00     0.000 A 
ATOM     84  C   UNL     1       7.286  -0.306 -11.453  1.00  0.00     0.000 A 
ATOM     85  C   UNL     1       6.694  -1.546 -11.683  1.00  0.00     0.000 A 
ENDBRANCH  79  80
ENDBRANCH  76  79
ENDBRANCH  74  76
ENDBRANCH  72  74
ENDBRANCH  70  71
ENDBRANCH   1  69
TORSDOF 17
ENDMDL
MODEL 30
REMARK VINA RESULT:    -6.073      4.038      9.492
REMARK INTER + INTRA:         -24.149
REMARK INTER:                 -17.158
REMARK INTRA:                  -6.991
REMARK UNBOUND:                -6.005
REMARK SMILES C=C1C(=O)N[C@H](C)C(=O)N[C@@H](CC(C)C)C(=O)N[C@@H](C(=O)O)[C@H](C)C(=O)N[C@@H](CCCN=C(N)N)C(=O)N[C@@H](/C=C/C(C)=C/[C@H](C)[C@H](Cc2ccccc2)OC)[C@H](C)C(=O)N[C@@H](C(=O)O)CCC(=O)N1C
REMARK SMILES IDX 39 1 38 2 37 3 36 4 28 6 27 7 25 8 26 9 23 11 24 12 19 13
REMARK SMILES IDX 18 14 16 15 17 16 11 18 10 19 8 20 9 21 12 24 13 25 14 26
REMARK SMILES IDX 15 27 20 28 21 29 22 30 29 32 30 33 31 34 32 35 33 36 34 37
REMARK SMILES IDX 35 38 57 43 58 44 59 45 60 46 61 47 62 49 66 50 67 51 68 52
REMARK SMILES IDX 69 53 70 54 71 55 2 56 1 57 3 58 4 59 5 60 6 62 7 63 63 65
REMARK SMILES IDX 64 66 65 67 40 69 41 70 42 71 44 72 43 73 45 74 46 75 47 76
REMARK SMILES IDX 55 77 56 78 48 79 49 80 50 81 54 82 51 83 53 84 52 85
REMARK H PARENT 38 5 27 10 18 17 10 22 22 31 34 39 34 40 35 41 35 42 61 48
REMARK H PARENT 5 61 65 68
REMARK Flexibility Score:  369.900
ROOT
ATOM      1  C   UNL     1       4.602   5.359  -2.227  1.00  0.00     0.117 C 
ENDROOT
BRANCH   1   2
ATOM      2  N   UNL     1       4.990   6.679  -1.729  1.00  0.00    -0.347 N 
ATOM      3  O   UNL     1       6.720   6.008  -0.378  1.00  0.00    -0.273 OA
ATOM      4  C   UNL     1       6.081   6.907  -0.912  1.00  0.00     0.243 C 
ATOM      5  H   UNL     1       4.473   7.492  -2.027  1.00  0.00     0.164 HD
BRANCH   4   6
ATOM      6  C   UNL     1       6.322   8.406  -0.600  1.00  0.00     0.171 C 
BRANCH   6   7
ATOM      7  N   UNL     1       6.478   8.611   0.849  1.00  0.00    -0.344 N 
ATOM      8  C   UNL     1       5.413   9.024   1.619  1.00  0.00     0.226 C 
ATOM      9  O   UNL     1       4.308   9.260   1.145  1.00  0.00    -0.275 OA
ATOM     10  H   UNL     1       7.393   8.491   1.266  1.00  0.00     0.164 HD
BRANCH   8  11
ATOM     11  C   UNL     1       5.719   9.136   3.103  1.00  0.00     0.109 C 
ATOM     12  C   UNL     1       5.234  10.482   3.640  1.00  0.00     0.021 C 
BRANCH  11  13
ATOM     13  C   UNL     1       5.164   7.904   3.845  1.00  0.00     0.204 C 
BRANCH  13  14
ATOM     14  N   UNL     1       3.729   7.718   3.608  1.00  0.00    -0.340 N 
ATOM     15  C   UNL     1       2.782   7.868   4.598  1.00  0.00     0.243 C 
ATOM     16  O   UNL     1       3.069   8.229   5.737  1.00  0.00    -0.273 OA
ATOM     17  H   UNL     1       3.440   7.273   2.732  1.00  0.00     0.164 HD
BRANCH  15  18
ATOM     18  C   UNL     1       1.363   7.420   4.169  1.00  0.00     0.171 C 
BRANCH  18  19
ATOM     19  N   UNL     1       0.600   8.639   3.910  1.00  0.00    -0.343 N 
ATOM     20  C   UNL     1      -0.402   9.067   4.760  1.00  0.00     0.242 CG0
ATOM     21  O   UNL     1      -0.786   8.375   5.700  1.00  0.00    -0.273 OA
ATOM     22  H   UNL     1       0.802   9.186   3.081  1.00  0.00     0.164 HD
ATOM     23  G   UNL     1      -1.041  10.414   4.365  1.00  0.00     0.000 G0
ENDBRANCH  18  19
BRANCH  18  24
ATOM     24  C   UNL     1       1.431   6.524   2.926  1.00  0.00     0.038 C 
BRANCH  24  25
ATOM     25  C   UNL     1       0.484   6.939   1.781  1.00  0.00    -0.015 C 
ATOM     26  C   UNL     1      -0.369   5.774   1.275  1.00  0.00     0.007 C 
ATOM     27  C   UNL     1       1.300   7.520   0.623  1.00  0.00     0.007 C 
ENDBRANCH  24  25
ENDBRANCH  18  24
ENDBRANCH  15  18
ENDBRANCH  13  14
BRANCH  13  28
ATOM     28  C   UNL     1       5.862   6.598   3.452  1.00  0.00     0.327 C 
ATOM     29  O   UNL     1       6.864   6.130   3.970  1.00  0.00    -0.250 OA
BRANCH  28  30
ATOM     30  O   UNL     1       5.327   6.021   2.357  1.00  0.00    -0.480 OA
ATOM     31  H   UNL     1       4.695   6.688   2.018  1.00  0.00     0.296 HD
ENDBRANCH  28  30
ENDBRANCH  13  28
ENDBRANCH  11  13
ENDBRANCH   8  11
ENDBRANCH   6   7
BRANCH   6  32
ATOM     32  C   UNL     1       7.566   8.884  -1.357  1.00  0.00     0.037 C 
BRANCH  32  33
ATOM     33  C   UNL     1       7.440   8.670  -2.872  1.00  0.00     0.026 C 
BRANCH  33  34
ATOM     34  C   UNL     1       8.625   7.899  -3.455  1.00  0.00     0.146 C 
BRANCH  34  35
ATOM     35  N   UNL     1       9.395   7.324  -2.361  1.00  0.00    -0.254 NA
ATOM     36  C   UNL     1      10.630   7.045  -2.559  1.00  0.00     0.185 C 
ATOM     37  N   UNL     1      11.350   6.519  -1.556  1.00  0.00    -0.370 N 
ATOM     38  N   UNL     1      11.364   7.204  -3.674  1.00  0.00    -0.370 N 
ATOM     39  H   UNL     1      10.870   6.378  -0.676  1.00  0.00     0.159 HD
ATOM     40  H   UNL     1      12.352   6.436  -1.575  1.00  0.00     0.159 HD
ATOM     41  H   UNL     1      12.290   6.817  -3.748  1.00  0.00     0.159 HD
ATOM     42  H   UNL     1      10.946   7.575  -4.514  1.00  0.00     0.159 HD
ENDBRANCH  34  35
ENDBRANCH  33  34
ENDBRANCH  32  33
ENDBRANCH   6  32
ENDBRANCH   4   6
ENDBRANCH   1   2
BRANCH   1  43
ATOM     43  C   UNL     1       5.620   4.923  -3.319  1.00  0.00     0.102 C 
ATOM     44  C   UNL     1       5.815   5.971  -4.427  1.00  0.00     0.020 C 
BRANCH  43  45
ATOM     45  C   UNL     1       5.298   3.519  -3.842  1.00  0.00     0.225 C 
ATOM     46  O   UNL     1       5.609   2.493  -3.244  1.00  0.00    -0.275 OA
ATOM     47  N   UNL     1       4.714   3.470  -5.087  1.00  0.00    -0.342 N 
ATOM     48  H   UNL     1       4.331   4.312  -5.493  1.00  0.00     0.164 HD
BRANCH  47  49
ATOM     49  C   UNL     1       4.318   2.198  -5.698  1.00  0.00     0.192 C 
BRANCH  49  50
ATOM     50  C   UNL     1       5.047   2.019  -7.032  1.00  0.00     0.047 C 
BRANCH  50  51
ATOM     51  C   UNL     1       5.346   3.359  -7.716  1.00  0.00     0.103 C 
BRANCH  51  52
ATOM     52  C   UNL     1       4.323   3.689  -8.802  1.00  0.00     0.226 C 
ATOM     53  O   UNL     1       3.379   4.437  -8.543  1.00  0.00    -0.275 OA
BRANCH  52  54
ATOM     54  N   UNL     1       4.576   3.162 -10.082  1.00  0.00    -0.311 N 
ATOM     55  C   UNL     1       5.695   3.657 -10.896  1.00  0.00     0.153 C 
BRANCH  54  56
ATOM     56  C   UNL     1       3.776   2.143 -10.626  1.00  0.00     0.102 C 
ATOM     57  C   UNL     1       2.713   2.344 -11.422  1.00  0.00     0.043 C 
BRANCH  56  58
ATOM     58  C   UNL     1       4.099   0.689 -10.378  1.00  0.00     0.268 C 
ATOM     59  O   UNL     1       3.481  -0.008  -9.584  1.00  0.00    -0.268 OA
ATOM     60  N   UNL     1       5.109   0.215 -11.180  1.00  0.00    -0.339 N 
ATOM     61  H   UNL     1       5.578   0.860 -11.805  1.00  0.00     0.164 HD
BRANCH  60  62
ATOM     62  C   UNL     1       5.539  -1.182 -11.149  1.00  0.00     0.168 CG0
ATOM     63  C   UNL     1       6.845  -1.370 -11.909  1.00  0.00     0.041 C 
ATOM     64  G   UNL     1       4.430  -2.078 -11.739  1.00  0.00     0.000 G0
ENDBRANCH  60  62
ENDBRANCH  56  58
ENDBRANCH  54  56
ENDBRANCH  52  54
ENDBRANCH  51  52
ENDBRANCH  50  51
ENDBRANCH  49  50
BRANCH  49  65
ATOM     65  C   UNL     1       2.801   2.130  -5.934  1.00  0.00     0.326 C 
ATOM     66  O   UNL     1       2.251   1.556  -6.863  1.00  0.00    -0.250 OA
BRANCH  65  67
ATOM     67  O   UNL     1       2.060   2.825  -5.043  1.00  0.00    -0.480 OA
ATOM     68  H   UNL     1       2.004   3.722  -5.438  1.00  0.00     0.296 HD
ENDBRANCH  65  67
ENDBRANCH  49  65
ENDBRANCH  47  49
ENDBRANCH  43  45
ENDBRANCH   1  43
BRANCH   1  69
ATOM     69  C   UNL     1       3.132   5.459  -2.592  1.00  0.00    -0.001 C 
ATOM     70  C   UNL     1       2.082   5.003  -1.886  1.00  0.00     0.001 C 
BRANCH  70  71
ATOM     71  C   UNL     1       0.666   5.125  -2.238  1.00  0.00    -0.055 C 
ATOM     72  C   UNL     1      -0.084   4.003  -2.219  1.00  0.00    -0.018 C 
ATOM     73  C   UNL     1       0.144   6.494  -2.588  1.00  0.00     0.044 C 
BRANCH  72  74
ATOM     74  C   UNL     1      -1.563   3.828  -2.531  1.00  0.00     0.038 C 
ATOM     75  C   UNL     1      -2.342   4.232  -1.274  1.00  0.00     0.015 C 
BRANCH  74  76
ATOM     76  C   UNL     1      -1.805   2.365  -3.007  1.00  0.00     0.128 C 
BRANCH  76  77
ATOM     77  O   UNL     1      -2.528   1.635  -2.002  1.00  0.00    -0.381 OA
ATOM     78  C   UNL     1      -1.768   0.601  -1.390  1.00  0.00     0.195 C 
ENDBRANCH  76  77
BRANCH  76  79
ATOM     79  C   UNL     1      -2.455   2.258  -4.410  1.00  0.00     0.068 C 
BRANCH  79  80
ATOM     80  C   UNL     1      -1.997   1.144  -5.319  1.00  0.00    -0.045 A 
ATOM     81  C   UNL     1      -0.753   0.526  -5.134  1.00  0.00     0.004 A 
ATOM     82  C   UNL     1      -2.805   0.725  -6.387  1.00  0.00     0.004 A 
ATOM     83  C   UNL     1      -0.330  -0.494  -5.988  1.00  0.00     0.000 A 
ATOM     84  C   UNL     1      -2.381  -0.295  -7.241  1.00  0.00     0.000 A 
ATOM     85  C   UNL     1      -1.145  -0.906  -7.041  1.00  0.00     0.000 A 
ENDBRANCH  79  80
ENDBRANCH  76  79
ENDBRANCH  74  76
ENDBRANCH  72  74
ENDBRANCH  70  71
ENDBRANCH   1  69
TORSDOF 17
ENDMDL
MODEL 31
REMARK VINA RESULT:    -6.066      4.285     10.757
REMARK INTER + INTRA:         -24.129
REMARK INTER:                 -16.499
REMARK INTRA:                  -7.631
REMARK UNBOUND:                -6.005
REMARK SMILES C=C1C(=O)N[C@H](C)C(=O)N[C@@H](CC(C)C)C(=O)N[C@@H](C(=O)O)[C@H](C)C(=O)N[C@@H](CCCN=C(N)N)C(=O)N[C@@H](/C=C/C(C)=C/[C@H](C)[C@H](Cc2ccccc2)OC)[C@H](C)C(=O)N[C@@H](C(=O)O)CCC(=O)N1C
REMARK SMILES IDX 39 1 38 2 37 3 36 4 28 6 27 7 25 8 26 9 23 11 24 12 19 13
REMARK SMILES IDX 18 14 16 15 17 16 11 18 10 19 8 20 9 21 12 24 13 25 14 26
REMARK SMILES IDX 15 27 20 28 21 29 22 30 29 32 30 33 31 34 32 35 33 36 34 37
REMARK SMILES IDX 35 38 57 43 58 44 59 45 60 46 61 47 62 49 66 50 67 51 68 52
REMARK SMILES IDX 69 53 70 54 71 55 2 56 1 57 3 58 4 59 5 60 6 62 7 63 63 65
REMARK SMILES IDX 64 66 65 67 40 69 41 70 42 71 44 72 43 73 45 74 46 75 47 76
REMARK SMILES IDX 55 77 56 78 48 79 49 80 50 81 54 82 51 83 53 84 52 85
REMARK H PARENT 38 5 27 10 18 17 10 22 22 31 34 39 34 40 35 41 35 42 61 48
REMARK H PARENT 5 61 65 68
REMARK Flexibility Score:  369.900
ROOT
ATOM      1  C   UNL     1      -0.761   2.857  -2.332  1.00  0.00     0.117 C 
ENDROOT
BRANCH   1   2
ATOM      2  N   UNL     1      -0.100   3.523  -3.454  1.00  0.00    -0.347 N 
ATOM      3  O   UNL     1       2.011   3.623  -2.558  1.00  0.00    -0.273 OA
ATOM      4  C   UNL     1       1.258   3.771  -3.515  1.00  0.00     0.243 C 
ATOM      5  H   UNL     1      -0.642   3.781  -4.265  1.00  0.00     0.164 HD
BRANCH   4   6
ATOM      6  C   UNL     1       1.716   4.410  -4.850  1.00  0.00     0.171 C 
BRANCH   6   7
ATOM      7  N   UNL     1       1.887   3.377  -5.883  1.00  0.00    -0.344 N 
ATOM      8  C   UNL     1       3.129   2.838  -6.140  1.00  0.00     0.226 C 
ATOM      9  O   UNL     1       4.140   3.201  -5.550  1.00  0.00    -0.275 OA
ATOM     10  H   UNL     1       1.086   3.100  -6.438  1.00  0.00     0.164 HD
BRANCH   8  11
ATOM     11  C   UNL     1       3.132   1.745  -7.194  1.00  0.00     0.109 C 
ATOM     12  C   UNL     1       1.772   1.047  -7.231  1.00  0.00     0.021 C 
BRANCH  11  13
ATOM     13  C   UNL     1       3.600   2.324  -8.545  1.00  0.00     0.204 C 
BRANCH  13  14
ATOM     14  N   UNL     1       5.061   2.333  -8.664  1.00  0.00    -0.340 N 
ATOM     15  C   UNL     1       5.732   3.111  -9.582  1.00  0.00     0.243 C 
ATOM     16  O   UNL     1       5.154   3.900 -10.327  1.00  0.00    -0.273 OA
ATOM     17  H   UNL     1       5.586   1.596  -8.186  1.00  0.00     0.164 HD
BRANCH  15  18
ATOM     18  C   UNL     1       7.247   2.801  -9.667  1.00  0.00     0.171 C 
BRANCH  18  19
ATOM     19  N   UNL     1       7.899   3.616  -8.644  1.00  0.00    -0.343 N 
ATOM     20  C   UNL     1       8.444   4.852  -8.935  1.00  0.00     0.242 CG0
ATOM     21  O   UNL     1       8.525   5.263 -10.090  1.00  0.00    -0.273 OA
ATOM     22  H   UNL     1       7.960   3.267  -7.694  1.00  0.00     0.164 HD
ATOM     23  G   UNL     1       9.018   5.598  -7.713  1.00  0.00     0.000 G0
ENDBRANCH  18  19
BRANCH  18  24
ATOM     24  C   UNL     1       7.507   1.306  -9.443  1.00  0.00     0.038 C 
BRANCH  24  25
ATOM     25  C   UNL     1       7.693   0.484 -10.737  1.00  0.00    -0.015 C 
ATOM     26  C   UNL     1       7.639   1.351 -11.994  1.00  0.00     0.007 C 
ATOM     27  C   UNL     1       6.618  -0.604 -10.815  1.00  0.00     0.007 C 
ENDBRANCH  24  25
ENDBRANCH  18  24
ENDBRANCH  15  18
ENDBRANCH  13  14
BRANCH  13  28
ATOM     28  C   UNL     1       3.050   1.559  -9.752  1.00  0.00     0.327 C 
ATOM     29  O   UNL     1       3.442   0.477 -10.162  1.00  0.00    -0.250 OA
BRANCH  28  30
ATOM     30  O   UNL     1       2.123   2.254 -10.442  1.00  0.00    -0.480 OA
ATOM     31  H   UNL     1       1.268   1.946 -10.075  1.00  0.00     0.296 HD
ENDBRANCH  28  30
ENDBRANCH  13  28
ENDBRANCH  11  13
ENDBRANCH   8  11
ENDBRANCH   6   7
BRANCH   6  32
ATOM     32  C   UNL     1       0.684   5.456  -5.288  1.00  0.00     0.037 C 
BRANCH  32  33
ATOM     33  C   UNL     1       0.122   5.165  -6.686  1.00  0.00     0.026 C 
BRANCH  33  34
ATOM     34  C   UNL     1       0.671   6.119  -7.748  1.00  0.00     0.146 C 
BRANCH  34  35
ATOM     35  N   UNL     1       2.110   6.252  -7.560  1.00  0.00    -0.254 NA
ATOM     36  C   UNL     1       2.890   5.873  -8.502  1.00  0.00     0.185 C 
ATOM     37  N   UNL     1       4.217   5.997  -8.341  1.00  0.00    -0.370 N 
ATOM     38  N   UNL     1       2.576   5.342  -9.697  1.00  0.00    -0.370 N 
ATOM     39  H   UNL     1       4.533   6.400  -7.469  1.00  0.00     0.159 HD
ATOM     40  H   UNL     1       4.880   5.888  -9.089  1.00  0.00     0.159 HD
ATOM     41  H   UNL     1       3.285   4.955 -10.297  1.00  0.00     0.159 HD
ATOM     42  H   UNL     1       1.614   5.177  -9.947  1.00  0.00     0.159 HD
ENDBRANCH  34  35
ENDBRANCH  33  34
ENDBRANCH  32  33
ENDBRANCH   6  32
ENDBRANCH   4   6
ENDBRANCH   1   2
BRANCH   1  43
ATOM     43  C   UNL     1      -1.863   1.914  -2.896  1.00  0.00     0.102 C 
ATOM     44  C   UNL     1      -1.350   0.954  -3.982  1.00  0.00     0.020 C 
BRANCH  43  45
ATOM     45  C   UNL     1      -3.109   2.705  -3.304  1.00  0.00     0.225 C 
ATOM     46  O   UNL     1      -3.149   3.429  -4.295  1.00  0.00    -0.275 OA
ATOM     47  N   UNL     1      -4.170   2.632  -2.431  1.00  0.00    -0.342 N 
ATOM     48  H   UNL     1      -4.177   1.923  -1.711  1.00  0.00     0.164 HD
BRANCH  47  49
ATOM     49  C   UNL     1      -5.440   3.309  -2.710  1.00  0.00     0.192 C 
BRANCH  49  50
ATOM     50  C   UNL     1      -5.544   4.578  -1.859  1.00  0.00     0.047 C 
BRANCH  50  51
ATOM     51  C   UNL     1      -6.259   5.717  -2.599  1.00  0.00     0.103 C 
BRANCH  51  52
ATOM     52  C   UNL     1      -7.777   5.624  -2.465  1.00  0.00     0.226 C 
ATOM     53  O   UNL     1      -8.280   5.403  -1.361  1.00  0.00    -0.275 OA
BRANCH  52  54
ATOM     54  N   UNL     1      -8.526   5.877  -3.629  1.00  0.00    -0.311 N 
ATOM     55  C   UNL     1      -8.390   5.022  -4.816  1.00  0.00     0.153 C 
BRANCH  54  56
ATOM     56  C   UNL     1      -9.432   6.948  -3.699  1.00  0.00     0.102 C 
ATOM     57  C   UNL     1      -9.102   8.243  -3.570  1.00  0.00     0.043 C 
BRANCH  56  58
ATOM     58  C   UNL     1     -10.897   6.707  -3.981  1.00  0.00     0.268 C 
ATOM     59  O   UNL     1     -11.648   6.150  -3.192  1.00  0.00    -0.268 OA
ATOM     60  N   UNL     1     -11.309   7.234  -5.181  1.00  0.00    -0.339 N 
ATOM     61  H   UNL     1     -10.622   7.672  -5.783  1.00  0.00     0.164 HD
BRANCH  60  62
ATOM     62  C   UNL     1     -12.702   7.169  -5.623  1.00  0.00     0.168 CG0
ATOM     63  C   UNL     1     -12.962   5.901  -6.426  1.00  0.00     0.041 C 
ATOM     64  G   UNL     1     -13.039   8.422  -6.457  1.00  0.00     0.000 G0
ENDBRANCH  60  62
ENDBRANCH  56  58
ENDBRANCH  54  56
ENDBRANCH  52  54
ENDBRANCH  51  52
ENDBRANCH  50  51
ENDBRANCH  49  50
BRANCH  49  65
ATOM     65  C   UNL     1      -6.644   2.400  -2.416  1.00  0.00     0.326 C 
ATOM     66  O   UNL     1      -7.022   2.059  -1.305  1.00  0.00    -0.250 OA
BRANCH  65  67
ATOM     67  O   UNL     1      -7.268   1.920  -3.514  1.00  0.00    -0.480 OA
ATOM     68  H   UNL     1      -8.067   1.479  -3.151  1.00  0.00     0.296 HD
ENDBRANCH  65  67
ENDBRANCH  49  65
ENDBRANCH  47  49
ENDBRANCH  43  45
ENDBRANCH   1  43
BRANCH   1  69
ATOM     69  C   UNL     1      -1.161   3.955  -1.363  1.00  0.00    -0.001 C 
ATOM     70  C   UNL     1      -1.337   5.260  -1.635  1.00  0.00     0.001 C 
BRANCH  70  71
ATOM     71  C   UNL     1      -1.744   6.307  -0.696  1.00  0.00    -0.055 C 
ATOM     72  C   UNL     1      -2.160   5.923   0.530  1.00  0.00    -0.018 C 
ATOM     73  C   UNL     1      -1.662   7.738  -1.160  1.00  0.00     0.044 C 
BRANCH  72  74
ATOM     74  C   UNL     1      -2.634   6.778   1.697  1.00  0.00     0.038 C 
ATOM     75  C   UNL     1      -1.720   6.464   2.888  1.00  0.00     0.015 C 
BRANCH  74  76
ATOM     76  C   UNL     1      -4.146   6.497   1.943  1.00  0.00     0.128 C 
BRANCH  76  77
ATOM     77  O   UNL     1      -4.306   5.633   3.080  1.00  0.00    -0.381 OA
ATOM     78  C   UNL     1      -5.215   6.131   4.052  1.00  0.00     0.195 C 
ENDBRANCH  76  77
BRANCH  76  79
ATOM     79  C   UNL     1      -5.017   7.775   2.033  1.00  0.00     0.068 C 
BRANCH  79  80
ATOM     80  C   UNL     1      -4.979   8.740   0.873  1.00  0.00    -0.045 A 
ATOM     81  C   UNL     1      -4.801  10.114   1.082  1.00  0.00     0.004 A 
ATOM     82  C   UNL     1      -5.153   8.275  -0.439  1.00  0.00     0.004 A 
ATOM     83  C   UNL     1      -4.782  11.002   0.004  1.00  0.00     0.000 A 
ATOM     84  C   UNL     1      -5.134   9.164  -1.516  1.00  0.00     0.000 A 
ATOM     85  C   UNL     1      -4.947  10.526  -1.295  1.00  0.00     0.000 A 
ENDBRANCH  79  80
ENDBRANCH  76  79
ENDBRANCH  74  76
ENDBRANCH  72  74
ENDBRANCH  70  71
ENDBRANCH   1  69
TORSDOF 17
ENDMDL
MODEL 32
REMARK VINA RESULT:    -6.055      2.489      4.647
REMARK INTER + INTRA:         -24.095
REMARK INTER:                 -16.462
REMARK INTRA:                  -7.634
REMARK UNBOUND:                -6.005
REMARK SMILES C=C1C(=O)N[C@H](C)C(=O)N[C@@H](CC(C)C)C(=O)N[C@@H](C(=O)O)[C@H](C)C(=O)N[C@@H](CCCN=C(N)N)C(=O)N[C@@H](/C=C/C(C)=C/[C@H](C)[C@H](Cc2ccccc2)OC)[C@H](C)C(=O)N[C@@H](C(=O)O)CCC(=O)N1C
REMARK SMILES IDX 39 1 38 2 37 3 36 4 28 6 27 7 25 8 26 9 23 11 24 12 19 13
REMARK SMILES IDX 18 14 16 15 17 16 11 18 10 19 8 20 9 21 12 24 13 25 14 26
REMARK SMILES IDX 15 27 20 28 21 29 22 30 29 32 30 33 31 34 32 35 33 36 34 37
REMARK SMILES IDX 35 38 57 43 58 44 59 45 60 46 61 47 62 49 66 50 67 51 68 52
REMARK SMILES IDX 69 53 70 54 71 55 2 56 1 57 3 58 4 59 5 60 6 62 7 63 63 65
REMARK SMILES IDX 64 66 65 67 40 69 41 70 42 71 44 72 43 73 45 74 46 75 47 76
REMARK SMILES IDX 55 77 56 78 48 79 49 80 50 81 54 82 51 83 53 84 52 85
REMARK H PARENT 38 5 27 10 18 17 10 22 22 31 34 39 34 40 35 41 35 42 61 48
REMARK H PARENT 5 61 65 68
REMARK Flexibility Score:  369.900
ROOT
ATOM      1  C   UNL     1      -0.868   4.368  -2.598  1.00  0.00     0.117 C 
ENDROOT
BRANCH   1   2
ATOM      2  N   UNL     1      -0.095   5.061  -1.567  1.00  0.00    -0.347 N 
ATOM      3  O   UNL     1      -0.476   7.209  -2.282  1.00  0.00    -0.273 OA
ATOM      4  C   UNL     1      -0.036   6.435  -1.438  1.00  0.00     0.243 C 
ATOM      5  H   UNL     1       0.392   4.521  -0.868  1.00  0.00     0.164 HD
BRANCH   4   6
ATOM      6  C   UNL     1       0.782   6.911  -0.210  1.00  0.00     0.171 C 
BRANCH   6   7
ATOM      7  N   UNL     1       2.076   7.465  -0.638  1.00  0.00    -0.344 N 
ATOM      8  C   UNL     1       3.069   6.640  -1.122  1.00  0.00     0.226 C 
ATOM      9  O   UNL     1       2.938   5.424  -1.198  1.00  0.00    -0.275 OA
ATOM     10  H   UNL     1       2.246   8.457  -0.527  1.00  0.00     0.164 HD
BRANCH   8  11
ATOM     11  C   UNL     1       4.323   7.368  -1.572  1.00  0.00     0.109 C 
ATOM     12  C   UNL     1       4.055   8.870  -1.664  1.00  0.00     0.021 C 
BRANCH  11  13
ATOM     13  C   UNL     1       5.508   6.975  -0.668  1.00  0.00     0.204 C 
BRANCH  13  14
ATOM     14  N   UNL     1       5.073   6.619   0.687  1.00  0.00    -0.340 N 
ATOM     15  C   UNL     1       5.406   7.362   1.799  1.00  0.00     0.243 C 
ATOM     16  O   UNL     1       6.042   8.412   1.726  1.00  0.00    -0.273 OA
ATOM     17  H   UNL     1       4.676   5.687   0.835  1.00  0.00     0.164 HD
BRANCH  15  18
ATOM     18  C   UNL     1       5.015   6.684   3.135  1.00  0.00     0.171 C 
BRANCH  18  19
ATOM     19  N   UNL     1       5.917   7.217   4.154  1.00  0.00    -0.343 N 
ATOM     20  C   UNL     1       7.034   6.521   4.574  1.00  0.00     0.242 CG0
ATOM     21  O   UNL     1       7.249   5.368   4.209  1.00  0.00    -0.273 OA
ATOM     22  H   UNL     1       5.718   8.119   4.572  1.00  0.00     0.164 HD
ATOM     23  G   UNL     1       7.908   7.277   5.597  1.00  0.00     0.000 G0
ENDBRANCH  18  19
BRANCH  18  24
ATOM     24  C   UNL     1       3.548   6.970   3.478  1.00  0.00     0.038 C 
BRANCH  24  25
ATOM     25  C   UNL     1       3.273   8.397   3.996  1.00  0.00    -0.015 C 
ATOM     26  C   UNL     1       2.575   8.403   5.356  1.00  0.00     0.007 C 
ATOM     27  C   UNL     1       2.422   9.160   2.977  1.00  0.00     0.007 C 
ENDBRANCH  24  25
ENDBRANCH  18  24
ENDBRANCH  15  18
ENDBRANCH  13  14
BRANCH  13  28
ATOM     28  C   UNL     1       6.316   5.792  -1.211  1.00  0.00     0.327 C 
ATOM     29  O   UNL     1       7.392   5.399  -0.790  1.00  0.00    -0.250 OA
BRANCH  28  30
ATOM     30  O   UNL     1       5.779   5.252  -2.323  1.00  0.00    -0.480 OA
ATOM     31  H   UNL     1       4.971   4.797  -2.005  1.00  0.00     0.296 HD
ENDBRANCH  28  30
ENDBRANCH  13  28
ENDBRANCH  11  13
ENDBRANCH   8  11
ENDBRANCH   6   7
BRANCH   6  32
ATOM     32  C   UNL     1      -0.032   7.955   0.563  1.00  0.00     0.037 C 
BRANCH  32  33
ATOM     33  C   UNL     1      -1.129   7.313   1.423  1.00  0.00     0.026 C 
BRANCH  33  34
ATOM     34  C   UNL     1      -0.606   6.148   2.265  1.00  0.00     0.146 C 
BRANCH  34  35
ATOM     35  N   UNL     1      -1.645   5.740   3.200  1.00  0.00    -0.254 NA
ATOM     36  C   UNL     1      -1.389   5.767   4.454  1.00  0.00     0.185 C 
ATOM     37  N   UNL     1      -2.341   5.397   5.325  1.00  0.00    -0.370 N 
ATOM     38  N   UNL     1      -0.253   6.128   5.077  1.00  0.00    -0.370 N 
ATOM     39  H   UNL     1      -3.232   5.121   4.933  1.00  0.00     0.159 HD
ATOM     40  H   UNL     1      -2.280   5.554   6.316  1.00  0.00     0.159 HD
ATOM     41  H   UNL     1      -0.127   5.973   6.064  1.00  0.00     0.159 HD
ATOM     42  H   UNL     1       0.555   6.414   4.545  1.00  0.00     0.159 HD
ENDBRANCH  34  35
ENDBRANCH  33  34
ENDBRANCH  32  33
ENDBRANCH   6  32
ENDBRANCH   4   6
ENDBRANCH   1   2
BRANCH   1  43
ATOM     43  C   UNL     1      -2.094   3.687  -1.924  1.00  0.00     0.102 C 
ATOM     44  C   UNL     1      -2.570   2.421  -2.656  1.00  0.00     0.020 C 
BRANCH  43  45
ATOM     45  C   UNL     1      -3.208   4.704  -1.653  1.00  0.00     0.225 C 
ATOM     46  O   UNL     1      -3.946   4.645  -0.674  1.00  0.00    -0.275 OA
ATOM     47  N   UNL     1      -3.397   5.650  -2.635  1.00  0.00    -0.342 N 
ATOM     48  H   UNL     1      -2.695   5.778  -3.349  1.00  0.00     0.164 HD
BRANCH  47  49
ATOM     49  C   UNL     1      -4.403   6.708  -2.495  1.00  0.00     0.192 C 
BRANCH  49  50
ATOM     50  C   UNL     1      -5.692   6.290  -3.207  1.00  0.00     0.047 C 
BRANCH  50  51
ATOM     51  C   UNL     1      -6.942   6.889  -2.548  1.00  0.00     0.103 C 
BRANCH  51  52
ATOM     52  C   UNL     1      -8.224   6.476  -3.269  1.00  0.00     0.226 C 
ATOM     53  O   UNL     1      -8.467   5.281  -3.444  1.00  0.00    -0.275 OA
BRANCH  52  54
ATOM     54  N   UNL     1      -9.103   7.514  -3.628  1.00  0.00    -0.311 N 
ATOM     55  C   UNL     1      -8.592   8.812  -4.091  1.00  0.00     0.153 C 
BRANCH  54  56
ATOM     56  C   UNL     1     -10.497   7.349  -3.565  1.00  0.00     0.102 C 
ATOM     57  C   UNL     1     -11.274   7.764  -2.551  1.00  0.00     0.043 C 
BRANCH  56  58
ATOM     58  C   UNL     1     -11.253   6.704  -4.702  1.00  0.00     0.268 C 
ATOM     59  O   UNL     1     -11.487   7.274  -5.759  1.00  0.00    -0.268 OA
ATOM     60  N   UNL     1     -11.592   5.396  -4.452  1.00  0.00    -0.339 N 
ATOM     61  H   UNL     1     -11.371   5.000  -3.546  1.00  0.00     0.164 HD
BRANCH  60  62
ATOM     62  C   UNL     1     -12.274   4.565  -5.444  1.00  0.00     0.168 CG0
ATOM     63  C   UNL     1     -13.396   3.757  -4.802  1.00  0.00     0.041 C 
ATOM     64  G   UNL     1     -11.252   3.632  -6.127  1.00  0.00     0.000 G0
ENDBRANCH  60  62
ENDBRANCH  56  58
ENDBRANCH  54  56
ENDBRANCH  52  54
ENDBRANCH  51  52
ENDBRANCH  50  51
ENDBRANCH  49  50
BRANCH  49  65
ATOM     65  C   UNL     1      -3.908   8.040  -3.078  1.00  0.00     0.326 C 
ATOM     66  O   UNL     1      -4.198   8.485  -4.179  1.00  0.00    -0.250 OA
BRANCH  65  67
ATOM     67  O   UNL     1      -3.039   8.712  -2.291  1.00  0.00    -0.480 OA
ATOM     68  H   UNL     1      -2.178   8.601  -2.749  1.00  0.00     0.296 HD
ENDBRANCH  65  67
ENDBRANCH  49  65
ENDBRANCH  47  49
ENDBRANCH  43  45
ENDBRANCH   1  43
BRANCH   1  69
ATOM     69  C   UNL     1       0.121   3.506  -3.362  1.00  0.00    -0.001 C 
ATOM     70  C   UNL     1       1.219   2.899  -2.879  1.00  0.00     0.001 C 
BRANCH  70  71
ATOM     71  C   UNL     1       2.154   2.052  -3.622  1.00  0.00    -0.055 C 
ATOM     72  C   UNL     1       2.856   2.621  -4.624  1.00  0.00    -0.018 C 
ATOM     73  C   UNL     1       2.273   0.608  -3.209  1.00  0.00     0.044 C 
BRANCH  72  74
ATOM     74  C   UNL     1       3.888   1.997  -5.553  1.00  0.00     0.038 C 
ATOM     75  C   UNL     1       5.216   2.724  -5.308  1.00  0.00     0.015 C 
BRANCH  74  76
ATOM     76  C   UNL     1       3.359   2.078  -7.015  1.00  0.00     0.128 C 
BRANCH  76  77
ATOM     77  O   UNL     1       4.457   2.263  -7.924  1.00  0.00    -0.381 OA
ATOM     78  C   UNL     1       4.201   1.778  -9.236  1.00  0.00     0.195 C 
ENDBRANCH  76  77
BRANCH  76  79
ATOM     79  C   UNL     1       2.440   0.898  -7.418  1.00  0.00     0.068 C 
BRANCH  79  80
ATOM     80  C   UNL     1       1.012   0.915  -6.928  1.00  0.00    -0.045 A 
ATOM     81  C   UNL     1       0.214   2.058  -7.066  1.00  0.00     0.004 A 
ATOM     82  C   UNL     1       0.469  -0.214  -6.296  1.00  0.00     0.004 A 
ATOM     83  C   UNL     1      -1.101   2.070  -6.597  1.00  0.00     0.000 A 
ATOM     84  C   UNL     1      -0.847  -0.201  -5.826  1.00  0.00     0.000 A 
ATOM     85  C   UNL     1      -1.631   0.940  -5.978  1.00  0.00     0.000 A 
ENDBRANCH  79  80
ENDBRANCH  76  79
ENDBRANCH  74  76
ENDBRANCH  72  74
ENDBRANCH  70  71
ENDBRANCH   1  69
TORSDOF 17
ENDMDL
MODEL 33
REMARK VINA RESULT:    -6.038      2.461      3.262
REMARK INTER + INTRA:         -24.044
REMARK INTER:                 -17.792
REMARK INTRA:                  -6.252
REMARK UNBOUND:                -6.005
REMARK SMILES C=C1C(=O)N[C@H](C)C(=O)N[C@@H](CC(C)C)C(=O)N[C@@H](C(=O)O)[C@H](C)C(=O)N[C@@H](CCCN=C(N)N)C(=O)N[C@@H](/C=C/C(C)=C/[C@H](C)[C@H](Cc2ccccc2)OC)[C@H](C)C(=O)N[C@@H](C(=O)O)CCC(=O)N1C
REMARK SMILES IDX 39 1 38 2 37 3 36 4 28 6 27 7 25 8 26 9 23 11 24 12 19 13
REMARK SMILES IDX 18 14 16 15 17 16 11 18 10 19 8 20 9 21 12 24 13 25 14 26
REMARK SMILES IDX 15 27 20 28 21 29 22 30 29 32 30 33 31 34 32 35 33 36 34 37
REMARK SMILES IDX 35 38 57 43 58 44 59 45 60 46 61 47 62 49 66 50 67 51 68 52
REMARK SMILES IDX 69 53 70 54 71 55 2 56 1 57 3 58 4 59 5 60 6 62 7 63 63 65
REMARK SMILES IDX 64 66 65 67 40 69 41 70 42 71 44 72 43 73 45 74 46 75 47 76
REMARK SMILES IDX 55 77 56 78 48 79 49 80 50 81 54 82 51 83 53 84 52 85
REMARK H PARENT 38 5 27 10 18 17 10 22 22 31 34 39 34 40 35 41 35 42 61 48
REMARK H PARENT 5 61 65 68
REMARK Flexibility Score:  369.900
ROOT
ATOM      1  C   UNL     1       2.287   2.335  -4.720  1.00  0.00     0.117 C 
ENDROOT
BRANCH   1   2
ATOM      2  N   UNL     1       2.340   3.741  -4.321  1.00  0.00    -0.347 N 
ATOM      3  O   UNL     1       0.161   4.283  -4.798  1.00  0.00    -0.273 OA
ATOM      4  C   UNL     1       1.244   4.582  -4.306  1.00  0.00     0.243 C 
ATOM      5  H   UNL     1       3.209   4.128  -3.985  1.00  0.00     0.164 HD
BRANCH   4   6
ATOM      6  C   UNL     1       1.552   5.999  -3.758  1.00  0.00     0.171 C 
BRANCH   6   7
ATOM      7  N   UNL     1       2.936   6.068  -3.261  1.00  0.00    -0.344 N 
ATOM      8  C   UNL     1       3.206   5.940  -1.916  1.00  0.00     0.226 C 
ATOM      9  O   UNL     1       2.326   5.787  -1.077  1.00  0.00    -0.275 OA
ATOM     10  H   UNL     1       3.683   6.260  -3.916  1.00  0.00     0.164 HD
BRANCH   8  11
ATOM     11  C   UNL     1       4.684   5.978  -1.568  1.00  0.00     0.109 C 
ATOM     12  C   UNL     1       5.397   4.767  -2.170  1.00  0.00     0.021 C 
BRANCH  11  13
ATOM     13  C   UNL     1       5.278   7.344  -1.966  1.00  0.00     0.204 C 
BRANCH  13  14
ATOM     14  N   UNL     1       6.020   7.965  -0.865  1.00  0.00    -0.340 N 
ATOM     15  C   UNL     1       5.842   9.279  -0.490  1.00  0.00     0.243 C 
ATOM     16  O   UNL     1       5.002  10.008  -1.016  1.00  0.00    -0.273 OA
ATOM     17  H   UNL     1       6.831   7.467  -0.491  1.00  0.00     0.164 HD
BRANCH  15  18
ATOM     18  C   UNL     1       6.876   9.771   0.552  1.00  0.00     0.171 C 
BRANCH  18  19
ATOM     19  N   UNL     1       7.732  10.738  -0.132  1.00  0.00    -0.343 N 
ATOM     20  C   UNL     1       8.759  10.341  -0.966  1.00  0.00     0.242 CG0
ATOM     21  O   UNL     1       9.085   9.160  -1.068  1.00  0.00    -0.273 OA
ATOM     22  H   UNL     1       7.576  11.730   0.011  1.00  0.00     0.164 HD
ATOM     23  G   UNL     1       9.502  11.501  -1.660  1.00  0.00     0.000 G0
ENDBRANCH  18  19
BRANCH  18  24
ATOM     24  C   UNL     1       6.171  10.400   1.760  1.00  0.00     0.038 C 
BRANCH  24  25
ATOM     25  C   UNL     1       5.079   9.517   2.401  1.00  0.00    -0.015 C 
ATOM     26  C   UNL     1       4.222  10.284   3.408  1.00  0.00     0.007 C 
ATOM     27  C   UNL     1       5.729   8.313   3.088  1.00  0.00     0.007 C 
ENDBRANCH  24  25
ENDBRANCH  18  24
ENDBRANCH  15  18
ENDBRANCH  13  14
BRANCH  13  28
ATOM     28  C   UNL     1       6.228   7.263  -3.165  1.00  0.00     0.327 C 
ATOM     29  O   UNL     1       5.907   7.109  -4.333  1.00  0.00    -0.250 OA
BRANCH  28  30
ATOM     30  O   UNL     1       7.529   7.260  -2.809  1.00  0.00    -0.480 OA
ATOM     31  H   UNL     1       7.702   8.181  -2.521  1.00  0.00     0.296 HD
ENDBRANCH  28  30
ENDBRANCH  13  28
ENDBRANCH  11  13
ENDBRANCH   8  11
ENDBRANCH   6   7
BRANCH   6  32
ATOM     32  C   UNL     1       1.317   7.030  -4.868  1.00  0.00     0.037 C 
BRANCH  32  33
ATOM     33  C   UNL     1       2.238   8.250  -4.729  1.00  0.00     0.026 C 
BRANCH  33  34
ATOM     34  C   UNL     1       1.467   9.532  -4.410  1.00  0.00     0.146 C 
BRANCH  34  35
ATOM     35  N   UNL     1       2.062  10.158  -3.238  1.00  0.00    -0.254 NA
ATOM     36  C   UNL     1       1.519   9.961  -2.094  1.00  0.00     0.185 C 
ATOM     37  N   UNL     1       2.062  10.529  -1.006  1.00  0.00    -0.370 N 
ATOM     38  N   UNL     1       0.430   9.233  -1.790  1.00  0.00    -0.370 N 
ATOM     39  H   UNL     1       2.894  11.087  -1.152  1.00  0.00     0.159 HD
ATOM     40  H   UNL     1       1.805  10.286  -0.065  1.00  0.00     0.159 HD
ATOM     41  H   UNL     1       0.020   9.268  -0.871  1.00  0.00     0.159 HD
ATOM     42  H   UNL     1      -0.089   8.761  -2.514  1.00  0.00     0.159 HD
ENDBRANCH  34  35
ENDBRANCH  33  34
ENDBRANCH  32  33
ENDBRANCH   6  32
ENDBRANCH   4   6
ENDBRANCH   1   2
BRANCH   1  43
ATOM     43  C   UNL     1       1.977   1.474  -3.462  1.00  0.00     0.102 C 
ATOM     44  C   UNL     1       2.922   0.272  -3.295  1.00  0.00     0.020 C 
BRANCH  43  45
ATOM     45  C   UNL     1       0.491   1.109  -3.399  1.00  0.00     0.225 C 
ATOM     46  O   UNL     1      -0.000   0.182  -4.037  1.00  0.00    -0.275 OA
ATOM     47  N   UNL     1      -0.294   1.951  -2.645  1.00  0.00    -0.342 N 
ATOM     48  H   UNL     1       0.141   2.607  -2.012  1.00  0.00     0.164 HD
BRANCH  47  49
ATOM     49  C   UNL     1      -1.728   1.705  -2.464  1.00  0.00     0.192 C 
BRANCH  49  50
ATOM     50  C   UNL     1      -2.504   3.008  -2.673  1.00  0.00     0.047 C 
BRANCH  50  51
ATOM     51  C   UNL     1      -3.855   2.776  -3.364  1.00  0.00     0.103 C 
BRANCH  51  52
ATOM     52  C   UNL     1      -5.020   3.326  -2.543  1.00  0.00     0.226 C 
ATOM     53  O   UNL     1      -5.583   2.601  -1.721  1.00  0.00    -0.275 OA
BRANCH  52  54
ATOM     54  N   UNL     1      -5.333   4.685  -2.731  1.00  0.00    -0.311 N 
ATOM     55  C   UNL     1      -5.540   5.580  -1.585  1.00  0.00     0.153 C 
BRANCH  54  56
ATOM     56  C   UNL     1      -5.453   5.238  -4.017  1.00  0.00     0.102 C 
ATOM     57  C   UNL     1      -4.698   6.238  -4.498  1.00  0.00     0.043 C 
BRANCH  56  58
ATOM     58  C   UNL     1      -6.455   4.689  -5.006  1.00  0.00     0.268 C 
ATOM     59  O   UNL     1      -6.155   3.911  -5.902  1.00  0.00    -0.268 OA
ATOM     60  N   UNL     1      -7.743   5.099  -4.755  1.00  0.00    -0.339 N 
ATOM     61  H   UNL     1      -7.907   5.753  -3.999  1.00  0.00     0.164 HD
BRANCH  60  62
ATOM     62  C   UNL     1      -8.877   4.636  -5.553  1.00  0.00     0.168 CG0
ATOM     63  C   UNL     1      -9.360   5.726  -6.501  1.00  0.00     0.041 C 
ATOM     64  G   UNL     1     -10.017   4.183  -4.617  1.00  0.00     0.000 G0
ENDBRANCH  60  62
ENDBRANCH  56  58
ENDBRANCH  54  56
ENDBRANCH  52  54
ENDBRANCH  51  52
ENDBRANCH  50  51
ENDBRANCH  49  50
BRANCH  49  65
ATOM     65  C   UNL     1      -2.036   1.148  -1.066  1.00  0.00     0.326 C 
ATOM     66  O   UNL     1      -1.769   0.020  -0.675  1.00  0.00    -0.250 OA
BRANCH  65  67
ATOM     67  O   UNL     1      -2.708   1.996  -0.256  1.00  0.00    -0.480 OA
ATOM     68  H   UNL     1      -3.637   1.925  -0.567  1.00  0.00     0.296 HD
ENDBRANCH  65  67
ENDBRANCH  49  65
ENDBRANCH  47  49
ENDBRANCH  43  45
ENDBRANCH   1  43
BRANCH   1  69
ATOM     69  C   UNL     1       3.565   2.067  -5.496  1.00  0.00    -0.001 C 
ATOM     70  C   UNL     1       4.512   2.956  -5.843  1.00  0.00     0.001 C 
BRANCH  70  71
ATOM     71  C   UNL     1       5.751   2.681  -6.573  1.00  0.00    -0.055 C 
ATOM     72  C   UNL     1       6.006   3.417  -7.675  1.00  0.00    -0.018 C 
ATOM     73  C   UNL     1       6.657   1.603  -6.038  1.00  0.00     0.044 C 
BRANCH  72  74
ATOM     74  C   UNL     1       7.199   3.357  -8.618  1.00  0.00     0.038 C 
ATOM     75  C   UNL     1       7.756   4.781  -8.735  1.00  0.00     0.015 C 
BRANCH  74  76
ATOM     76  C   UNL     1       6.742   2.722  -9.964  1.00  0.00     0.128 C 
BRANCH  76  77
ATOM     77  O   UNL     1       6.787   3.706 -11.011  1.00  0.00    -0.381 OA
ATOM     78  C   UNL     1       7.501   3.281 -12.164  1.00  0.00     0.195 C 
ENDBRANCH  76  77
BRANCH  76  79
ATOM     79  C   UNL     1       7.496   1.419 -10.333  1.00  0.00     0.068 C 
BRANCH  79  80
ATOM     80  C   UNL     1       6.675   0.223 -10.751  1.00  0.00    -0.045 A 
ATOM     81  C   UNL     1       7.239  -0.807 -11.517  1.00  0.00     0.004 A 
ATOM     82  C   UNL     1       5.320   0.137 -10.400  1.00  0.00     0.004 A 
ATOM     83  C   UNL     1       6.470  -1.903 -11.912  1.00  0.00     0.000 A 
ATOM     84  C   UNL     1       4.551  -0.960 -10.796  1.00  0.00     0.000 A 
ATOM     85  C   UNL     1       5.126  -1.980 -11.550  1.00  0.00     0.000 A 
ENDBRANCH  79  80
ENDBRANCH  76  79
ENDBRANCH  74  76
ENDBRANCH  72  74
ENDBRANCH  70  71
ENDBRANCH   1  69
TORSDOF 17
ENDMDL
MODEL 34
REMARK VINA RESULT:    -6.029      4.617     13.060
REMARK INTER + INTRA:         -24.018
REMARK INTER:                 -15.215
REMARK INTRA:                  -8.804
REMARK UNBOUND:                -6.005
REMARK SMILES C=C1C(=O)N[C@H](C)C(=O)N[C@@H](CC(C)C)C(=O)N[C@@H](C(=O)O)[C@H](C)C(=O)N[C@@H](CCCN=C(N)N)C(=O)N[C@@H](/C=C/C(C)=C/[C@H](C)[C@H](Cc2ccccc2)OC)[C@H](C)C(=O)N[C@@H](C(=O)O)CCC(=O)N1C
REMARK SMILES IDX 39 1 38 2 37 3 36 4 28 6 27 7 25 8 26 9 23 11 24 12 19 13
REMARK SMILES IDX 18 14 16 15 17 16 11 18 10 19 8 20 9 21 12 24 13 25 14 26
REMARK SMILES IDX 15 27 20 28 21 29 22 30 29 32 30 33 31 34 32 35 33 36 34 37
REMARK SMILES IDX 35 38 57 43 58 44 59 45 60 46 61 47 62 49 66 50 67 51 68 52
REMARK SMILES IDX 69 53 70 54 71 55 2 56 1 57 3 58 4 59 5 60 6 62 7 63 63 65
REMARK SMILES IDX 64 66 65 67 40 69 41 70 42 71 44 72 43 73 45 74 46 75 47 76
REMARK SMILES IDX 55 77 56 78 48 79 49 80 50 81 54 82 51 83 53 84 52 85
REMARK H PARENT 38 5 27 10 18 17 10 22 22 31 34 39 34 40 35 41 35 42 61 48
REMARK H PARENT 5 61 65 68
REMARK Flexibility Score:  369.900
ROOT
ATOM      1  C   UNL     1       0.016   7.701   2.768  1.00  0.00     0.117 C 
ENDROOT
BRANCH   1   2
ATOM      2  N   UNL     1      -0.190   7.403   1.350  1.00  0.00    -0.347 N 
ATOM      3  O   UNL     1       1.729   8.372   0.545  1.00  0.00    -0.273 OA
ATOM      4  C   UNL     1       0.731   7.683   0.360  1.00  0.00     0.243 C 
ATOM      5  H   UNL     1      -1.027   6.919   1.063  1.00  0.00     0.164 HD
BRANCH   4   6
ATOM      6  C   UNL     1       0.305   7.186  -1.046  1.00  0.00     0.171 C 
BRANCH   6   7
ATOM      7  N   UNL     1      -0.397   5.897  -0.945  1.00  0.00    -0.344 N 
ATOM      8  C   UNL     1       0.248   4.719  -1.257  1.00  0.00     0.226 C 
ATOM      9  O   UNL     1       1.408   4.686  -1.650  1.00  0.00    -0.275 OA
ATOM     10  H   UNL     1      -1.376   5.890  -0.689  1.00  0.00     0.164 HD
BRANCH   8  11
ATOM     11  C   UNL     1      -0.593   3.472  -1.050  1.00  0.00     0.109 C 
ATOM     12  C   UNL     1      -1.918   3.836  -0.379  1.00  0.00     0.021 C 
BRANCH  11  13
ATOM     13  C   UNL     1      -0.730   2.708  -2.382  1.00  0.00     0.204 C 
BRANCH  13  14
ATOM     14  N   UNL     1       0.572   2.316  -2.929  1.00  0.00    -0.340 N 
ATOM     15  C   UNL     1       0.874   2.393  -4.272  1.00  0.00     0.243 C 
ATOM     16  O   UNL     1       0.091   2.855  -5.099  1.00  0.00    -0.273 OA
ATOM     17  H   UNL     1       1.207   1.786  -2.326  1.00  0.00     0.164 HD
BRANCH  15  18
ATOM     18  C   UNL     1       2.225   1.732  -4.641  1.00  0.00     0.171 C 
BRANCH  18  19
ATOM     19  N   UNL     1       2.119   1.314  -6.037  1.00  0.00    -0.343 N 
ATOM     20  C   UNL     1       1.602   0.083  -6.392  1.00  0.00     0.242 CG0
ATOM     21  O   UNL     1       1.333  -0.769  -5.549  1.00  0.00    -0.273 OA
ATOM     22  H   UNL     1       2.437   1.939  -6.769  1.00  0.00     0.164 HD
ATOM     23  G   UNL     1       1.496  -0.149  -7.914  1.00  0.00     0.000 G0
ENDBRANCH  18  19
BRANCH  18  24
ATOM     24  C   UNL     1       3.383   2.716  -4.436  1.00  0.00     0.038 C 
BRANCH  24  25
ATOM     25  C   UNL     1       4.709   2.066  -3.986  1.00  0.00    -0.015 C 
ATOM     26  C   UNL     1       5.352   2.801  -2.810  1.00  0.00     0.007 C 
ATOM     27  C   UNL     1       5.686   2.023  -5.164  1.00  0.00     0.007 C 
ENDBRANCH  24  25
ENDBRANCH  18  24
ENDBRANCH  15  18
ENDBRANCH  13  14
BRANCH  13  28
ATOM     28  C   UNL     1      -1.575   1.436  -2.265  1.00  0.00     0.327 C 
ATOM     29  O   UNL     1      -1.398   0.521  -1.474  1.00  0.00    -0.250 OA
BRANCH  28  30
ATOM     30  O   UNL     1      -2.517   1.336  -3.224  1.00  0.00    -0.480 OA
ATOM     31  H   UNL     1      -2.097   1.732  -4.016  1.00  0.00     0.296 HD
ENDBRANCH  28  30
ENDBRANCH  13  28
ENDBRANCH  11  13
ENDBRANCH   8  11
ENDBRANCH   6   7
BRANCH   6  32
ATOM     32  C   UNL     1      -0.586   8.245  -1.705  1.00  0.00     0.037 C 
BRANCH  32  33
ATOM     33  C   UNL     1      -1.855   7.634  -2.316  1.00  0.00     0.026 C 
BRANCH  33  34
ATOM     34  C   UNL     1      -2.715   8.672  -3.038  1.00  0.00     0.146 C 
BRANCH  34  35
ATOM     35  N   UNL     1      -4.075   8.164  -3.146  1.00  0.00    -0.254 NA
ATOM     36  C   UNL     1      -5.025   8.828  -2.600  1.00  0.00     0.185 C 
ATOM     37  N   UNL     1      -6.282   8.371  -2.697  1.00  0.00    -0.370 N 
ATOM     38  N   UNL     1      -4.960   9.978  -1.905  1.00  0.00    -0.370 N 
ATOM     39  H   UNL     1      -6.415   7.512  -3.216  1.00  0.00     0.159 HD
ATOM     40  H   UNL     1      -7.092   8.914  -2.452  1.00  0.00     0.159 HD
ATOM     41  H   UNL     1      -5.761  10.330  -1.406  1.00  0.00     0.159 HD
ATOM     42  H   UNL     1      -4.074  10.428  -1.740  1.00  0.00     0.159 HD
ENDBRANCH  34  35
ENDBRANCH  33  34
ENDBRANCH  32  33
ENDBRANCH   6  32
ENDBRANCH   4   6
ENDBRANCH   1   2
BRANCH   1  43
ATOM     43  C   UNL     1       0.197   6.360   3.535  1.00  0.00     0.102 C 
ATOM     44  C   UNL     1      -0.835   6.152   4.657  1.00  0.00     0.020 C 
BRANCH  43  45
ATOM     45  C   UNL     1       1.649   6.176   3.986  1.00  0.00     0.225 C 
ATOM     46  O   UNL     1       1.982   5.398   4.875  1.00  0.00    -0.275 OA
ATOM     47  N   UNL     1       2.565   7.013   3.390  1.00  0.00    -0.342 N 
ATOM     48  H   UNL     1       2.304   7.532   2.563  1.00  0.00     0.164 HD
BRANCH  47  49
ATOM     49  C   UNL     1       3.996   6.926   3.697  1.00  0.00     0.192 C 
BRANCH  49  50
ATOM     50  C   UNL     1       4.421   8.145   4.518  1.00  0.00     0.047 C 
BRANCH  50  51
ATOM     51  C   UNL     1       3.378   9.270   4.473  1.00  0.00     0.103 C 
BRANCH  51  52
ATOM     52  C   UNL     1       2.620   9.402   5.793  1.00  0.00     0.226 C 
ATOM     53  O   UNL     1       2.355   8.393   6.449  1.00  0.00    -0.275 OA
BRANCH  52  54
ATOM     54  N   UNL     1       2.331  10.711   6.221  1.00  0.00    -0.311 N 
ATOM     55  C   UNL     1       3.321  11.788   6.082  1.00  0.00     0.153 C 
BRANCH  54  56
ATOM     56  C   UNL     1       1.089  11.039   6.790  1.00  0.00     0.102 C 
ATOM     57  C   UNL     1       0.051  11.564   6.120  1.00  0.00     0.043 C 
BRANCH  56  58
ATOM     58  C   UNL     1       0.810  10.768   8.250  1.00  0.00     0.268 C 
ATOM     59  O   UNL     1       1.610  11.018   9.142  1.00  0.00    -0.268 OA
ATOM     60  N   UNL     1      -0.453  10.277   8.477  1.00  0.00    -0.339 N 
ATOM     61  H   UNL     1      -1.052  10.087   7.682  1.00  0.00     0.164 HD
BRANCH  60  62
ATOM     62  C   UNL     1      -0.953  10.004   9.823  1.00  0.00     0.168 CG0
ATOM     63  C   UNL     1      -2.450  10.272   9.916  1.00  0.00     0.041 C 
ATOM     64  G   UNL     1      -0.180  10.862  10.846  1.00  0.00     0.000 G0
ENDBRANCH  60  62
ENDBRANCH  56  58
ENDBRANCH  54  56
ENDBRANCH  52  54
ENDBRANCH  51  52
ENDBRANCH  50  51
ENDBRANCH  49  50
BRANCH  49  65
ATOM     65  C   UNL     1       4.846   6.851   2.419  1.00  0.00     0.326 C 
ATOM     66  O   UNL     1       6.067   6.807   2.379  1.00  0.00    -0.250 OA
BRANCH  65  67
ATOM     67  O   UNL     1       4.139   6.898   1.268  1.00  0.00    -0.480 OA
ATOM     68  H   UNL     1       3.371   6.312   1.444  1.00  0.00     0.296 HD
ENDBRANCH  65  67
ENDBRANCH  49  65
ENDBRANCH  47  49
ENDBRANCH  43  45
ENDBRANCH   1  43
BRANCH   1  69
ATOM     69  C   UNL     1      -1.113   8.631   3.173  1.00  0.00    -0.001 C 
ATOM     70  C   UNL     1      -1.193   9.958   2.967  1.00  0.00     0.001 C 
BRANCH  70  71
ATOM     71  C   UNL     1      -2.298  10.842   3.344  1.00  0.00    -0.055 C 
ATOM     72  C   UNL     1      -3.176  10.391   4.265  1.00  0.00    -0.018 C 
ATOM     73  C   UNL     1      -2.372  12.194   2.685  1.00  0.00     0.044 C 
BRANCH  72  74
ATOM     74  C   UNL     1      -4.403  11.081   4.844  1.00  0.00     0.038 C 
ATOM     75  C   UNL     1      -4.097  11.386   6.316  1.00  0.00     0.015 C 
BRANCH  74  76
ATOM     76  C   UNL     1      -5.646  10.173   4.610  1.00  0.00     0.128 C 
BRANCH  76  77
ATOM     77  O   UNL     1      -6.816  10.788   5.174  1.00  0.00    -0.381 OA
ATOM     78  C   UNL     1      -7.454  11.710   4.301  1.00  0.00     0.195 C 
ENDBRANCH  76  77
BRANCH  76  79
ATOM     79  C   UNL     1      -5.845   9.747   3.134  1.00  0.00     0.068 C 
BRANCH  79  80
ATOM     80  C   UNL     1      -5.088   8.538   2.638  1.00  0.00    -0.045 A 
ATOM     81  C   UNL     1      -4.909   7.414   3.454  1.00  0.00     0.004 A 
ATOM     82  C   UNL     1      -4.524   8.535   1.353  1.00  0.00     0.004 A 
ATOM     83  C   UNL     1      -4.195   6.305   2.994  1.00  0.00     0.000 A 
ATOM     84  C   UNL     1      -3.810   7.426   0.893  1.00  0.00     0.000 A 
ATOM     85  C   UNL     1      -3.647   6.311   1.713  1.00  0.00     0.000 A 
ENDBRANCH  79  80
ENDBRANCH  76  79
ENDBRANCH  74  76
ENDBRANCH  72  74
ENDBRANCH  70  71
ENDBRANCH   1  69
TORSDOF 17
ENDMDL
MODEL 35
REMARK VINA RESULT:    -6.007      4.239     10.412
REMARK INTER + INTRA:         -23.952
REMARK INTER:                 -16.363
REMARK INTRA:                  -7.589
REMARK UNBOUND:                -6.005
REMARK SMILES C=C1C(=O)N[C@H](C)C(=O)N[C@@H](CC(C)C)C(=O)N[C@@H](C(=O)O)[C@H](C)C(=O)N[C@@H](CCCN=C(N)N)C(=O)N[C@@H](/C=C/C(C)=C/[C@H](C)[C@H](Cc2ccccc2)OC)[C@H](C)C(=O)N[C@@H](C(=O)O)CCC(=O)N1C
REMARK SMILES IDX 39 1 38 2 37 3 36 4 28 6 27 7 25 8 26 9 23 11 24 12 19 13
REMARK SMILES IDX 18 14 16 15 17 16 11 18 10 19 8 20 9 21 12 24 13 25 14 26
REMARK SMILES IDX 15 27 20 28 21 29 22 30 29 32 30 33 31 34 32 35 33 36 34 37
REMARK SMILES IDX 35 38 57 43 58 44 59 45 60 46 61 47 62 49 66 50 67 51 68 52
REMARK SMILES IDX 69 53 70 54 71 55 2 56 1 57 3 58 4 59 5 60 6 62 7 63 63 65
REMARK SMILES IDX 64 66 65 67 40 69 41 70 42 71 44 72 43 73 45 74 46 75 47 76
REMARK SMILES IDX 55 77 56 78 48 79 49 80 50 81 54 82 51 83 53 84 52 85
REMARK H PARENT 38 5 27 10 18 17 10 22 22 31 34 39 34 40 35 41 35 42 61 48
REMARK H PARENT 5 61 65 68
REMARK Flexibility Score:  369.900
ROOT
ATOM      1  C   UNL     1       1.252   4.808  -1.533  1.00  0.00     0.117 C 
ENDROOT
BRANCH   1   2
ATOM      2  N   UNL     1       1.300   5.785  -0.444  1.00  0.00    -0.347 N 
ATOM      3  O   UNL     1       3.494   6.416  -0.688  1.00  0.00    -0.273 OA
ATOM      4  C   UNL     1       2.396   6.580  -0.167  1.00  0.00     0.243 C 
ATOM      5  H   UNL     1       0.478   5.938   0.119  1.00  0.00     0.164 HD
BRANCH   4   6
ATOM      6  C   UNL     1       2.156   7.592   0.983  1.00  0.00     0.171 C 
BRANCH   6   7
ATOM      7  N   UNL     1       1.299   6.997   2.021  1.00  0.00    -0.344 N 
ATOM      8  C   UNL     1       0.380   7.768   2.700  1.00  0.00     0.226 C 
ATOM      9  O   UNL     1       0.247   8.969   2.496  1.00  0.00    -0.275 OA
ATOM     10  H   UNL     1       1.427   6.023   2.264  1.00  0.00     0.164 HD
BRANCH   8  11
ATOM     11  C   UNL     1      -0.465   6.999   3.699  1.00  0.00     0.109 C 
ATOM     12  C   UNL     1      -0.510   7.743   5.034  1.00  0.00     0.021 C 
BRANCH  11  13
ATOM     13  C   UNL     1      -1.844   6.686   3.085  1.00  0.00     0.204 C 
BRANCH  13  14
ATOM     14  N   UNL     1      -2.308   7.757   2.196  1.00  0.00    -0.340 N 
ATOM     15  C   UNL     1      -3.323   8.624   2.536  1.00  0.00     0.243 C 
ATOM     16  O   UNL     1      -3.873   8.599   3.636  1.00  0.00    -0.273 OA
ATOM     17  H   UNL     1      -2.002   7.736   1.220  1.00  0.00     0.164 HD
BRANCH  15  18
ATOM     18  C   UNL     1      -3.780   9.530   1.366  1.00  0.00     0.171 C 
BRANCH  18  19
ATOM     19  N   UNL     1      -3.469  10.904   1.756  1.00  0.00    -0.343 N 
ATOM     20  C   UNL     1      -4.446  11.775   2.198  1.00  0.00     0.242 CG0
ATOM     21  O   UNL     1      -5.638  11.479   2.158  1.00  0.00    -0.273 OA
ATOM     22  H   UNL     1      -2.512  11.234   1.696  1.00  0.00     0.164 HD
ATOM     23  G   UNL     1      -3.917  13.155   2.639  1.00  0.00     0.000 G0
ENDBRANCH  18  19
BRANCH  18  24
ATOM     24  C   UNL     1      -3.065   9.139   0.067  1.00  0.00     0.038 C 
BRANCH  24  25
ATOM     25  C   UNL     1      -1.872  10.044  -0.310  1.00  0.00    -0.015 C 
ATOM     26  C   UNL     1      -2.219  11.037  -1.419  1.00  0.00     0.007 C 
ATOM     27  C   UNL     1      -0.687   9.178  -0.745  1.00  0.00     0.007 C 
ENDBRANCH  24  25
ENDBRANCH  18  24
ENDBRANCH  15  18
ENDBRANCH  13  14
BRANCH  13  28
ATOM     28  C   UNL     1      -1.864   5.385   2.277  1.00  0.00     0.327 C 
ATOM     29  O   UNL     1      -1.117   5.095   1.355  1.00  0.00    -0.250 OA
BRANCH  28  30
ATOM     30  O   UNL     1      -2.897   4.579   2.598  1.00  0.00    -0.480 OA
ATOM     31  H   UNL     1      -3.692   5.106   2.373  1.00  0.00     0.296 HD
ENDBRANCH  28  30
ENDBRANCH  13  28
ENDBRANCH  11  13
ENDBRANCH   8  11
ENDBRANCH   6   7
BRANCH   6  32
ATOM     32  C   UNL     1       3.507   8.019   1.567  1.00  0.00     0.037 C 
BRANCH  32  33
ATOM     33  C   UNL     1       3.933   7.135   2.748  1.00  0.00     0.026 C 
BRANCH  33  34
ATOM     34  C   UNL     1       5.330   6.542   2.561  1.00  0.00     0.146 C 
BRANCH  34  35
ATOM     35  N   UNL     1       6.070   6.682   3.808  1.00  0.00    -0.254 NA
ATOM     36  C   UNL     1       6.915   5.774   4.126  1.00  0.00     0.185 C 
ATOM     37  N   UNL     1       7.606   5.895   5.270  1.00  0.00    -0.370 N 
ATOM     38  N   UNL     1       7.240   4.652   3.460  1.00  0.00    -0.370 N 
ATOM     39  H   UNL     1       7.424   6.722   5.825  1.00  0.00     0.159 HD
ATOM     40  H   UNL     1       8.401   5.325   5.503  1.00  0.00     0.159 HD
ATOM     41  H   UNL     1       7.819   3.944   3.882  1.00  0.00     0.159 HD
ATOM     42  H   UNL     1       6.786   4.423   2.589  1.00  0.00     0.159 HD
ENDBRANCH  34  35
ENDBRANCH  33  34
ENDBRANCH  32  33
ENDBRANCH   6  32
ENDBRANCH   4   6
ENDBRANCH   1   2
BRANCH   1  43
ATOM     43  C   UNL     1       2.269   5.238  -2.629  1.00  0.00     0.102 C 
ATOM     44  C   UNL     1       1.663   6.164  -3.697  1.00  0.00     0.020 C 
BRANCH  43  45
ATOM     45  C   UNL     1       3.004   4.023  -3.205  1.00  0.00     0.225 C 
ATOM     46  O   UNL     1       4.079   4.105  -3.790  1.00  0.00    -0.275 OA
ATOM     47  N   UNL     1       2.333   2.825  -3.108  1.00  0.00    -0.342 N 
ATOM     48  H   UNL     1       1.532   2.748  -2.498  1.00  0.00     0.164 HD
BRANCH  47  49
ATOM     49  C   UNL     1       2.929   1.573  -3.584  1.00  0.00     0.192 C 
BRANCH  49  50
ATOM     50  C   UNL     1       2.276   1.162  -4.906  1.00  0.00     0.047 C 
BRANCH  50  51
ATOM     51  C   UNL     1       3.106   1.592  -6.123  1.00  0.00     0.103 C 
BRANCH  51  52
ATOM     52  C   UNL     1       2.479   1.128  -7.437  1.00  0.00     0.226 C 
ATOM     53  O   UNL     1       1.945   0.020  -7.500  1.00  0.00    -0.275 OA
BRANCH  52  54
ATOM     54  N   UNL     1       2.489   2.054  -8.497  1.00  0.00    -0.311 N 
ATOM     55  C   UNL     1       1.271   2.783  -8.875  1.00  0.00     0.153 C 
BRANCH  54  56
ATOM     56  C   UNL     1       3.659   2.319  -9.227  1.00  0.00     0.102 C 
ATOM     57  C   UNL     1       4.341   3.476  -9.192  1.00  0.00     0.043 C 
BRANCH  56  58
ATOM     58  C   UNL     1       4.282   1.259 -10.105  1.00  0.00     0.268 C 
ATOM     59  O   UNL     1       3.738   0.815 -11.107  1.00  0.00    -0.268 OA
ATOM     60  N   UNL     1       5.545   0.897  -9.701  1.00  0.00    -0.339 N 
ATOM     61  H   UNL     1       5.921   1.304  -8.853  1.00  0.00     0.164 HD
BRANCH  60  62
ATOM     62  C   UNL     1       6.353  -0.069 -10.444  1.00  0.00     0.168 CG0
ATOM     63  C   UNL     1       7.600   0.591 -11.021  1.00  0.00     0.041 C 
ATOM     64  G   UNL     1       5.503  -0.701 -11.565  1.00  0.00     0.000 G0
ENDBRANCH  60  62
ENDBRANCH  56  58
ENDBRANCH  54  56
ENDBRANCH  52  54
ENDBRANCH  51  52
ENDBRANCH  50  51
ENDBRANCH  49  50
BRANCH  49  65
ATOM     65  C   UNL     1       2.761   0.440  -2.559  1.00  0.00     0.326 C 
ATOM     66  O   UNL     1       3.388  -0.609  -2.551  1.00  0.00    -0.250 OA
BRANCH  65  67
ATOM     67  O   UNL     1       1.789   0.648  -1.644  1.00  0.00    -0.480 OA
ATOM     68  H   UNL     1       1.269  -0.184  -1.667  1.00  0.00     0.296 HD
ENDBRANCH  65  67
ENDBRANCH  49  65
ENDBRANCH  47  49
ENDBRANCH  43  45
ENDBRANCH   1  43
BRANCH   1  69
ATOM     69  C   UNL     1      -0.212   4.662  -1.907  1.00  0.00    -0.001 C 
ATOM     70  C   UNL     1      -0.976   3.561  -1.800  1.00  0.00     0.001 C 
BRANCH  70  71
ATOM     71  C   UNL     1      -2.394   3.438  -2.145  1.00  0.00    -0.055 C 
ATOM     72  C   UNL     1      -2.882   4.260  -3.098  1.00  0.00    -0.018 C 
ATOM     73  C   UNL     1      -3.206   2.399  -1.417  1.00  0.00     0.044 C 
BRANCH  72  74
ATOM     74  C   UNL     1      -4.295   4.355  -3.656  1.00  0.00     0.038 C 
ATOM     75  C   UNL     1      -4.227   3.941  -5.131  1.00  0.00     0.015 C 
BRANCH  74  76
ATOM     76  C   UNL     1      -4.836   5.794  -3.406  1.00  0.00     0.128 C 
BRANCH  76  77
ATOM     77  O   UNL     1      -6.120   5.730  -2.762  1.00  0.00    -0.381 OA
ATOM     78  C   UNL     1      -6.333   4.529  -2.032  1.00  0.00     0.195 C 
ENDBRANCH  76  77
BRANCH  76  79
ATOM     79  C   UNL     1      -3.839   6.721  -2.666  1.00  0.00     0.068 C 
BRANCH  79  80
ATOM     80  C   UNL     1      -3.169   7.816  -3.460  1.00  0.00    -0.045 A 
ATOM     81  C   UNL     1      -1.801   7.758  -3.757  1.00  0.00     0.004 A 
ATOM     82  C   UNL     1      -3.906   8.929  -3.892  1.00  0.00     0.004 A 
ATOM     83  C   UNL     1      -1.185   8.782  -4.480  1.00  0.00     0.000 A 
ATOM     84  C   UNL     1      -3.289   9.952  -4.615  1.00  0.00     0.000 A 
ATOM     85  C   UNL     1      -1.930   9.878  -4.910  1.00  0.00     0.000 A 
ENDBRANCH  79  80
ENDBRANCH  76  79
ENDBRANCH  74  76
ENDBRANCH  72  74
ENDBRANCH  70  71
ENDBRANCH   1  69
TORSDOF 17
ENDMDL
MODEL 36
REMARK VINA RESULT:    -5.997      3.977     10.091
REMARK INTER + INTRA:         -23.923
REMARK INTER:                 -15.792
REMARK INTRA:                  -8.131
REMARK UNBOUND:                -6.005
REMARK SMILES C=C1C(=O)N[C@H](C)C(=O)N[C@@H](CC(C)C)C(=O)N[C@@H](C(=O)O)[C@H](C)C(=O)N[C@@H](CCCN=C(N)N)C(=O)N[C@@H](/C=C/C(C)=C/[C@H](C)[C@H](Cc2ccccc2)OC)[C@H](C)C(=O)N[C@@H](C(=O)O)CCC(=O)N1C
REMARK SMILES IDX 39 1 38 2 37 3 36 4 28 6 27 7 25 8 26 9 23 11 24 12 19 13
REMARK SMILES IDX 18 14 16 15 17 16 11 18 10 19 8 20 9 21 12 24 13 25 14 26
REMARK SMILES IDX 15 27 20 28 21 29 22 30 29 32 30 33 31 34 32 35 33 36 34 37
REMARK SMILES IDX 35 38 57 43 58 44 59 45 60 46 61 47 62 49 66 50 67 51 68 52
REMARK SMILES IDX 69 53 70 54 71 55 2 56 1 57 3 58 4 59 5 60 6 62 7 63 63 65
REMARK SMILES IDX 64 66 65 67 40 69 41 70 42 71 44 72 43 73 45 74 46 75 47 76
REMARK SMILES IDX 55 77 56 78 48 79 49 80 50 81 54 82 51 83 53 84 52 85
REMARK H PARENT 38 5 27 10 18 17 10 22 22 31 34 39 34 40 35 41 35 42 61 48
REMARK H PARENT 5 61 65 68
REMARK Flexibility Score:  369.900
ROOT
ATOM      1  C   UNL     1       5.059   4.221  -4.078  1.00  0.00     0.117 C 
ENDROOT
BRANCH   1   2
ATOM      2  N   UNL     1       4.173   4.977  -3.193  1.00  0.00    -0.347 N 
ATOM      3  O   UNL     1       5.693   5.419  -1.531  1.00  0.00    -0.273 OA
ATOM      4  C   UNL     1       4.586   5.596  -2.029  1.00  0.00     0.243 C 
ATOM      5  H   UNL     1       3.208   5.108  -3.455  1.00  0.00     0.164 HD
BRANCH   4   6
ATOM      6  C   UNL     1       3.469   6.404  -1.322  1.00  0.00     0.171 C 
BRANCH   6   7
ATOM      7  N   UNL     1       2.263   5.578  -1.157  1.00  0.00    -0.344 N 
ATOM      8  C   UNL     1       1.077   5.937  -1.761  1.00  0.00     0.226 C 
ATOM      9  O   UNL     1       0.960   6.954  -2.434  1.00  0.00    -0.275 OA
ATOM     10  H   UNL     1       2.302   4.766  -0.553  1.00  0.00     0.164 HD
BRANCH   8  11
ATOM     11  C   UNL     1      -0.060   4.954  -1.540  1.00  0.00     0.109 C 
ATOM     12  C   UNL     1       0.421   3.526  -1.799  1.00  0.00     0.021 C 
BRANCH  11  13
ATOM     13  C   UNL     1      -0.686   5.185  -0.150  1.00  0.00     0.204 C 
BRANCH  13  14
ATOM     14  N   UNL     1      -0.869   6.610   0.143  1.00  0.00    -0.340 N 
ATOM     15  C   UNL     1      -0.690   7.144   1.400  1.00  0.00     0.243 C 
ATOM     16  O   UNL     1      -0.304   6.472   2.355  1.00  0.00    -0.273 OA
ATOM     17  H   UNL     1      -1.332   7.189  -0.562  1.00  0.00     0.164 HD
BRANCH  15  18
ATOM     18  C   UNL     1      -1.140   8.621   1.514  1.00  0.00     0.171 C 
BRANCH  18  19
ATOM     19  N   UNL     1       0.007   9.370   2.024  1.00  0.00    -0.343 N 
ATOM     20  C   UNL     1      -0.138  10.383   2.952  1.00  0.00     0.242 CG0
ATOM     21  O   UNL     1      -1.246  10.791   3.292  1.00  0.00    -0.273 OA
ATOM     22  H   UNL     1       0.937   9.147   1.686  1.00  0.00     0.164 HD
ATOM     23  G   UNL     1       1.191  11.004   3.431  1.00  0.00     0.000 G0
ENDBRANCH  18  19
BRANCH  18  24
ATOM     24  C   UNL     1      -1.598   9.155   0.151  1.00  0.00     0.038 C 
BRANCH  24  25
ATOM     25  C   UNL     1      -3.051   9.675   0.118  1.00  0.00    -0.015 C 
ATOM     26  C   UNL     1      -4.074   8.546  -0.006  1.00  0.00     0.007 C 
ATOM     27  C   UNL     1      -3.220  10.655  -1.046  1.00  0.00     0.007 C 
ENDBRANCH  24  25
ENDBRANCH  18  24
ENDBRANCH  15  18
ENDBRANCH  13  14
BRANCH  13  28
ATOM     28  C   UNL     1      -2.051   4.508   0.017  1.00  0.00     0.327 C 
ATOM     29  O   UNL     1      -3.121   5.072   0.187  1.00  0.00    -0.250 OA
BRANCH  28  30
ATOM     30  O   UNL     1      -1.970   3.164   0.078  1.00  0.00    -0.480 OA
ATOM     31  H   UNL     1      -1.301   2.994   0.773  1.00  0.00     0.296 HD
ENDBRANCH  28  30
ENDBRANCH  13  28
ENDBRANCH  11  13
ENDBRANCH   8  11
ENDBRANCH   6   7
BRANCH   6  32
ATOM     32  C   UNL     1       3.985   6.896   0.034  1.00  0.00     0.037 C 
BRANCH  32  33
ATOM     33  C   UNL     1       2.899   7.625   0.838  1.00  0.00     0.026 C 
BRANCH  33  34
ATOM     34  C   UNL     1       3.204   7.661   2.336  1.00  0.00     0.146 C 
BRANCH  34  35
ATOM     35  N   UNL     1       4.630   7.437   2.530  1.00  0.00    -0.254 NA
ATOM     36  C   UNL     1       5.167   7.816   3.630  1.00  0.00     0.185 C 
ATOM     37  N   UNL     1       6.479   7.610   3.822  1.00  0.00    -0.370 N 
ATOM     38  N   UNL     1       4.594   8.421   4.686  1.00  0.00    -0.370 N 
ATOM     39  H   UNL     1       6.981   7.149   3.074  1.00  0.00     0.159 HD
ATOM     40  H   UNL     1       6.935   7.717   4.712  1.00  0.00     0.159 HD
ATOM     41  H   UNL     1       5.150   8.795   5.436  1.00  0.00     0.159 HD
ATOM     42  H   UNL     1       3.613   8.652   4.674  1.00  0.00     0.159 HD
ENDBRANCH  34  35
ENDBRANCH  33  34
ENDBRANCH  32  33
ENDBRANCH   6  32
ENDBRANCH   4   6
ENDBRANCH   1   2
BRANCH   1  43
ATOM     43  C   UNL     1       5.357   5.085  -5.338  1.00  0.00     0.102 C 
ATOM     44  C   UNL     1       5.906   6.482  -5.005  1.00  0.00     0.020 C 
BRANCH  43  45
ATOM     45  C   UNL     1       4.157   5.099  -6.290  1.00  0.00     0.225 C 
ATOM     46  O   UNL     1       3.125   5.723  -6.060  1.00  0.00    -0.275 OA
ATOM     47  N   UNL     1       4.268   4.284  -7.394  1.00  0.00    -0.342 N 
ATOM     48  H   UNL     1       5.169   3.902  -7.646  1.00  0.00     0.164 HD
BRANCH  47  49
ATOM     49  C   UNL     1       3.213   4.224  -8.410  1.00  0.00     0.192 C 
BRANCH  49  50
ATOM     50  C   UNL     1       2.846   2.763  -8.684  1.00  0.00     0.047 C 
BRANCH  50  51
ATOM     51  C   UNL     1       4.022   1.810  -8.431  1.00  0.00     0.103 C 
BRANCH  51  52
ATOM     52  C   UNL     1       4.679   1.352  -9.731  1.00  0.00     0.226 C 
ATOM     53  O   UNL     1       3.998   1.241 -10.753  1.00  0.00    -0.275 OA
BRANCH  52  54
ATOM     54  N   UNL     1       6.072   1.154  -9.694  1.00  0.00    -0.311 N 
ATOM     55  C   UNL     1       6.877   1.657  -8.573  1.00  0.00     0.153 C 
BRANCH  54  56
ATOM     56  C   UNL     1       6.741   0.465 -10.719  1.00  0.00     0.102 C 
ATOM     57  C   UNL     1       6.855  -0.871 -10.800  1.00  0.00     0.043 C 
BRANCH  56  58
ATOM     58  C   UNL     1       7.368   1.211 -11.873  1.00  0.00     0.268 C 
ATOM     59  O   UNL     1       7.376   2.432 -11.956  1.00  0.00    -0.268 OA
ATOM     60  N   UNL     1       7.982   0.383 -12.782  1.00  0.00    -0.339 N 
ATOM     61  H   UNL     1       7.921  -0.619 -12.647  1.00  0.00     0.164 HD
BRANCH  60  62
ATOM     62  C   UNL     1       8.704   0.900 -13.943  1.00  0.00     0.168 CG0
ATOM     63  C   UNL     1      10.202   0.962 -13.673  1.00  0.00     0.041 C 
ATOM     64  G   UNL     1       8.158   2.295 -14.312  1.00  0.00     0.000 G0
ENDBRANCH  60  62
ENDBRANCH  56  58
ENDBRANCH  54  56
ENDBRANCH  52  54
ENDBRANCH  51  52
ENDBRANCH  50  51
ENDBRANCH  49  50
BRANCH  49  65
ATOM     65  C   UNL     1       3.651   4.893  -9.723  1.00  0.00     0.326 C 
ATOM     66  O   UNL     1       4.301   5.924  -9.812  1.00  0.00    -0.250 OA
BRANCH  65  67
ATOM     67  O   UNL     1       3.209   4.280 -10.843  1.00  0.00    -0.480 OA
ATOM     68  H   UNL     1       2.446   3.749 -10.530  1.00  0.00     0.296 HD
ENDBRANCH  65  67
ENDBRANCH  49  65
ENDBRANCH  47  49
ENDBRANCH  43  45
ENDBRANCH   1  43
BRANCH   1  69
ATOM     69  C   UNL     1       4.416   2.858  -4.259  1.00  0.00    -0.001 C 
ATOM     70  C   UNL     1       3.151   2.507  -3.970  1.00  0.00     0.001 C 
BRANCH  70  71
ATOM     71  C   UNL     1       2.535   1.193  -4.169  1.00  0.00    -0.055 C 
ATOM     72  C   UNL     1       1.837   0.993  -5.307  1.00  0.00    -0.018 C 
ATOM     73  C   UNL     1       2.731   0.156  -3.094  1.00  0.00     0.044 C 
BRANCH  72  74
ATOM     74  C   UNL     1       1.102  -0.253  -5.779  1.00  0.00     0.038 C 
ATOM     75  C   UNL     1       1.803  -0.737  -7.054  1.00  0.00     0.015 C 
BRANCH  74  76
ATOM     76  C   UNL     1      -0.407   0.092  -5.955  1.00  0.00     0.128 C 
BRANCH  76  77
ATOM     77  O   UNL     1      -1.082  -0.986  -6.625  1.00  0.00    -0.381 OA
ATOM     78  C   UNL     1      -2.015  -0.554  -7.606  1.00  0.00     0.195 C 
ENDBRANCH  76  77
BRANCH  76  79
ATOM     79  C   UNL     1      -1.112   0.517  -4.643  1.00  0.00     0.068 C 
BRANCH  79  80
ATOM     80  C   UNL     1      -1.595   1.943  -4.530  1.00  0.00    -0.045 A 
ATOM     81  C   UNL     1      -1.028   2.961  -5.308  1.00  0.00     0.004 A 
ATOM     82  C   UNL     1      -2.608   2.277  -3.617  1.00  0.00     0.004 A 
ATOM     83  C   UNL     1      -1.471   4.280  -5.187  1.00  0.00     0.000 A 
ATOM     84  C   UNL     1      -3.049   3.596  -3.497  1.00  0.00     0.000 A 
ATOM     85  C   UNL     1      -2.482   4.597  -4.283  1.00  0.00     0.000 A 
ENDBRANCH  79  80
ENDBRANCH  76  79
ENDBRANCH  74  76
ENDBRANCH  72  74
ENDBRANCH  70  71
ENDBRANCH   1  69
TORSDOF 17
ENDMDL
MODEL 37
REMARK VINA RESULT:    -5.995      5.169     11.868
REMARK INTER + INTRA:         -23.916
REMARK INTER:                 -16.806
REMARK INTRA:                  -7.110
REMARK UNBOUND:                -6.005
REMARK SMILES C=C1C(=O)N[C@H](C)C(=O)N[C@@H](CC(C)C)C(=O)N[C@@H](C(=O)O)[C@H](C)C(=O)N[C@@H](CCCN=C(N)N)C(=O)N[C@@H](/C=C/C(C)=C/[C@H](C)[C@H](Cc2ccccc2)OC)[C@H](C)C(=O)N[C@@H](C(=O)O)CCC(=O)N1C
REMARK SMILES IDX 39 1 38 2 37 3 36 4 28 6 27 7 25 8 26 9 23 11 24 12 19 13
REMARK SMILES IDX 18 14 16 15 17 16 11 18 10 19 8 20 9 21 12 24 13 25 14 26
REMARK SMILES IDX 15 27 20 28 21 29 22 30 29 32 30 33 31 34 32 35 33 36 34 37
REMARK SMILES IDX 35 38 57 43 58 44 59 45 60 46 61 47 62 49 66 50 67 51 68 52
REMARK SMILES IDX 69 53 70 54 71 55 2 56 1 57 3 58 4 59 5 60 6 62 7 63 63 65
REMARK SMILES IDX 64 66 65 67 40 69 41 70 42 71 44 72 43 73 45 74 46 75 47 76
REMARK SMILES IDX 55 77 56 78 48 79 49 80 50 81 54 82 51 83 53 84 52 85
REMARK H PARENT 38 5 27 10 18 17 10 22 22 31 34 39 34 40 35 41 35 42 61 48
REMARK H PARENT 5 61 65 68
REMARK Flexibility Score:  369.900
ROOT
ATOM      1  C   UNL     1      -5.394   4.622  -3.934  1.00  0.00     0.117 C 
ENDROOT
BRANCH   1   2
ATOM      2  N   UNL     1      -4.916   5.631  -2.988  1.00  0.00    -0.347 N 
ATOM      3  O   UNL     1      -5.436   4.514  -1.051  1.00  0.00    -0.273 OA
ATOM      4  C   UNL     1      -4.892   5.456  -1.618  1.00  0.00     0.243 C 
ATOM      5  H   UNL     1      -4.532   6.495  -3.339  1.00  0.00     0.164 HD
BRANCH   4   6
ATOM      6  C   UNL     1      -4.258   6.643  -0.849  1.00  0.00     0.171 C 
BRANCH   6   7
ATOM      7  N   UNL     1      -3.433   6.152   0.265  1.00  0.00    -0.344 N 
ATOM      8  C   UNL     1      -3.866   6.274   1.568  1.00  0.00     0.226 C 
ATOM      9  O   UNL     1      -4.929   6.808   1.863  1.00  0.00    -0.275 OA
ATOM     10  H   UNL     1      -2.518   5.767   0.066  1.00  0.00     0.164 HD
BRANCH   8  11
ATOM     11  C   UNL     1      -2.927   5.671   2.598  1.00  0.00     0.109 C 
ATOM     12  C   UNL     1      -1.575   5.357   1.958  1.00  0.00     0.021 C 
BRANCH  11  13
ATOM     13  C   UNL     1      -2.861   6.583   3.840  1.00  0.00     0.204 C 
BRANCH  13  14
ATOM     14  N   UNL     1      -3.816   6.176   4.875  1.00  0.00    -0.340 N 
ATOM     15  C   UNL     1      -4.462   7.077   5.693  1.00  0.00     0.243 C 
ATOM     16  O   UNL     1      -4.328   8.294   5.571  1.00  0.00    -0.273 OA
ATOM     17  H   UNL     1      -3.857   5.185   5.128  1.00  0.00     0.164 HD
BRANCH  15  18
ATOM     18  C   UNL     1      -5.259   6.410   6.841  1.00  0.00     0.171 C 
BRANCH  18  19
ATOM     19  N   UNL     1      -5.968   7.482   7.537  1.00  0.00    -0.343 N 
ATOM     20  C   UNL     1      -5.827   7.687   8.896  1.00  0.00     0.242 CG0
ATOM     21  O   UNL     1      -5.206   6.899   9.604  1.00  0.00    -0.273 OA
ATOM     22  H   UNL     1      -6.586   8.091   7.013  1.00  0.00     0.164 HD
ATOM     23  G   UNL     1      -6.591   8.913   9.437  1.00  0.00     0.000 G0
ENDBRANCH  18  19
BRANCH  18  24
ATOM     24  C   UNL     1      -6.230   5.360   6.288  1.00  0.00     0.038 C 
BRANCH  24  25
ATOM     25  C   UNL     1      -7.722   5.665   6.541  1.00  0.00    -0.015 C 
ATOM     26  C   UNL     1      -8.240   5.022   7.828  1.00  0.00     0.007 C 
ATOM     27  C   UNL     1      -8.555   5.183   5.351  1.00  0.00     0.007 C 
ENDBRANCH  24  25
ENDBRANCH  18  24
ENDBRANCH  15  18
ENDBRANCH  13  14
BRANCH  13  28
ATOM     28  C   UNL     1      -1.474   6.616   4.490  1.00  0.00     0.327 C 
ATOM     29  O   UNL     1      -1.003   5.768   5.232  1.00  0.00    -0.250 OA
BRANCH  28  30
ATOM     30  O   UNL     1      -0.813   7.770   4.265  1.00  0.00    -0.480 OA
ATOM     31  H   UNL     1      -1.388   8.459   4.658  1.00  0.00     0.296 HD
ENDBRANCH  28  30
ENDBRANCH  13  28
ENDBRANCH  11  13
ENDBRANCH   8  11
ENDBRANCH   6   7
BRANCH   6  32
ATOM     32  C   UNL     1      -3.422   7.483  -1.821  1.00  0.00     0.037 C 
BRANCH  32  33
ATOM     33  C   UNL     1      -2.173   8.072  -1.151  1.00  0.00     0.026 C 
BRANCH  33  34
ATOM     34  C   UNL     1      -0.876   7.551  -1.771  1.00  0.00     0.146 C 
BRANCH  34  35
ATOM     35  N   UNL     1      -0.336   6.501  -0.919  1.00  0.00    -0.254 NA
ATOM     36  C   UNL     1       0.348   5.562  -1.458  1.00  0.00     0.185 C 
ATOM     37  N   UNL     1       0.855   4.592  -0.681  1.00  0.00    -0.370 N 
ATOM     38  N   UNL     1       0.660   5.382  -2.754  1.00  0.00    -0.370 N 
ATOM     39  H   UNL     1       0.672   4.664   0.312  1.00  0.00     0.159 HD
ATOM     40  H   UNL     1       1.539   3.927  -0.997  1.00  0.00     0.159 HD
ATOM     41  H   UNL     1       1.088   4.527  -3.073  1.00  0.00     0.159 HD
ATOM     42  H   UNL     1       0.332   6.027  -3.455  1.00  0.00     0.159 HD
ENDBRANCH  34  35
ENDBRANCH  33  34
ENDBRANCH  32  33
ENDBRANCH   6  32
ENDBRANCH   4   6
ENDBRANCH   1   2
BRANCH   1  43
ATOM     43  C   UNL     1      -4.166   4.020  -4.677  1.00  0.00     0.102 C 
ATOM     44  C   UNL     1      -4.508   2.777  -5.516  1.00  0.00     0.020 C 
BRANCH  43  45
ATOM     45  C   UNL     1      -2.988   3.818  -3.719  1.00  0.00     0.225 C 
ATOM     46  O   UNL     1      -2.065   4.620  -3.613  1.00  0.00    -0.275 OA
ATOM     47  N   UNL     1      -2.976   2.622  -3.039  1.00  0.00    -0.342 N 
ATOM     48  H   UNL     1      -3.807   2.048  -3.021  1.00  0.00     0.164 HD
BRANCH  47  49
ATOM     49  C   UNL     1      -1.929   2.306  -2.062  1.00  0.00     0.192 C 
BRANCH  49  50
ATOM     50  C   UNL     1      -1.123   1.097  -2.544  1.00  0.00     0.047 C 
BRANCH  50  51
ATOM     51  C   UNL     1      -0.749   1.201  -4.029  1.00  0.00     0.103 C 
BRANCH  51  52
ATOM     52  C   UNL     1       0.474   2.088  -4.252  1.00  0.00     0.226 C 
ATOM     53  O   UNL     1       1.134   2.472  -3.284  1.00  0.00    -0.275 OA
BRANCH  52  54
ATOM     54  N   UNL     1       0.820   2.354  -5.589  1.00  0.00    -0.311 N 
ATOM     55  C   UNL     1       1.139   3.718  -6.031  1.00  0.00     0.153 C 
BRANCH  54  56
ATOM     56  C   UNL     1       0.878   1.329  -6.549  1.00  0.00     0.102 C 
ATOM     57  C   UNL     1       1.929   0.517  -6.742  1.00  0.00     0.043 C 
BRANCH  56  58
ATOM     58  C   UNL     1      -0.307   1.030  -7.436  1.00  0.00     0.268 C 
ATOM     59  O   UNL     1      -0.585   1.691  -8.428  1.00  0.00    -0.268 OA
ATOM     60  N   UNL     1      -0.998  -0.095  -7.054  1.00  0.00    -0.339 N 
ATOM     61  H   UNL     1      -0.710  -0.581  -6.213  1.00  0.00     0.164 HD
BRANCH  60  62
ATOM     62  C   UNL     1      -2.143  -0.601  -7.810  1.00  0.00     0.168 CG0
ATOM     63  C   UNL     1      -2.990  -1.538  -6.959  1.00  0.00     0.041 C 
ATOM     64  G   UNL     1      -1.646  -1.318  -9.082  1.00  0.00     0.000 G0
ENDBRANCH  60  62
ENDBRANCH  56  58
ENDBRANCH  54  56
ENDBRANCH  52  54
ENDBRANCH  51  52
ENDBRANCH  50  51
ENDBRANCH  49  50
BRANCH  49  65
ATOM     65  C   UNL     1      -2.520   2.005  -0.676  1.00  0.00     0.326 C 
ATOM     66  O   UNL     1      -2.710   0.890  -0.212  1.00  0.00    -0.250 OA
BRANCH  65  67
ATOM     67  O   UNL     1      -2.895   3.097   0.026  1.00  0.00    -0.480 OA
ATOM     68  H   UNL     1      -3.774   3.322  -0.348  1.00  0.00     0.296 HD
ENDBRANCH  65  67
ENDBRANCH  49  65
ENDBRANCH  47  49
ENDBRANCH  43  45
ENDBRANCH   1  43
BRANCH   1  69
ATOM     69  C   UNL     1      -6.489   5.288  -4.748  1.00  0.00    -0.001 C 
ATOM     70  C   UNL     1      -7.622   4.727  -5.205  1.00  0.00     0.001 C 
BRANCH  70  71
ATOM     71  C   UNL     1      -8.682   5.386  -5.971  1.00  0.00    -0.055 C 
ATOM     72  C   UNL     1      -9.071   6.617  -5.575  1.00  0.00    -0.018 C 
ATOM     73  C   UNL     1      -9.259   4.647  -7.150  1.00  0.00     0.044 C 
BRANCH  72  74
ATOM     74  C   UNL     1     -10.131   7.530  -6.173  1.00  0.00     0.038 C 
ATOM     75  C   UNL     1      -9.397   8.691  -6.854  1.00  0.00     0.015 C 
BRANCH  74  76
ATOM     76  C   UNL     1     -11.119   7.954  -5.046  1.00  0.00     0.128 C 
BRANCH  76  77
ATOM     77  O   UNL     1     -12.360   8.396  -5.622  1.00  0.00    -0.381 OA
ATOM     78  C   UNL     1     -12.836   9.622  -5.082  1.00  0.00     0.195 C 
ENDBRANCH  76  77
BRANCH  76  79
ATOM     79  C   UNL     1     -11.318   6.881  -3.946  1.00  0.00     0.068 C 
BRANCH  79  80
ATOM     80  C   UNL     1     -12.445   5.893  -4.118  1.00  0.00    -0.045 A 
ATOM     81  C   UNL     1     -13.621   6.000  -3.364  1.00  0.00     0.004 A 
ATOM     82  C   UNL     1     -12.320   4.827  -5.023  1.00  0.00     0.004 A 
ATOM     83  C   UNL     1     -14.654   5.073  -3.519  1.00  0.00     0.000 A 
ATOM     84  C   UNL     1     -13.353   3.900  -5.176  1.00  0.00     0.000 A 
ATOM     85  C   UNL     1     -14.520   4.024  -4.426  1.00  0.00     0.000 A 
ENDBRANCH  79  80
ENDBRANCH  76  79
ENDBRANCH  74  76
ENDBRANCH  72  74
ENDBRANCH  70  71
ENDBRANCH   1  69
TORSDOF 17
ENDMDL
MODEL 38
REMARK VINA RESULT:    -5.987      4.236     10.565
REMARK INTER + INTRA:         -23.891
REMARK INTER:                 -16.562
REMARK INTRA:                  -7.329
REMARK UNBOUND:                -6.005
REMARK SMILES C=C1C(=O)N[C@H](C)C(=O)N[C@@H](CC(C)C)C(=O)N[C@@H](C(=O)O)[C@H](C)C(=O)N[C@@H](CCCN=C(N)N)C(=O)N[C@@H](/C=C/C(C)=C/[C@H](C)[C@H](Cc2ccccc2)OC)[C@H](C)C(=O)N[C@@H](C(=O)O)CCC(=O)N1C
REMARK SMILES IDX 39 1 38 2 37 3 36 4 28 6 27 7 25 8 26 9 23 11 24 12 19 13
REMARK SMILES IDX 18 14 16 15 17 16 11 18 10 19 8 20 9 21 12 24 13 25 14 26
REMARK SMILES IDX 15 27 20 28 21 29 22 30 29 32 30 33 31 34 32 35 33 36 34 37
REMARK SMILES IDX 35 38 57 43 58 44 59 45 60 46 61 47 62 49 66 50 67 51 68 52
REMARK SMILES IDX 69 53 70 54 71 55 2 56 1 57 3 58 4 59 5 60 6 62 7 63 63 65
REMARK SMILES IDX 64 66 65 67 40 69 41 70 42 71 44 72 43 73 45 74 46 75 47 76
REMARK SMILES IDX 55 77 56 78 48 79 49 80 50 81 54 82 51 83 53 84 52 85
REMARK H PARENT 38 5 27 10 18 17 10 22 22 31 34 39 34 40 35 41 35 42 61 48
REMARK H PARENT 5 61 65 68
REMARK Flexibility Score:  369.900
ROOT
ATOM      1  C   UNL     1       1.294   6.034  -3.719  1.00  0.00     0.117 C 
ENDROOT
BRANCH   1   2
ATOM      2  N   UNL     1       1.939   5.170  -4.709  1.00  0.00    -0.347 N 
ATOM      3  O   UNL     1       3.473   6.686  -5.495  1.00  0.00    -0.273 OA
ATOM      4  C   UNL     1       3.041   5.539  -5.456  1.00  0.00     0.243 C 
ATOM      5  H   UNL     1       1.605   4.226  -4.834  1.00  0.00     0.164 HD
BRANCH   4   6
ATOM      6  C   UNL     1       3.582   4.409  -6.368  1.00  0.00     0.171 C 
BRANCH   6   7
ATOM      7  N   UNL     1       3.513   4.812  -7.782  1.00  0.00    -0.344 N 
ATOM      8  C   UNL     1       3.084   3.925  -8.745  1.00  0.00     0.226 C 
ATOM      9  O   UNL     1       2.766   2.770  -8.485  1.00  0.00    -0.275 OA
ATOM     10  H   UNL     1       3.832   5.736  -8.045  1.00  0.00     0.164 HD
BRANCH   8  11
ATOM     11  C   UNL     1       3.017   4.507 -10.146  1.00  0.00     0.109 C 
ATOM     12  C   UNL     1       3.575   5.930 -10.151  1.00  0.00     0.021 C 
BRANCH  11  13
ATOM     13  C   UNL     1       3.690   3.543 -11.144  1.00  0.00     0.204 C 
BRANCH  13  14
ATOM     14  N   UNL     1       4.847   2.861 -10.557  1.00  0.00    -0.340 N 
ATOM     15  C   UNL     1       6.133   3.035 -11.022  1.00  0.00     0.243 C 
ATOM     16  O   UNL     1       6.408   3.823 -11.926  1.00  0.00    -0.273 OA
ATOM     17  H   UNL     1       4.672   2.086  -9.912  1.00  0.00     0.164 HD
BRANCH  15  18
ATOM     18  C   UNL     1       7.156   2.060 -10.390  1.00  0.00     0.171 C 
BRANCH  18  19
ATOM     19  N   UNL     1       7.754   2.759  -9.254  1.00  0.00    -0.343 N 
ATOM     20  C   UNL     1       9.036   3.271  -9.306  1.00  0.00     0.242 CG0
ATOM     21  O   UNL     1       9.780   3.048 -10.259  1.00  0.00    -0.273 OA
ATOM     22  H   UNL     1       7.219   2.868  -8.400  1.00  0.00     0.164 HD
ATOM     23  G   UNL     1       9.464   4.044  -8.042  1.00  0.00     0.000 G0
ENDBRANCH  18  19
BRANCH  18  24
ATOM     24  C   UNL     1       6.468   0.761  -9.952  1.00  0.00     0.038 C 
BRANCH  24  25
ATOM     25  C   UNL     1       6.828  -0.477 -10.800  1.00  0.00    -0.015 C 
ATOM     26  C   UNL     1       7.605  -0.114 -12.065  1.00  0.00     0.007 C 
ATOM     27  C   UNL     1       5.550  -1.231 -11.179  1.00  0.00     0.007 C 
ENDBRANCH  24  25
ENDBRANCH  18  24
ENDBRANCH  15  18
ENDBRANCH  13  14
BRANCH  13  28
ATOM     28  C   UNL     1       2.743   2.460 -11.669  1.00  0.00     0.327 C 
ATOM     29  O   UNL     1       2.770   1.274 -11.380  1.00  0.00    -0.250 OA
BRANCH  28  30
ATOM     30  O   UNL     1       1.895   2.912 -12.616  1.00  0.00    -0.480 OA
ATOM     31  H   UNL     1       2.425   3.561 -13.124  1.00  0.00     0.296 HD
ENDBRANCH  28  30
ENDBRANCH  13  28
ENDBRANCH  11  13
ENDBRANCH   8  11
ENDBRANCH   6   7
BRANCH   6  32
ATOM     32  C   UNL     1       5.023   4.081  -5.962  1.00  0.00     0.037 C 
BRANCH  32  33
ATOM     33  C   UNL     1       5.112   3.542  -4.528  1.00  0.00     0.026 C 
BRANCH  33  34
ATOM     34  C   UNL     1       5.347   2.031  -4.484  1.00  0.00     0.146 C 
BRANCH  34  35
ATOM     35  N   UNL     1       4.979   1.536  -3.164  1.00  0.00    -0.254 NA
ATOM     36  C   UNL     1       3.832   0.987  -3.012  1.00  0.00     0.185 C 
ATOM     37  N   UNL     1       3.485   0.523  -1.802  1.00  0.00    -0.370 N 
ATOM     38  N   UNL     1       2.863   0.788  -3.923  1.00  0.00    -0.370 N 
ATOM     39  H   UNL     1       4.168   0.627  -1.062  1.00  0.00     0.159 HD
ATOM     40  H   UNL     1       2.688  -0.068  -1.641  1.00  0.00     0.159 HD
ATOM     41  H   UNL     1       1.948   0.469  -3.650  1.00  0.00     0.159 HD
ATOM     42  H   UNL     1       2.981   1.101  -4.874  1.00  0.00     0.159 HD
ENDBRANCH  34  35
ENDBRANCH  33  34
ENDBRANCH  32  33
ENDBRANCH   6  32
ENDBRANCH   4   6
ENDBRANCH   1   2
BRANCH   1  43
ATOM     43  C   UNL     1       2.077   5.923  -2.380  1.00  0.00     0.102 C 
ATOM     44  C   UNL     1       2.785   4.570  -2.195  1.00  0.00     0.020 C 
BRANCH  43  45
ATOM     45  C   UNL     1       1.200   6.332  -1.193  1.00  0.00     0.225 C 
ATOM     46  O   UNL     1       0.887   7.496  -0.960  1.00  0.00    -0.275 OA
ATOM     47  N   UNL     1       0.851   5.314  -0.335  1.00  0.00    -0.342 N 
ATOM     48  H   UNL     1       0.985   4.354  -0.618  1.00  0.00     0.164 HD
BRANCH  47  49
ATOM     49  C   UNL     1      -0.015   5.552   0.824  1.00  0.00     0.192 C 
BRANCH  49  50
ATOM     50  C   UNL     1      -1.396   6.010   0.348  1.00  0.00     0.047 C 
BRANCH  50  51
ATOM     51  C   UNL     1      -2.525   5.133   0.907  1.00  0.00     0.103 C 
BRANCH  51  52
ATOM     52  C   UNL     1      -3.605   5.961   1.600  1.00  0.00     0.226 C 
ATOM     53  O   UNL     1      -4.684   6.151   1.035  1.00  0.00    -0.275 OA
BRANCH  52  54
ATOM     54  N   UNL     1      -3.317   6.401   2.905  1.00  0.00    -0.311 N 
ATOM     55  C   UNL     1      -3.275   7.833   3.229  1.00  0.00     0.153 C 
BRANCH  54  56
ATOM     56  C   UNL     1      -3.064   5.491   3.946  1.00  0.00     0.102 C 
ATOM     57  C   UNL     1      -1.925   5.433   4.656  1.00  0.00     0.043 C 
BRANCH  56  58
ATOM     58  C   UNL     1      -4.119   4.504   4.386  1.00  0.00     0.268 C 
ATOM     59  O   UNL     1      -4.014   3.296   4.225  1.00  0.00    -0.268 OA
ATOM     60  N   UNL     1      -5.173   5.096   5.041  1.00  0.00    -0.339 N 
ATOM     61  H   UNL     1      -5.190   6.105   5.123  1.00  0.00     0.164 HD
BRANCH  60  62
ATOM     62  C   UNL     1      -6.275   4.318   5.605  1.00  0.00     0.168 CG0
ATOM     63  C   UNL     1      -7.608   5.024   5.391  1.00  0.00     0.041 C 
ATOM     64  G   UNL     1      -6.020   4.076   7.108  1.00  0.00     0.000 G0
ENDBRANCH  60  62
ENDBRANCH  56  58
ENDBRANCH  54  56
ENDBRANCH  52  54
ENDBRANCH  51  52
ENDBRANCH  50  51
ENDBRANCH  49  50
BRANCH  49  65
ATOM     65  C   UNL     1       0.576   6.612   1.766  1.00  0.00     0.326 C 
ATOM     66  O   UNL     1      -0.049   7.518   2.298  1.00  0.00    -0.250 OA
BRANCH  65  67
ATOM     67  O   UNL     1       1.913   6.526   1.944  1.00  0.00    -0.480 OA
ATOM     68  H   UNL     1       2.106   7.237   2.592  1.00  0.00     0.296 HD
ENDBRANCH  65  67
ENDBRANCH  49  65
ENDBRANCH  47  49
ENDBRANCH  43  45
ENDBRANCH   1  43
BRANCH   1  69
ATOM     69  C   UNL     1      -0.181   5.673  -3.738  1.00  0.00    -0.001 C 
ATOM     70  C   UNL     1      -1.180   6.350  -4.331  1.00  0.00     0.001 C 
BRANCH  70  71
ATOM     71  C   UNL     1      -2.596   5.980  -4.361  1.00  0.00    -0.055 C 
ATOM     72  C   UNL     1      -3.289   6.053  -3.204  1.00  0.00    -0.018 C 
ATOM     73  C   UNL     1      -3.183   5.552  -5.681  1.00  0.00     0.044 C 
BRANCH  72  74
ATOM     74  C   UNL     1      -4.754   5.739  -2.937  1.00  0.00     0.038 C 
ATOM     75  C   UNL     1      -5.358   6.960  -2.233  1.00  0.00     0.015 C 
BRANCH  74  76
ATOM     76  C   UNL     1      -4.841   4.410  -2.130  1.00  0.00     0.128 C 
BRANCH  76  77
ATOM     77  O   UNL     1      -6.106   4.331  -1.450  1.00  0.00    -0.381 OA
ATOM     78  C   UNL     1      -6.872   3.187  -1.801  1.00  0.00     0.195 C 
ENDBRANCH  76  77
BRANCH  76  79
ATOM     79  C   UNL     1      -4.531   3.144  -2.968  1.00  0.00     0.068 C 
BRANCH  79  80
ATOM     80  C   UNL     1      -3.092   2.699  -3.070  1.00  0.00    -0.045 A 
ATOM     81  C   UNL     1      -2.201   2.886  -2.005  1.00  0.00     0.004 A 
ATOM     82  C   UNL     1      -2.615   2.113  -4.252  1.00  0.00     0.004 A 
ATOM     83  C   UNL     1      -0.868   2.484  -2.112  1.00  0.00     0.000 A 
ATOM     84  C   UNL     1      -1.282   1.713  -4.359  1.00  0.00     0.000 A 
ATOM     85  C   UNL     1      -0.409   1.897  -3.289  1.00  0.00     0.000 A 
ENDBRANCH  79  80
ENDBRANCH  76  79
ENDBRANCH  74  76
ENDBRANCH  72  74
ENDBRANCH  70  71
ENDBRANCH   1  69
TORSDOF 17
ENDMDL
MODEL 39
REMARK VINA RESULT:    -5.982      5.186     12.148
REMARK INTER + INTRA:         -23.877
REMARK INTER:                 -17.101
REMARK INTRA:                  -6.777
REMARK UNBOUND:                -6.005
REMARK SMILES C=C1C(=O)N[C@H](C)C(=O)N[C@@H](CC(C)C)C(=O)N[C@@H](C(=O)O)[C@H](C)C(=O)N[C@@H](CCCN=C(N)N)C(=O)N[C@@H](/C=C/C(C)=C/[C@H](C)[C@H](Cc2ccccc2)OC)[C@H](C)C(=O)N[C@@H](C(=O)O)CCC(=O)N1C
REMARK SMILES IDX 39 1 38 2 37 3 36 4 28 6 27 7 25 8 26 9 23 11 24 12 19 13
REMARK SMILES IDX 18 14 16 15 17 16 11 18 10 19 8 20 9 21 12 24 13 25 14 26
REMARK SMILES IDX 15 27 20 28 21 29 22 30 29 32 30 33 31 34 32 35 33 36 34 37
REMARK SMILES IDX 35 38 57 43 58 44 59 45 60 46 61 47 62 49 66 50 67 51 68 52
REMARK SMILES IDX 69 53 70 54 71 55 2 56 1 57 3 58 4 59 5 60 6 62 7 63 63 65
REMARK SMILES IDX 64 66 65 67 40 69 41 70 42 71 44 72 43 73 45 74 46 75 47 76
REMARK SMILES IDX 55 77 56 78 48 79 49 80 50 81 54 82 51 83 53 84 52 85
REMARK H PARENT 38 5 27 10 18 17 10 22 22 31 34 39 34 40 35 41 35 42 61 48
REMARK H PARENT 5 61 65 68
REMARK Flexibility Score:  369.900
ROOT
ATOM      1  C   UNL     1       4.597   2.530  -9.905  1.00  0.00     0.117 C 
ENDROOT
BRANCH   1   2
ATOM      2  N   UNL     1       3.390   2.992  -9.218  1.00  0.00    -0.347 N 
ATOM      3  O   UNL     1       1.846   2.024 -10.614  1.00  0.00    -0.273 OA
ATOM      4  C   UNL     1       2.107   2.624  -9.577  1.00  0.00     0.243 C 
ATOM      5  H   UNL     1       3.479   3.576  -8.400  1.00  0.00     0.164 HD
BRANCH   4   6
ATOM      6  C   UNL     1       1.012   3.183  -8.634  1.00  0.00     0.171 C 
BRANCH   6   7
ATOM      7  N   UNL     1       0.876   2.330  -7.442  1.00  0.00    -0.344 N 
ATOM      8  C   UNL     1      -0.100   1.359  -7.380  1.00  0.00     0.226 C 
ATOM      9  O   UNL     1      -0.904   1.173  -8.285  1.00  0.00    -0.275 OA
ATOM     10  H   UNL     1       1.479   2.499  -6.646  1.00  0.00     0.164 HD
BRANCH   8  11
ATOM     11  C   UNL     1      -0.076   0.528  -6.109  1.00  0.00     0.109 C 
ATOM     12  C   UNL     1       0.885  -0.650  -6.270  1.00  0.00     0.021 C 
BRANCH  11  13
ATOM     13  C   UNL     1       0.210   1.437  -4.897  1.00  0.00     0.204 C 
BRANCH  13  14
ATOM     14  N   UNL     1      -0.994   1.688  -4.100  1.00  0.00    -0.340 N 
ATOM     15  C   UNL     1      -1.616   2.917  -4.050  1.00  0.00     0.243 C 
ATOM     16  O   UNL     1      -1.238   3.876  -4.721  1.00  0.00    -0.273 OA
ATOM     17  H   UNL     1      -1.268   0.984  -3.408  1.00  0.00     0.164 HD
BRANCH  15  18
ATOM     18  C   UNL     1      -2.739   2.999  -2.987  1.00  0.00     0.171 C 
BRANCH  18  19
ATOM     19  N   UNL     1      -2.181   3.720  -1.844  1.00  0.00    -0.343 N 
ATOM     20  C   UNL     1      -2.156   3.171  -0.577  1.00  0.00     0.242 CG0
ATOM     21  O   UNL     1      -2.720   2.109  -0.325  1.00  0.00    -0.273 OA
ATOM     22  H   UNL     1      -1.805   4.652  -1.979  1.00  0.00     0.164 HD
ATOM     23  G   UNL     1      -1.458   4.047   0.484  1.00  0.00     0.000 G0
ENDBRANCH  18  19
BRANCH  18  24
ATOM     24  C   UNL     1      -3.971   3.714  -3.555  1.00  0.00     0.038 C 
BRANCH  24  25
ATOM     25  C   UNL     1      -5.064   2.773  -4.105  1.00  0.00    -0.015 C 
ATOM     26  C   UNL     1      -5.515   3.161  -5.513  1.00  0.00     0.007 C 
ATOM     27  C   UNL     1      -6.268   2.775  -3.159  1.00  0.00     0.007 C 
ENDBRANCH  24  25
ENDBRANCH  18  24
ENDBRANCH  15  18
ENDBRANCH  13  14
BRANCH  13  28
ATOM     28  C   UNL     1       1.270   0.865  -3.951  1.00  0.00     0.327 C 
ATOM     29  O   UNL     1       2.481   0.924  -4.101  1.00  0.00    -0.250 OA
BRANCH  28  30
ATOM     30  O   UNL     1       0.742   0.151  -2.936  1.00  0.00    -0.480 OA
ATOM     31  H   UNL     1       1.397   0.240  -2.212  1.00  0.00     0.296 HD
ENDBRANCH  28  30
ENDBRANCH  13  28
ENDBRANCH  11  13
ENDBRANCH   8  11
ENDBRANCH   6   7
BRANCH   6  32
ATOM     32  C   UNL     1       1.371   4.620  -8.240  1.00  0.00     0.037 C 
BRANCH  32  33
ATOM     33  C   UNL     1       1.301   4.840  -6.723  1.00  0.00     0.026 C 
BRANCH  33  34
ATOM     34  C   UNL     1       2.686   4.924  -6.079  1.00  0.00     0.146 C 
BRANCH  34  35
ATOM     35  N   UNL     1       2.619   4.346  -4.744  1.00  0.00    -0.254 NA
ATOM     36  C   UNL     1       3.714   4.061  -4.142  1.00  0.00     0.185 C 
ATOM     37  N   UNL     1       3.664   3.533  -2.910  1.00  0.00    -0.370 N 
ATOM     38  N   UNL     1       4.979   4.215  -4.572  1.00  0.00    -0.370 N 
ATOM     39  H   UNL     1       2.744   3.395  -2.511  1.00  0.00     0.159 HD
ATOM     40  H   UNL     1       4.466   3.445  -2.310  1.00  0.00     0.159 HD
ATOM     41  H   UNL     1       5.753   3.823  -4.062  1.00  0.00     0.159 HD
ATOM     42  H   UNL     1       5.167   4.587  -5.490  1.00  0.00     0.159 HD
ENDBRANCH  34  35
ENDBRANCH  33  34
ENDBRANCH  32  33
ENDBRANCH   6  32
ENDBRANCH   4   6
ENDBRANCH   1   2
BRANCH   1  43
ATOM     43  C   UNL     1       5.533   1.856  -8.861  1.00  0.00     0.102 C 
ATOM     44  C   UNL     1       6.186   2.854  -7.890  1.00  0.00     0.020 C 
BRANCH  43  45
ATOM     45  C   UNL     1       6.527   0.911  -9.543  1.00  0.00     0.225 C 
ATOM     46  O   UNL     1       7.721   0.873  -9.257  1.00  0.00    -0.275 OA
ATOM     47  N   UNL     1       6.016   0.159 -10.576  1.00  0.00    -0.342 N 
ATOM     48  H   UNL     1       5.015   0.088 -10.696  1.00  0.00     0.164 HD
BRANCH  47  49
ATOM     49  C   UNL     1       6.842  -0.815 -11.296  1.00  0.00     0.192 C 
BRANCH  49  50
ATOM     50  C   UNL     1       7.296  -0.217 -12.630  1.00  0.00     0.047 C 
BRANCH  50  51
ATOM     51  C   UNL     1       8.326   0.906 -12.445  1.00  0.00     0.103 C 
BRANCH  51  52
ATOM     52  C   UNL     1       9.482   0.794 -13.436  1.00  0.00     0.226 C 
ATOM     53  O   UNL     1      10.093  -0.270 -13.543  1.00  0.00    -0.275 OA
BRANCH  52  54
ATOM     54  N   UNL     1       9.731   1.923 -14.239  1.00  0.00    -0.311 N 
ATOM     55  C   UNL     1       8.817   3.073 -14.231  1.00  0.00     0.153 C 
BRANCH  54  56
ATOM     56  C   UNL     1      10.861   1.996 -15.070  1.00  0.00     0.102 C 
ATOM     57  C   UNL     1      10.965   1.417 -16.278  1.00  0.00     0.043 C 
BRANCH  56  58
ATOM     58  C   UNL     1      12.071   2.803 -14.664  1.00  0.00     0.268 C 
ATOM     59  O   UNL     1      12.899   2.407 -13.854  1.00  0.00    -0.268 OA
ATOM     60  N   UNL     1      12.181   3.992 -15.345  1.00  0.00    -0.339 N 
ATOM     61  H   UNL     1      11.447   4.252 -15.992  1.00  0.00     0.164 HD
BRANCH  60  62
ATOM     62  C   UNL     1      13.311   4.899 -15.151  1.00  0.00     0.168 CG0
ATOM     63  C   UNL     1      12.986   5.964 -14.111  1.00  0.00     0.041 C 
ATOM     64  G   UNL     1      13.689   5.549 -16.498  1.00  0.00     0.000 G0
ENDBRANCH  60  62
ENDBRANCH  56  58
ENDBRANCH  54  56
ENDBRANCH  52  54
ENDBRANCH  51  52
ENDBRANCH  50  51
ENDBRANCH  49  50
BRANCH  49  65
ATOM     65  C   UNL     1       6.079  -2.122 -11.558  1.00  0.00     0.326 C 
ATOM     66  O   UNL     1       4.876  -2.284 -11.411  1.00  0.00    -0.250 OA
BRANCH  65  67
ATOM     67  O   UNL     1       6.856  -3.165 -11.926  1.00  0.00    -0.480 OA
ATOM     68  H   UNL     1       7.495  -2.766 -12.555  1.00  0.00     0.296 HD
ENDBRANCH  65  67
ENDBRANCH  49  65
ENDBRANCH  47  49
ENDBRANCH  43  45
ENDBRANCH   1  43
BRANCH   1  69
ATOM     69  C   UNL     1       5.115   3.717 -10.696  1.00  0.00    -0.001 C 
ATOM     70  C   UNL     1       4.665   4.170 -11.880  1.00  0.00     0.001 C 
BRANCH  70  71
ATOM     71  C   UNL     1       5.159   5.330 -12.624  1.00  0.00    -0.055 C 
ATOM     72  C   UNL     1       6.359   5.837 -12.271  1.00  0.00    -0.018 C 
ATOM     73  C   UNL     1       4.298   5.871 -13.735  1.00  0.00     0.044 C 
BRANCH  72  74
ATOM     74  C   UNL     1       7.116   7.019 -12.859  1.00  0.00     0.038 C 
ATOM     75  C   UNL     1       7.753   6.542 -14.170  1.00  0.00     0.015 C 
BRANCH  74  76
ATOM     76  C   UNL     1       8.125   7.546 -11.797  1.00  0.00     0.128 C 
BRANCH  76  77
ATOM     77  O   UNL     1       7.869   8.934 -11.523  1.00  0.00    -0.381 OA
ATOM     78  C   UNL     1       7.395   9.178 -10.205  1.00  0.00     0.195 C 
ENDBRANCH  76  77
BRANCH  76  79
ATOM     79  C   UNL     1       8.194   6.684 -10.512  1.00  0.00     0.068 C 
BRANCH  79  80
ATOM     80  C   UNL     1       9.143   5.510 -10.498  1.00  0.00    -0.045 A 
ATOM     81  C   UNL     1      10.116   5.357 -11.494  1.00  0.00     0.004 A 
ATOM     82  C   UNL     1       9.045   4.533  -9.496  1.00  0.00     0.004 A 
ATOM     83  C   UNL     1      10.981   4.260 -11.483  1.00  0.00     0.000 A 
ATOM     84  C   UNL     1       9.910   3.436  -9.486  1.00  0.00     0.000 A 
ATOM     85  C   UNL     1      10.878   3.301 -10.478  1.00  0.00     0.000 A 
ENDBRANCH  79  80
ENDBRANCH  76  79
ENDBRANCH  74  76
ENDBRANCH  72  74
ENDBRANCH  70  71
ENDBRANCH   1  69
TORSDOF 17
ENDMDL
MODEL 40
REMARK VINA RESULT:    -5.974      5.515     12.939
REMARK INTER + INTRA:         -23.854
REMARK INTER:                 -16.008
REMARK INTRA:                  -7.847
REMARK UNBOUND:                -6.005
REMARK SMILES C=C1C(=O)N[C@H](C)C(=O)N[C@@H](CC(C)C)C(=O)N[C@@H](C(=O)O)[C@H](C)C(=O)N[C@@H](CCCN=C(N)N)C(=O)N[C@@H](/C=C/C(C)=C/[C@H](C)[C@H](Cc2ccccc2)OC)[C@H](C)C(=O)N[C@@H](C(=O)O)CCC(=O)N1C
REMARK SMILES IDX 39 1 38 2 37 3 36 4 28 6 27 7 25 8 26 9 23 11 24 12 19 13
REMARK SMILES IDX 18 14 16 15 17 16 11 18 10 19 8 20 9 21 12 24 13 25 14 26
REMARK SMILES IDX 15 27 20 28 21 29 22 30 29 32 30 33 31 34 32 35 33 36 34 37
REMARK SMILES IDX 35 38 57 43 58 44 59 45 60 46 61 47 62 49 66 50 67 51 68 52
REMARK SMILES IDX 69 53 70 54 71 55 2 56 1 57 3 58 4 59 5 60 6 62 7 63 63 65
REMARK SMILES IDX 64 66 65 67 40 69 41 70 42 71 44 72 43 73 45 74 46 75 47 76
REMARK SMILES IDX 55 77 56 78 48 79 49 80 50 81 54 82 51 83 53 84 52 85
REMARK H PARENT 38 5 27 10 18 17 10 22 22 31 34 39 34 40 35 41 35 42 61 48
REMARK H PARENT 5 61 65 68
REMARK Flexibility Score:  369.900
ROOT
ATOM      1  C   UNL     1       5.145   3.218 -10.105  1.00  0.00     0.117 C 
ENDROOT
BRANCH   1   2
ATOM      2  N   UNL     1       3.846   3.342  -9.443  1.00  0.00    -0.347 N 
ATOM      3  O   UNL     1       3.099   1.203  -9.817  1.00  0.00    -0.273 OA
ATOM      4  C   UNL     1       2.962   2.294  -9.272  1.00  0.00     0.243 C 
ATOM      5  H   UNL     1       3.580   4.226  -9.036  1.00  0.00     0.164 HD
BRANCH   4   6
ATOM      6  C   UNL     1       1.696   2.672  -8.462  1.00  0.00     0.171 C 
BRANCH   6   7
ATOM      7  N   UNL     1       1.400   1.637  -7.458  1.00  0.00    -0.344 N 
ATOM      8  C   UNL     1       0.101   1.246  -7.214  1.00  0.00     0.226 C 
ATOM      9  O   UNL     1      -0.858   1.744  -7.791  1.00  0.00    -0.275 OA
ATOM     10  H   UNL     1       2.160   1.251  -6.912  1.00  0.00     0.164 HD
BRANCH   8  11
ATOM     11  C   UNL     1      -0.035   0.132  -6.190  1.00  0.00     0.109 C 
ATOM     12  C   UNL     1       0.754   0.479  -4.928  1.00  0.00     0.021 C 
BRANCH  11  13
ATOM     13  C   UNL     1      -1.526  -0.182  -5.957  1.00  0.00     0.204 C 
BRANCH  13  14
ATOM     14  N   UNL     1      -2.301   1.021  -5.640  1.00  0.00    -0.340 N 
ATOM     15  C   UNL     1      -2.515   1.454  -4.349  1.00  0.00     0.243 C 
ATOM     16  O   UNL     1      -2.018   0.894  -3.373  1.00  0.00    -0.273 OA
ATOM     17  H   UNL     1      -2.862   1.442  -6.385  1.00  0.00     0.164 HD
BRANCH  15  18
ATOM     18  C   UNL     1      -3.529   2.620  -4.247  1.00  0.00     0.171 C 
BRANCH  18  19
ATOM     19  N   UNL     1      -2.979   3.571  -3.284  1.00  0.00    -0.343 N 
ATOM     20  C   UNL     1      -3.592   3.816  -2.070  1.00  0.00     0.242 CG0
ATOM     21  O   UNL     1      -4.695   3.347  -1.800  1.00  0.00    -0.273 OA
ATOM     22  H   UNL     1      -2.128   4.072  -3.511  1.00  0.00     0.164 HD
ATOM     23  G   UNL     1      -2.824   4.790  -1.154  1.00  0.00     0.000 G0
ENDBRANCH  18  19
BRANCH  18  24
ATOM     24  C   UNL     1      -3.745   3.270  -5.619  1.00  0.00     0.038 C 
BRANCH  24  25
ATOM     25  C   UNL     1      -5.189   3.745  -5.887  1.00  0.00    -0.015 C 
ATOM     26  C   UNL     1      -5.424   5.187  -5.437  1.00  0.00     0.007 C 
ATOM     27  C   UNL     1      -6.177   2.817  -5.175  1.00  0.00     0.007 C 
ENDBRANCH  24  25
ENDBRANCH  18  24
ENDBRANCH  15  18
ENDBRANCH  13  14
BRANCH  13  28
ATOM     28  C   UNL     1      -2.198  -0.849  -7.162  1.00  0.00     0.327 C 
ATOM     29  O   UNL     1      -3.365  -0.724  -7.500  1.00  0.00    -0.250 OA
BRANCH  28  30
ATOM     30  O   UNL     1      -1.393  -1.726  -7.797  1.00  0.00    -0.480 OA
ATOM     31  H   UNL     1      -0.888  -1.174  -8.430  1.00  0.00     0.296 HD
ENDBRANCH  28  30
ENDBRANCH  13  28
ENDBRANCH  11  13
ENDBRANCH   8  11
ENDBRANCH   6   7
BRANCH   6  32
ATOM     32  C   UNL     1       1.913   4.035  -7.796  1.00  0.00     0.037 C 
BRANCH  32  33
ATOM     33  C   UNL     1       2.354   3.901  -6.332  1.00  0.00     0.026 C 
BRANCH  33  34
ATOM     34  C   UNL     1       3.685   4.600  -6.055  1.00  0.00     0.146 C 
BRANCH  34  35
ATOM     35  N   UNL     1       4.109   5.297  -7.261  1.00  0.00    -0.254 NA
ATOM     36  C   UNL     1       4.843   6.341  -7.142  1.00  0.00     0.185 C 
ATOM     37  N   UNL     1       5.243   6.988  -8.247  1.00  0.00    -0.370 N 
ATOM     38  N   UNL     1       5.304   6.926  -6.023  1.00  0.00    -0.370 N 
ATOM     39  H   UNL     1       4.945   6.601  -9.134  1.00  0.00     0.159 HD
ATOM     40  H   UNL     1       5.953   7.700  -8.248  1.00  0.00     0.159 HD
ATOM     41  H   UNL     1       5.757   7.825  -6.053  1.00  0.00     0.159 HD
ATOM     42  H   UNL     1       5.068   6.555  -5.116  1.00  0.00     0.159 HD
ENDBRANCH  34  35
ENDBRANCH  33  34
ENDBRANCH  32  33
ENDBRANCH   6  32
ENDBRANCH   4   6
ENDBRANCH   1   2
BRANCH   1  43
ATOM     43  C   UNL     1       6.211   2.839  -9.037  1.00  0.00     0.102 C 
ATOM     44  C   UNL     1       7.206   3.973  -8.736  1.00  0.00     0.020 C 
BRANCH  43  45
ATOM     45  C   UNL     1       6.876   1.502  -9.374  1.00  0.00     0.225 C 
ATOM     46  O   UNL     1       7.603   0.898  -8.590  1.00  0.00    -0.275 OA
ATOM     47  N   UNL     1       6.685   1.052 -10.661  1.00  0.00    -0.342 N 
ATOM     48  H   UNL     1       5.970   1.475 -11.237  1.00  0.00     0.164 HD
BRANCH  47  49
ATOM     49  C   UNL     1       7.232  -0.230 -11.114  1.00  0.00     0.192 C 
BRANCH  49  50
ATOM     50  C   UNL     1       7.981  -0.031 -12.434  1.00  0.00     0.047 C 
BRANCH  50  51
ATOM     51  C   UNL     1       7.953   1.429 -12.905  1.00  0.00     0.103 C 
BRANCH  51  52
ATOM     52  C   UNL     1       9.357   2.009 -13.063  1.00  0.00     0.226 C 
ATOM     53  O   UNL     1      10.105   2.070 -12.086  1.00  0.00    -0.275 OA
BRANCH  52  54
ATOM     54  N   UNL     1       9.741   2.376 -14.367  1.00  0.00    -0.311 N 
ATOM     55  C   UNL     1       9.108   3.512 -15.050  1.00  0.00     0.153 C 
BRANCH  54  56
ATOM     56  C   UNL     1      10.744   1.677 -15.059  1.00  0.00     0.102 C 
ATOM     57  C   UNL     1      10.556   0.529 -15.732  1.00  0.00     0.043 C 
BRANCH  56  58
ATOM     58  C   UNL     1      12.153   2.215 -15.135  1.00  0.00     0.268 C 
ATOM     59  O   UNL     1      12.700   2.512 -16.188  1.00  0.00    -0.268 OA
ATOM     60  N   UNL     1      12.728   2.399 -13.900  1.00  0.00    -0.339 N 
ATOM     61  H   UNL     1      12.211   2.117 -13.075  1.00  0.00     0.164 HD
BRANCH  60  62
ATOM     62  C   UNL     1      14.065   2.969 -13.740  1.00  0.00     0.168 CG0
ATOM     63  C   UNL     1      13.990   4.458 -13.426  1.00  0.00     0.041 C 
ATOM     64  G   UNL     1      14.889   2.722 -15.021  1.00  0.00     0.000 G0
ENDBRANCH  60  62
ENDBRANCH  56  58
ENDBRANCH  54  56
ENDBRANCH  52  54
ENDBRANCH  51  52
ENDBRANCH  50  51
ENDBRANCH  49  50
BRANCH  49  65
ATOM     65  C   UNL     1       6.128  -1.281 -11.309  1.00  0.00     0.326 C 
ATOM     66  O   UNL     1       6.295  -2.418 -11.725  1.00  0.00    -0.250 OA
BRANCH  65  67
ATOM     67  O   UNL     1       4.879  -0.843 -11.035  1.00  0.00    -0.480 OA
ATOM     68  H   UNL     1       4.325  -1.647 -11.137  1.00  0.00     0.296 HD
ENDBRANCH  65  67
ENDBRANCH  49  65
ENDBRANCH  47  49
ENDBRANCH  43  45
ENDBRANCH   1  43
BRANCH   1  69
ATOM     69  C   UNL     1       5.333   4.491 -10.910  1.00  0.00    -0.001 C 
ATOM     70  C   UNL     1       5.372   4.613 -12.248  1.00  0.00     0.001 C 
BRANCH  70  71
ATOM     71  C   UNL     1       5.533   5.850 -13.015  1.00  0.00    -0.055 C 
ATOM     72  C   UNL     1       6.249   5.792 -14.157  1.00  0.00    -0.018 C 
ATOM     73  C   UNL     1       4.881   7.098 -12.479  1.00  0.00     0.044 C 
BRANCH  72  74
ATOM     74  C   UNL     1       6.576   6.902 -15.146  1.00  0.00     0.038 C 
ATOM     75  C   UNL     1       6.243   6.372 -16.546  1.00  0.00     0.015 C 
BRANCH  74  76
ATOM     76  C   UNL     1       8.060   7.330 -14.946  1.00  0.00     0.128 C 
BRANCH  76  77
ATOM     77  O   UNL     1       8.527   8.037 -16.107  1.00  0.00    -0.381 OA
ATOM     78  C   UNL     1       8.395   9.449 -16.008  1.00  0.00     0.195 C 
ENDBRANCH  76  77
BRANCH  76  79
ATOM     79  C   UNL     1       8.319   8.103 -13.629  1.00  0.00     0.068 C 
BRANCH  79  80
ATOM     80  C   UNL     1       8.867   7.332 -12.452  1.00  0.00    -0.045 A 
ATOM     81  C   UNL     1       9.743   6.254 -12.641  1.00  0.00     0.004 A 
ATOM     82  C   UNL     1       8.483   7.668 -11.146  1.00  0.00     0.004 A 
ATOM     83  C   UNL     1      10.234   5.537 -11.548  1.00  0.00     0.000 A 
ATOM     84  C   UNL     1       8.974   6.949 -10.054  1.00  0.00     0.000 A 
ATOM     85  C   UNL     1       9.850   5.885 -10.255  1.00  0.00     0.000 A 
ENDBRANCH  79  80
ENDBRANCH  76  79
ENDBRANCH  74  76
ENDBRANCH  72  74
ENDBRANCH  70  71
ENDBRANCH   1  69
TORSDOF 17
ENDMDL
MODEL 41
REMARK VINA RESULT:    -5.972      5.374     12.796
REMARK INTER + INTRA:         -23.847
REMARK INTER:                 -16.787
REMARK INTRA:                  -7.060
REMARK UNBOUND:                -6.005
REMARK SMILES C=C1C(=O)N[C@H](C)C(=O)N[C@@H](CC(C)C)C(=O)N[C@@H](C(=O)O)[C@H](C)C(=O)N[C@@H](CCCN=C(N)N)C(=O)N[C@@H](/C=C/C(C)=C/[C@H](C)[C@H](Cc2ccccc2)OC)[C@H](C)C(=O)N[C@@H](C(=O)O)CCC(=O)N1C
REMARK SMILES IDX 39 1 38 2 37 3 36 4 28 6 27 7 25 8 26 9 23 11 24 12 19 13
REMARK SMILES IDX 18 14 16 15 17 16 11 18 10 19 8 20 9 21 12 24 13 25 14 26
REMARK SMILES IDX 15 27 20 28 21 29 22 30 29 32 30 33 31 34 32 35 33 36 34 37
REMARK SMILES IDX 35 38 57 43 58 44 59 45 60 46 61 47 62 49 66 50 67 51 68 52
REMARK SMILES IDX 69 53 70 54 71 55 2 56 1 57 3 58 4 59 5 60 6 62 7 63 63 65
REMARK SMILES IDX 64 66 65 67 40 69 41 70 42 71 44 72 43 73 45 74 46 75 47 76
REMARK SMILES IDX 55 77 56 78 48 79 49 80 50 81 54 82 51 83 53 84 52 85
REMARK H PARENT 38 5 27 10 18 17 10 22 22 31 34 39 34 40 35 41 35 42 61 48
REMARK H PARENT 5 61 65 68
REMARK Flexibility Score:  369.900
ROOT
ATOM      1  C   UNL     1       4.899   3.189 -10.425  1.00  0.00     0.117 C 
ENDROOT
BRANCH   1   2
ATOM      2  N   UNL     1       3.843   3.388  -9.431  1.00  0.00    -0.347 N 
ATOM      3  O   UNL     1       2.738   1.401  -9.749  1.00  0.00    -0.273 OA
ATOM      4  C   UNL     1       2.897   2.434  -9.108  1.00  0.00     0.243 C 
ATOM      5  H   UNL     1       3.815   4.247  -8.904  1.00  0.00     0.164 HD
BRANCH   4   6
ATOM      6  C   UNL     1       1.945   2.864  -7.962  1.00  0.00     0.171 C 
BRANCH   6   7
ATOM      7  N   UNL     1       1.586   1.705  -7.130  1.00  0.00    -0.344 N 
ATOM      8  C   UNL     1       0.375   1.070  -7.295  1.00  0.00     0.226 C 
ATOM      9  O   UNL     1      -0.460   1.441  -8.111  1.00  0.00    -0.275 OA
ATOM     10  H   UNL     1       2.222   1.410  -6.399  1.00  0.00     0.164 HD
BRANCH   8  11
ATOM     11  C   UNL     1       0.176  -0.141  -6.400  1.00  0.00     0.109 C 
ATOM     12  C   UNL     1       1.134  -0.078  -5.210  1.00  0.00     0.021 C 
BRANCH  11  13
ATOM     13  C   UNL     1      -1.314  -0.275  -6.027  1.00  0.00     0.204 C 
BRANCH  13  14
ATOM     14  N   UNL     1      -1.931   1.025  -5.747  1.00  0.00    -0.340 N 
ATOM     15  C   UNL     1      -2.132   1.499  -4.469  1.00  0.00     0.243 C 
ATOM     16  O   UNL     1      -1.751   0.890  -3.471  1.00  0.00    -0.273 OA
ATOM     17  H   UNL     1      -2.404   1.508  -6.516  1.00  0.00     0.164 HD
BRANCH  15  18
ATOM     18  C   UNL     1      -2.985   2.791  -4.415  1.00  0.00     0.171 C 
BRANCH  18  19
ATOM     19  N   UNL     1      -4.361   2.396  -4.707  1.00  0.00    -0.343 N 
ATOM     20  C   UNL     1      -5.168   3.136  -5.551  1.00  0.00     0.242 CG0
ATOM     21  O   UNL     1      -4.811   4.228  -5.988  1.00  0.00    -0.273 OA
ATOM     22  H   UNL     1      -4.741   1.561  -4.278  1.00  0.00     0.164 HD
ATOM     23  G   UNL     1      -6.560   2.522  -5.801  1.00  0.00     0.000 G0
ENDBRANCH  18  19
BRANCH  18  24
ATOM     24  C   UNL     1      -2.872   3.457  -3.038  1.00  0.00     0.038 C 
BRANCH  24  25
ATOM     25  C   UNL     1      -1.898   4.653  -2.979  1.00  0.00    -0.015 C 
ATOM     26  C   UNL     1      -1.589   5.225  -4.362  1.00  0.00     0.007 C 
ATOM     27  C   UNL     1      -0.597   4.225  -2.295  1.00  0.00     0.007 C 
ENDBRANCH  24  25
ENDBRANCH  18  24
ENDBRANCH  15  18
ENDBRANCH  13  14
BRANCH  13  28
ATOM     28  C   UNL     1      -2.151  -0.950  -7.117  1.00  0.00     0.327 C 
ATOM     29  O   UNL     1      -3.340  -1.220  -7.052  1.00  0.00    -0.250 OA
BRANCH  28  30
ATOM     30  O   UNL     1      -1.417  -1.352  -8.175  1.00  0.00    -0.480 OA
ATOM     31  H   UNL     1      -2.018  -1.244  -8.941  1.00  0.00     0.296 HD
ENDBRANCH  28  30
ENDBRANCH  13  28
ENDBRANCH  11  13
ENDBRANCH   8  11
ENDBRANCH   6   7
BRANCH   6  32
ATOM     32  C   UNL     1       2.627   3.951  -7.123  1.00  0.00     0.037 C 
BRANCH  32  33
ATOM     33  C   UNL     1       1.665   4.589  -6.111  1.00  0.00     0.026 C 
BRANCH  33  34
ATOM     34  C   UNL     1       2.215   4.563  -4.684  1.00  0.00     0.146 C 
BRANCH  34  35
ATOM     35  N   UNL     1       2.420   3.177  -4.286  1.00  0.00    -0.254 NA
ATOM     36  C   UNL     1       3.207   2.930  -3.306  1.00  0.00     0.185 C 
ATOM     37  N   UNL     1       3.398   1.657  -2.926  1.00  0.00    -0.370 N 
ATOM     38  N   UNL     1       3.912   3.790  -2.551  1.00  0.00    -0.370 N 
ATOM     39  H   UNL     1       2.892   0.948  -3.442  1.00  0.00     0.159 HD
ATOM     40  H   UNL     1       3.855   1.394  -2.070  1.00  0.00     0.159 HD
ATOM     41  H   UNL     1       4.605   3.463  -1.898  1.00  0.00     0.159 HD
ATOM     42  H   UNL     1       3.877   4.781  -2.734  1.00  0.00     0.159 HD
ENDBRANCH  34  35
ENDBRANCH  33  34
ENDBRANCH  32  33
ENDBRANCH   6  32
ENDBRANCH   4   6
ENDBRANCH   1   2
BRANCH   1  43
ATOM     43  C   UNL     1       6.262   3.082  -9.683  1.00  0.00     0.102 C 
ATOM     44  C   UNL     1       7.226   4.238 -10.003  1.00  0.00     0.020 C 
BRANCH  43  45
ATOM     45  C   UNL     1       6.879   1.692  -9.863  1.00  0.00     0.225 C 
ATOM     46  O   UNL     1       7.605   1.166  -9.024  1.00  0.00    -0.275 OA
ATOM     47  N   UNL     1       6.644   1.093 -11.080  1.00  0.00    -0.342 N 
ATOM     48  H   UNL     1       5.930   1.464 -11.690  1.00  0.00     0.164 HD
BRANCH  47  49
ATOM     49  C   UNL     1       7.142  -0.253 -11.380  1.00  0.00     0.192 C 
BRANCH  49  50
ATOM     50  C   UNL     1       7.948  -0.225 -12.681  1.00  0.00     0.047 C 
BRANCH  50  51
ATOM     51  C   UNL     1       8.354   1.199 -13.084  1.00  0.00     0.103 C 
BRANCH  51  52
ATOM     52  C   UNL     1       9.830   1.288 -13.468  1.00  0.00     0.226 C 
ATOM     53  O   UNL     1      10.293   0.503 -14.297  1.00  0.00    -0.275 OA
BRANCH  52  54
ATOM     54  N   UNL     1      10.566   2.339 -12.889  1.00  0.00    -0.311 N 
ATOM     55  C   UNL     1      10.250   2.830 -11.541  1.00  0.00     0.153 C 
BRANCH  54  56
ATOM     56  C   UNL     1      11.629   2.952 -13.573  1.00  0.00     0.102 C 
ATOM     57  C   UNL     1      11.520   3.592 -14.748  1.00  0.00     0.043 C 
BRANCH  56  58
ATOM     58  C   UNL     1      13.020   2.972 -12.984  1.00  0.00     0.268 C 
ATOM     59  O   UNL     1      13.762   3.943 -13.051  1.00  0.00    -0.268 OA
ATOM     60  N   UNL     1      13.338   1.816 -12.311  1.00  0.00    -0.339 N 
ATOM     61  H   UNL     1      12.672   1.053 -12.311  1.00  0.00     0.164 HD
BRANCH  60  62
ATOM     62  C   UNL     1      14.612   1.647 -11.612  1.00  0.00     0.168 CG0
ATOM     63  C   UNL     1      14.389   1.273 -10.152  1.00  0.00     0.041 C 
ATOM     64  G   UNL     1      15.438   2.945 -11.723  1.00  0.00     0.000 G0
ENDBRANCH  60  62
ENDBRANCH  56  58
ENDBRANCH  54  56
ENDBRANCH  52  54
ENDBRANCH  51  52
ENDBRANCH  50  51
ENDBRANCH  49  50
BRANCH  49  65
ATOM     65  C   UNL     1       5.994  -1.265 -11.514  1.00  0.00     0.326 C 
ATOM     66  O   UNL     1       4.915  -1.196 -10.943  1.00  0.00    -0.250 OA
BRANCH  65  67
ATOM     67  O   UNL     1       6.270  -2.330 -12.299  1.00  0.00    -0.480 OA
ATOM     68  H   UNL     1       7.031  -2.757 -11.850  1.00  0.00     0.296 HD
ENDBRANCH  65  67
ENDBRANCH  49  65
ENDBRANCH  47  49
ENDBRANCH  43  45
ENDBRANCH   1  43
BRANCH   1  69
ATOM     69  C   UNL     1       4.713   4.280 -11.464  1.00  0.00    -0.001 C 
ATOM     70  C   UNL     1       3.584   4.950 -11.752  1.00  0.00     0.001 C 
BRANCH  70  71
ATOM     71  C   UNL     1       3.422   6.016 -12.743  1.00  0.00    -0.055 C 
ATOM     72  C   UNL     1       3.518   7.292 -12.315  1.00  0.00    -0.018 C 
ATOM     73  C   UNL     1       3.167   5.613 -14.173  1.00  0.00     0.044 C 
BRANCH  72  74
ATOM     74  C   UNL     1       3.398   8.586 -13.107  1.00  0.00     0.038 C 
ATOM     75  C   UNL     1       1.977   8.634 -13.683  1.00  0.00     0.015 C 
BRANCH  74  76
ATOM     76  C   UNL     1       4.535   8.630 -14.169  1.00  0.00     0.128 C 
BRANCH  76  77
ATOM     77  O   UNL     1       4.381   9.788 -15.006  1.00  0.00    -0.381 OA
ATOM     78  C   UNL     1       4.168   9.478 -16.377  1.00  0.00     0.195 C 
ENDBRANCH  76  77
BRANCH  76  79
ATOM     79  C   UNL     1       5.960   8.507 -13.572  1.00  0.00     0.068 C 
BRANCH  79  80
ATOM     80  C   UNL     1       6.707   7.213 -13.785  1.00  0.00    -0.045 A 
ATOM     81  C   UNL     1       7.607   6.733 -12.825  1.00  0.00     0.004 A 
ATOM     82  C   UNL     1       6.531   6.482 -14.970  1.00  0.00     0.004 A 
ATOM     83  C   UNL     1       8.305   5.542 -13.036  1.00  0.00     0.000 A 
ATOM     84  C   UNL     1       7.230   5.291 -15.180  1.00  0.00     0.000 A 
ATOM     85  C   UNL     1       8.116   4.821 -14.213  1.00  0.00     0.000 A 
ENDBRANCH  79  80
ENDBRANCH  76  79
ENDBRANCH  74  76
ENDBRANCH  72  74
ENDBRANCH  70  71
ENDBRANCH   1  69
TORSDOF 17
ENDMDL
MODEL 42
REMARK VINA RESULT:    -5.967      4.297     10.302
REMARK INTER + INTRA:         -23.831
REMARK INTER:                 -16.980
REMARK INTRA:                  -6.851
REMARK UNBOUND:                -6.005
REMARK SMILES C=C1C(=O)N[C@H](C)C(=O)N[C@@H](CC(C)C)C(=O)N[C@@H](C(=O)O)[C@H](C)C(=O)N[C@@H](CCCN=C(N)N)C(=O)N[C@@H](/C=C/C(C)=C/[C@H](C)[C@H](Cc2ccccc2)OC)[C@H](C)C(=O)N[C@@H](C(=O)O)CCC(=O)N1C
REMARK SMILES IDX 39 1 38 2 37 3 36 4 28 6 27 7 25 8 26 9 23 11 24 12 19 13
REMARK SMILES IDX 18 14 16 15 17 16 11 18 10 19 8 20 9 21 12 24 13 25 14 26
REMARK SMILES IDX 15 27 20 28 21 29 22 30 29 32 30 33 31 34 32 35 33 36 34 37
REMARK SMILES IDX 35 38 57 43 58 44 59 45 60 46 61 47 62 49 66 50 67 51 68 52
REMARK SMILES IDX 69 53 70 54 71 55 2 56 1 57 3 58 4 59 5 60 6 62 7 63 63 65
REMARK SMILES IDX 64 66 65 67 40 69 41 70 42 71 44 72 43 73 45 74 46 75 47 76
REMARK SMILES IDX 55 77 56 78 48 79 49 80 50 81 54 82 51 83 53 84 52 85
REMARK H PARENT 38 5 27 10 18 17 10 22 22 31 34 39 34 40 35 41 35 42 61 48
REMARK H PARENT 5 61 65 68
REMARK Flexibility Score:  369.900
ROOT
ATOM      1  C   UNL     1      -1.062   2.183  -3.075  1.00  0.00     0.117 C 
ENDROOT
BRANCH   1   2
ATOM      2  N   UNL     1       0.249   1.845  -3.631  1.00  0.00    -0.347 N 
ATOM      3  O   UNL     1       1.085   0.730  -1.807  1.00  0.00    -0.273 OA
ATOM      4  C   UNL     1       1.186   1.064  -2.983  1.00  0.00     0.243 C 
ATOM      5  H   UNL     1       0.484   2.150  -4.563  1.00  0.00     0.164 HD
BRANCH   4   6
ATOM      6  C   UNL     1       2.456   0.785  -3.826  1.00  0.00     0.171 C 
BRANCH   6   7
ATOM      7  N   UNL     1       2.515   1.693  -4.983  1.00  0.00    -0.344 N 
ATOM      8  C   UNL     1       2.219   1.237  -6.249  1.00  0.00     0.226 C 
ATOM      9  O   UNL     1       1.919   0.072  -6.478  1.00  0.00    -0.275 OA
ATOM     10  H   UNL     1       2.824   2.647  -4.843  1.00  0.00     0.164 HD
BRANCH   8  11
ATOM     11  C   UNL     1       2.271   2.306  -7.327  1.00  0.00     0.109 C 
ATOM     12  C   UNL     1       1.192   3.359  -7.075  1.00  0.00     0.021 C 
BRANCH  11  13
ATOM     13  C   UNL     1       3.705   2.861  -7.441  1.00  0.00     0.204 C 
BRANCH  13  14
ATOM     14  N   UNL     1       4.442   2.259  -8.556  1.00  0.00    -0.340 N 
ATOM     15  C   UNL     1       5.793   1.991  -8.503  1.00  0.00     0.243 C 
ATOM     16  O   UNL     1       6.464   2.184  -7.491  1.00  0.00    -0.273 OA
ATOM     17  H   UNL     1       3.981   2.216  -9.469  1.00  0.00     0.164 HD
BRANCH  15  18
ATOM     18  C   UNL     1       6.391   1.553  -9.862  1.00  0.00     0.171 C 
BRANCH  18  19
ATOM     19  N   UNL     1       5.386   0.713 -10.511  1.00  0.00    -0.343 N 
ATOM     20  C   UNL     1       5.654  -0.591 -10.879  1.00  0.00     0.242 CG0
ATOM     21  O   UNL     1       6.786  -1.062 -10.801  1.00  0.00    -0.273 OA
ATOM     22  H   UNL     1       4.467   1.096 -10.703  1.00  0.00     0.164 HD
ATOM     23  G   UNL     1       4.448  -1.344 -11.478  1.00  0.00     0.000 G0
ENDBRANCH  18  19
BRANCH  18  24
ATOM     24  C   UNL     1       6.740   2.776 -10.719  1.00  0.00     0.038 C 
BRANCH  24  25
ATOM     25  C   UNL     1       7.439   2.448 -12.056  1.00  0.00    -0.015 C 
ATOM     26  C   UNL     1       8.727   1.647 -11.861  1.00  0.00     0.007 C 
ATOM     27  C   UNL     1       7.748   3.745 -12.807  1.00  0.00     0.007 C 
ENDBRANCH  24  25
ENDBRANCH  18  24
ENDBRANCH  15  18
ENDBRANCH  13  14
BRANCH  13  28
ATOM     28  C   UNL     1       3.750   4.380  -7.635  1.00  0.00     0.327 C 
ATOM     29  O   UNL     1       3.624   4.978  -8.692  1.00  0.00    -0.250 OA
BRANCH  28  30
ATOM     30  O   UNL     1       4.070   5.047  -6.507  1.00  0.00    -0.480 OA
ATOM     31  H   UNL     1       4.953   5.429  -6.695  1.00  0.00     0.296 HD
ENDBRANCH  28  30
ENDBRANCH  13  28
ENDBRANCH  11  13
ENDBRANCH   8  11
ENDBRANCH   6   7
BRANCH   6  32
ATOM     32  C   UNL     1       3.695   0.949  -2.938  1.00  0.00     0.037 C 
BRANCH  32  33
ATOM     33  C   UNL     1       4.771   1.822  -3.600  1.00  0.00     0.026 C 
BRANCH  33  34
ATOM     34  C   UNL     1       4.883   3.203  -2.955  1.00  0.00     0.146 C 
BRANCH  34  35
ATOM     35  N   UNL     1       4.097   4.151  -3.732  1.00  0.00    -0.254 NA
ATOM     36  C   UNL     1       2.992   4.579  -3.244  1.00  0.00     0.185 C 
ATOM     37  N   UNL     1       2.262   5.456  -3.950  1.00  0.00    -0.370 N 
ATOM     38  N   UNL     1       2.414   4.274  -2.069  1.00  0.00    -0.370 N 
ATOM     39  H   UNL     1       2.638   5.744  -4.844  1.00  0.00     0.159 HD
ATOM     40  H   UNL     1       1.484   5.966  -3.568  1.00  0.00     0.159 HD
ATOM     41  H   UNL     1       1.474   4.570  -1.859  1.00  0.00     0.159 HD
ATOM     42  H   UNL     1       2.845   3.614  -1.441  1.00  0.00     0.159 HD
ENDBRANCH  34  35
ENDBRANCH  33  34
ENDBRANCH  32  33
ENDBRANCH   6  32
ENDBRANCH   4   6
ENDBRANCH   1   2
BRANCH   1  43
ATOM     43  C   UNL     1      -2.161   1.637  -4.033  1.00  0.00     0.102 C 
ATOM     44  C   UNL     1      -1.627   1.260  -5.425  1.00  0.00     0.020 C 
BRANCH  43  45
ATOM     45  C   UNL     1      -3.375   2.570  -4.064  1.00  0.00     0.225 C 
ATOM     46  O   UNL     1      -3.546   3.419  -4.935  1.00  0.00    -0.275 OA
ATOM     47  N   UNL     1      -4.231   2.464  -2.992  1.00  0.00    -0.342 N 
ATOM     48  H   UNL     1      -4.161   1.669  -2.373  1.00  0.00     0.164 HD
BRANCH  47  49
ATOM     49  C   UNL     1      -5.454   3.269  -2.906  1.00  0.00     0.192 C 
BRANCH  49  50
ATOM     50  C   UNL     1      -5.293   4.333  -1.817  1.00  0.00     0.047 C 
BRANCH  50  51
ATOM     51  C   UNL     1      -5.867   5.692  -2.242  1.00  0.00     0.103 C 
BRANCH  51  52
ATOM     52  C   UNL     1      -7.393   5.679  -2.296  1.00  0.00     0.226 C 
ATOM     53  O   UNL     1      -8.036   5.379  -1.288  1.00  0.00    -0.275 OA
BRANCH  52  54
ATOM     54  N   UNL     1      -7.981   6.095  -3.504  1.00  0.00    -0.311 N 
ATOM     55  C   UNL     1      -7.574   5.504  -4.786  1.00  0.00     0.153 C 
BRANCH  54  56
ATOM     56  C   UNL     1      -8.980   7.082  -3.531  1.00  0.00     0.102 C 
ATOM     57  C   UNL     1      -8.756   8.398  -3.677  1.00  0.00     0.043 C 
BRANCH  56  58
ATOM     58  C   UNL     1     -10.441   6.709  -3.438  1.00  0.00     0.268 C 
ATOM     59  O   UNL     1     -10.934   5.774  -4.053  1.00  0.00    -0.268 OA
ATOM     60  N   UNL     1     -11.141   7.484  -2.544  1.00  0.00    -0.339 N 
ATOM     61  H   UNL     1     -10.661   8.247  -2.081  1.00  0.00     0.164 HD
BRANCH  60  62
ATOM     62  C   UNL     1     -12.555   7.254  -2.253  1.00  0.00     0.168 CG0
ATOM     63  C   UNL     1     -12.818   7.289  -0.752  1.00  0.00     0.041 C 
ATOM     64  G   UNL     1     -12.992   5.901  -2.851  1.00  0.00     0.000 G0
ENDBRANCH  60  62
ENDBRANCH  56  58
ENDBRANCH  54  56
ENDBRANCH  52  54
ENDBRANCH  51  52
ENDBRANCH  50  51
ENDBRANCH  49  50
BRANCH  49  65
ATOM     65  C   UNL     1      -6.682   2.401  -2.592  1.00  0.00     0.326 C 
ATOM     66  O   UNL     1      -7.020   2.023  -1.480  1.00  0.00    -0.250 OA
BRANCH  65  67
ATOM     67  O   UNL     1      -7.384   2.003  -3.677  1.00  0.00    -0.480 OA
ATOM     68  H   UNL     1      -6.948   2.475  -4.419  1.00  0.00     0.296 HD
ENDBRANCH  65  67
ENDBRANCH  49  65
ENDBRANCH  47  49
ENDBRANCH  43  45
ENDBRANCH   1  43
BRANCH   1  69
ATOM     69  C   UNL     1      -1.024   3.670  -2.773  1.00  0.00    -0.001 C 
ATOM     70  C   UNL     1      -1.282   4.271  -1.599  1.00  0.00     0.001 C 
BRANCH  70  71
ATOM     71  C   UNL     1      -1.221   5.706  -1.314  1.00  0.00    -0.055 C 
ATOM     72  C   UNL     1      -2.311   6.450  -1.601  1.00  0.00    -0.018 C 
ATOM     73  C   UNL     1       0.049   6.251  -0.714  1.00  0.00     0.044 C 
BRANCH  72  74
ATOM     74  C   UNL     1      -2.535   7.943  -1.412  1.00  0.00     0.038 C 
ATOM     75  C   UNL     1      -1.767   8.661  -2.529  1.00  0.00     0.015 C 
BRANCH  74  76
ATOM     76  C   UNL     1      -2.105   8.336   0.032  1.00  0.00     0.128 C 
BRANCH  76  77
ATOM     77  O   UNL     1      -1.654   9.700   0.056  1.00  0.00    -0.381 OA
ATOM     78  C   UNL     1      -0.450   9.891   0.787  1.00  0.00     0.195 C 
ENDBRANCH  76  77
BRANCH  76  79
ATOM     79  C   UNL     1      -3.177   8.040   1.111  1.00  0.00     0.068 C 
BRANCH  79  80
ATOM     80  C   UNL     1      -2.806   7.111   2.241  1.00  0.00    -0.045 A 
ATOM     81  C   UNL     1      -2.861   5.720   2.081  1.00  0.00     0.004 A 
ATOM     82  C   UNL     1      -2.424   7.631   3.487  1.00  0.00     0.004 A 
ATOM     83  C   UNL     1      -2.529   4.868   3.136  1.00  0.00     0.000 A 
ATOM     84  C   UNL     1      -2.093   6.778   4.542  1.00  0.00     0.000 A 
ATOM     85  C   UNL     1      -2.144   5.397   4.366  1.00  0.00     0.000 A 
ENDBRANCH  79  80
ENDBRANCH  76  79
ENDBRANCH  74  76
ENDBRANCH  72  74
ENDBRANCH  70  71
ENDBRANCH   1  69
TORSDOF 17
ENDMDL
MODEL 43
REMARK VINA RESULT:    -5.966      2.857      4.932
REMARK INTER + INTRA:         -23.830
REMARK INTER:                 -17.591
REMARK INTRA:                  -6.239
REMARK UNBOUND:                -6.005
REMARK SMILES C=C1C(=O)N[C@H](C)C(=O)N[C@@H](CC(C)C)C(=O)N[C@@H](C(=O)O)[C@H](C)C(=O)N[C@@H](CCCN=C(N)N)C(=O)N[C@@H](/C=C/C(C)=C/[C@H](C)[C@H](Cc2ccccc2)OC)[C@H](C)C(=O)N[C@@H](C(=O)O)CCC(=O)N1C
REMARK SMILES IDX 39 1 38 2 37 3 36 4 28 6 27 7 25 8 26 9 23 11 24 12 19 13
REMARK SMILES IDX 18 14 16 15 17 16 11 18 10 19 8 20 9 21 12 24 13 25 14 26
REMARK SMILES IDX 15 27 20 28 21 29 22 30 29 32 30 33 31 34 32 35 33 36 34 37
REMARK SMILES IDX 35 38 57 43 58 44 59 45 60 46 61 47 62 49 66 50 67 51 68 52
REMARK SMILES IDX 69 53 70 54 71 55 2 56 1 57 3 58 4 59 5 60 6 62 7 63 63 65
REMARK SMILES IDX 64 66 65 67 40 69 41 70 42 71 44 72 43 73 45 74 46 75 47 76
REMARK SMILES IDX 55 77 56 78 48 79 49 80 50 81 54 82 51 83 53 84 52 85
REMARK H PARENT 38 5 27 10 18 17 10 22 22 31 34 39 34 40 35 41 35 42 61 48
REMARK H PARENT 5 61 65 68
REMARK Flexibility Score:  369.900
ROOT
ATOM      1  C   UNL     1       1.115   2.587  -4.470  1.00  0.00     0.117 C 
ENDROOT
BRANCH   1   2
ATOM      2  N   UNL     1       1.427   4.016  -4.432  1.00  0.00    -0.347 N 
ATOM      3  O   UNL     1      -0.717   4.809  -4.641  1.00  0.00    -0.273 OA
ATOM      4  C   UNL     1       0.473   5.016  -4.429  1.00  0.00     0.243 C 
ATOM      5  H   UNL     1       2.388   4.311  -4.354  1.00  0.00     0.164 HD
BRANCH   4   6
ATOM      6  C   UNL     1       1.065   6.442  -4.296  1.00  0.00     0.171 C 
BRANCH   6   7
ATOM      7  N   UNL     1       2.353   6.400  -3.585  1.00  0.00    -0.344 N 
ATOM      8  C   UNL     1       2.643   7.320  -2.601  1.00  0.00     0.226 C 
ATOM      9  O   UNL     1       1.869   8.217  -2.288  1.00  0.00    -0.275 OA
ATOM     10  H   UNL     1       3.045   5.714  -3.862  1.00  0.00     0.164 HD
BRANCH   8  11
ATOM     11  C   UNL     1       3.986   7.110  -1.925  1.00  0.00     0.109 C 
ATOM     12  C   UNL     1       3.786   6.523  -0.527  1.00  0.00     0.021 C 
BRANCH  11  13
ATOM     13  C   UNL     1       4.912   6.291  -2.846  1.00  0.00     0.204 C 
BRANCH  13  14
ATOM     14  N   UNL     1       6.240   6.898  -2.976  1.00  0.00    -0.340 N 
ATOM     15  C   UNL     1       6.476   8.024  -3.734  1.00  0.00     0.243 C 
ATOM     16  O   UNL     1       5.577   8.635  -4.308  1.00  0.00    -0.273 OA
ATOM     17  H   UNL     1       7.048   6.359  -2.654  1.00  0.00     0.164 HD
BRANCH  15  18
ATOM     18  C   UNL     1       7.980   8.359  -3.892  1.00  0.00     0.171 C 
BRANCH  18  19
ATOM     19  N   UNL     1       8.547   8.383  -2.545  1.00  0.00    -0.343 N 
ATOM     20  C   UNL     1       8.439   9.492  -1.728  1.00  0.00     0.242 CG0
ATOM     21  O   UNL     1       7.980  10.554  -2.143  1.00  0.00    -0.273 OA
ATOM     22  H   UNL     1       9.039   7.567  -2.198  1.00  0.00     0.164 HD
ATOM     23  G   UNL     1       9.029   9.303  -0.316  1.00  0.00     0.000 G0
ENDBRANCH  18  19
BRANCH  18  24
ATOM     24  C   UNL     1       8.677   7.318  -4.776  1.00  0.00     0.038 C 
BRANCH  24  25
ATOM     25  C   UNL     1       8.714   7.670  -6.279  1.00  0.00    -0.015 C 
ATOM     26  C   UNL     1       8.483   9.159  -6.537  1.00  0.00     0.007 C 
ATOM     27  C   UNL     1       7.661   6.848  -7.026  1.00  0.00     0.007 C 
ENDBRANCH  24  25
ENDBRANCH  18  24
ENDBRANCH  15  18
ENDBRANCH  13  14
BRANCH  13  28
ATOM     28  C   UNL     1       5.116   4.850  -2.368  1.00  0.00     0.327 C 
ATOM     29  O   UNL     1       6.105   4.410  -1.801  1.00  0.00    -0.250 OA
BRANCH  28  30
ATOM     30  O   UNL     1       4.117   4.023  -2.738  1.00  0.00    -0.480 OA
ATOM     31  H   UNL     1       3.647   4.514  -3.444  1.00  0.00     0.296 HD
ENDBRANCH  28  30
ENDBRANCH  13  28
ENDBRANCH  11  13
ENDBRANCH   8  11
ENDBRANCH   6   7
BRANCH   6  32
ATOM     32  C   UNL     1       1.231   7.050  -5.693  1.00  0.00     0.037 C 
BRANCH  32  33
ATOM     33  C   UNL     1       2.706   7.188  -6.093  1.00  0.00     0.026 C 
BRANCH  33  34
ATOM     34  C   UNL     1       3.053   8.598  -6.573  1.00  0.00     0.146 C 
BRANCH  34  35
ATOM     35  N   UNL     1       1.942   9.487  -6.260  1.00  0.00    -0.254 NA
ATOM     36  C   UNL     1       2.064  10.736  -6.516  1.00  0.00     0.185 C 
ATOM     37  N   UNL     1       1.045  11.564  -6.236  1.00  0.00    -0.370 N 
ATOM     38  N   UNL     1       3.110  11.391  -7.051  1.00  0.00    -0.370 N 
ATOM     39  H   UNL     1       0.215  11.143  -5.839  1.00  0.00     0.159 HD
ATOM     40  H   UNL     1       0.994  12.513  -6.563  1.00  0.00     0.159 HD
ATOM     41  H   UNL     1       3.139  12.397  -7.074  1.00  0.00     0.159 HD
ATOM     42  H   UNL     1       3.954  10.896  -7.296  1.00  0.00     0.159 HD
ENDBRANCH  34  35
ENDBRANCH  33  34
ENDBRANCH  32  33
ENDBRANCH   6  32
ENDBRANCH   4   6
ENDBRANCH   1   2
BRANCH   1  43
ATOM     43  C   UNL     1       1.267   2.008  -3.034  1.00  0.00     0.102 C 
ATOM     44  C   UNL     1       2.352   0.923  -2.923  1.00  0.00     0.020 C 
BRANCH  43  45
ATOM     45  C   UNL     1      -0.091   1.590  -2.463  1.00  0.00     0.225 C 
ATOM     46  O   UNL     1      -0.274   0.526  -1.879  1.00  0.00    -0.275 OA
ATOM     47  N   UNL     1      -1.134   2.448  -2.726  1.00  0.00    -0.342 N 
ATOM     48  H   UNL     1      -0.942   3.379  -3.069  1.00  0.00     0.164 HD
BRANCH  47  49
ATOM     49  C   UNL     1      -2.483   2.195  -2.212  1.00  0.00     0.192 C 
BRANCH  49  50
ATOM     50  C   UNL     1      -3.451   3.243  -2.768  1.00  0.00     0.047 C 
BRANCH  50  51
ATOM     51  C   UNL     1      -4.860   3.106  -2.176  1.00  0.00     0.103 C 
BRANCH  51  52
ATOM     52  C   UNL     1      -5.946   3.269  -3.238  1.00  0.00     0.226 C 
ATOM     53  O   UNL     1      -6.809   2.398  -3.367  1.00  0.00    -0.275 OA
BRANCH  52  54
ATOM     54  N   UNL     1      -5.933   4.472  -3.968  1.00  0.00    -0.311 N 
ATOM     55  C   UNL     1      -6.019   5.770  -3.287  1.00  0.00     0.153 C 
BRANCH  54  56
ATOM     56  C   UNL     1      -5.832   4.477  -5.369  1.00  0.00     0.102 C 
ATOM     57  C   UNL     1      -4.721   4.173  -6.060  1.00  0.00     0.043 C 
BRANCH  56  58
ATOM     58  C   UNL     1      -7.030   4.794  -6.232  1.00  0.00     0.268 C 
ATOM     59  O   UNL     1      -6.951   5.404  -7.290  1.00  0.00    -0.268 OA
ATOM     60  N   UNL     1      -8.203   4.273  -5.740  1.00  0.00    -0.339 N 
ATOM     61  H   UNL     1      -8.186   3.789  -4.850  1.00  0.00     0.164 HD
BRANCH  60  62
ATOM     62  C   UNL     1      -9.474   4.409  -6.450  1.00  0.00     0.168 CG0
ATOM     63  C   UNL     1     -10.540   5.023  -5.551  1.00  0.00     0.041 C 
ATOM     64  G   UNL     1      -9.927   3.029  -6.969  1.00  0.00     0.000 G0
ENDBRANCH  60  62
ENDBRANCH  56  58
ENDBRANCH  54  56
ENDBRANCH  52  54
ENDBRANCH  51  52
ENDBRANCH  50  51
ENDBRANCH  49  50
BRANCH  49  65
ATOM     65  C   UNL     1      -2.520   2.232  -0.676  1.00  0.00     0.326 C 
ATOM     66  O   UNL     1      -2.272   3.207   0.018  1.00  0.00    -0.250 OA
BRANCH  65  67
ATOM     67  O   UNL     1      -2.802   1.047  -0.090  1.00  0.00    -0.480 OA
ATOM     68  H   UNL     1      -3.171   0.509  -0.824  1.00  0.00     0.296 HD
ENDBRANCH  65  67
ENDBRANCH  49  65
ENDBRANCH  47  49
ENDBRANCH  43  45
ENDBRANCH   1  43
BRANCH   1  69
ATOM     69  C   UNL     1       1.954   2.000  -5.590  1.00  0.00    -0.001 C 
ATOM     70  C   UNL     1       2.937   2.607  -6.280  1.00  0.00     0.001 C 
BRANCH  70  71
ATOM     71  C   UNL     1       3.755   2.023  -7.345  1.00  0.00    -0.055 C 
ATOM     72  C   UNL     1       5.052   2.388  -7.411  1.00  0.00    -0.018 C 
ATOM     73  C   UNL     1       3.093   1.050  -8.285  1.00  0.00     0.044 C 
BRANCH  72  74
ATOM     74  C   UNL     1       6.128   1.948  -8.394  1.00  0.00     0.038 C 
ATOM     75  C   UNL     1       7.391   1.648  -7.579  1.00  0.00     0.015 C 
BRANCH  74  76
ATOM     76  C   UNL     1       6.297   3.053  -9.479  1.00  0.00     0.128 C 
BRANCH  76  77
ATOM     77  O   UNL     1       7.346   3.959  -9.096  1.00  0.00    -0.381 OA
ATOM     78  C   UNL     1       8.259   4.251 -10.145  1.00  0.00     0.195 C 
ENDBRANCH  76  77
BRANCH  76  79
ATOM     79  C   UNL     1       6.476   2.502 -10.916  1.00  0.00     0.068 C 
BRANCH  79  80
ATOM     80  C   UNL     1       6.318   1.016 -11.128  1.00  0.00    -0.045 A 
ATOM     81  C   UNL     1       7.388   0.234 -11.583  1.00  0.00     0.004 A 
ATOM     82  C   UNL     1       5.080   0.396 -10.898  1.00  0.00     0.004 A 
ATOM     83  C   UNL     1       7.230  -1.137 -11.790  1.00  0.00     0.000 A 
ATOM     84  C   UNL     1       4.923  -0.976 -11.107  1.00  0.00     0.000 A 
ATOM     85  C   UNL     1       5.998  -1.742 -11.551  1.00  0.00     0.000 A 
ENDBRANCH  79  80
ENDBRANCH  76  79
ENDBRANCH  74  76
ENDBRANCH  72  74
ENDBRANCH  70  71
ENDBRANCH   1  69
TORSDOF 17
ENDMDL
MODEL 44
REMARK VINA RESULT:    -5.965      2.867      4.899
REMARK INTER + INTRA:         -23.826
REMARK INTER:                 -17.092
REMARK INTRA:                  -6.734
REMARK UNBOUND:                -6.005
REMARK SMILES C=C1C(=O)N[C@H](C)C(=O)N[C@@H](CC(C)C)C(=O)N[C@@H](C(=O)O)[C@H](C)C(=O)N[C@@H](CCCN=C(N)N)C(=O)N[C@@H](/C=C/C(C)=C/[C@H](C)[C@H](Cc2ccccc2)OC)[C@H](C)C(=O)N[C@@H](C(=O)O)CCC(=O)N1C
REMARK SMILES IDX 39 1 38 2 37 3 36 4 28 6 27 7 25 8 26 9 23 11 24 12 19 13
REMARK SMILES IDX 18 14 16 15 17 16 11 18 10 19 8 20 9 21 12 24 13 25 14 26
REMARK SMILES IDX 15 27 20 28 21 29 22 30 29 32 30 33 31 34 32 35 33 36 34 37
REMARK SMILES IDX 35 38 57 43 58 44 59 45 60 46 61 47 62 49 66 50 67 51 68 52
REMARK SMILES IDX 69 53 70 54 71 55 2 56 1 57 3 58 4 59 5 60 6 62 7 63 63 65
REMARK SMILES IDX 64 66 65 67 40 69 41 70 42 71 44 72 43 73 45 74 46 75 47 76
REMARK SMILES IDX 55 77 56 78 48 79 49 80 50 81 54 82 51 83 53 84 52 85
REMARK H PARENT 38 5 27 10 18 17 10 22 22 31 34 39 34 40 35 41 35 42 61 48
REMARK H PARENT 5 61 65 68
REMARK Flexibility Score:  369.900
ROOT
ATOM      1  C   UNL     1       0.880   2.513  -4.478  1.00  0.00     0.117 C 
ENDROOT
BRANCH   1   2
ATOM      2  N   UNL     1       1.082   3.962  -4.469  1.00  0.00    -0.347 N 
ATOM      3  O   UNL     1      -1.048   4.579  -5.063  1.00  0.00    -0.273 OA
ATOM      4  C   UNL     1       0.075   4.884  -4.674  1.00  0.00     0.243 C 
ATOM      5  H   UNL     1       1.995   4.333  -4.253  1.00  0.00     0.164 HD
BRANCH   4   6
ATOM      6  C   UNL     1       0.537   6.356  -4.526  1.00  0.00     0.171 C 
BRANCH   6   7
ATOM      7  N   UNL     1       1.790   6.427  -3.757  1.00  0.00    -0.344 N 
ATOM      8  C   UNL     1       1.899   7.265  -2.668  1.00  0.00     0.226 C 
ATOM      9  O   UNL     1       0.987   7.997  -2.304  1.00  0.00    -0.275 OA
ATOM     10  H   UNL     1       2.588   5.887  -4.067  1.00  0.00     0.164 HD
BRANCH   8  11
ATOM     11  C   UNL     1       3.234   7.183  -1.948  1.00  0.00     0.109 C 
ATOM     12  C   UNL     1       3.054   6.522  -0.581  1.00  0.00     0.021 C 
BRANCH  11  13
ATOM     13  C   UNL     1       4.279   6.511  -2.860  1.00  0.00     0.204 C 
BRANCH  13  14
ATOM     14  N   UNL     1       5.602   7.130  -2.734  1.00  0.00    -0.340 N 
ATOM     15  C   UNL     1       5.945   8.301  -3.375  1.00  0.00     0.243 C 
ATOM     16  O   UNL     1       5.143   8.942  -4.052  1.00  0.00    -0.273 OA
ATOM     17  H   UNL     1       6.353   6.576  -2.314  1.00  0.00     0.164 HD
BRANCH  15  18
ATOM     18  C   UNL     1       7.449   8.650  -3.262  1.00  0.00     0.171 C 
BRANCH  18  19
ATOM     19  N   UNL     1       7.779   8.623  -1.839  1.00  0.00    -0.343 N 
ATOM     20  C   UNL     1       8.290   9.730  -1.187  1.00  0.00     0.242 CG0
ATOM     21  O   UNL     1       8.614  10.744  -1.800  1.00  0.00    -0.273 OA
ATOM     22  H   UNL     1       7.638   7.769  -1.311  1.00  0.00     0.164 HD
ATOM     23  G   UNL     1       8.502   9.535   0.328  1.00  0.00     0.000 G0
ENDBRANCH  18  19
BRANCH  18  24
ATOM     24  C   UNL     1       8.298   7.650  -4.055  1.00  0.00     0.038 C 
BRANCH  24  25
ATOM     25  C   UNL     1       8.440   7.974  -5.558  1.00  0.00    -0.015 C 
ATOM     26  C   UNL     1       8.202   9.453  -5.862  1.00  0.00     0.007 C 
ATOM     27  C   UNL     1       7.460   7.118  -6.364  1.00  0.00     0.007 C 
ENDBRANCH  24  25
ENDBRANCH  18  24
ENDBRANCH  15  18
ENDBRANCH  13  14
BRANCH  13  28
ATOM     28  C   UNL     1       4.450   5.014  -2.582  1.00  0.00     0.327 C 
ATOM     29  O   UNL     1       3.616   4.143  -2.777  1.00  0.00    -0.250 OA
BRANCH  28  30
ATOM     30  O   UNL     1       5.613   4.721  -1.966  1.00  0.00    -0.480 OA
ATOM     31  H   UNL     1       5.612   5.286  -1.167  1.00  0.00     0.296 HD
ENDBRANCH  28  30
ENDBRANCH  13  28
ENDBRANCH  11  13
ENDBRANCH   8  11
ENDBRANCH   6   7
BRANCH   6  32
ATOM     32  C   UNL     1       0.716   6.970  -5.919  1.00  0.00     0.037 C 
BRANCH  32  33
ATOM     33  C   UNL     1       1.837   6.286  -6.714  1.00  0.00     0.026 C 
BRANCH  33  34
ATOM     34  C   UNL     1       1.418   5.953  -8.147  1.00  0.00     0.146 C 
BRANCH  34  35
ATOM     35  N   UNL     1       0.704   4.683  -8.145  1.00  0.00    -0.254 NA
ATOM     36  C   UNL     1       0.756   3.947  -9.192  1.00  0.00     0.185 C 
ATOM     37  N   UNL     1       0.106   2.773  -9.198  1.00  0.00    -0.370 N 
ATOM     38  N   UNL     1       1.397   4.173 -10.352  1.00  0.00    -0.370 N 
ATOM     39  H   UNL     1      -0.393   2.526  -8.354  1.00  0.00     0.159 HD
ATOM     40  H   UNL     1       0.238   2.068  -9.903  1.00  0.00     0.159 HD
ATOM     41  H   UNL     1       1.247   3.581 -11.153  1.00  0.00     0.159 HD
ATOM     42  H   UNL     1       1.915   5.026 -10.494  1.00  0.00     0.159 HD
ENDBRANCH  34  35
ENDBRANCH  33  34
ENDBRANCH  32  33
ENDBRANCH   6  32
ENDBRANCH   4   6
ENDBRANCH   1   2
BRANCH   1  43
ATOM     43  C   UNL     1       1.017   1.985  -3.020  1.00  0.00     0.102 C 
ATOM     44  C   UNL     1       2.102   0.906  -2.860  1.00  0.00     0.020 C 
BRANCH  43  45
ATOM     45  C   UNL     1      -0.347   1.584  -2.450  1.00  0.00     0.225 C 
ATOM     46  O   UNL     1      -0.543   0.526  -1.860  1.00  0.00    -0.275 OA
ATOM     47  N   UNL     1      -1.380   2.452  -2.721  1.00  0.00    -0.342 N 
ATOM     48  H   UNL     1      -1.177   3.378  -3.069  1.00  0.00     0.164 HD
BRANCH  47  49
ATOM     49  C   UNL     1      -2.733   2.216  -2.209  1.00  0.00     0.192 C 
BRANCH  49  50
ATOM     50  C   UNL     1      -3.672   3.316  -2.711  1.00  0.00     0.047 C 
BRANCH  50  51
ATOM     51  C   UNL     1      -5.102   3.147  -2.179  1.00  0.00     0.103 C 
BRANCH  51  52
ATOM     52  C   UNL     1      -6.146   3.294  -3.285  1.00  0.00     0.226 C 
ATOM     53  O   UNL     1      -6.966   2.394  -3.473  1.00  0.00    -0.275 OA
BRANCH  52  54
ATOM     54  N   UNL     1      -6.148   4.514  -3.987  1.00  0.00    -0.311 N 
ATOM     55  C   UNL     1      -6.283   5.793  -3.278  1.00  0.00     0.153 C 
BRANCH  54  56
ATOM     56  C   UNL     1      -6.017   4.554  -5.385  1.00  0.00     0.102 C 
ATOM     57  C   UNL     1      -4.890   4.275  -6.059  1.00  0.00     0.043 C 
BRANCH  56  58
ATOM     58  C   UNL     1      -7.199   4.887  -6.265  1.00  0.00     0.268 C 
ATOM     59  O   UNL     1      -7.117   5.599  -7.256  1.00  0.00    -0.268 OA
ATOM     60  N   UNL     1      -8.356   4.255  -5.876  1.00  0.00    -0.339 N 
ATOM     61  H   UNL     1      -8.344   3.689  -5.037  1.00  0.00     0.164 HD
BRANCH  60  62
ATOM     62  C   UNL     1      -9.605   4.387  -6.625  1.00  0.00     0.168 CG0
ATOM     63  C   UNL     1     -10.688   5.038  -5.773  1.00  0.00     0.041 C 
ATOM     64  G   UNL     1     -10.061   2.999  -7.120  1.00  0.00     0.000 G0
ENDBRANCH  60  62
ENDBRANCH  56  58
ENDBRANCH  54  56
ENDBRANCH  52  54
ENDBRANCH  51  52
ENDBRANCH  50  51
ENDBRANCH  49  50
BRANCH  49  65
ATOM     65  C   UNL     1      -2.760   2.186  -0.673  1.00  0.00     0.326 C 
ATOM     66  O   UNL     1      -2.469   3.119   0.062  1.00  0.00    -0.250 OA
BRANCH  65  67
ATOM     67  O   UNL     1      -3.085   0.989  -0.138  1.00  0.00    -0.480 OA
ATOM     68  H   UNL     1      -3.245   1.194   0.809  1.00  0.00     0.296 HD
ENDBRANCH  65  67
ENDBRANCH  49  65
ENDBRANCH  47  49
ENDBRANCH  43  45
ENDBRANCH   1  43
BRANCH   1  69
ATOM     69  C   UNL     1       1.806   1.962  -5.547  1.00  0.00    -0.001 C 
ATOM     70  C   UNL     1       2.829   2.596  -6.147  1.00  0.00     0.001 C 
BRANCH  70  71
ATOM     71  C   UNL     1       3.729   2.047  -7.164  1.00  0.00    -0.055 C 
ATOM     72  C   UNL     1       5.040   2.353  -7.071  1.00  0.00    -0.018 C 
ATOM     73  C   UNL     1       3.130   1.173  -8.235  1.00  0.00     0.044 C 
BRANCH  72  74
ATOM     74  C   UNL     1       6.193   1.929  -7.970  1.00  0.00     0.038 C 
ATOM     75  C   UNL     1       7.396   1.647  -7.061  1.00  0.00     0.015 C 
BRANCH  74  76
ATOM     76  C   UNL     1       6.428   3.037  -9.039  1.00  0.00     0.128 C 
BRANCH  76  77
ATOM     77  O   UNL     1       7.814   3.420  -9.053  1.00  0.00    -0.381 OA
ATOM     78  C   UNL     1       8.017   4.827  -9.053  1.00  0.00     0.195 C 
ENDBRANCH  76  77
BRANCH  76  79
ATOM     79  C   UNL     1       5.892   2.676 -10.448  1.00  0.00     0.068 C 
BRANCH  79  80
ATOM     80  C   UNL     1       6.349   1.377 -11.066  1.00  0.00    -0.045 A 
ATOM     81  C   UNL     1       5.679   0.175 -10.800  1.00  0.00     0.004 A 
ATOM     82  C   UNL     1       7.477   1.349 -11.901  1.00  0.00     0.004 A 
ATOM     83  C   UNL     1       6.116  -1.025 -11.365  1.00  0.00     0.000 A 
ATOM     84  C   UNL     1       7.914   0.148 -12.465  1.00  0.00     0.000 A 
ATOM     85  C   UNL     1       7.232  -1.038 -12.198  1.00  0.00     0.000 A 
ENDBRANCH  79  80
ENDBRANCH  76  79
ENDBRANCH  74  76
ENDBRANCH  72  74
ENDBRANCH  70  71
ENDBRANCH   1  69
TORSDOF 17
ENDMDL
MODEL 45
REMARK VINA RESULT:    -5.959      8.529     14.470
REMARK INTER + INTRA:         -23.809
REMARK INTER:                 -15.145
REMARK INTRA:                  -8.663
REMARK UNBOUND:                -6.005
REMARK SMILES C=C1C(=O)N[C@H](C)C(=O)N[C@@H](CC(C)C)C(=O)N[C@@H](C(=O)O)[C@H](C)C(=O)N[C@@H](CCCN=C(N)N)C(=O)N[C@@H](/C=C/C(C)=C/[C@H](C)[C@H](Cc2ccccc2)OC)[C@H](C)C(=O)N[C@@H](C(=O)O)CCC(=O)N1C
REMARK SMILES IDX 39 1 38 2 37 3 36 4 28 6 27 7 25 8 26 9 23 11 24 12 19 13
REMARK SMILES IDX 18 14 16 15 17 16 11 18 10 19 8 20 9 21 12 24 13 25 14 26
REMARK SMILES IDX 15 27 20 28 21 29 22 30 29 32 30 33 31 34 32 35 33 36 34 37
REMARK SMILES IDX 35 38 57 43 58 44 59 45 60 46 61 47 62 49 66 50 67 51 68 52
REMARK SMILES IDX 69 53 70 54 71 55 2 56 1 57 3 58 4 59 5 60 6 62 7 63 63 65
REMARK SMILES IDX 64 66 65 67 40 69 41 70 42 71 44 72 43 73 45 74 46 75 47 76
REMARK SMILES IDX 55 77 56 78 48 79 49 80 50 81 54 82 51 83 53 84 52 85
REMARK H PARENT 38 5 27 10 18 17 10 22 22 31 34 39 34 40 35 41 35 42 61 48
REMARK H PARENT 5 61 65 68
REMARK Flexibility Score:  369.900
ROOT
ATOM      1  C   UNL     1       3.403   2.650 -11.719  1.00  0.00     0.117 C 
ENDROOT
BRANCH   1   2
ATOM      2  N   UNL     1       2.392   3.391 -12.474  1.00  0.00    -0.347 N 
ATOM      3  O   UNL     1       1.605   1.645 -13.740  1.00  0.00    -0.273 OA
ATOM      4  C   UNL     1       1.508   2.808 -13.362  1.00  0.00     0.243 C 
ATOM      5  H   UNL     1       2.283   4.381 -12.315  1.00  0.00     0.164 HD
BRANCH   4   6
ATOM      6  C   UNL     1       0.482   3.802 -13.963  1.00  0.00     0.171 C 
BRANCH   6   7
ATOM      7  N   UNL     1       0.542   5.092 -13.258  1.00  0.00    -0.344 N 
ATOM      8  C   UNL     1      -0.030   5.240 -12.014  1.00  0.00     0.226 C 
ATOM      9  O   UNL     1      -0.627   4.331 -11.449  1.00  0.00    -0.275 OA
ATOM     10  H   UNL     1       0.967   5.885 -13.722  1.00  0.00     0.164 HD
BRANCH   8  11
ATOM     11  C   UNL     1       0.164   6.614 -11.395  1.00  0.00     0.109 C 
ATOM     12  C   UNL     1       1.466   7.238 -11.898  1.00  0.00     0.021 C 
BRANCH  11  13
ATOM     13  C   UNL     1      -1.097   7.471 -11.624  1.00  0.00     0.204 C 
BRANCH  13  14
ATOM     14  N   UNL     1      -2.252   6.660 -12.021  1.00  0.00    -0.340 N 
ATOM     15  C   UNL     1      -3.024   6.946 -13.126  1.00  0.00     0.243 C 
ATOM     16  O   UNL     1      -2.761   7.870 -13.893  1.00  0.00    -0.273 OA
ATOM     17  H   UNL     1      -2.612   5.976 -11.349  1.00  0.00     0.164 HD
BRANCH  15  18
ATOM     18  C   UNL     1      -4.305   6.081 -13.227  1.00  0.00     0.171 C 
BRANCH  18  19
ATOM     19  N   UNL     1      -5.388   6.867 -12.639  1.00  0.00    -0.343 N 
ATOM     20  C   UNL     1      -5.616   6.889 -11.276  1.00  0.00     0.242 CG0
ATOM     21  O   UNL     1      -5.005   6.148 -10.510  1.00  0.00    -0.273 OA
ATOM     22  H   UNL     1      -5.995   7.408 -13.244  1.00  0.00     0.164 HD
ATOM     23  G   UNL     1      -6.751   7.836 -10.836  1.00  0.00     0.000 G0
ENDBRANCH  18  19
BRANCH  18  24
ATOM     24  C   UNL     1      -4.601   5.721 -14.688  1.00  0.00     0.038 C 
BRANCH  24  25
ATOM     25  C   UNL     1      -4.447   4.222 -15.025  1.00  0.00    -0.015 C 
ATOM     26  C   UNL     1      -5.794   3.524 -15.211  1.00  0.00     0.007 C 
ATOM     27  C   UNL     1      -3.653   3.524 -13.918  1.00  0.00     0.007 C 
ENDBRANCH  24  25
ENDBRANCH  18  24
ENDBRANCH  15  18
ENDBRANCH  13  14
BRANCH  13  28
ATOM     28  C   UNL     1      -1.511   8.277 -10.390  1.00  0.00     0.327 C 
ATOM     29  O   UNL     1      -2.182   9.298 -10.385  1.00  0.00    -0.250 OA
BRANCH  28  30
ATOM     30  O   UNL     1      -0.958   7.819  -9.249  1.00  0.00    -0.480 OA
ATOM     31  H   UNL     1      -1.701   7.391  -8.775  1.00  0.00     0.296 HD
ENDBRANCH  28  30
ENDBRANCH  13  28
ENDBRANCH  11  13
ENDBRANCH   8  11
ENDBRANCH   6   7
BRANCH   6  32
ATOM     32  C   UNL     1       0.771   3.980 -15.458  1.00  0.00     0.037 C 
BRANCH  32  33
ATOM     33  C   UNL     1       2.132   4.645 -15.709  1.00  0.00     0.026 C 
BRANCH  33  34
ATOM     34  C   UNL     1       2.002   5.989 -16.428  1.00  0.00     0.146 C 
BRANCH  34  35
ATOM     35  N   UNL     1       0.839   6.692 -15.904  1.00  0.00    -0.254 NA
ATOM     36  C   UNL     1       0.979   7.904 -15.513  1.00  0.00     0.185 C 
ATOM     37  N   UNL     1      -0.087   8.563 -15.033  1.00  0.00    -0.370 N 
ATOM     38  N   UNL     1       2.086   8.667 -15.507  1.00  0.00    -0.370 N 
ATOM     39  H   UNL     1      -0.964   8.057 -15.015  1.00  0.00     0.159 HD
ATOM     40  H   UNL     1      -0.101   9.555 -14.872  1.00  0.00     0.159 HD
ATOM     41  H   UNL     1       2.099   9.561 -15.044  1.00  0.00     0.159 HD
ATOM     42  H   UNL     1       2.967   8.295 -15.826  1.00  0.00     0.159 HD
ENDBRANCH  34  35
ENDBRANCH  33  34
ENDBRANCH  32  33
ENDBRANCH   6  32
ENDBRANCH   4   6
ENDBRANCH   1   2
BRANCH   1  43
ATOM     43  C   UNL     1       2.695   1.881 -10.566  1.00  0.00     0.102 C 
ATOM     44  C   UNL     1       2.178   2.799  -9.445  1.00  0.00     0.020 C 
BRANCH  43  45
ATOM     45  C   UNL     1       3.560   0.719 -10.068  1.00  0.00     0.225 C 
ATOM     46  O   UNL     1       3.479   0.262  -8.931  1.00  0.00    -0.275 OA
ATOM     47  N   UNL     1       4.513   0.269 -10.952  1.00  0.00    -0.342 N 
ATOM     48  H   UNL     1       4.466   0.546 -11.923  1.00  0.00     0.164 HD
BRANCH  47  49
ATOM     49  C   UNL     1       5.389  -0.861 -10.625  1.00  0.00     0.192 C 
BRANCH  49  50
ATOM     50  C   UNL     1       6.852  -0.439 -10.781  1.00  0.00     0.047 C 
BRANCH  50  51
ATOM     51  C   UNL     1       6.998   0.893 -11.529  1.00  0.00     0.103 C 
BRANCH  51  52
ATOM     52  C   UNL     1       8.029   0.810 -12.652  1.00  0.00     0.226 C 
ATOM     53  O   UNL     1       7.980  -0.122 -13.458  1.00  0.00    -0.275 OA
BRANCH  52  54
ATOM     54  N   UNL     1       8.948   1.872 -12.740  1.00  0.00    -0.311 N 
ATOM     55  C   UNL     1       9.567   2.438 -11.534  1.00  0.00     0.153 C 
BRANCH  54  56
ATOM     56  C   UNL     1       9.310   2.427 -13.979  1.00  0.00     0.102 C 
ATOM     57  C   UNL     1       8.696   3.468 -14.564  1.00  0.00     0.043 C 
BRANCH  56  58
ATOM     58  C   UNL     1      10.495   1.894 -14.749  1.00  0.00     0.268 C 
ATOM     59  O   UNL     1      10.449   0.879 -15.431  1.00  0.00    -0.268 OA
ATOM     60  N   UNL     1      11.605   2.699 -14.658  1.00  0.00    -0.339 N 
ATOM     61  H   UNL     1      11.566   3.518 -14.063  1.00  0.00     0.164 HD
BRANCH  60  62
ATOM     62  C   UNL     1      12.844   2.402 -15.377  1.00  0.00     0.168 CG0
ATOM     63  C   UNL     1      12.792   2.943 -16.801  1.00  0.00     0.041 C 
ATOM     64  G   UNL     1      13.088   0.879 -15.380  1.00  0.00     0.000 G0
ENDBRANCH  60  62
ENDBRANCH  56  58
ENDBRANCH  54  56
ENDBRANCH  52  54
ENDBRANCH  51  52
ENDBRANCH  50  51
ENDBRANCH  49  50
BRANCH  49  65
ATOM     65  C   UNL     1       5.110  -2.073 -11.527  1.00  0.00     0.326 C 
ATOM     66  O   UNL     1       5.531  -2.224 -12.665  1.00  0.00    -0.250 OA
BRANCH  65  67
ATOM     67  O   UNL     1       4.280  -2.995 -10.992  1.00  0.00    -0.480 OA
ATOM     68  H   UNL     1       4.890  -3.642 -10.575  1.00  0.00     0.296 HD
ENDBRANCH  65  67
ENDBRANCH  49  65
ENDBRANCH  47  49
ENDBRANCH  43  45
ENDBRANCH   1  43
BRANCH   1  69
ATOM     69  C   UNL     1       4.491   3.650 -11.374  1.00  0.00    -0.001 C 
ATOM     70  C   UNL     1       4.593   4.924 -11.793  1.00  0.00     0.001 C 
BRANCH  70  71
ATOM     71  C   UNL     1       5.637   5.886 -11.436  1.00  0.00    -0.055 C 
ATOM     72  C   UNL     1       5.299   6.903 -10.615  1.00  0.00    -0.018 C 
ATOM     73  C   UNL     1       7.016   5.669 -12.002  1.00  0.00     0.044 C 
BRANCH  72  74
ATOM     74  C   UNL     1       6.163   8.036 -10.079  1.00  0.00     0.038 C 
ATOM     75  C   UNL     1       6.746   8.773 -11.291  1.00  0.00     0.015 C 
BRANCH  74  76
ATOM     76  C   UNL     1       7.222   7.440  -9.105  1.00  0.00     0.128 C 
BRANCH  76  77
ATOM     77  O   UNL     1       8.153   8.462  -8.708  1.00  0.00    -0.381 OA
ATOM     78  C   UNL     1       7.914   8.977  -7.405  1.00  0.00     0.195 C 
ENDBRANCH  76  77
BRANCH  76  79
ATOM     79  C   UNL     1       6.612   6.683  -7.899  1.00  0.00     0.068 C 
BRANCH  79  80
ATOM     80  C   UNL     1       6.538   5.177  -7.974  1.00  0.00    -0.045 A 
ATOM     81  C   UNL     1       7.574   4.431  -8.551  1.00  0.00     0.004 A 
ATOM     82  C   UNL     1       5.409   4.500  -7.489  1.00  0.00     0.004 A 
ATOM     83  C   UNL     1       7.491   3.039  -8.629  1.00  0.00     0.000 A 
ATOM     84  C   UNL     1       5.327   3.108  -7.568  1.00  0.00     0.000 A 
ATOM     85  C   UNL     1       6.368   2.378  -8.137  1.00  0.00     0.000 A 
ENDBRANCH  79  80
ENDBRANCH  76  79
ENDBRANCH  74  76
ENDBRANCH  72  74
ENDBRANCH  70  71
ENDBRANCH   1  69
TORSDOF 17
ENDMDL
MODEL 46
REMARK VINA RESULT:    -5.952      2.501      3.916
REMARK INTER + INTRA:         -23.786
REMARK INTER:                 -17.321
REMARK INTRA:                  -6.465
REMARK UNBOUND:                -6.005
REMARK SMILES C=C1C(=O)N[C@H](C)C(=O)N[C@@H](CC(C)C)C(=O)N[C@@H](C(=O)O)[C@H](C)C(=O)N[C@@H](CCCN=C(N)N)C(=O)N[C@@H](/C=C/C(C)=C/[C@H](C)[C@H](Cc2ccccc2)OC)[C@H](C)C(=O)N[C@@H](C(=O)O)CCC(=O)N1C
REMARK SMILES IDX 39 1 38 2 37 3 36 4 28 6 27 7 25 8 26 9 23 11 24 12 19 13
REMARK SMILES IDX 18 14 16 15 17 16 11 18 10 19 8 20 9 21 12 24 13 25 14 26
REMARK SMILES IDX 15 27 20 28 21 29 22 30 29 32 30 33 31 34 32 35 33 36 34 37
REMARK SMILES IDX 35 38 57 43 58 44 59 45 60 46 61 47 62 49 66 50 67 51 68 52
REMARK SMILES IDX 69 53 70 54 71 55 2 56 1 57 3 58 4 59 5 60 6 62 7 63 63 65
REMARK SMILES IDX 64 66 65 67 40 69 41 70 42 71 44 72 43 73 45 74 46 75 47 76
REMARK SMILES IDX 55 77 56 78 48 79 49 80 50 81 54 82 51 83 53 84 52 85
REMARK H PARENT 38 5 27 10 18 17 10 22 22 31 34 39 34 40 35 41 35 42 61 48
REMARK H PARENT 5 61 65 68
REMARK Flexibility Score:  369.900
ROOT
ATOM      1  C   UNL     1       2.271   2.587  -4.609  1.00  0.00     0.117 C 
ENDROOT
BRANCH   1   2
ATOM      2  N   UNL     1       2.344   4.014  -4.293  1.00  0.00    -0.347 N 
ATOM      3  O   UNL     1       0.171   4.557  -4.794  1.00  0.00    -0.273 OA
ATOM      4  C   UNL     1       1.260   4.869  -4.324  1.00  0.00     0.243 C 
ATOM      5  H   UNL     1       3.220   4.407  -3.985  1.00  0.00     0.164 HD
BRANCH   4   6
ATOM      6  C   UNL     1       1.590   6.311  -3.862  1.00  0.00     0.171 C 
BRANCH   6   7
ATOM      7  N   UNL     1       2.952   6.375  -3.309  1.00  0.00    -0.344 N 
ATOM      8  C   UNL     1       3.222   5.889  -2.047  1.00  0.00     0.226 C 
ATOM      9  O   UNL     1       2.356   5.409  -1.326  1.00  0.00    -0.275 OA
ATOM     10  H   UNL     1       3.681   6.825  -3.848  1.00  0.00     0.164 HD
BRANCH   8  11
ATOM     11  C   UNL     1       4.683   5.977  -1.642  1.00  0.00     0.109 C 
ATOM     12  C   UNL     1       5.450   4.767  -2.176  1.00  0.00     0.021 C 
BRANCH  11  13
ATOM     13  C   UNL     1       5.258   7.345  -2.059  1.00  0.00     0.204 C 
BRANCH  13  14
ATOM     14  N   UNL     1       5.957   8.009  -0.954  1.00  0.00    -0.340 N 
ATOM     15  C   UNL     1       5.726   9.322  -0.604  1.00  0.00     0.243 C 
ATOM     16  O   UNL     1       4.871  10.012  -1.156  1.00  0.00    -0.273 OA
ATOM     17  H   UNL     1       6.779   7.546  -0.558  1.00  0.00     0.164 HD
BRANCH  15  18
ATOM     18  C   UNL     1       6.723   9.866   0.448  1.00  0.00     0.171 C 
BRANCH  18  19
ATOM     19  N   UNL     1       7.625  10.772  -0.259  1.00  0.00    -0.343 N 
ATOM     20  C   UNL     1       8.671  10.304  -1.030  1.00  0.00     0.242 CG0
ATOM     21  O   UNL     1       8.972   9.113  -1.051  1.00  0.00    -0.273 OA
ATOM     22  H   UNL     1       7.487  11.774  -0.179  1.00  0.00     0.164 HD
ATOM     23  G   UNL     1       9.465  11.405  -1.763  1.00  0.00     0.000 G0
ENDBRANCH  18  19
BRANCH  18  24
ATOM     24  C   UNL     1       5.977  10.585   1.579  1.00  0.00     0.038 C 
BRANCH  24  25
ATOM     25  C   UNL     1       5.049   9.680   2.417  1.00  0.00    -0.015 C 
ATOM     26  C   UNL     1       4.641  10.325   3.742  1.00  0.00     0.007 C 
ATOM     27  C   UNL     1       5.742   8.342   2.687  1.00  0.00     0.007 C 
ENDBRANCH  24  25
ENDBRANCH  18  24
ENDBRANCH  15  18
ENDBRANCH  13  14
BRANCH  13  28
ATOM     28  C   UNL     1       6.242   7.255  -3.230  1.00  0.00     0.327 C 
ATOM     29  O   UNL     1       5.956   7.054  -4.400  1.00  0.00    -0.250 OA
BRANCH  28  30
ATOM     30  O   UNL     1       7.532   7.303  -2.841  1.00  0.00    -0.480 OA
ATOM     31  H   UNL     1       7.900   6.437  -3.116  1.00  0.00     0.296 HD
ENDBRANCH  28  30
ENDBRANCH  13  28
ENDBRANCH  11  13
ENDBRANCH   8  11
ENDBRANCH   6   7
BRANCH   6  32
ATOM     32  C   UNL     1       1.437   7.267  -5.050  1.00  0.00     0.037 C 
BRANCH  32  33
ATOM     33  C   UNL     1       2.778   7.882  -5.476  1.00  0.00     0.026 C 
BRANCH  33  34
ATOM     34  C   UNL     1       3.292   7.307  -6.796  1.00  0.00     0.146 C 
BRANCH  34  35
ATOM     35  N   UNL     1       2.694   5.995  -7.001  1.00  0.00    -0.254 NA
ATOM     36  C   UNL     1       2.850   5.419  -8.135  1.00  0.00     0.185 C 
ATOM     37  N   UNL     1       2.308   4.208  -8.334  1.00  0.00    -0.370 N 
ATOM     38  N   UNL     1       3.509   5.859  -9.222  1.00  0.00    -0.370 N 
ATOM     39  H   UNL     1       1.803   3.803  -7.555  1.00  0.00     0.159 HD
ATOM     40  H   UNL     1       2.528   3.622  -9.121  1.00  0.00     0.159 HD
ATOM     41  H   UNL     1       3.443   5.375 -10.102  1.00  0.00     0.159 HD
ATOM     42  H   UNL     1       3.954   6.763  -9.221  1.00  0.00     0.159 HD
ENDBRANCH  34  35
ENDBRANCH  33  34
ENDBRANCH  32  33
ENDBRANCH   6  32
ENDBRANCH   4   6
ENDBRANCH   1   2
BRANCH   1  43
ATOM     43  C   UNL     1       2.048   1.798  -3.287  1.00  0.00     0.102 C 
ATOM     44  C   UNL     1       3.093   0.694  -3.049  1.00  0.00     0.020 C 
BRANCH  43  45
ATOM     45  C   UNL     1       0.599   1.316  -3.171  1.00  0.00     0.225 C 
ATOM     46  O   UNL     1       0.240   0.186  -3.488  1.00  0.00    -0.275 OA
ATOM     47  N   UNL     1      -0.312   2.269  -2.774  1.00  0.00    -0.342 N 
ATOM     48  H   UNL     1       0.015   3.138  -2.375  1.00  0.00     0.164 HD
BRANCH  47  49
ATOM     49  C   UNL     1      -1.729   1.943  -2.585  1.00  0.00     0.192 C 
BRANCH  49  50
ATOM     50  C   UNL     1      -2.587   3.164  -2.924  1.00  0.00     0.047 C 
BRANCH  50  51
ATOM     51  C   UNL     1      -3.973   2.772  -3.455  1.00  0.00     0.103 C 
BRANCH  51  52
ATOM     52  C   UNL     1      -5.099   3.417  -2.650  1.00  0.00     0.226 C 
ATOM     53  O   UNL     1      -5.701   2.754  -1.803  1.00  0.00    -0.275 OA
BRANCH  52  54
ATOM     54  N   UNL     1      -5.331   4.786  -2.882  1.00  0.00    -0.311 N 
ATOM     55  C   UNL     1      -5.358   5.748  -1.773  1.00  0.00     0.153 C 
BRANCH  54  56
ATOM     56  C   UNL     1      -5.540   5.283  -4.180  1.00  0.00     0.102 C 
ATOM     57  C   UNL     1      -4.785   6.221  -4.774  1.00  0.00     0.043 C 
BRANCH  56  58
ATOM     58  C   UNL     1      -6.650   4.739  -5.048  1.00  0.00     0.268 C 
ATOM     59  O   UNL     1      -6.481   3.850  -5.872  1.00  0.00    -0.268 OA
ATOM     60  N   UNL     1      -7.875   5.298  -4.772  1.00  0.00    -0.339 N 
ATOM     61  H   UNL     1      -7.929   6.038  -4.082  1.00  0.00     0.164 HD
BRANCH  60  62
ATOM     62  C   UNL     1      -9.097   4.872  -5.453  1.00  0.00     0.168 CG0
ATOM     63  C   UNL     1      -9.612   5.962  -6.386  1.00  0.00     0.041 C 
ATOM     64  G   UNL     1     -10.168   4.497  -4.408  1.00  0.00     0.000 G0
ENDBRANCH  60  62
ENDBRANCH  56  58
ENDBRANCH  54  56
ENDBRANCH  52  54
ENDBRANCH  51  52
ENDBRANCH  50  51
ENDBRANCH  49  50
BRANCH  49  65
ATOM     65  C   UNL     1      -2.021   1.499  -1.144  1.00  0.00     0.326 C 
ATOM     66  O   UNL     1      -2.533   2.193  -0.277  1.00  0.00    -0.250 OA
BRANCH  65  67
ATOM     67  O   UNL     1      -1.610   0.247  -0.844  1.00  0.00    -0.480 OA
ATOM     68  H   UNL     1      -1.353   0.308   0.101  1.00  0.00     0.296 HD
ENDBRANCH  65  67
ENDBRANCH  49  65
ENDBRANCH  47  49
ENDBRANCH  43  45
ENDBRANCH   1  43
BRANCH   1  69
ATOM     69  C   UNL     1       3.495   2.276  -5.451  1.00  0.00    -0.001 C 
ATOM     70  C   UNL     1       4.544   3.081  -5.697  1.00  0.00     0.001 C 
BRANCH  70  71
ATOM     71  C   UNL     1       5.730   2.761  -6.494  1.00  0.00    -0.055 C 
ATOM     72  C   UNL     1       5.974   3.516  -7.586  1.00  0.00    -0.018 C 
ATOM     73  C   UNL     1       6.599   1.620  -6.034  1.00  0.00     0.044 C 
BRANCH  72  74
ATOM     74  C   UNL     1       7.116   3.420  -8.587  1.00  0.00     0.038 C 
ATOM     75  C   UNL     1       7.662   4.839  -8.789  1.00  0.00     0.015 C 
BRANCH  74  76
ATOM     76  C   UNL     1       6.591   2.732  -9.882  1.00  0.00     0.128 C 
BRANCH  76  77
ATOM     77  O   UNL     1       6.484   3.697 -10.942  1.00  0.00    -0.381 OA
ATOM     78  C   UNL     1       5.201   3.736 -11.551  1.00  0.00     0.195 C 
ENDBRANCH  76  77
BRANCH  76  79
ATOM     79  C   UNL     1       7.395   1.473 -10.296  1.00  0.00     0.068 C 
BRANCH  79  80
ATOM     80  C   UNL     1       6.621   0.251 -10.727  1.00  0.00    -0.045 A 
ATOM     81  C   UNL     1       7.231  -0.762 -11.479  1.00  0.00     0.004 A 
ATOM     82  C   UNL     1       5.262   0.124 -10.403  1.00  0.00     0.004 A 
ATOM     83  C   UNL     1       6.505  -1.883 -11.886  1.00  0.00     0.000 A 
ATOM     84  C   UNL     1       4.536  -0.998 -10.811  1.00  0.00     0.000 A 
ATOM     85  C   UNL     1       5.157  -2.001 -11.551  1.00  0.00     0.000 A 
ENDBRANCH  79  80
ENDBRANCH  76  79
ENDBRANCH  74  76
ENDBRANCH  72  74
ENDBRANCH  70  71
ENDBRANCH   1  69
TORSDOF 17
ENDMDL
MODEL 47
REMARK VINA RESULT:    -5.919      4.869     10.189
REMARK INTER + INTRA:         -23.690
REMARK INTER:                 -14.310
REMARK INTRA:                  -9.380
REMARK UNBOUND:                -6.005
REMARK SMILES C=C1C(=O)N[C@H](C)C(=O)N[C@@H](CC(C)C)C(=O)N[C@@H](C(=O)O)[C@H](C)C(=O)N[C@@H](CCCN=C(N)N)C(=O)N[C@@H](/C=C/C(C)=C/[C@H](C)[C@H](Cc2ccccc2)OC)[C@H](C)C(=O)N[C@@H](C(=O)O)CCC(=O)N1C
REMARK SMILES IDX 39 1 38 2 37 3 36 4 28 6 27 7 25 8 26 9 23 11 24 12 19 13
REMARK SMILES IDX 18 14 16 15 17 16 11 18 10 19 8 20 9 21 12 24 13 25 14 26
REMARK SMILES IDX 15 27 20 28 21 29 22 30 29 32 30 33 31 34 32 35 33 36 34 37
REMARK SMILES IDX 35 38 57 43 58 44 59 45 60 46 61 47 62 49 66 50 67 51 68 52
REMARK SMILES IDX 69 53 70 54 71 55 2 56 1 57 3 58 4 59 5 60 6 62 7 63 63 65
REMARK SMILES IDX 64 66 65 67 40 69 41 70 42 71 44 72 43 73 45 74 46 75 47 76
REMARK SMILES IDX 55 77 56 78 48 79 49 80 50 81 54 82 51 83 53 84 52 85
REMARK H PARENT 38 5 27 10 18 17 10 22 22 31 34 39 34 40 35 41 35 42 61 48
REMARK H PARENT 5 61 65 68
REMARK Flexibility Score:  369.900
ROOT
ATOM      1  C   UNL     1      -4.282   7.202  -0.078  1.00  0.00     0.117 C 
ENDROOT
BRANCH   1   2
ATOM      2  N   UNL     1      -3.102   7.858  -0.642  1.00  0.00    -0.347 N 
ATOM      3  O   UNL     1      -4.135   8.895  -2.411  1.00  0.00    -0.273 OA
ATOM      4  C   UNL     1      -3.139   8.729  -1.714  1.00  0.00     0.243 C 
ATOM      5  H   UNL     1      -2.203   7.719  -0.207  1.00  0.00     0.164 HD
BRANCH   4   6
ATOM      6  C   UNL     1      -1.763   9.353  -2.059  1.00  0.00     0.171 C 
BRANCH   6   7
ATOM      7  N   UNL     1      -0.761   8.299  -2.283  1.00  0.00    -0.344 N 
ATOM      8  C   UNL     1       0.328   8.175  -1.448  1.00  0.00     0.226 C 
ATOM      9  O   UNL     1       0.529   8.935  -0.508  1.00  0.00    -0.275 OA
ATOM     10  H   UNL     1      -0.857   7.694  -3.089  1.00  0.00     0.164 HD
BRANCH   8  11
ATOM     11  C   UNL     1       1.240   7.006  -1.778  1.00  0.00     0.109 C 
ATOM     12  C   UNL     1       2.296   6.839  -0.686  1.00  0.00     0.021 C 
BRANCH  11  13
ATOM     13  C   UNL     1       0.394   5.749  -2.060  1.00  0.00     0.204 C 
BRANCH  13  14
ATOM     14  N   UNL     1       1.142   4.738  -2.814  1.00  0.00    -0.340 N 
ATOM     15  C   UNL     1       0.805   4.358  -4.095  1.00  0.00     0.243 C 
ATOM     16  O   UNL     1      -0.113   4.886  -4.720  1.00  0.00    -0.273 OA
ATOM     17  H   UNL     1       1.814   4.158  -2.304  1.00  0.00     0.164 HD
BRANCH  15  18
ATOM     18  C   UNL     1       1.603   3.135  -4.608  1.00  0.00     0.171 C 
BRANCH  18  19
ATOM     19  N   UNL     1       2.657   3.656  -5.476  1.00  0.00    -0.343 N 
ATOM     20  C   UNL     1       2.720   3.338  -6.819  1.00  0.00     0.242 CG0
ATOM     21  O   UNL     1       1.973   2.498  -7.316  1.00  0.00    -0.273 OA
ATOM     22  H   UNL     1       3.368   4.264  -5.085  1.00  0.00     0.164 HD
ATOM     23  G   UNL     1       3.854   4.045  -7.589  1.00  0.00     0.000 G0
ENDBRANCH  18  19
BRANCH  18  24
ATOM     24  C   UNL     1       2.185   2.337  -3.434  1.00  0.00     0.038 C 
BRANCH  24  25
ATOM     25  C   UNL     1       2.778   0.965  -3.819  1.00  0.00    -0.015 C 
ATOM     26  C   UNL     1       1.837   0.149  -4.706  1.00  0.00     0.007 C 
ATOM     27  C   UNL     1       3.106   0.173  -2.550  1.00  0.00     0.007 C 
ENDBRANCH  24  25
ENDBRANCH  18  24
ENDBRANCH  15  18
ENDBRANCH  13  14
BRANCH  13  28
ATOM     28  C   UNL     1      -0.126   5.073  -0.788  1.00  0.00     0.327 C 
ATOM     29  O   UNL     1      -0.929   5.543   0.004  1.00  0.00    -0.250 OA
BRANCH  28  30
ATOM     30  O   UNL     1       0.483   3.899  -0.526  1.00  0.00    -0.480 OA
ATOM     31  H   UNL     1       0.751   3.971   0.414  1.00  0.00     0.296 HD
ENDBRANCH  28  30
ENDBRANCH  13  28
ENDBRANCH  11  13
ENDBRANCH   8  11
ENDBRANCH   6   7
BRANCH   6  32
ATOM     32  C   UNL     1      -1.909  10.242  -3.299  1.00  0.00     0.037 C 
BRANCH  32  33
ATOM     33  C   UNL     1      -0.558  10.781  -3.788  1.00  0.00     0.026 C 
BRANCH  33  34
ATOM     34  C   UNL     1      -0.220  10.314  -5.204  1.00  0.00     0.146 C 
BRANCH  34  35
ATOM     35  N   UNL     1      -1.143   9.253  -5.582  1.00  0.00    -0.254 NA
ATOM     36  C   UNL     1      -0.670   8.093  -5.849  1.00  0.00     0.185 C 
ATOM     37  N   UNL     1      -1.513   7.107  -6.194  1.00  0.00    -0.370 N 
ATOM     38  N   UNL     1       0.609   7.679  -5.839  1.00  0.00    -0.370 N 
ATOM     39  H   UNL     1      -2.498   7.337  -6.214  1.00  0.00     0.159 HD
ATOM     40  H   UNL     1      -1.244   6.139  -6.248  1.00  0.00     0.159 HD
ATOM     41  H   UNL     1       0.868   6.777  -6.204  1.00  0.00     0.159 HD
ATOM     42  H   UNL     1       1.354   8.321  -5.613  1.00  0.00     0.159 HD
ENDBRANCH  34  35
ENDBRANCH  33  34
ENDBRANCH  32  33
ENDBRANCH   6  32
ENDBRANCH   4   6
ENDBRANCH   1   2
BRANCH   1  43
ATOM     43  C   UNL     1      -4.301   7.452   1.457  1.00  0.00     0.102 C 
ATOM     44  C   UNL     1      -4.031   8.916   1.843  1.00  0.00     0.020 C 
BRANCH  43  45
ATOM     45  C   UNL     1      -3.411   6.442   2.189  1.00  0.00     0.225 C 
ATOM     46  O   UNL     1      -3.726   5.267   2.355  1.00  0.00    -0.275 OA
ATOM     47  N   UNL     1      -2.260   6.958   2.741  1.00  0.00    -0.342 N 
ATOM     48  H   UNL     1      -1.944   7.878   2.469  1.00  0.00     0.164 HD
BRANCH  47  49
ATOM     49  C   UNL     1      -1.296   6.103   3.440  1.00  0.00     0.192 C 
BRANCH  49  50
ATOM     50  C   UNL     1      -1.547   6.171   4.948  1.00  0.00     0.047 C 
BRANCH  50  51
ATOM     51  C   UNL     1      -2.739   7.071   5.300  1.00  0.00     0.103 C 
BRANCH  51  52
ATOM     52  C   UNL     1      -3.971   6.261   5.699  1.00  0.00     0.226 C 
ATOM     53  O   UNL     1      -3.894   5.034   5.783  1.00  0.00    -0.275 OA
BRANCH  52  54
ATOM     54  N   UNL     1      -5.126   6.996   6.026  1.00  0.00    -0.311 N 
ATOM     55  C   UNL     1      -5.686   7.980   5.090  1.00  0.00     0.153 C 
BRANCH  54  56
ATOM     56  C   UNL     1      -5.787   6.815   7.252  1.00  0.00     0.102 C 
ATOM     57  C   UNL     1      -5.565   7.542   8.360  1.00  0.00     0.043 C 
BRANCH  56  58
ATOM     58  C   UNL     1      -6.870   5.773   7.402  1.00  0.00     0.268 C 
ATOM     59  O   UNL     1      -7.264   5.078   6.474  1.00  0.00    -0.268 OA
ATOM     60  N   UNL     1      -7.319   5.642   8.694  1.00  0.00    -0.339 N 
ATOM     61  H   UNL     1      -6.950   6.264   9.404  1.00  0.00     0.164 HD
BRANCH  60  62
ATOM     62  C   UNL     1      -8.323   4.648   9.073  1.00  0.00     0.168 CG0
ATOM     63  C   UNL     1      -9.730   5.222   8.964  1.00  0.00     0.041 C 
ATOM     64  G   UNL     1      -8.045   4.154  10.508  1.00  0.00     0.000 G0
ENDBRANCH  60  62
ENDBRANCH  56  58
ENDBRANCH  54  56
ENDBRANCH  52  54
ENDBRANCH  51  52
ENDBRANCH  50  51
ENDBRANCH  49  50
BRANCH  49  65
ATOM     65  C   UNL     1       0.152   6.523   3.145  1.00  0.00     0.326 C 
ATOM     66  O   UNL     1       1.132   6.209   3.805  1.00  0.00    -0.250 OA
BRANCH  65  67
ATOM     67  O   UNL     1       0.294   7.355   2.089  1.00  0.00    -0.480 OA
ATOM     68  H   UNL     1       1.183   7.749   2.223  1.00  0.00     0.296 HD
ENDBRANCH  65  67
ENDBRANCH  49  65
ENDBRANCH  47  49
ENDBRANCH  43  45
ENDBRANCH   1  43
BRANCH   1  69
ATOM     69  C   UNL     1      -4.257   5.773  -0.589  1.00  0.00    -0.001 C 
ATOM     70  C   UNL     1      -4.057   5.361  -1.853  1.00  0.00     0.001 C 
BRANCH  70  71
ATOM     71  C   UNL     1      -4.014   3.977  -2.331  1.00  0.00    -0.055 C 
ATOM     72  C   UNL     1      -2.855   3.532  -2.860  1.00  0.00    -0.018 C 
ATOM     73  C   UNL     1      -5.263   3.147  -2.190  1.00  0.00     0.044 C 
BRANCH  72  74
ATOM     74  C   UNL     1      -2.520   2.159  -3.427  1.00  0.00     0.038 C 
ATOM     75  C   UNL     1      -1.293   1.643  -2.665  1.00  0.00     0.015 C 
BRANCH  74  76
ATOM     76  C   UNL     1      -2.327   2.286  -4.967  1.00  0.00     0.128 C 
BRANCH  76  77
ATOM     77  O   UNL     1      -1.273   1.411  -5.403  1.00  0.00    -0.381 OA
ATOM     78  C   UNL     1      -1.735   0.280  -6.130  1.00  0.00     0.195 C 
ENDBRANCH  76  77
BRANCH  76  79
ATOM     79  C   UNL     1      -3.633   2.106  -5.781  1.00  0.00     0.068 C 
BRANCH  79  80
ATOM     80  C   UNL     1      -4.597   3.266  -5.838  1.00  0.00    -0.045 A 
ATOM     81  C   UNL     1      -4.154   4.558  -6.149  1.00  0.00     0.004 A 
ATOM     82  C   UNL     1      -5.956   3.070  -5.551  1.00  0.00     0.004 A 
ATOM     83  C   UNL     1      -5.050   5.629  -6.185  1.00  0.00     0.000 A 
ATOM     84  C   UNL     1      -6.851   4.142  -5.587  1.00  0.00     0.000 A 
ATOM     85  C   UNL     1      -6.399   5.420  -5.906  1.00  0.00     0.000 A 
ENDBRANCH  79  80
ENDBRANCH  76  79
ENDBRANCH  74  76
ENDBRANCH  72  74
ENDBRANCH  70  71
ENDBRANCH   1  69
TORSDOF 17
ENDMDL
MODEL 48
REMARK VINA RESULT:    -5.912      4.815     10.784
REMARK INTER + INTRA:         -23.668
REMARK INTER:                 -16.501
REMARK INTRA:                  -7.168
REMARK UNBOUND:                -6.005
REMARK SMILES C=C1C(=O)N[C@H](C)C(=O)N[C@@H](CC(C)C)C(=O)N[C@@H](C(=O)O)[C@H](C)C(=O)N[C@@H](CCCN=C(N)N)C(=O)N[C@@H](/C=C/C(C)=C/[C@H](C)[C@H](Cc2ccccc2)OC)[C@H](C)C(=O)N[C@@H](C(=O)O)CCC(=O)N1C
REMARK SMILES IDX 39 1 38 2 37 3 36 4 28 6 27 7 25 8 26 9 23 11 24 12 19 13
REMARK SMILES IDX 18 14 16 15 17 16 11 18 10 19 8 20 9 21 12 24 13 25 14 26
REMARK SMILES IDX 15 27 20 28 21 29 22 30 29 32 30 33 31 34 32 35 33 36 34 37
REMARK SMILES IDX 35 38 57 43 58 44 59 45 60 46 61 47 62 49 66 50 67 51 68 52
REMARK SMILES IDX 69 53 70 54 71 55 2 56 1 57 3 58 4 59 5 60 6 62 7 63 63 65
REMARK SMILES IDX 64 66 65 67 40 69 41 70 42 71 44 72 43 73 45 74 46 75 47 76
REMARK SMILES IDX 55 77 56 78 48 79 49 80 50 81 54 82 51 83 53 84 52 85
REMARK H PARENT 38 5 27 10 18 17 10 22 22 31 34 39 34 40 35 41 35 42 61 48
REMARK H PARENT 5 61 65 68
REMARK Flexibility Score:  369.900
ROOT
ATOM      1  C   UNL     1       0.935   7.005   0.044  1.00  0.00     0.117 C 
ENDROOT
BRANCH   1   2
ATOM      2  N   UNL     1       0.299   7.346   1.317  1.00  0.00    -0.347 N 
ATOM      3  O   UNL     1       2.142   7.097   2.664  1.00  0.00    -0.273 OA
ATOM      4  C   UNL     1       0.978   7.454   2.516  1.00  0.00     0.243 C 
ATOM      5  H   UNL     1      -0.685   7.569   1.334  1.00  0.00     0.164 HD
BRANCH   4   6
ATOM      6  C   UNL     1       0.086   7.913   3.697  1.00  0.00     0.171 C 
BRANCH   6   7
ATOM      7  N   UNL     1      -1.253   7.310   3.596  1.00  0.00    -0.344 N 
ATOM      8  C   UNL     1      -2.377   8.037   3.924  1.00  0.00     0.226 C 
ATOM      9  O   UNL     1      -2.322   9.191   4.332  1.00  0.00    -0.275 OA
ATOM     10  H   UNL     1      -1.334   6.338   3.328  1.00  0.00     0.164 HD
BRANCH   8  11
ATOM     11  C   UNL     1      -3.685   7.294   3.715  1.00  0.00     0.109 C 
ATOM     12  C   UNL     1      -3.688   6.611   2.347  1.00  0.00     0.021 C 
BRANCH  11  13
ATOM     13  C   UNL     1      -3.948   6.355   4.909  1.00  0.00     0.204 C 
BRANCH  13  14
ATOM     14  N   UNL     1      -5.360   6.348   5.304  1.00  0.00    -0.340 N 
ATOM     15  C   UNL     1      -5.770   6.219   6.613  1.00  0.00     0.243 C 
ATOM     16  O   UNL     1      -4.977   6.161   7.551  1.00  0.00    -0.273 OA
ATOM     17  H   UNL     1      -6.064   6.240   4.569  1.00  0.00     0.164 HD
BRANCH  15  18
ATOM     18  C   UNL     1      -7.299   6.028   6.767  1.00  0.00     0.171 C 
BRANCH  18  19
ATOM     19  N   UNL     1      -7.635   6.421   8.134  1.00  0.00    -0.343 N 
ATOM     20  C   UNL     1      -8.441   5.639   8.940  1.00  0.00     0.242 CG0
ATOM     21  O   UNL     1      -9.019   4.648   8.502  1.00  0.00    -0.273 OA
ATOM     22  H   UNL     1      -7.274   7.293   8.504  1.00  0.00     0.164 HD
ATOM     23  G   UNL     1      -8.618   6.176  10.375  1.00  0.00     0.000 G0
ENDBRANCH  18  19
BRANCH  18  24
ATOM     24  C   UNL     1      -8.057   6.875   5.737  1.00  0.00     0.038 C 
BRANCH  24  25
ATOM     25  C   UNL     1      -9.205   6.139   5.016  1.00  0.00    -0.015 C 
ATOM     26  C   UNL     1     -10.550   6.317   5.723  1.00  0.00     0.007 C 
ATOM     27  C   UNL     1      -8.874   4.648   4.909  1.00  0.00     0.007 C 
ENDBRANCH  24  25
ENDBRANCH  18  24
ENDBRANCH  15  18
ENDBRANCH  13  14
BRANCH  13  28
ATOM     28  C   UNL     1      -3.547   4.902   4.635  1.00  0.00     0.327 C 
ATOM     29  O   UNL     1      -4.294   3.998   4.293  1.00  0.00    -0.250 OA
BRANCH  28  30
ATOM     30  O   UNL     1      -2.254   4.648   4.922  1.00  0.00    -0.480 OA
ATOM     31  H   UNL     1      -2.283   4.211   5.798  1.00  0.00     0.296 HD
ENDBRANCH  28  30
ENDBRANCH  13  28
ENDBRANCH  11  13
ENDBRANCH   8  11
ENDBRANCH   6   7
BRANCH   6  32
ATOM     32  C   UNL     1       0.762   7.526   5.018  1.00  0.00     0.037 C 
BRANCH  32  33
ATOM     33  C   UNL     1       1.085   8.752   5.884  1.00  0.00     0.026 C 
BRANCH  33  34
ATOM     34  C   UNL     1       2.350   9.476   5.424  1.00  0.00     0.146 C 
BRANCH  34  35
ATOM     35  N   UNL     1       3.474   8.553   5.501  1.00  0.00    -0.254 NA
ATOM     36  C   UNL     1       4.286   8.490   4.512  1.00  0.00     0.185 C 
ATOM     37  N   UNL     1       5.328   7.646   4.575  1.00  0.00    -0.370 N 
ATOM     38  N   UNL     1       4.262   9.173   3.354  1.00  0.00    -0.370 N 
ATOM     39  H   UNL     1       5.421   7.102   5.423  1.00  0.00     0.159 HD
ATOM     40  H   UNL     1       6.097   7.663   3.927  1.00  0.00     0.159 HD
ATOM     41  H   UNL     1       4.878   8.933   2.595  1.00  0.00     0.159 HD
ATOM     42  H   UNL     1       3.523   9.832   3.163  1.00  0.00     0.159 HD
ENDBRANCH  34  35
ENDBRANCH  33  34
ENDBRANCH  32  33
ENDBRANCH   6  32
ENDBRANCH   4   6
ENDBRANCH   1   2
BRANCH   1  43
ATOM     43  C   UNL     1       1.437   8.317  -0.626  1.00  0.00     0.102 C 
ATOM     44  C   UNL     1       0.599   8.742  -1.844  1.00  0.00     0.020 C 
BRANCH  43  45
ATOM     45  C   UNL     1       2.943   8.253  -0.900  1.00  0.00     0.225 C 
ATOM     46  O   UNL     1       3.546   9.111  -1.538  1.00  0.00    -0.275 OA
ATOM     47  N   UNL     1       3.576   7.112  -0.463  1.00  0.00    -0.342 N 
ATOM     48  H   UNL     1       3.106   6.496   0.185  1.00  0.00     0.164 HD
BRANCH  47  49
ATOM     49  C   UNL     1       5.022   6.929  -0.624  1.00  0.00     0.192 C 
BRANCH  49  50
ATOM     50  C   UNL     1       5.290   5.855  -1.681  1.00  0.00     0.047 C 
BRANCH  50  51
ATOM     51  C   UNL     1       4.020   5.078  -2.056  1.00  0.00     0.103 C 
BRANCH  51  52
ATOM     52  C   UNL     1       4.329   3.861  -2.926  1.00  0.00     0.226 C 
ATOM     53  O   UNL     1       5.271   3.124  -2.631  1.00  0.00    -0.275 OA
BRANCH  52  54
ATOM     54  N   UNL     1       3.445   3.614  -3.993  1.00  0.00    -0.311 N 
ATOM     55  C   UNL     1       2.396   4.579  -4.345  1.00  0.00     0.153 C 
BRANCH  54  56
ATOM     56  C   UNL     1       3.537   2.442  -4.763  1.00  0.00     0.102 C 
ATOM     57  C   UNL     1       2.877   1.301  -4.506  1.00  0.00     0.043 C 
BRANCH  56  58
ATOM     58  C   UNL     1       4.386   2.399  -6.011  1.00  0.00     0.268 C 
ATOM     59  O   UNL     1       5.603   2.267  -5.989  1.00  0.00    -0.268 OA
ATOM     60  N   UNL     1       3.648   2.456  -7.169  1.00  0.00    -0.339 N 
ATOM     61  H   UNL     1       2.645   2.576  -7.102  1.00  0.00     0.164 HD
BRANCH  60  62
ATOM     62  C   UNL     1       4.266   2.367  -8.492  1.00  0.00     0.168 CG0
ATOM     63  C   UNL     1       3.855   1.082  -9.201  1.00  0.00     0.041 C 
ATOM     64  G   UNL     1       5.800   2.447  -8.352  1.00  0.00     0.000 G0
ENDBRANCH  60  62
ENDBRANCH  56  58
ENDBRANCH  54  56
ENDBRANCH  52  54
ENDBRANCH  51  52
ENDBRANCH  50  51
ENDBRANCH  49  50
BRANCH  49  65
ATOM     65  C   UNL     1       5.693   6.522   0.697  1.00  0.00     0.326 C 
ATOM     66  O   UNL     1       6.855   6.166   0.824  1.00  0.00    -0.250 OA
BRANCH  65  67
ATOM     67  O   UNL     1       4.871   6.522   1.770  1.00  0.00    -0.480 OA
ATOM     68  H   UNL     1       5.475   6.695   2.524  1.00  0.00     0.296 HD
ENDBRANCH  65  67
ENDBRANCH  49  65
ENDBRANCH  47  49
ENDBRANCH  43  45
ENDBRANCH   1  43
BRANCH   1  69
ATOM     69  C   UNL     1      -0.056   6.132  -0.704  1.00  0.00    -0.001 C 
ATOM     70  C   UNL     1      -0.902   5.226  -0.184  1.00  0.00     0.001 C 
BRANCH  70  71
ATOM     71  C   UNL     1      -1.870   4.405  -0.914  1.00  0.00    -0.055 C 
ATOM     72  C   UNL     1      -1.415   3.284  -1.514  1.00  0.00    -0.018 C 
ATOM     73  C   UNL     1      -3.305   4.863  -0.937  1.00  0.00     0.044 C 
BRANCH  72  74
ATOM     74  C   UNL     1      -2.179   2.250  -2.329  1.00  0.00     0.038 C 
ATOM     75  C   UNL     1      -1.772   0.869  -1.803  1.00  0.00     0.015 C 
BRANCH  74  76
ATOM     76  C   UNL     1      -1.886   2.487  -3.840  1.00  0.00     0.128 C 
BRANCH  76  77
ATOM     77  O   UNL     1      -1.572   3.871  -4.068  1.00  0.00    -0.381 OA
ATOM     78  C   UNL     1      -2.077   4.376  -5.297  1.00  0.00     0.195 C 
ENDBRANCH  76  77
BRANCH  76  79
ATOM     79  C   UNL     1      -0.826   1.525  -4.433  1.00  0.00     0.068 C 
BRANCH  79  80
ATOM     80  C   UNL     1      -1.261   0.582  -5.528  1.00  0.00    -0.045 A 
ATOM     81  C   UNL     1      -0.394  -0.403  -6.019  1.00  0.00     0.004 A 
ATOM     82  C   UNL     1      -2.540   0.697  -6.094  1.00  0.00     0.004 A 
ATOM     83  C   UNL     1      -0.799  -1.263  -7.042  1.00  0.00     0.000 A 
ATOM     84  C   UNL     1      -2.944  -0.163  -7.118  1.00  0.00     0.000 A 
ATOM     85  C   UNL     1      -2.074  -1.143  -7.590  1.00  0.00     0.000 A 
ENDBRANCH  79  80
ENDBRANCH  76  79
ENDBRANCH  74  76
ENDBRANCH  72  74
ENDBRANCH  70  71
ENDBRANCH   1  69
TORSDOF 17
ENDMDL
MODEL 49
REMARK VINA RESULT:    -5.896      5.273     11.419
REMARK INTER + INTRA:         -23.619
REMARK INTER:                 -15.033
REMARK INTRA:                  -8.587
REMARK UNBOUND:                -6.005
REMARK SMILES C=C1C(=O)N[C@H](C)C(=O)N[C@@H](CC(C)C)C(=O)N[C@@H](C(=O)O)[C@H](C)C(=O)N[C@@H](CCCN=C(N)N)C(=O)N[C@@H](/C=C/C(C)=C/[C@H](C)[C@H](Cc2ccccc2)OC)[C@H](C)C(=O)N[C@@H](C(=O)O)CCC(=O)N1C
REMARK SMILES IDX 39 1 38 2 37 3 36 4 28 6 27 7 25 8 26 9 23 11 24 12 19 13
REMARK SMILES IDX 18 14 16 15 17 16 11 18 10 19 8 20 9 21 12 24 13 25 14 26
REMARK SMILES IDX 15 27 20 28 21 29 22 30 29 32 30 33 31 34 32 35 33 36 34 37
REMARK SMILES IDX 35 38 57 43 58 44 59 45 60 46 61 47 62 49 66 50 67 51 68 52
REMARK SMILES IDX 69 53 70 54 71 55 2 56 1 57 3 58 4 59 5 60 6 62 7 63 63 65
REMARK SMILES IDX 64 66 65 67 40 69 41 70 42 71 44 72 43 73 45 74 46 75 47 76
REMARK SMILES IDX 55 77 56 78 48 79 49 80 50 81 54 82 51 83 53 84 52 85
REMARK H PARENT 38 5 27 10 18 17 10 22 22 31 34 39 34 40 35 41 35 42 61 48
REMARK H PARENT 5 61 65 68
REMARK Flexibility Score:  369.900
ROOT
ATOM      1  C   UNL     1       1.060   6.587  -7.915  1.00  0.00     0.117 C 
ENDROOT
BRANCH   1   2
ATOM      2  N   UNL     1      -0.367   6.581  -7.592  1.00  0.00    -0.347 N 
ATOM      3  O   UNL     1      -0.306   8.104  -5.876  1.00  0.00    -0.273 OA
ATOM      4  C   UNL     1      -0.951   7.411  -6.655  1.00  0.00     0.243 C 
ATOM      5  H   UNL     1      -0.988   5.975  -8.107  1.00  0.00     0.164 HD
BRANCH   4   6
ATOM      6  C   UNL     1      -2.492   7.264  -6.566  1.00  0.00     0.171 C 
BRANCH   6   7
ATOM      7  N   UNL     1      -2.850   5.986  -5.929  1.00  0.00    -0.344 N 
ATOM      8  C   UNL     1      -3.833   5.184  -6.468  1.00  0.00     0.226 C 
ATOM      9  O   UNL     1      -4.463   5.495  -7.472  1.00  0.00    -0.275 OA
ATOM     10  H   UNL     1      -2.399   5.727  -5.061  1.00  0.00     0.164 HD
BRANCH   8  11
ATOM     11  C   UNL     1      -4.048   3.876  -5.728  1.00  0.00     0.109 C 
ATOM     12  C   UNL     1      -2.735   3.404  -5.101  1.00  0.00     0.021 C 
BRANCH  11  13
ATOM     13  C   UNL     1      -5.222   4.023  -4.739  1.00  0.00     0.204 C 
BRANCH  13  14
ATOM     14  N   UNL     1      -5.537   5.428  -4.462  1.00  0.00    -0.340 N 
ATOM     15  C   UNL     1      -5.679   5.925  -3.185  1.00  0.00     0.243 C 
ATOM     16  O   UNL     1      -5.491   5.236  -2.183  1.00  0.00    -0.273 OA
ATOM     17  H   UNL     1      -5.852   6.012  -5.241  1.00  0.00     0.164 HD
BRANCH  15  18
ATOM     18  C   UNL     1      -6.215   7.377  -3.142  1.00  0.00     0.171 C 
BRANCH  18  19
ATOM     19  N   UNL     1      -7.657   7.285  -2.926  1.00  0.00    -0.343 N 
ATOM     20  C   UNL     1      -8.541   7.102  -3.972  1.00  0.00     0.242 CG0
ATOM     21  O   UNL     1      -8.169   7.142  -5.143  1.00  0.00    -0.273 OA
ATOM     22  H   UNL     1      -8.025   7.363  -1.985  1.00  0.00     0.164 HD
ATOM     23  G   UNL     1     -10.014   6.950  -3.542  1.00  0.00     0.000 G0
ENDBRANCH  18  19
BRANCH  18  24
ATOM     24  C   UNL     1      -5.529   8.175  -2.026  1.00  0.00     0.038 C 
BRANCH  24  25
ATOM     25  C   UNL     1      -4.124   8.705  -2.383  1.00  0.00    -0.015 C 
ATOM     26  C   UNL     1      -3.065   8.290  -1.361  1.00  0.00     0.007 C 
ATOM     27  C   UNL     1      -4.163  10.231  -2.494  1.00  0.00     0.007 C 
ENDBRANCH  24  25
ENDBRANCH  18  24
ENDBRANCH  15  18
ENDBRANCH  13  14
BRANCH  13  28
ATOM     28  C   UNL     1      -6.511   3.357  -5.230  1.00  0.00     0.327 C 
ATOM     29  O   UNL     1      -7.414   3.899  -5.848  1.00  0.00    -0.250 OA
BRANCH  28  30
ATOM     30  O   UNL     1      -6.640   2.082  -4.811  1.00  0.00    -0.480 OA
ATOM     31  H   UNL     1      -7.211   1.662  -5.488  1.00  0.00     0.296 HD
ENDBRANCH  28  30
ENDBRANCH  13  28
ENDBRANCH  11  13
ENDBRANCH   8  11
ENDBRANCH   6   7
BRANCH   6  32
ATOM     32  C   UNL     1      -3.066   8.447  -5.780  1.00  0.00     0.037 C 
BRANCH  32  33
ATOM     33  C   UNL     1      -4.445   8.874  -6.301  1.00  0.00     0.026 C 
BRANCH  33  34
ATOM     34  C   UNL     1      -4.573   8.716  -7.816  1.00  0.00     0.146 C 
BRANCH  34  35
ATOM     35  N   UNL     1      -4.454  10.028  -8.437  1.00  0.00    -0.254 NA
ATOM     36  C   UNL     1      -3.389  10.302  -9.094  1.00  0.00     0.185 C 
ATOM     37  N   UNL     1      -3.270  11.506  -9.675  1.00  0.00    -0.370 N 
ATOM     38  N   UNL     1      -2.307   9.532  -9.310  1.00  0.00    -0.370 N 
ATOM     39  H   UNL     1      -4.051  12.141  -9.567  1.00  0.00     0.159 HD
ATOM     40  H   UNL     1      -2.555  11.732 -10.344  1.00  0.00     0.159 HD
ATOM     41  H   UNL     1      -1.473   9.911  -9.726  1.00  0.00     0.159 HD
ATOM     42  H   UNL     1      -2.252   8.605  -8.918  1.00  0.00     0.159 HD
ENDBRANCH  34  35
ENDBRANCH  33  34
ENDBRANCH  32  33
ENDBRANCH   6  32
ENDBRANCH   4   6
ENDBRANCH   1   2
BRANCH   1  43
ATOM     43  C   UNL     1       1.222   6.356  -9.446  1.00  0.00     0.102 C 
ATOM     44  C   UNL     1       0.564   7.451 -10.303  1.00  0.00     0.020 C 
BRANCH  43  45
ATOM     45  C   UNL     1       0.810   4.933  -9.834  1.00  0.00     0.225 C 
ATOM     46  O   UNL     1      -0.297   4.464  -9.588  1.00  0.00    -0.275 OA
ATOM     47  N   UNL     1       1.801   4.164 -10.400  1.00  0.00    -0.342 N 
ATOM     48  H   UNL     1       2.648   4.604 -10.731  1.00  0.00     0.164 HD
BRANCH  47  49
ATOM     49  C   UNL     1       1.543   2.794 -10.854  1.00  0.00     0.192 C 
BRANCH  49  50
ATOM     50  C   UNL     1       2.863   2.024 -10.944  1.00  0.00     0.047 C 
BRANCH  50  51
ATOM     51  C   UNL     1       3.548   1.881  -9.579  1.00  0.00     0.103 C 
BRANCH  51  52
ATOM     52  C   UNL     1       4.606   2.959  -9.353  1.00  0.00     0.226 C 
ATOM     53  O   UNL     1       4.389   3.868  -8.549  1.00  0.00    -0.275 OA
BRANCH  52  54
ATOM     54  N   UNL     1       5.823   2.796 -10.040  1.00  0.00    -0.311 N 
ATOM     55  C   UNL     1       6.187   3.682 -11.154  1.00  0.00     0.153 C 
BRANCH  54  56
ATOM     56  C   UNL     1       6.736   1.789  -9.685  1.00  0.00     0.102 C 
ATOM     57  C   UNL     1       7.267   1.629  -8.462  1.00  0.00     0.043 C 
BRANCH  56  58
ATOM     58  C   UNL     1       7.166   0.744 -10.688  1.00  0.00     0.268 C 
ATOM     59  O   UNL     1       8.218   0.806 -11.309  1.00  0.00    -0.268 OA
ATOM     60  N   UNL     1       6.288  -0.309 -10.781  1.00  0.00    -0.339 N 
ATOM     61  H   UNL     1       5.432  -0.279 -10.240  1.00  0.00     0.164 HD
BRANCH  60  62
ATOM     62  C   UNL     1       6.541  -1.461 -11.646  1.00  0.00     0.168 CG0
ATOM     63  C   UNL     1       5.409  -2.476 -11.551  1.00  0.00     0.041 C 
ATOM     64  G   UNL     1       7.888  -2.108 -11.264  1.00  0.00     0.000 G0
ENDBRANCH  60  62
ENDBRANCH  56  58
ENDBRANCH  54  56
ENDBRANCH  52  54
ENDBRANCH  51  52
ENDBRANCH  50  51
ENDBRANCH  49  50
BRANCH  49  65
ATOM     65  C   UNL     1       0.846   2.773 -12.223  1.00  0.00     0.326 C 
ATOM     66  O   UNL     1       1.409   2.815 -13.308  1.00  0.00    -0.250 OA
BRANCH  65  67
ATOM     67  O   UNL     1      -0.504   2.761 -12.169  1.00  0.00    -0.480 OA
ATOM     68  H   UNL     1      -0.712   3.375 -11.432  1.00  0.00     0.296 HD
ENDBRANCH  65  67
ENDBRANCH  49  65
ENDBRANCH  47  49
ENDBRANCH  43  45
ENDBRANCH   1  43
BRANCH   1  69
ATOM     69  C   UNL     1       1.718   5.615  -6.953  1.00  0.00    -0.001 C 
ATOM     70  C   UNL     1       2.685   5.880  -6.058  1.00  0.00     0.001 C 
BRANCH  70  71
ATOM     71  C   UNL     1       3.298   4.937  -5.120  1.00  0.00    -0.055 C 
ATOM     72  C   UNL     1       3.146   3.619  -5.366  1.00  0.00    -0.018 C 
ATOM     73  C   UNL     1       4.059   5.505  -3.951  1.00  0.00     0.044 C 
BRANCH  72  74
ATOM     74  C   UNL     1       3.667   2.426  -4.577  1.00  0.00     0.038 C 
ATOM     75  C   UNL     1       5.051   2.081  -5.139  1.00  0.00     0.015 C 
BRANCH  74  76
ATOM     76  C   UNL     1       2.622   1.274  -4.663  1.00  0.00     0.128 C 
BRANCH  76  77
ATOM     77  O   UNL     1       1.419   1.650  -3.972  1.00  0.00    -0.381 OA
ATOM     78  C   UNL     1       1.181   0.898  -2.789  1.00  0.00     0.195 C 
ENDBRANCH  76  77
BRANCH  76  79
ATOM     79  C   UNL     1       2.353   0.774  -6.105  1.00  0.00     0.068 C 
BRANCH  79  80
ATOM     80  C   UNL     1       0.918   0.651  -6.554  1.00  0.00    -0.045 A 
ATOM     81  C   UNL     1       0.167  -0.497  -6.267  1.00  0.00     0.004 A 
ATOM     82  C   UNL     1       0.318   1.680  -7.296  1.00  0.00     0.004 A 
ATOM     83  C   UNL     1      -1.156  -0.610  -6.699  1.00  0.00     0.000 A 
ATOM     84  C   UNL     1      -1.005   1.566  -7.728  1.00  0.00     0.000 A 
ATOM     85  C   UNL     1      -1.742   0.423  -7.428  1.00  0.00     0.000 A 
ENDBRANCH  79  80
ENDBRANCH  76  79
ENDBRANCH  74  76
ENDBRANCH  72  74
ENDBRANCH  70  71
ENDBRANCH   1  69
TORSDOF 17
ENDMDL
MODEL 50
REMARK VINA RESULT:    -5.891      5.285     11.893
REMARK INTER + INTRA:         -23.604
REMARK INTER:                 -16.718
REMARK INTRA:                  -6.886
REMARK UNBOUND:                -6.005
REMARK SMILES C=C1C(=O)N[C@H](C)C(=O)N[C@@H](CC(C)C)C(=O)N[C@@H](C(=O)O)[C@H](C)C(=O)N[C@@H](CCCN=C(N)N)C(=O)N[C@@H](/C=C/C(C)=C/[C@H](C)[C@H](Cc2ccccc2)OC)[C@H](C)C(=O)N[C@@H](C(=O)O)CCC(=O)N1C
REMARK SMILES IDX 39 1 38 2 37 3 36 4 28 6 27 7 25 8 26 9 23 11 24 12 19 13
REMARK SMILES IDX 18 14 16 15 17 16 11 18 10 19 8 20 9 21 12 24 13 25 14 26
REMARK SMILES IDX 15 27 20 28 21 29 22 30 29 32 30 33 31 34 32 35 33 36 34 37
REMARK SMILES IDX 35 38 57 43 58 44 59 45 60 46 61 47 62 49 66 50 67 51 68 52
REMARK SMILES IDX 69 53 70 54 71 55 2 56 1 57 3 58 4 59 5 60 6 62 7 63 63 65
REMARK SMILES IDX 64 66 65 67 40 69 41 70 42 71 44 72 43 73 45 74 46 75 47 76
REMARK SMILES IDX 55 77 56 78 48 79 49 80 50 81 54 82 51 83 53 84 52 85
REMARK H PARENT 38 5 27 10 18 17 10 22 22 31 34 39 34 40 35 41 35 42 61 48
REMARK H PARENT 5 61 65 68
REMARK Flexibility Score:  369.900
ROOT
ATOM      1  C   UNL     1      -4.503   5.951  -0.881  1.00  0.00     0.117 C 
ENDROOT
BRANCH   1   2
ATOM      2  N   UNL     1      -4.284   6.908   0.203  1.00  0.00    -0.347 N 
ATOM      3  O   UNL     1      -4.021   5.394   1.909  1.00  0.00    -0.273 OA
ATOM      4  C   UNL     1      -3.968   6.549   1.500  1.00  0.00     0.243 C 
ATOM      5  H   UNL     1      -4.312   7.897   0.004  1.00  0.00     0.164 HD
BRANCH   4   6
ATOM      6  C   UNL     1      -3.702   7.757   2.433  1.00  0.00     0.171 C 
BRANCH   6   7
ATOM      7  N   UNL     1      -3.797   7.348   3.844  1.00  0.00    -0.344 N 
ATOM      8  C   UNL     1      -5.016   7.320   4.486  1.00  0.00     0.226 C 
ATOM      9  O   UNL     1      -6.060   7.648   3.936  1.00  0.00    -0.275 OA
ATOM     10  H   UNL     1      -2.948   7.134   4.351  1.00  0.00     0.164 HD
BRANCH   8  11
ATOM     11  C   UNL     1      -4.956   6.824   5.920  1.00  0.00     0.109 C 
ATOM     12  C   UNL     1      -5.577   7.857   6.860  1.00  0.00     0.021 C 
BRANCH  11  13
ATOM     13  C   UNL     1      -5.571   5.413   6.011  1.00  0.00     0.204 C 
BRANCH  13  14
ATOM     14  N   UNL     1      -6.993   5.407   5.655  1.00  0.00    -0.340 N 
ATOM     15  C   UNL     1      -7.993   5.179   6.575  1.00  0.00     0.243 C 
ATOM     16  O   UNL     1      -7.766   5.025   7.774  1.00  0.00    -0.273 OA
ATOM     17  H   UNL     1      -7.240   5.377   4.662  1.00  0.00     0.164 HD
BRANCH  15  18
ATOM     18  C   UNL     1      -9.394   5.013   5.937  1.00  0.00     0.171 C 
BRANCH  18  19
ATOM     19  N   UNL     1     -10.328   5.763   6.776  1.00  0.00    -0.343 N 
ATOM     20  C   UNL     1     -11.504   5.204   7.237  1.00  0.00     0.242 CG0
ATOM     21  O   UNL     1     -11.884   4.099   6.855  1.00  0.00    -0.273 OA
ATOM     22  H   UNL     1     -10.113   6.722   7.024  1.00  0.00     0.164 HD
ATOM     23  G   UNL     1     -12.321   6.119   8.172  1.00  0.00     0.000 G0
ENDBRANCH  18  19
BRANCH  18  24
ATOM     24  C   UNL     1      -9.397   5.530   4.493  1.00  0.00     0.038 C 
BRANCH  24  25
ATOM     25  C   UNL     1     -10.164   4.640   3.492  1.00  0.00    -0.015 C 
ATOM     26  C   UNL     1     -11.645   5.007   3.399  1.00  0.00     0.007 C 
ATOM     27  C   UNL     1     -10.021   3.170   3.895  1.00  0.00     0.007 C 
ENDBRANCH  24  25
ENDBRANCH  18  24
ENDBRANCH  15  18
ENDBRANCH  13  14
BRANCH  13  28
ATOM     28  C   UNL     1      -4.873   4.392   5.107  1.00  0.00     0.327 C 
ATOM     29  O   UNL     1      -5.393   3.422   4.576  1.00  0.00    -0.250 OA
BRANCH  28  30
ATOM     30  O   UNL     1      -3.540   4.583   5.023  1.00  0.00    -0.480 OA
ATOM     31  H   UNL     1      -3.212   4.394   5.927  1.00  0.00     0.296 HD
ENDBRANCH  28  30
ENDBRANCH  13  28
ENDBRANCH  11  13
ENDBRANCH   8  11
ENDBRANCH   6   7
BRANCH   6  32
ATOM     32  C   UNL     1      -2.317   8.336   2.124  1.00  0.00     0.037 C 
BRANCH  32  33
ATOM     33  C   UNL     1      -1.389   8.304   3.347  1.00  0.00     0.026 C 
BRANCH  33  34
ATOM     34  C   UNL     1       0.068   8.590   2.983  1.00  0.00     0.146 C 
BRANCH  34  35
ATOM     35  N   UNL     1       0.369   7.953   1.709  1.00  0.00    -0.254 NA
ATOM     36  C   UNL     1       1.022   6.851   1.712  1.00  0.00     0.185 C 
ATOM     37  N   UNL     1       1.300   6.252   0.544  1.00  0.00    -0.370 N 
ATOM     38  N   UNL     1       1.502   6.156   2.759  1.00  0.00    -0.370 N 
ATOM     39  H   UNL     1       0.962   6.710  -0.293  1.00  0.00     0.159 HD
ATOM     40  H   UNL     1       1.649   5.312   0.470  1.00  0.00     0.159 HD
ATOM     41  H   UNL     1       2.121   5.374   2.625  1.00  0.00     0.159 HD
ATOM     42  H   UNL     1       1.380   6.497   3.700  1.00  0.00     0.159 HD
ENDBRANCH  34  35
ENDBRANCH  33  34
ENDBRANCH  32  33
ENDBRANCH   6  32
ENDBRANCH   4   6
ENDBRANCH   1   2
BRANCH   1  43
ATOM     43  C   UNL     1      -3.215   5.095  -1.055  1.00  0.00     0.102 C 
ATOM     44  C   UNL     1      -2.035   5.881  -1.651  1.00  0.00     0.020 C 
BRANCH  43  45
ATOM     45  C   UNL     1      -3.520   3.783  -1.784  1.00  0.00     0.225 C 
ATOM     46  O   UNL     1      -4.402   3.007  -1.427  1.00  0.00    -0.275 OA
ATOM     47  N   UNL     1      -2.674   3.473  -2.824  1.00  0.00    -0.342 N 
ATOM     48  H   UNL     1      -2.060   4.183  -3.197  1.00  0.00     0.164 HD
BRANCH  47  49
ATOM     49  C   UNL     1      -2.867   2.267  -3.635  1.00  0.00     0.192 C 
BRANCH  49  50
ATOM     50  C   UNL     1      -1.771   1.249  -3.310  1.00  0.00     0.047 C 
BRANCH  50  51
ATOM     51  C   UNL     1      -0.601   1.878  -2.541  1.00  0.00     0.103 C 
BRANCH  51  52
ATOM     52  C   UNL     1       0.751   1.384  -3.049  1.00  0.00     0.226 C 
ATOM     53  O   UNL     1       1.270   0.390  -2.537  1.00  0.00    -0.275 OA
BRANCH  52  54
ATOM     54  N   UNL     1       1.296   2.070  -4.150  1.00  0.00    -0.311 N 
ATOM     55  C   UNL     1       1.375   3.537  -4.163  1.00  0.00     0.153 C 
BRANCH  54  56
ATOM     56  C   UNL     1       1.788   1.383  -5.272  1.00  0.00     0.102 C 
ATOM     57  C   UNL     1       2.953   1.648  -5.886  1.00  0.00     0.043 C 
BRANCH  56  58
ATOM     58  C   UNL     1       1.028   0.218  -5.862  1.00  0.00     0.268 C 
ATOM     59  O   UNL     1       1.292  -0.950  -5.611  1.00  0.00    -0.268 OA
ATOM     60  N   UNL     1      -0.027   0.606  -6.653  1.00  0.00    -0.339 N 
ATOM     61  H   UNL     1      -0.173   1.595  -6.820  1.00  0.00     0.164 HD
BRANCH  60  62
ATOM     62  C   UNL     1      -0.933  -0.360  -7.272  1.00  0.00     0.168 CG0
ATOM     63  C   UNL     1      -2.035  -0.775  -6.305  1.00  0.00     0.041 C 
ATOM     64  G   UNL     1      -0.132  -1.589  -7.748  1.00  0.00     0.000 G0
ENDBRANCH  60  62
ENDBRANCH  56  58
ENDBRANCH  54  56
ENDBRANCH  52  54
ENDBRANCH  51  52
ENDBRANCH  50  51
ENDBRANCH  49  50
BRANCH  49  65
ATOM     65  C   UNL     1      -2.839   2.584  -5.138  1.00  0.00     0.326 C 
ATOM     66  O   UNL     1      -3.756   2.391  -5.923  1.00  0.00    -0.250 OA
BRANCH  65  67
ATOM     67  O   UNL     1      -1.659   3.064  -5.591  1.00  0.00    -0.480 OA
ATOM     68  H   UNL     1      -1.004   2.709  -4.952  1.00  0.00     0.296 HD
ENDBRANCH  65  67
ENDBRANCH  49  65
ENDBRANCH  47  49
ENDBRANCH  43  45
ENDBRANCH   1  43
BRANCH   1  69
ATOM     69  C   UNL     1      -5.013   6.757  -2.062  1.00  0.00    -0.001 C 
ATOM     70  C   UNL     1      -5.336   8.062  -2.081  1.00  0.00     0.001 C 
BRANCH  70  71
ATOM     71  C   UNL     1      -5.807   8.835  -3.233  1.00  0.00    -0.055 C 
ATOM     72  C   UNL     1      -5.181   8.645  -4.414  1.00  0.00    -0.018 C 
ATOM     73  C   UNL     1      -6.960   9.780  -3.020  1.00  0.00     0.044 C 
BRANCH  72  74
ATOM     74  C   UNL     1      -5.451   9.297  -5.762  1.00  0.00     0.038 C 
ATOM     75  C   UNL     1      -5.136  10.790  -5.615  1.00  0.00     0.015 C 
BRANCH  74  76
ATOM     76  C   UNL     1      -6.915   8.977  -6.189  1.00  0.00     0.128 C 
BRANCH  76  77
ATOM     77  O   UNL     1      -7.380   9.965  -7.124  1.00  0.00    -0.381 OA
ATOM     78  C   UNL     1      -8.752  10.301  -6.964  1.00  0.00     0.195 C 
ENDBRANCH  76  77
BRANCH  76  79
ATOM     79  C   UNL     1      -7.120   7.528  -6.696  1.00  0.00     0.068 C 
BRANCH  79  80
ATOM     80  C   UNL     1      -7.166   6.420  -5.672  1.00  0.00    -0.045 A 
ATOM     81  C   UNL     1      -8.122   6.424  -4.647  1.00  0.00     0.004 A 
ATOM     82  C   UNL     1      -6.228   5.378  -5.715  1.00  0.00     0.004 A 
ATOM     83  C   UNL     1      -8.149   5.402  -3.695  1.00  0.00     0.000 A 
ATOM     84  C   UNL     1      -6.255   4.357  -4.761  1.00  0.00     0.000 A 
ATOM     85  C   UNL     1      -7.216   4.369  -3.753  1.00  0.00     0.000 A 
ENDBRANCH  79  80
ENDBRANCH  76  79
ENDBRANCH  74  76
ENDBRANCH  72  74
ENDBRANCH  70  71
ENDBRANCH   1  69
TORSDOF 17
ENDMDL
