MODEL 1
REMARK VINA RESULT:    -7.148      0.000      0.000
REMARK INTER + INTRA:         -17.241
REMARK INTER:                 -14.460
REMARK INTRA:                  -2.781
REMARK UNBOUND:                -2.781
REMARK SMILES CC[C@@H](C)[C@@H](NC(=O)[C@@H](O)Cc1ccc(O)c(Cl)c1)C(=O)N1[C@H](C(=O)NCCCCN=C(N)N)C[C@H]2CC[C@H](OS(=O)(=O)O)C[C@@H]21
REMARK SMILES IDX 22 1 36 2 46 3 35 4 23 5 45 6 37 7 39 8 38 9 20 10 21 11
REMARK SMILES IDX 5 12 6 13 7 14 8 15 9 17 11 18 12 19 17 20 19 21 15 22 14 23
REMARK SMILES IDX 13 24 18 25 16 26 10 28 3 30 4 31 2 32 1 33 24 34 25 35
REMARK SMILES IDX 26 36 27 38 28 39 29 40 30 41 31 42 32 43 33 44 34 45 40 50
REMARK SMILES IDX 41 51 42 52 43 53 44 54
REMARK H PARENT 6 16 16 27 10 29 26 37 33 46 33 47 34 48 34 49 44 55
ROOT
ATOM      1  N   UNL     1      11.705  -5.691   2.336  1.00  0.00    -0.326 N 
ATOM      2  C   UNL     1       9.938  -6.536   3.642  1.00  0.00     0.014 C 
ATOM      3  C   UNL     1      11.336  -6.875   3.118  1.00  0.00     0.091 C 
ATOM      4  C   UNL     1       9.339  -5.730   2.500  1.00  0.00     0.041 C 
ATOM      5  C   UNL     1      10.525  -4.807   2.166  1.00  0.00     0.175 C 
ATOM      6  C   UNL     1      12.216  -7.261   4.306  1.00  0.00     0.059 C 
ATOM      7  C   UNL     1       9.224  -7.782   4.127  1.00  0.00     0.008 C 
ATOM      8  C   UNL     1      11.445  -7.950   5.452  1.00  0.00     0.143 C 
ATOM      9  C   UNL     1      10.180  -8.673   4.947  1.00  0.00     0.034 C 
ENDROOT
BRANCH   1  10
ATOM     10  C   UNL     1      12.854  -5.430   1.609  1.00  0.00     0.246 C 
ATOM     11  O   UNL     1      13.674  -4.619   2.052  1.00  0.00    -0.272 OA
BRANCH  10  12
ATOM     12  C   UNL     1      13.109  -6.193   0.277  1.00  0.00     0.174 C 
BRANCH  12  13
ATOM     13  N   UNL     1      12.187  -5.717  -0.754  1.00  0.00    -0.342 N 
ATOM     14  C   UNL     1      12.528  -4.883  -1.795  1.00  0.00     0.249 C 
ATOM     15  O   UNL     1      13.662  -4.464  -1.990  1.00  0.00    -0.272 OA
ATOM     16  H   UNL     1      11.186  -5.853  -0.636  1.00  0.00     0.164 HD
BRANCH  14  17
ATOM     17  C   UNL     1      11.328  -4.547  -2.706  1.00  0.00     0.207 C 
BRANCH  17  18
ATOM     18  C   UNL     1      10.671  -5.831  -3.223  1.00  0.00     0.077 C 
BRANCH  18  19
ATOM     19  C   UNL     1       9.180  -5.664  -3.409  1.00  0.00    -0.043 A 
ATOM     20  C   UNL     1       7.099  -4.563  -2.826  1.00  0.00     0.083 A 
ATOM     21  C   UNL     1       8.482  -4.682  -2.688  1.00  0.00     0.028 A 
ATOM     22  C   UNL     1       6.405  -5.422  -3.680  1.00  0.00     0.134 A 
ATOM     23  C   UNL     1       7.084  -6.398  -4.399  1.00  0.00     0.048 A 
ATOM     24  C   UNL     1       8.469  -6.521  -4.263  1.00  0.00     0.008 A 
ATOM     25  Cl  UNL     1       6.258  -3.351  -1.932  1.00  0.00    -0.080 Cl
BRANCH  22  26
ATOM     26  O   UNL     1       5.048  -5.350  -3.839  1.00  0.00    -0.506 OA
ATOM     27  H   UNL     1       4.850  -4.450  -4.157  1.00  0.00     0.293 HD
ENDBRANCH  22  26
ENDBRANCH  18  19
ENDBRANCH  17  18
BRANCH  17  28
ATOM     28  O   UNL     1      11.736  -3.739  -3.822  1.00  0.00    -0.383 OA
ATOM     29  H   UNL     1      11.857  -4.358  -4.577  1.00  0.00     0.211 HD
ENDBRANCH  17  28
ENDBRANCH  14  17
ENDBRANCH  12  13
BRANCH  12  30
ATOM     30  C   UNL     1      13.060  -7.735   0.449  1.00  0.00     0.018 C 
ATOM     31  C   UNL     1      14.289  -8.237   1.223  1.00  0.00     0.010 C 
BRANCH  30  32
ATOM     32  C   UNL     1      12.921  -8.506  -0.886  1.00  0.00     0.002 C 
ATOM     33  C   UNL     1      14.013  -9.530  -1.163  1.00  0.00     0.004 C 
ENDBRANCH  30  32
ENDBRANCH  12  30
ENDBRANCH  10  12
ENDBRANCH   1  10
BRANCH   5  34
ATOM     34  C   UNL     1      10.600  -3.597   3.135  1.00  0.00     0.242 C 
ATOM     35  O   UNL     1      11.311  -3.602   4.140  1.00  0.00    -0.273 OA
ATOM     36  N   UNL     1       9.774  -2.542   2.819  1.00  0.00    -0.354 N 
ATOM     37  H   UNL     1       9.120  -2.645   2.042  1.00  0.00     0.163 HD
BRANCH  36  38
ATOM     38  C   UNL     1       9.872  -1.258   3.482  1.00  0.00     0.116 C 
BRANCH  38  39
ATOM     39  C   UNL     1       8.711  -1.090   4.459  1.00  0.00     0.023 C 
BRANCH  39  40
ATOM     40  C   UNL     1       9.148  -1.228   5.914  1.00  0.00     0.026 C 
BRANCH  40  41
ATOM     41  C   UNL     1      10.432  -0.439   6.171  1.00  0.00     0.146 C 
BRANCH  41  42
ATOM     42  N   UNL     1      11.437  -1.314   6.762  1.00  0.00    -0.254 NA
ATOM     43  C   UNL     1      12.636  -1.292   6.315  1.00  0.00     0.185 C 
ATOM     44  N   UNL     1      13.179  -0.556   5.328  1.00  0.00    -0.370 N 
ATOM     45  N   UNL     1      13.547  -2.109   6.870  1.00  0.00    -0.370 N 
ATOM     46  H   UNL     1      14.063  -0.814   4.923  1.00  0.00     0.159 HD
ATOM     47  H   UNL     1      12.634   0.126   4.810  1.00  0.00     0.159 HD
ATOM     48  H   UNL     1      13.221  -2.693   7.629  1.00  0.00     0.159 HD
ATOM     49  H   UNL     1      14.536  -1.986   6.746  1.00  0.00     0.159 HD
ENDBRANCH  41  42
ENDBRANCH  40  41
ENDBRANCH  39  40
ENDBRANCH  38  39
ENDBRANCH  36  38
ENDBRANCH   5  34
BRANCH   8  50
ATOM     50  O   UNL     1      11.056  -6.985   6.430  1.00  0.00    -0.245 OA
BRANCH  50  51
ATOM     51  S   UNL     1      10.888  -7.439   7.983  1.00  0.00     0.397 S 
ATOM     52  O   UNL     1      12.207  -7.679   8.524  1.00  0.00    -0.169 OA
ATOM     53  O   UNL     1       9.832  -8.424   8.090  1.00  0.00    -0.169 OA
BRANCH  51  54
ATOM     54  O   UNL     1      10.371  -6.082   8.675  1.00  0.00    -0.264 OA
ATOM     55  H   UNL     1      10.753  -6.043   9.576  1.00  0.00     0.236 HD
ENDBRANCH  51  54
ENDBRANCH  50  51
ENDBRANCH   8  50
TORSDOF 19
ENDMDL
MODEL 2
REMARK VINA RESULT:    -7.051      3.354      6.377
REMARK INTER + INTRA:         -17.046
REMARK INTER:                 -12.409
REMARK INTRA:                  -4.637
REMARK UNBOUND:                -2.781
REMARK SMILES CC[C@@H](C)[C@@H](NC(=O)[C@@H](O)Cc1ccc(O)c(Cl)c1)C(=O)N1[C@H](C(=O)NCCCCN=C(N)N)C[C@H]2CC[C@H](OS(=O)(=O)O)C[C@@H]21
REMARK SMILES IDX 22 1 36 2 46 3 35 4 23 5 45 6 37 7 39 8 38 9 20 10 21 11
REMARK SMILES IDX 5 12 6 13 7 14 8 15 9 17 11 18 12 19 17 20 19 21 15 22 14 23
REMARK SMILES IDX 13 24 18 25 16 26 10 28 3 30 4 31 2 32 1 33 24 34 25 35
REMARK SMILES IDX 26 36 27 38 28 39 29 40 30 41 31 42 32 43 33 44 34 45 40 50
REMARK SMILES IDX 41 51 42 52 43 53 44 54
REMARK H PARENT 6 16 16 27 10 29 26 37 33 46 33 47 34 48 34 49 44 55
ROOT
ATOM      1  N   UNL     1       8.042  -3.731   0.701  1.00  0.00    -0.326 N 
ATOM      2  C   UNL     1       8.652  -1.622   1.550  1.00  0.00     0.014 C 
ATOM      3  C   UNL     1       7.542  -2.676   1.587  1.00  0.00     0.091 C 
ATOM      4  C   UNL     1       9.161  -1.721   0.121  1.00  0.00     0.041 C 
ATOM      5  C   UNL     1       9.238  -3.251  -0.035  1.00  0.00     0.175 C 
ATOM      6  C   UNL     1       7.259  -3.029   3.046  1.00  0.00     0.059 C 
ATOM      7  C   UNL     1       8.151  -0.289   2.070  1.00  0.00     0.008 C 
ATOM      8  C   UNL     1       7.477  -1.854   4.023  1.00  0.00     0.143 C 
ATOM      9  C   UNL     1       7.291  -0.487   3.336  1.00  0.00     0.034 C 
ENDROOT
BRANCH   1  10
ATOM     10  C   UNL     1       7.458  -4.930   0.330  1.00  0.00     0.246 C 
ATOM     11  O   UNL     1       7.552  -5.904   1.084  1.00  0.00    -0.272 OA
BRANCH  10  12
ATOM     12  C   UNL     1       6.660  -5.014  -1.004  1.00  0.00     0.174 C 
BRANCH  12  13
ATOM     13  N   UNL     1       7.577  -5.253  -2.119  1.00  0.00    -0.342 N 
ATOM     14  C   UNL     1       7.453  -6.269  -3.040  1.00  0.00     0.249 C 
ATOM     15  O   UNL     1       6.535  -7.079  -3.042  1.00  0.00    -0.272 OA
ATOM     16  H   UNL     1       8.466  -4.762  -2.153  1.00  0.00     0.164 HD
BRANCH  14  17
ATOM     17  C   UNL     1       8.589  -6.267  -4.085  1.00  0.00     0.207 C 
BRANCH  17  18
ATOM     18  C   UNL     1       9.335  -4.929  -4.062  1.00  0.00     0.077 C 
BRANCH  18  19
ATOM     19  C   UNL     1      10.671  -5.042  -3.363  1.00  0.00    -0.043 A 
ATOM     20  C   UNL     1      12.352  -6.388  -2.245  1.00  0.00     0.083 A 
ATOM     21  C   UNL     1      11.142  -6.293  -2.934  1.00  0.00     0.028 A 
ATOM     22  C   UNL     1      13.097  -5.238  -1.981  1.00  0.00     0.134 A 
ATOM     23  C   UNL     1      12.643  -3.993  -2.400  1.00  0.00     0.048 A 
ATOM     24  C   UNL     1      11.431  -3.895  -3.088  1.00  0.00     0.008 A 
ATOM     25  Cl  UNL     1      12.913  -7.934  -1.726  1.00  0.00    -0.080 Cl
BRANCH  22  26
ATOM     26  O   UNL     1      14.283  -5.280  -1.300  1.00  0.00    -0.506 OA
ATOM     27  H   UNL     1      14.991  -5.176  -1.963  1.00  0.00     0.293 HD
ENDBRANCH  22  26
ENDBRANCH  18  19
ENDBRANCH  17  18
BRANCH  17  28
ATOM     28  O   UNL     1       8.076  -6.504  -5.406  1.00  0.00    -0.383 OA
ATOM     29  H   UNL     1       8.792  -6.969  -5.896  1.00  0.00     0.211 HD
ENDBRANCH  17  28
ENDBRANCH  14  17
ENDBRANCH  12  13
BRANCH  12  30
ATOM     30  C   UNL     1       5.751  -3.778  -1.239  1.00  0.00     0.018 C 
ATOM     31  C   UNL     1       4.314  -4.211  -1.567  1.00  0.00     0.010 C 
BRANCH  30  32
ATOM     32  C   UNL     1       6.280  -2.816  -2.331  1.00  0.00     0.002 C 
ATOM     33  C   UNL     1       6.236  -1.337  -1.973  1.00  0.00     0.004 C 
ENDBRANCH  30  32
ENDBRANCH  12  30
ENDBRANCH  10  12
ENDBRANCH   1  10
BRANCH   5  34
ATOM     34  C   UNL     1      10.537  -3.826   0.591  1.00  0.00     0.242 C 
ATOM     35  O   UNL     1      11.498  -3.114   0.880  1.00  0.00    -0.273 OA
ATOM     36  N   UNL     1      10.555  -5.194   0.749  1.00  0.00    -0.354 N 
ATOM     37  H   UNL     1       9.777  -5.741   0.380  1.00  0.00     0.163 HD
BRANCH  36  38
ATOM     38  C   UNL     1      11.586  -5.870   1.508  1.00  0.00     0.116 C 
BRANCH  38  39
ATOM     39  C   UNL     1      10.968  -6.566   2.718  1.00  0.00     0.023 C 
BRANCH  39  40
ATOM     40  C   UNL     1       9.988  -5.669   3.468  1.00  0.00     0.026 C 
BRANCH  40  41
ATOM     41  C   UNL     1      10.134  -5.850   4.978  1.00  0.00     0.146 C 
BRANCH  41  42
ATOM     42  N   UNL     1       9.168  -5.007   5.671  1.00  0.00    -0.254 NA
ATOM     43  C   UNL     1       8.448  -5.505   6.605  1.00  0.00     0.185 C 
ATOM     44  N   UNL     1       8.418  -6.755   7.102  1.00  0.00    -0.370 N 
ATOM     45  N   UNL     1       7.560  -4.713   7.228  1.00  0.00    -0.370 N 
ATOM     46  H   UNL     1       7.642  -7.068   7.659  1.00  0.00     0.159 HD
ATOM     47  H   UNL     1       9.036  -7.482   6.754  1.00  0.00     0.159 HD
ATOM     48  H   UNL     1       7.525  -3.751   6.920  1.00  0.00     0.159 HD
ATOM     49  H   UNL     1       7.140  -4.954   8.108  1.00  0.00     0.159 HD
ENDBRANCH  41  42
ENDBRANCH  40  41
ENDBRANCH  39  40
ENDBRANCH  38  39
ENDBRANCH  36  38
ENDBRANCH   5  34
BRANCH   8  50
ATOM     50  O   UNL     1       8.795  -1.911   4.571  1.00  0.00    -0.245 OA
BRANCH  50  51
ATOM     51  S   UNL     1       9.057  -1.385   6.088  1.00  0.00     0.397 S 
ATOM     52  O   UNL     1       7.886  -1.695   6.877  1.00  0.00    -0.169 OA
ATOM     53  O   UNL     1       9.615  -0.049   6.050  1.00  0.00    -0.169 OA
BRANCH  51  54
ATOM     54  O   UNL     1      10.206  -2.388   6.597  1.00  0.00    -0.264 OA
ATOM     55  H   UNL     1      10.135  -2.453   7.571  1.00  0.00     0.236 HD
ENDBRANCH  51  54
ENDBRANCH  50  51
ENDBRANCH   8  50
TORSDOF 19
ENDMDL
MODEL 3
REMARK VINA RESULT:    -7.029      3.743      8.091
REMARK INTER + INTRA:         -17.001
REMARK INTER:                 -12.561
REMARK INTRA:                  -4.440
REMARK UNBOUND:                -2.781
REMARK SMILES CC[C@@H](C)[C@@H](NC(=O)[C@@H](O)Cc1ccc(O)c(Cl)c1)C(=O)N1[C@H](C(=O)NCCCCN=C(N)N)C[C@H]2CC[C@H](OS(=O)(=O)O)C[C@@H]21
REMARK SMILES IDX 22 1 36 2 46 3 35 4 23 5 45 6 37 7 39 8 38 9 20 10 21 11
REMARK SMILES IDX 5 12 6 13 7 14 8 15 9 17 11 18 12 19 17 20 19 21 15 22 14 23
REMARK SMILES IDX 13 24 18 25 16 26 10 28 3 30 4 31 2 32 1 33 24 34 25 35
REMARK SMILES IDX 26 36 27 38 28 39 29 40 30 41 31 42 32 43 33 44 34 45 40 50
REMARK SMILES IDX 41 51 42 52 43 53 44 54
REMARK H PARENT 6 16 16 27 10 29 26 37 33 46 33 47 34 48 34 49 44 55
ROOT
ATOM      1  N   UNL     1      11.711  -3.907  -2.374  1.00  0.00    -0.326 N 
ATOM      2  C   UNL     1       9.925  -3.293  -3.780  1.00  0.00     0.014 C 
ATOM      3  C   UNL     1      10.878  -4.446  -3.454  1.00  0.00     0.091 C 
ATOM      4  C   UNL     1      10.796  -2.065  -3.558  1.00  0.00     0.041 C 
ATOM      5  C   UNL     1      11.473  -2.449  -2.229  1.00  0.00     0.175 C 
ATOM      6  C   UNL     1      10.046  -5.695  -3.171  1.00  0.00     0.059 C 
ATOM      7  C   UNL     1       9.265  -3.501  -5.129  1.00  0.00     0.008 C 
ATOM      8  C   UNL     1       8.728  -5.758  -3.973  1.00  0.00     0.143 C 
ATOM      9  C   UNL     1       8.816  -4.968  -5.294  1.00  0.00     0.034 C 
ENDROOT
BRANCH   1  10
ATOM     10  C   UNL     1      12.762  -4.490  -1.688  1.00  0.00     0.246 C 
ATOM     11  O   UNL     1      13.881  -3.969  -1.747  1.00  0.00    -0.272 OA
BRANCH  10  12
ATOM     12  C   UNL     1      12.505  -5.761  -0.827  1.00  0.00     0.174 C 
BRANCH  12  13
ATOM     13  N   UNL     1      12.586  -5.424   0.594  1.00  0.00    -0.342 N 
ATOM     14  C   UNL     1      11.554  -5.553   1.496  1.00  0.00     0.249 C 
ATOM     15  O   UNL     1      10.448  -5.995   1.209  1.00  0.00    -0.272 OA
ATOM     16  H   UNL     1      13.385  -4.902   0.943  1.00  0.00     0.164 HD
BRANCH  14  17
ATOM     17  C   UNL     1      11.946  -5.099   2.918  1.00  0.00     0.207 C 
BRANCH  17  18
ATOM     18  C   UNL     1      12.858  -3.869   2.855  1.00  0.00     0.077 C 
BRANCH  18  19
ATOM     19  C   UNL     1      12.754  -3.028   4.107  1.00  0.00    -0.043 A 
ATOM     20  C   UNL     1      11.958  -1.038   5.243  1.00  0.00     0.083 A 
ATOM     21  C   UNL     1      12.011  -1.837   4.100  1.00  0.00     0.028 A 
ATOM     22  C   UNL     1      12.645  -1.420   6.395  1.00  0.00     0.134 A 
ATOM     23  C   UNL     1      13.385  -2.597   6.416  1.00  0.00     0.048 A 
ATOM     24  C   UNL     1      13.442  -3.398   5.273  1.00  0.00     0.008 A 
ATOM     25  Cl  UNL     1      11.040   0.422   5.215  1.00  0.00    -0.080 Cl
BRANCH  22  26
ATOM     26  O   UNL     1      12.632  -0.664   7.536  1.00  0.00    -0.506 OA
ATOM     27  H   UNL     1      12.772  -1.277   8.281  1.00  0.00     0.293 HD
ENDBRANCH  22  26
ENDBRANCH  18  19
ENDBRANCH  17  18
BRANCH  17  28
ATOM     28  O   UNL     1      12.613  -6.152   3.632  1.00  0.00    -0.383 OA
ATOM     29  H   UNL     1      11.904  -6.679   4.065  1.00  0.00     0.211 HD
ENDBRANCH  17  28
ENDBRANCH  14  17
ENDBRANCH  12  13
BRANCH  12  30
ATOM     30  C   UNL     1      13.435  -6.943  -1.210  1.00  0.00     0.018 C 
ATOM     31  C   UNL     1      13.248  -7.330  -2.685  1.00  0.00     0.010 C 
BRANCH  30  32
ATOM     32  C   UNL     1      13.260  -8.189  -0.307  1.00  0.00     0.002 C 
ATOM     33  C   UNL     1      13.294  -9.528  -1.031  1.00  0.00     0.004 C 
ENDBRANCH  30  32
ENDBRANCH  12  30
ENDBRANCH  10  12
ENDBRANCH   1  10
BRANCH   5  34
ATOM     34  C   UNL     1      10.552  -2.161  -1.013  1.00  0.00     0.242 C 
ATOM     35  O   UNL     1      10.400  -2.969  -0.097  1.00  0.00    -0.273 OA
ATOM     36  N   UNL     1       9.878  -0.961  -1.061  1.00  0.00    -0.354 N 
ATOM     37  H   UNL     1       9.952  -0.389  -1.903  1.00  0.00     0.163 HD
BRANCH  36  38
ATOM     38  C   UNL     1       9.151  -0.437   0.077  1.00  0.00     0.116 C 
BRANCH  38  39
ATOM     39  C   UNL     1       7.726  -0.079  -0.338  1.00  0.00     0.023 C 
BRANCH  39  40
ATOM     40  C   UNL     1       6.877  -1.312  -0.630  1.00  0.00     0.026 C 
BRANCH  40  41
ATOM     41  C   UNL     1       6.510  -2.037   0.664  1.00  0.00     0.146 C 
BRANCH  41  42
ATOM     42  N   UNL     1       6.507  -3.476   0.439  1.00  0.00    -0.254 NA
ATOM     43  C   UNL     1       7.344  -4.217   1.063  1.00  0.00     0.185 C 
ATOM     44  N   UNL     1       8.295  -3.886   1.956  1.00  0.00    -0.370 N 
ATOM     45  N   UNL     1       7.327  -5.541   0.838  1.00  0.00    -0.370 N 
ATOM     46  H   UNL     1       9.035  -4.529   2.179  1.00  0.00     0.159 HD
ATOM     47  H   UNL     1       8.436  -2.925   2.252  1.00  0.00     0.159 HD
ATOM     48  H   UNL     1       6.633  -5.876   0.184  1.00  0.00     0.159 HD
ATOM     49  H   UNL     1       7.774  -6.202   1.448  1.00  0.00     0.159 HD
ENDBRANCH  41  42
ENDBRANCH  40  41
ENDBRANCH  39  40
ENDBRANCH  38  39
ENDBRANCH  36  38
ENDBRANCH   5  34
BRANCH   8  50
ATOM     50  O   UNL     1       7.655  -5.225  -3.196  1.00  0.00    -0.245 OA
BRANCH  50  51
ATOM     51  S   UNL     1       6.242  -6.027  -3.121  1.00  0.00     0.397 S 
ATOM     52  O   UNL     1       6.531  -7.443  -3.148  1.00  0.00    -0.169 OA
ATOM     53  O   UNL     1       5.294  -5.427  -4.037  1.00  0.00    -0.169 OA
BRANCH  51  54
ATOM     54  O   UNL     1       5.754  -5.708  -1.623  1.00  0.00    -0.264 OA
ATOM     55  H   UNL     1       5.262  -6.489  -1.296  1.00  0.00     0.236 HD
ENDBRANCH  51  54
ENDBRANCH  50  51
ENDBRANCH   8  50
TORSDOF 19
ENDMDL
MODEL 4
REMARK VINA RESULT:    -6.976      3.011      5.734
REMARK INTER + INTRA:         -16.893
REMARK INTER:                 -13.003
REMARK INTRA:                  -3.890
REMARK UNBOUND:                -2.781
REMARK SMILES CC[C@@H](C)[C@@H](NC(=O)[C@@H](O)Cc1ccc(O)c(Cl)c1)C(=O)N1[C@H](C(=O)NCCCCN=C(N)N)C[C@H]2CC[C@H](OS(=O)(=O)O)C[C@@H]21
REMARK SMILES IDX 22 1 36 2 46 3 35 4 23 5 45 6 37 7 39 8 38 9 20 10 21 11
REMARK SMILES IDX 5 12 6 13 7 14 8 15 9 17 11 18 12 19 17 20 19 21 15 22 14 23
REMARK SMILES IDX 13 24 18 25 16 26 10 28 3 30 4 31 2 32 1 33 24 34 25 35
REMARK SMILES IDX 26 36 27 38 28 39 29 40 30 41 31 42 32 43 33 44 34 45 40 50
REMARK SMILES IDX 41 51 42 52 43 53 44 54
REMARK H PARENT 6 16 16 27 10 29 26 37 33 46 33 47 34 48 34 49 44 55
ROOT
ATOM      1  N   UNL     1      10.806  -3.379   2.948  1.00  0.00    -0.326 N 
ATOM      2  C   UNL     1      12.786  -3.067   4.182  1.00  0.00     0.014 C 
ATOM      3  C   UNL     1      11.811  -2.353   3.242  1.00  0.00     0.091 C 
ATOM      4  C   UNL     1      12.777  -4.493   3.655  1.00  0.00     0.041 C 
ATOM      5  C   UNL     1      11.265  -4.698   3.449  1.00  0.00     0.175 C 
ATOM      6  C   UNL     1      11.352  -1.060   3.912  1.00  0.00     0.059 C 
ATOM      7  C   UNL     1      14.100  -2.316   4.273  1.00  0.00     0.008 C 
ATOM      8  C   UNL     1      12.420  -0.421   4.827  1.00  0.00     0.143 C 
ATOM      9  C   UNL     1      13.852  -0.798   4.396  1.00  0.00     0.034 C 
ENDROOT
BRANCH   1  10
ATOM     10  C   UNL     1       9.687  -3.318   2.136  1.00  0.00     0.246 C 
ATOM     11  O   UNL     1       8.921  -2.353   2.239  1.00  0.00    -0.272 OA
BRANCH  10  12
ATOM     12  C   UNL     1       9.440  -4.438   1.084  1.00  0.00     0.174 C 
BRANCH  12  13
ATOM     13  N   UNL     1      10.409  -4.323  -0.005  1.00  0.00    -0.342 N 
ATOM     14  C   UNL     1      11.429  -5.214  -0.253  1.00  0.00     0.249 C 
ATOM     15  O   UNL     1      11.621  -6.230   0.403  1.00  0.00    -0.272 OA
ATOM     16  H   UNL     1      10.472  -3.456  -0.533  1.00  0.00     0.164 HD
BRANCH  14  17
ATOM     17  C   UNL     1      12.294  -4.807  -1.464  1.00  0.00     0.207 C 
BRANCH  17  18
ATOM     18  C   UNL     1      12.005  -5.719  -2.660  1.00  0.00     0.077 C 
BRANCH  18  19
ATOM     19  C   UNL     1      10.797  -5.254  -3.442  1.00  0.00    -0.043 A 
ATOM     20  C   UNL     1       8.646  -5.720  -4.464  1.00  0.00     0.083 A 
ATOM     21  C   UNL     1       9.737  -6.138  -3.700  1.00  0.00     0.028 A 
ATOM     22  C   UNL     1       8.607  -4.422  -4.974  1.00  0.00     0.134 A 
ATOM     23  C   UNL     1       9.650  -3.537  -4.726  1.00  0.00     0.048 A 
ATOM     24  C   UNL     1      10.744  -3.952  -3.964  1.00  0.00     0.008 A 
ATOM     25  Cl  UNL     1       7.355  -6.821  -4.771  1.00  0.00    -0.080 Cl
BRANCH  22  26
ATOM     26  O   UNL     1       7.564  -3.971  -5.737  1.00  0.00    -0.506 OA
ATOM     27  H   UNL     1       7.679  -3.007  -5.826  1.00  0.00     0.293 HD
ENDBRANCH  22  26
ENDBRANCH  18  19
ENDBRANCH  17  18
BRANCH  17  28
ATOM     28  O   UNL     1      13.694  -4.869  -1.145  1.00  0.00    -0.383 OA
ATOM     29  H   UNL     1      13.760  -5.396  -0.316  1.00  0.00     0.211 HD
ENDBRANCH  17  28
ENDBRANCH  14  17
ENDBRANCH  12  13
BRANCH  12  30
ATOM     30  C   UNL     1       7.975  -4.468   0.572  1.00  0.00     0.018 C 
ATOM     31  C   UNL     1       7.092  -5.329   1.491  1.00  0.00     0.010 C 
BRANCH  30  32
ATOM     32  C   UNL     1       7.838  -4.944  -0.895  1.00  0.00     0.002 C 
ATOM     33  C   UNL     1       6.538  -4.558  -1.586  1.00  0.00     0.004 C 
ENDBRANCH  30  32
ENDBRANCH  12  30
ENDBRANCH  10  12
ENDBRANCH   1  10
BRANCH   5  34
ATOM     34  C   UNL     1      10.551  -5.062   4.778  1.00  0.00     0.242 C 
ATOM     35  O   UNL     1       9.478  -4.556   5.108  1.00  0.00    -0.273 OA
ATOM     36  N   UNL     1      11.229  -5.948   5.584  1.00  0.00    -0.354 N 
ATOM     37  H   UNL     1      12.169  -6.239   5.312  1.00  0.00     0.163 HD
BRANCH  36  38
ATOM     38  C   UNL     1      10.619  -6.558   6.747  1.00  0.00     0.116 C 
BRANCH  38  39
ATOM     39  C   UNL     1      11.524  -7.663   7.287  1.00  0.00     0.023 C 
BRANCH  39  40
ATOM     40  C   UNL     1      12.970  -7.508   6.829  1.00  0.00     0.026 C 
BRANCH  40  41
ATOM     41  C   UNL     1      13.368  -8.651   5.895  1.00  0.00     0.146 C 
BRANCH  41  42
ATOM     42  N   UNL     1      13.400  -8.174   4.519  1.00  0.00    -0.254 NA
ATOM     43  C   UNL     1      12.465  -8.509   3.711  1.00  0.00     0.185 C 
ATOM     44  N   UNL     1      11.379  -9.276   3.915  1.00  0.00    -0.370 N 
ATOM     45  N   UNL     1      12.515  -8.062   2.445  1.00  0.00    -0.370 N 
ATOM     46  H   UNL     1      10.865  -9.654   3.137  1.00  0.00     0.159 HD
ATOM     47  H   UNL     1      11.178  -9.686   4.822  1.00  0.00     0.159 HD
ATOM     48  H   UNL     1      13.299  -7.469   2.210  1.00  0.00     0.159 HD
ATOM     49  H   UNL     1      11.721  -8.079   1.830  1.00  0.00     0.159 HD
ENDBRANCH  41  42
ENDBRANCH  40  41
ENDBRANCH  39  40
ENDBRANCH  38  39
ENDBRANCH  36  38
ENDBRANCH   5  34
BRANCH   8  50
ATOM     50  O   UNL     1      12.227  -0.845   6.177  1.00  0.00    -0.245 OA
BRANCH  50  51
ATOM     51  S   UNL     1      11.924   0.261   7.330  1.00  0.00     0.397 S 
ATOM     52  O   UNL     1      10.575   0.053   7.805  1.00  0.00    -0.169 OA
ATOM     53  O   UNL     1      12.381   1.562   6.887  1.00  0.00    -0.169 OA
BRANCH  51  54
ATOM     54  O   UNL     1      12.888  -0.224   8.522  1.00  0.00    -0.264 OA
ATOM     55  H   UNL     1      12.908  -1.203   8.509  1.00  0.00     0.236 HD
ENDBRANCH  51  54
ENDBRANCH  50  51
ENDBRANCH   8  50
TORSDOF 19
ENDMDL
MODEL 5
REMARK VINA RESULT:    -6.963      5.312     10.646
REMARK INTER + INTRA:         -16.868
REMARK INTER:                 -12.638
REMARK INTRA:                  -4.230
REMARK UNBOUND:                -2.781
REMARK SMILES CC[C@@H](C)[C@@H](NC(=O)[C@@H](O)Cc1ccc(O)c(Cl)c1)C(=O)N1[C@H](C(=O)NCCCCN=C(N)N)C[C@H]2CC[C@H](OS(=O)(=O)O)C[C@@H]21
REMARK SMILES IDX 22 1 36 2 46 3 35 4 23 5 45 6 37 7 39 8 38 9 20 10 21 11
REMARK SMILES IDX 5 12 6 13 7 14 8 15 9 17 11 18 12 19 17 20 19 21 15 22 14 23
REMARK SMILES IDX 13 24 18 25 16 26 10 28 3 30 4 31 2 32 1 33 24 34 25 35
REMARK SMILES IDX 26 36 27 38 28 39 29 40 30 41 31 42 32 43 33 44 34 45 40 50
REMARK SMILES IDX 41 51 42 52 43 53 44 54
REMARK H PARENT 6 16 16 27 10 29 26 37 33 46 33 47 34 48 34 49 44 55
ROOT
ATOM      1  N   UNL     1       5.197  -1.971  -0.399  1.00  0.00    -0.326 N 
ATOM      2  C   UNL     1       7.407  -2.741  -0.649  1.00  0.00     0.014 C 
ATOM      3  C   UNL     1       6.024  -3.153  -0.138  1.00  0.00     0.091 C 
ATOM      4  C   UNL     1       7.458  -1.257  -0.321  1.00  0.00     0.041 C 
ATOM      5  C   UNL     1       6.056  -0.827  -0.791  1.00  0.00     0.175 C 
ATOM      6  C   UNL     1       5.635  -4.471  -0.805  1.00  0.00     0.059 C 
ATOM      7  C   UNL     1       8.483  -3.660  -0.104  1.00  0.00     0.008 C 
ATOM      8  C   UNL     1       6.837  -5.388  -1.118  1.00  0.00     0.143 C 
ATOM      9  C   UNL     1       8.023  -5.132  -0.166  1.00  0.00     0.034 C 
ENDROOT
BRANCH   1  10
ATOM     10  C   UNL     1       3.857  -1.748  -0.129  1.00  0.00     0.246 C 
ATOM     11  O   UNL     1       3.004  -2.245  -0.872  1.00  0.00    -0.272 OA
BRANCH  10  12
ATOM     12  C   UNL     1       3.455  -0.916   1.122  1.00  0.00     0.174 C 
BRANCH  12  13
ATOM     13  N   UNL     1       4.299  -1.285   2.259  1.00  0.00    -0.342 N 
ATOM     14  C   UNL     1       5.215  -0.455   2.865  1.00  0.00     0.249 C 
ATOM     15  O   UNL     1       5.406   0.708   2.532  1.00  0.00    -0.272 OA
ATOM     16  H   UNL     1       4.364  -2.259   2.542  1.00  0.00     0.164 HD
BRANCH  14  17
ATOM     17  C   UNL     1       5.963  -1.141   4.027  1.00  0.00     0.207 C 
BRANCH  17  18
ATOM     18  C   UNL     1       6.895  -2.234   3.493  1.00  0.00     0.077 C 
BRANCH  18  19
ATOM     19  C   UNL     1       7.956  -2.610   4.502  1.00  0.00    -0.043 A 
ATOM     20  C   UNL     1       9.602  -1.963   6.163  1.00  0.00     0.083 A 
ATOM     21  C   UNL     1       8.588  -1.618   5.269  1.00  0.00     0.028 A 
ATOM     22  C   UNL     1       9.991  -3.296   6.297  1.00  0.00     0.134 A 
ATOM     23  C   UNL     1       9.374  -4.288   5.544  1.00  0.00     0.048 A 
ATOM     24  C   UNL     1       8.360  -3.946   4.647  1.00  0.00     0.008 A 
ATOM     25  Cl  UNL     1      10.366  -0.730   7.096  1.00  0.00    -0.080 Cl
BRANCH  22  26
ATOM     26  O   UNL     1      10.987  -3.682   7.153  1.00  0.00    -0.506 OA
ATOM     27  H   UNL     1      11.766  -3.885   6.603  1.00  0.00     0.293 HD
ENDBRANCH  22  26
ENDBRANCH  18  19
ENDBRANCH  17  18
BRANCH  17  28
ATOM     28  O   UNL     1       5.042  -1.719   4.966  1.00  0.00    -0.383 OA
ATOM     29  H   UNL     1       5.558  -2.378   5.484  1.00  0.00     0.211 HD
ENDBRANCH  17  28
ENDBRANCH  14  17
ENDBRANCH  12  13
BRANCH  12  30
ATOM     30  C   UNL     1       1.941  -1.020   1.450  1.00  0.00     0.018 C 
ATOM     31  C   UNL     1       1.196   0.245   0.996  1.00  0.00     0.010 C 
BRANCH  30  32
ATOM     32  C   UNL     1       1.647  -1.303   2.944  1.00  0.00     0.002 C 
ATOM     33  C   UNL     1       0.884  -0.207   3.677  1.00  0.00     0.004 C 
ENDBRANCH  30  32
ENDBRANCH  12  30
ENDBRANCH  10  12
ENDBRANCH   1  10
BRANCH   5  34
ATOM     34  C   UNL     1       6.010  -0.604  -2.326  1.00  0.00     0.242 C 
ATOM     35  O   UNL     1       5.314  -1.295  -3.070  1.00  0.00    -0.273 OA
ATOM     36  N   UNL     1       6.844   0.384  -2.800  1.00  0.00    -0.354 N 
ATOM     37  H   UNL     1       7.485   0.840  -2.149  1.00  0.00     0.163 HD
BRANCH  36  38
ATOM     38  C   UNL     1       6.771   0.869  -4.163  1.00  0.00     0.116 C 
BRANCH  38  39
ATOM     39  C   UNL     1       8.098   0.615  -4.874  1.00  0.00     0.023 C 
BRANCH  39  40
ATOM     40  C   UNL     1       7.912   0.265  -6.347  1.00  0.00     0.026 C 
BRANCH  40  41
ATOM     41  C   UNL     1       7.208  -1.084  -6.499  1.00  0.00     0.146 C 
BRANCH  41  42
ATOM     42  N   UNL     1       8.195  -2.155  -6.521  1.00  0.00    -0.254 NA
ATOM     43  C   UNL     1       8.254  -2.983  -5.546  1.00  0.00     0.185 C 
ATOM     44  N   UNL     1       7.515  -3.050  -4.423  1.00  0.00    -0.370 N 
ATOM     45  N   UNL     1       9.174  -3.960  -5.584  1.00  0.00    -0.370 N 
ATOM     46  H   UNL     1       7.827  -3.595  -3.637  1.00  0.00     0.159 HD
ATOM     47  H   UNL     1       6.763  -2.394  -4.239  1.00  0.00     0.159 HD
ATOM     48  H   UNL     1       9.767  -3.986  -6.402  1.00  0.00     0.159 HD
ATOM     49  H   UNL     1       9.130  -4.771  -4.993  1.00  0.00     0.159 HD
ENDBRANCH  41  42
ENDBRANCH  40  41
ENDBRANCH  39  40
ENDBRANCH  38  39
ENDBRANCH  36  38
ENDBRANCH   5  34
BRANCH   8  50
ATOM     50  O   UNL     1       7.279  -5.178  -2.459  1.00  0.00    -0.245 OA
BRANCH  50  51
ATOM     51  S   UNL     1       7.029  -6.333  -3.577  1.00  0.00     0.397 S 
ATOM     52  O   UNL     1       6.607  -7.533  -2.892  1.00  0.00    -0.169 OA
ATOM     53  O   UNL     1       8.129  -6.343  -4.519  1.00  0.00    -0.169 OA
BRANCH  51  54
ATOM     54  O   UNL     1       5.726  -5.784  -4.342  1.00  0.00    -0.264 OA
ATOM     55  H   UNL     1       5.381  -6.509  -4.902  1.00  0.00     0.236 HD
ENDBRANCH  51  54
ENDBRANCH  50  51
ENDBRANCH   8  50
TORSDOF 19
ENDMDL
MODEL 6
REMARK VINA RESULT:    -6.931      5.991     10.062
REMARK INTER + INTRA:         -16.802
REMARK INTER:                 -12.028
REMARK INTRA:                  -4.775
REMARK UNBOUND:                -2.781
REMARK SMILES CC[C@@H](C)[C@@H](NC(=O)[C@@H](O)Cc1ccc(O)c(Cl)c1)C(=O)N1[C@H](C(=O)NCCCCN=C(N)N)C[C@H]2CC[C@H](OS(=O)(=O)O)C[C@@H]21
REMARK SMILES IDX 22 1 36 2 46 3 35 4 23 5 45 6 37 7 39 8 38 9 20 10 21 11
REMARK SMILES IDX 5 12 6 13 7 14 8 15 9 17 11 18 12 19 17 20 19 21 15 22 14 23
REMARK SMILES IDX 13 24 18 25 16 26 10 28 3 30 4 31 2 32 1 33 24 34 25 35
REMARK SMILES IDX 26 36 27 38 28 39 29 40 30 41 31 42 32 43 33 44 34 45 40 50
REMARK SMILES IDX 41 51 42 52 43 53 44 54
REMARK H PARENT 6 16 16 27 10 29 26 37 33 46 33 47 34 48 34 49 44 55
ROOT
ATOM      1  N   UNL     1       5.513  -0.732   5.143  1.00  0.00    -0.326 N 
ATOM      2  C   UNL     1       3.507   0.394   4.643  1.00  0.00     0.014 C 
ATOM      3  C   UNL     1       4.586   0.246   5.719  1.00  0.00     0.091 C 
ATOM      4  C   UNL     1       3.420  -1.009   4.061  1.00  0.00     0.041 C 
ATOM      5  C   UNL     1       4.917  -1.342   3.928  1.00  0.00     0.175 C 
ATOM      6  C   UNL     1       5.120   1.636   6.061  1.00  0.00     0.059 C 
ATOM      7  C   UNL     1       2.259   1.042   5.211  1.00  0.00     0.008 C 
ATOM      8  C   UNL     1       4.066   2.757   5.929  1.00  0.00     0.143 C 
ATOM      9  C   UNL     1       2.631   2.228   6.125  1.00  0.00     0.034 C 
ENDROOT
BRANCH   1  10
ATOM     10  C   UNL     1       6.673  -1.273   5.670  1.00  0.00     0.246 C 
ATOM     11  O   UNL     1       6.686  -1.632   6.852  1.00  0.00    -0.272 OA
BRANCH  10  12
ATOM     12  C   UNL     1       7.918  -1.458   4.755  1.00  0.00     0.174 C 
BRANCH  12  13
ATOM     13  N   UNL     1       8.194  -2.882   4.569  1.00  0.00    -0.342 N 
ATOM     14  C   UNL     1       8.259  -3.522   3.352  1.00  0.00     0.249 C 
ATOM     15  O   UNL     1       8.119  -2.955   2.275  1.00  0.00    -0.272 OA
ATOM     16  H   UNL     1       8.177  -3.507   5.371  1.00  0.00     0.164 HD
BRANCH  14  17
ATOM     17  C   UNL     1       8.551  -5.032   3.487  1.00  0.00     0.207 C 
BRANCH  17  18
ATOM     18  C   UNL     1      10.000  -5.335   3.094  1.00  0.00     0.077 C 
BRANCH  18  19
ATOM     19  C   UNL     1      10.983  -4.775   4.097  1.00  0.00    -0.043 A 
ATOM     20  C   UNL     1      12.833  -3.298   4.630  1.00  0.00     0.083 A 
ATOM     21  C   UNL     1      11.894  -3.777   3.716  1.00  0.00     0.028 A 
ATOM     22  C   UNL     1      12.869  -3.811   5.927  1.00  0.00     0.134 A 
ATOM     23  C   UNL     1      11.973  -4.799   6.318  1.00  0.00     0.048 A 
ATOM     24  C   UNL     1      11.033  -5.282   5.405  1.00  0.00     0.008 A 
ATOM     25  Cl  UNL     1      13.943  -2.073   4.142  1.00  0.00    -0.080 Cl
BRANCH  22  26
ATOM     26  O   UNL     1      13.778  -3.381   6.855  1.00  0.00    -0.506 OA
ATOM     27  H   UNL     1      13.600  -3.879   7.674  1.00  0.00     0.293 HD
ENDBRANCH  22  26
ENDBRANCH  18  19
ENDBRANCH  17  18
BRANCH  17  28
ATOM     28  O   UNL     1       7.662  -5.806   2.666  1.00  0.00    -0.383 OA
ATOM     29  H   UNL     1       8.215  -6.509   2.255  1.00  0.00     0.211 HD
ENDBRANCH  17  28
ENDBRANCH  14  17
ENDBRANCH  12  13
BRANCH  12  30
ATOM     30  C   UNL     1       9.158  -0.676   5.265  1.00  0.00     0.018 C 
ATOM     31  C   UNL     1      10.035  -0.215   4.089  1.00  0.00     0.010 C 
BRANCH  30  32
ATOM     32  C   UNL     1      10.012  -1.463   6.289  1.00  0.00     0.002 C 
ATOM     33  C   UNL     1      11.114  -0.662   6.970  1.00  0.00     0.004 C 
ENDBRANCH  30  32
ENDBRANCH  12  30
ENDBRANCH  10  12
ENDBRANCH   1  10
BRANCH   5  34
ATOM     34  C   UNL     1       5.529  -0.722   2.644  1.00  0.00     0.242 C 
ATOM     35  O   UNL     1       6.093   0.373   2.646  1.00  0.00    -0.273 OA
ATOM     36  N   UNL     1       5.349  -1.458   1.495  1.00  0.00    -0.354 N 
ATOM     37  H   UNL     1       4.770  -2.298   1.535  1.00  0.00     0.163 HD
BRANCH  36  38
ATOM     38  C   UNL     1       6.033  -1.141   0.258  1.00  0.00     0.116 C 
BRANCH  38  39
ATOM     39  C   UNL     1       5.018  -0.724  -0.804  1.00  0.00     0.023 C 
BRANCH  39  40
ATOM     40  C   UNL     1       3.598  -0.646  -0.253  1.00  0.00     0.026 C 
BRANCH  40  41
ATOM     41  C   UNL     1       3.085   0.794  -0.278  1.00  0.00     0.146 C 
BRANCH  41  42
ATOM     42  N   UNL     1       4.156   1.705   0.105  1.00  0.00    -0.254 NA
ATOM     43  C   UNL     1       4.008   2.461   1.128  1.00  0.00     0.185 C 
ATOM     44  N   UNL     1       2.970   2.577   1.976  1.00  0.00    -0.370 N 
ATOM     45  N   UNL     1       5.005   3.296   1.462  1.00  0.00    -0.370 N 
ATOM     46  H   UNL     1       2.889   3.376   2.581  1.00  0.00     0.159 HD
ATOM     47  H   UNL     1       2.135   2.007   1.877  1.00  0.00     0.159 HD
ATOM     48  H   UNL     1       5.830   3.266   0.878  1.00  0.00     0.159 HD
ATOM     49  H   UNL     1       5.067   3.737   2.362  1.00  0.00     0.159 HD
ENDBRANCH  41  42
ENDBRANCH  40  41
ENDBRANCH  39  40
ENDBRANCH  38  39
ENDBRANCH  36  38
ENDBRANCH   5  34
BRANCH   8  50
ATOM     50  O   UNL     1       4.154   3.362   4.638  1.00  0.00    -0.245 OA
BRANCH  50  51
ATOM     51  S   UNL     1       4.407   4.964   4.519  1.00  0.00     0.397 S 
ATOM     52  O   UNL     1       3.929   5.584   5.734  1.00  0.00    -0.169 OA
ATOM     53  O   UNL     1       3.983   5.427   3.213  1.00  0.00    -0.169 OA
BRANCH  51  54
ATOM     54  O   UNL     1       6.011   5.057   4.581  1.00  0.00    -0.264 OA
ATOM     55  H   UNL     1       6.284   4.879   5.504  1.00  0.00     0.236 HD
ENDBRANCH  51  54
ENDBRANCH  50  51
ENDBRANCH   8  50
TORSDOF 19
ENDMDL
MODEL 7
REMARK VINA RESULT:    -6.851      1.745      2.697
REMARK INTER + INTRA:         -16.641
REMARK INTER:                 -12.664
REMARK INTRA:                  -3.977
REMARK UNBOUND:                -2.781
REMARK SMILES CC[C@@H](C)[C@@H](NC(=O)[C@@H](O)Cc1ccc(O)c(Cl)c1)C(=O)N1[C@H](C(=O)NCCCCN=C(N)N)C[C@H]2CC[C@H](OS(=O)(=O)O)C[C@@H]21
REMARK SMILES IDX 22 1 36 2 46 3 35 4 23 5 45 6 37 7 39 8 38 9 20 10 21 11
REMARK SMILES IDX 5 12 6 13 7 14 8 15 9 17 11 18 12 19 17 20 19 21 15 22 14 23
REMARK SMILES IDX 13 24 18 25 16 26 10 28 3 30 4 31 2 32 1 33 24 34 25 35
REMARK SMILES IDX 26 36 27 38 28 39 29 40 30 41 31 42 32 43 33 44 34 45 40 50
REMARK SMILES IDX 41 51 42 52 43 53 44 54
REMARK H PARENT 6 16 16 27 10 29 26 37 33 46 33 47 34 48 34 49 44 55
ROOT
ATOM      1  N   UNL     1      12.305  -5.012   1.284  1.00  0.00    -0.326 N 
ATOM      2  C   UNL     1      10.398  -3.799   1.944  1.00  0.00     0.014 C 
ATOM      3  C   UNL     1      10.867  -5.189   1.504  1.00  0.00     0.091 C 
ATOM      4  C   UNL     1      11.291  -2.873   1.133  1.00  0.00     0.041 C 
ATOM      5  C   UNL     1      12.651  -3.570   1.323  1.00  0.00     0.175 C 
ATOM      6  C   UNL     1      10.414  -6.205   2.551  1.00  0.00     0.059 C 
ATOM      7  C   UNL     1       8.892  -3.672   1.826  1.00  0.00     0.008 C 
ATOM      8  C   UNL     1       9.086  -5.833   3.245  1.00  0.00     0.143 C 
ATOM      9  C   UNL     1       8.195  -4.944   2.353  1.00  0.00     0.034 C 
ENDROOT
BRANCH   1  10
ATOM     10  C   UNL     1      13.256  -5.923   0.857  1.00  0.00     0.246 C 
ATOM     11  O   UNL     1      13.787  -6.671   1.685  1.00  0.00    -0.272 OA
BRANCH  10  12
ATOM     12  C   UNL     1      13.605  -6.015  -0.657  1.00  0.00     0.174 C 
BRANCH  12  13
ATOM     13  N   UNL     1      12.464  -5.575  -1.459  1.00  0.00    -0.342 N 
ATOM     14  C   UNL     1      12.455  -4.468  -2.278  1.00  0.00     0.249 C 
ATOM     15  O   UNL     1      13.422  -3.737  -2.449  1.00  0.00    -0.272 OA
ATOM     16  H   UNL     1      11.548  -5.988  -1.302  1.00  0.00     0.164 HD
BRANCH  14  17
ATOM     17  C   UNL     1      11.095  -4.258  -2.979  1.00  0.00     0.207 C 
BRANCH  17  18
ATOM     18  C   UNL     1      10.379  -5.598  -3.172  1.00  0.00     0.077 C 
BRANCH  18  19
ATOM     19  C   UNL     1       8.878  -5.427  -3.250  1.00  0.00    -0.043 A 
ATOM     20  C   UNL     1       6.805  -4.594  -2.307  1.00  0.00     0.083 A 
ATOM     21  C   UNL     1       8.195  -4.707  -2.258  1.00  0.00     0.028 A 
ATOM     22  C   UNL     1       6.091  -5.197  -3.342  1.00  0.00     0.134 A 
ATOM     23  C   UNL     1       6.755  -5.913  -4.332  1.00  0.00     0.048 A 
ATOM     24  C   UNL     1       8.146  -6.030  -4.284  1.00  0.00     0.008 A 
ATOM     25  Cl  UNL     1       5.983  -3.705  -1.079  1.00  0.00    -0.080 Cl
BRANCH  22  26
ATOM     26  O   UNL     1       4.727  -5.122  -3.427  1.00  0.00    -0.506 OA
ATOM     27  H   UNL     1       4.381  -5.287  -2.530  1.00  0.00     0.293 HD
ENDBRANCH  22  26
ENDBRANCH  18  19
ENDBRANCH  17  18
BRANCH  17  28
ATOM     28  O   UNL     1      11.264  -3.620  -4.255  1.00  0.00    -0.383 OA
ATOM     29  H   UNL     1      12.235  -3.570  -4.407  1.00  0.00     0.211 HD
ENDBRANCH  17  28
ENDBRANCH  14  17
ENDBRANCH  12  13
BRANCH  12  30
ATOM     30  C   UNL     1      14.112  -7.423  -1.071  1.00  0.00     0.018 C 
ATOM     31  C   UNL     1      14.772  -7.379  -2.458  1.00  0.00     0.010 C 
BRANCH  30  32
ATOM     32  C   UNL     1      13.014  -8.514  -1.038  1.00  0.00     0.002 C 
ATOM     33  C   UNL     1      13.523  -9.950  -1.042  1.00  0.00     0.004 C 
ENDBRANCH  30  32
ENDBRANCH  12  30
ENDBRANCH  10  12
ENDBRANCH   1  10
BRANCH   5  34
ATOM     34  C   UNL     1      13.300  -3.196   2.682  1.00  0.00     0.242 C 
ATOM     35  O   UNL     1      13.272  -3.951   3.654  1.00  0.00    -0.273 OA
ATOM     36  N   UNL     1      13.862  -1.940   2.737  1.00  0.00    -0.354 N 
ATOM     37  H   UNL     1      13.749  -1.316   1.938  1.00  0.00     0.163 HD
BRANCH  36  38
ATOM     38  C   UNL     1      14.693  -1.513   3.844  1.00  0.00     0.116 C 
BRANCH  38  39
ATOM     39  C   UNL     1      14.465  -0.028   4.120  1.00  0.00     0.023 C 
BRANCH  39  40
ATOM     40  C   UNL     1      13.044   0.266   4.588  1.00  0.00     0.026 C 
BRANCH  40  41
ATOM     41  C   UNL     1      12.536  -0.843   5.508  1.00  0.00     0.146 C 
BRANCH  41  42
ATOM     42  N   UNL     1      11.265  -1.352   5.010  1.00  0.00    -0.254 NA
ATOM     43  C   UNL     1      10.425  -1.868   5.828  1.00  0.00     0.185 C 
ATOM     44  N   UNL     1      10.506  -2.037   7.160  1.00  0.00    -0.370 N 
ATOM     45  N   UNL     1       9.261  -2.336   5.348  1.00  0.00    -0.370 N 
ATOM     46  H   UNL     1       9.887  -2.671   7.635  1.00  0.00     0.159 HD
ATOM     47  H   UNL     1      11.316  -1.726   7.688  1.00  0.00     0.159 HD
ATOM     48  H   UNL     1       9.115  -2.239   4.352  1.00  0.00     0.159 HD
ATOM     49  H   UNL     1       8.469  -2.530   5.935  1.00  0.00     0.159 HD
ENDBRANCH  41  42
ENDBRANCH  40  41
ENDBRANCH  39  40
ENDBRANCH  38  39
ENDBRANCH  36  38
ENDBRANCH   5  34
BRANCH   8  50
ATOM     50  O   UNL     1       9.348  -5.134   4.463  1.00  0.00    -0.245 OA
BRANCH  50  51
ATOM     51  S   UNL     1       9.511  -5.970   5.849  1.00  0.00     0.397 S 
ATOM     52  O   UNL     1      10.921  -6.207   6.064  1.00  0.00    -0.169 OA
ATOM     53  O   UNL     1       8.545  -7.048   5.882  1.00  0.00    -0.169 OA
BRANCH  51  54
ATOM     54  O   UNL     1       9.077  -4.881   6.950  1.00  0.00    -0.264 OA
ATOM     55  H   UNL     1       9.124  -5.311   7.828  1.00  0.00     0.236 HD
ENDBRANCH  51  54
ENDBRANCH  50  51
ENDBRANCH   8  50
TORSDOF 19
ENDMDL
MODEL 8
REMARK VINA RESULT:    -6.829      5.634     10.050
REMARK INTER + INTRA:         -16.597
REMARK INTER:                 -13.115
REMARK INTRA:                  -3.482
REMARK UNBOUND:                -2.781
REMARK SMILES CC[C@@H](C)[C@@H](NC(=O)[C@@H](O)Cc1ccc(O)c(Cl)c1)C(=O)N1[C@H](C(=O)NCCCCN=C(N)N)C[C@H]2CC[C@H](OS(=O)(=O)O)C[C@@H]21
REMARK SMILES IDX 22 1 36 2 46 3 35 4 23 5 45 6 37 7 39 8 38 9 20 10 21 11
REMARK SMILES IDX 5 12 6 13 7 14 8 15 9 17 11 18 12 19 17 20 19 21 15 22 14 23
REMARK SMILES IDX 13 24 18 25 16 26 10 28 3 30 4 31 2 32 1 33 24 34 25 35
REMARK SMILES IDX 26 36 27 38 28 39 29 40 30 41 31 42 32 43 33 44 34 45 40 50
REMARK SMILES IDX 41 51 42 52 43 53 44 54
REMARK H PARENT 6 16 16 27 10 29 26 37 33 46 33 47 34 48 34 49 44 55
ROOT
ATOM      1  N   UNL     1       5.475  -0.685   5.134  1.00  0.00    -0.326 N 
ATOM      2  C   UNL     1       3.435   0.432   4.767  1.00  0.00     0.014 C 
ATOM      3  C   UNL     1       4.608   0.326   5.746  1.00  0.00     0.091 C 
ATOM      4  C   UNL     1       3.291  -0.995   4.262  1.00  0.00     0.041 C 
ATOM      5  C   UNL     1       4.769  -1.346   4.009  1.00  0.00     0.175 C 
ATOM      6  C   UNL     1       5.175   1.726   5.973  1.00  0.00     0.059 C 
ATOM      7  C   UNL     1       2.247   1.115   5.415  1.00  0.00     0.008 C 
ATOM      8  C   UNL     1       4.118   2.847   5.885  1.00  0.00     0.143 C 
ATOM      9  C   UNL     1       2.705   2.340   6.235  1.00  0.00     0.034 C 
ENDROOT
BRANCH   1  10
ATOM     10  C   UNL     1       6.676  -1.210   5.578  1.00  0.00     0.246 C 
ATOM     11  O   UNL     1       6.799  -1.504   6.772  1.00  0.00    -0.272 OA
BRANCH  10  12
ATOM     12  C   UNL     1       7.828  -1.457   4.561  1.00  0.00     0.174 C 
BRANCH  12  13
ATOM     13  N   UNL     1       8.096  -2.891   4.450  1.00  0.00    -0.342 N 
ATOM     14  C   UNL     1       8.153  -3.595   3.268  1.00  0.00     0.249 C 
ATOM     15  O   UNL     1       8.012  -3.086   2.163  1.00  0.00    -0.272 OA
ATOM     16  H   UNL     1       8.078  -3.473   5.284  1.00  0.00     0.164 HD
BRANCH  14  17
ATOM     17  C   UNL     1       8.437  -5.097   3.483  1.00  0.00     0.207 C 
BRANCH  17  18
ATOM     18  C   UNL     1       9.882  -5.430   3.095  1.00  0.00     0.077 C 
BRANCH  18  19
ATOM     19  C   UNL     1      10.874  -4.867   4.088  1.00  0.00    -0.043 A 
ATOM     20  C   UNL     1      12.833  -3.521   4.569  1.00  0.00     0.083 A 
ATOM     21  C   UNL     1      11.890  -3.999   3.659  1.00  0.00     0.028 A 
ATOM     22  C   UNL     1      12.770  -3.906   5.908  1.00  0.00     0.134 A 
ATOM     23  C   UNL     1      11.769  -4.765   6.347  1.00  0.00     0.048 A 
ATOM     24  C   UNL     1      10.824  -5.247   5.438  1.00  0.00     0.008 A 
ATOM     25  Cl  UNL     1      14.075  -2.455   4.023  1.00  0.00    -0.080 Cl
BRANCH  22  26
ATOM     26  O   UNL     1      13.679  -3.472   6.835  1.00  0.00    -0.506 OA
ATOM     27  H   UNL     1      13.421  -3.870   7.687  1.00  0.00     0.293 HD
ENDBRANCH  22  26
ENDBRANCH  18  19
ENDBRANCH  17  18
BRANCH  17  28
ATOM     28  O   UNL     1       7.538  -5.909   2.711  1.00  0.00    -0.383 OA
ATOM     29  H   UNL     1       7.864  -6.833   2.798  1.00  0.00     0.211 HD
ENDBRANCH  17  28
ENDBRANCH  14  17
ENDBRANCH  12  13
BRANCH  12  30
ATOM     30  C   UNL     1       9.106  -0.640   4.890  1.00  0.00     0.018 C 
ATOM     31  C   UNL     1       9.832  -0.218   3.603  1.00  0.00     0.010 C 
BRANCH  30  32
ATOM     32  C   UNL     1      10.086  -1.373   5.838  1.00  0.00     0.002 C 
ATOM     33  C   UNL     1      10.517  -0.584   7.067  1.00  0.00     0.004 C 
ENDBRANCH  30  32
ENDBRANCH  12  30
ENDBRANCH  10  12
ENDBRANCH   1  10
BRANCH   5  34
ATOM     34  C   UNL     1       5.263  -0.790   2.646  1.00  0.00     0.242 C 
ATOM     35  O   UNL     1       5.700   0.354   2.522  1.00  0.00    -0.273 OA
ATOM     36  N   UNL     1       5.127  -1.650   1.579  1.00  0.00    -0.354 N 
ATOM     37  H   UNL     1       4.648  -2.539   1.723  1.00  0.00     0.163 HD
BRANCH  36  38
ATOM     38  C   UNL     1       5.729  -1.382   0.289  1.00  0.00     0.116 C 
BRANCH  38  39
ATOM     39  C   UNL     1       4.649  -0.981  -0.713  1.00  0.00     0.023 C 
BRANCH  39  40
ATOM     40  C   UNL     1       4.166  -2.159  -1.552  1.00  0.00     0.026 C 
BRANCH  40  41
ATOM     41  C   UNL     1       4.592  -3.485  -0.921  1.00  0.00     0.146 C 
BRANCH  41  42
ATOM     42  N   UNL     1       5.568  -4.146  -1.777  1.00  0.00    -0.254 NA
ATOM     43  C   UNL     1       6.492  -4.858  -1.250  1.00  0.00     0.185 C 
ATOM     44  N   UNL     1       6.746  -5.127   0.044  1.00  0.00    -0.370 N 
ATOM     45  N   UNL     1       7.385  -5.456  -2.056  1.00  0.00    -0.370 N 
ATOM     46  H   UNL     1       7.640  -5.494   0.325  1.00  0.00     0.159 HD
ATOM     47  H   UNL     1       6.160  -4.765   0.789  1.00  0.00     0.159 HD
ATOM     48  H   UNL     1       7.260  -5.311  -3.049  1.00  0.00     0.159 HD
ATOM     49  H   UNL     1       7.980  -6.205  -1.748  1.00  0.00     0.159 HD
ENDBRANCH  41  42
ENDBRANCH  40  41
ENDBRANCH  39  40
ENDBRANCH  38  39
ENDBRANCH  36  38
ENDBRANCH   5  34
BRANCH   8  50
ATOM     50  O   UNL     1       4.089   3.392   4.565  1.00  0.00    -0.245 OA
BRANCH  50  51
ATOM     51  S   UNL     1       4.462   4.958   4.334  1.00  0.00     0.397 S 
ATOM     52  O   UNL     1       4.016   5.698   5.492  1.00  0.00    -0.169 OA
ATOM     53  O   UNL     1       4.092   5.353   2.991  1.00  0.00    -0.169 OA
BRANCH  51  54
ATOM     54  O   UNL     1       6.068   4.937   4.419  1.00  0.00    -0.264 OA
ATOM     55  H   UNL     1       6.410   4.686   3.537  1.00  0.00     0.236 HD
ENDBRANCH  51  54
ENDBRANCH  50  51
ENDBRANCH   8  50
TORSDOF 19
ENDMDL
MODEL 9
REMARK VINA RESULT:    -6.652      3.772      7.665
REMARK INTER + INTRA:         -16.238
REMARK INTER:                 -12.603
REMARK INTRA:                  -3.636
REMARK UNBOUND:                -2.781
REMARK SMILES CC[C@@H](C)[C@@H](NC(=O)[C@@H](O)Cc1ccc(O)c(Cl)c1)C(=O)N1[C@H](C(=O)NCCCCN=C(N)N)C[C@H]2CC[C@H](OS(=O)(=O)O)C[C@@H]21
REMARK SMILES IDX 22 1 36 2 46 3 35 4 23 5 45 6 37 7 39 8 38 9 20 10 21 11
REMARK SMILES IDX 5 12 6 13 7 14 8 15 9 17 11 18 12 19 17 20 19 21 15 22 14 23
REMARK SMILES IDX 13 24 18 25 16 26 10 28 3 30 4 31 2 32 1 33 24 34 25 35
REMARK SMILES IDX 26 36 27 38 28 39 29 40 30 41 31 42 32 43 33 44 34 45 40 50
REMARK SMILES IDX 41 51 42 52 43 53 44 54
REMARK H PARENT 6 16 16 27 10 29 26 37 33 46 33 47 34 48 34 49 44 55
ROOT
ATOM      1  N   UNL     1       9.905  -4.168   4.260  1.00  0.00    -0.326 N 
ATOM      2  C   UNL     1       9.727  -4.848   2.014  1.00  0.00     0.014 C 
ATOM      3  C   UNL     1      10.172  -3.684   2.903  1.00  0.00     0.091 C 
ATOM      4  C   UNL     1       8.539  -5.416   2.776  1.00  0.00     0.041 C 
ATOM      5  C   UNL     1       9.110  -5.420   4.206  1.00  0.00     0.175 C 
ATOM      6  C   UNL     1      11.609  -3.317   2.534  1.00  0.00     0.059 C 
ATOM      7  C   UNL     1       9.541  -4.395   0.579  1.00  0.00     0.008 C 
ATOM      8  C   UNL     1      11.948  -3.552   1.046  1.00  0.00     0.143 C 
ATOM      9  C   UNL     1      10.698  -3.468   0.147  1.00  0.00     0.034 C 
ENDROOT
BRANCH   1  10
ATOM     10  C   UNL     1      10.091  -3.539   5.480  1.00  0.00     0.246 C 
ATOM     11  O   UNL     1      10.931  -3.989   6.267  1.00  0.00    -0.272 OA
BRANCH  10  12
ATOM     12  C   UNL     1       9.272  -2.259   5.815  1.00  0.00     0.174 C 
BRANCH  12  13
ATOM     13  N   UNL     1       7.931  -2.360   5.239  1.00  0.00    -0.342 N 
ATOM     14  C   UNL     1       6.764  -2.029   5.891  1.00  0.00     0.249 C 
ATOM     15  O   UNL     1       6.723  -1.581   7.030  1.00  0.00    -0.272 OA
ATOM     16  H   UNL     1       7.795  -2.859   4.364  1.00  0.00     0.164 HD
BRANCH  14  17
ATOM     17  C   UNL     1       5.510  -2.263   5.022  1.00  0.00     0.207 C 
BRANCH  17  18
ATOM     18  C   UNL     1       4.961  -0.929   4.504  1.00  0.00     0.077 C 
BRANCH  18  19
ATOM     19  C   UNL     1       4.518  -1.027   3.062  1.00  0.00    -0.043 A 
ATOM     20  C   UNL     1       2.821  -0.710   1.357  1.00  0.00     0.083 A 
ATOM     21  C   UNL     1       3.246  -0.573   2.679  1.00  0.00     0.028 A 
ATOM     22  C   UNL     1       3.661  -1.299   0.412  1.00  0.00     0.134 A 
ATOM     23  C   UNL     1       4.924  -1.752   0.776  1.00  0.00     0.048 A 
ATOM     24  C   UNL     1       5.351  -1.619   2.100  1.00  0.00     0.008 A 
ATOM     25  Cl  UNL     1       1.255  -0.147   0.907  1.00  0.00    -0.080 Cl
BRANCH  22  26
ATOM     26  O   UNL     1       3.285  -1.464  -0.894  1.00  0.00    -0.506 OA
ATOM     27  H   UNL     1       3.714  -0.750  -1.401  1.00  0.00     0.293 HD
ENDBRANCH  22  26
ENDBRANCH  18  19
ENDBRANCH  17  18
BRANCH  17  28
ATOM     28  O   UNL     1       4.486  -2.943   5.765  1.00  0.00    -0.383 OA
ATOM     29  H   UNL     1       4.702  -3.902   5.710  1.00  0.00     0.211 HD
ENDBRANCH  17  28
ENDBRANCH  14  17
ENDBRANCH  12  13
BRANCH  12  30
ATOM     30  C   UNL     1      10.000  -0.954   5.395  1.00  0.00     0.018 C 
ATOM     31  C   UNL     1       9.816   0.140   6.458  1.00  0.00     0.010 C 
BRANCH  30  32
ATOM     32  C   UNL     1       9.572  -0.423   4.005  1.00  0.00     0.002 C 
ATOM     33  C   UNL     1      10.627   0.388   3.264  1.00  0.00     0.004 C 
ENDBRANCH  30  32
ENDBRANCH  12  30
ENDBRANCH  10  12
ENDBRANCH   1  10
BRANCH   5  34
ATOM     34  C   UNL     1      10.013  -6.657   4.459  1.00  0.00     0.242 C 
ATOM     35  O   UNL     1       9.590  -7.809   4.368  1.00  0.00    -0.273 OA
ATOM     36  N   UNL     1      11.304  -6.371   4.844  1.00  0.00    -0.354 N 
ATOM     37  H   UNL     1      11.561  -5.399   5.018  1.00  0.00     0.163 HD
BRANCH  36  38
ATOM     38  C   UNL     1      12.333  -7.387   4.911  1.00  0.00     0.116 C 
BRANCH  38  39
ATOM     39  C   UNL     1      12.759  -7.599   6.362  1.00  0.00     0.023 C 
BRANCH  39  40
ATOM     40  C   UNL     1      12.107  -8.828   6.987  1.00  0.00     0.026 C 
BRANCH  40  41
ATOM     41  C   UNL     1      11.474  -8.479   8.334  1.00  0.00     0.146 C 
BRANCH  41  42
ATOM     42  N   UNL     1      10.847  -7.166   8.258  1.00  0.00    -0.254 NA
ATOM     43  C   UNL     1       9.619  -7.070   7.912  1.00  0.00     0.185 C 
ATOM     44  N   UNL     1       8.735  -8.029   7.582  1.00  0.00    -0.370 N 
ATOM     45  N   UNL     1       9.061  -5.850   7.844  1.00  0.00    -0.370 N 
ATOM     46  H   UNL     1       7.884  -7.797   7.098  1.00  0.00     0.159 HD
ATOM     47  H   UNL     1       8.987  -9.012   7.593  1.00  0.00     0.159 HD
ATOM     48  H   UNL     1       9.658  -5.070   8.087  1.00  0.00     0.159 HD
ATOM     49  H   UNL     1       8.067  -5.707   7.816  1.00  0.00     0.159 HD
ENDBRANCH  41  42
ENDBRANCH  40  41
ENDBRANCH  39  40
ENDBRANCH  38  39
ENDBRANCH  36  38
ENDBRANCH   5  34
BRANCH   8  50
ATOM     50  O   UNL     1      12.544  -4.838   0.876  1.00  0.00    -0.245 OA
BRANCH  50  51
ATOM     51  S   UNL     1      14.112  -4.948   0.459  1.00  0.00     0.397 S 
ATOM     52  O   UNL     1      14.627  -6.193   0.982  1.00  0.00    -0.169 OA
ATOM     53  O   UNL     1      14.773  -3.685   0.716  1.00  0.00    -0.169 OA
BRANCH  51  54
ATOM     54  O   UNL     1      14.022  -5.145  -1.134  1.00  0.00    -0.264 OA
ATOM     55  H   UNL     1      13.481  -5.943  -1.306  1.00  0.00     0.236 HD
ENDBRANCH  51  54
ENDBRANCH  50  51
ENDBRANCH   8  50
TORSDOF 19
ENDMDL
MODEL 10
REMARK VINA RESULT:    -6.647      3.177      7.352
REMARK INTER + INTRA:         -16.227
REMARK INTER:                 -12.597
REMARK INTRA:                  -3.630
REMARK UNBOUND:                -2.781
REMARK SMILES CC[C@@H](C)[C@@H](NC(=O)[C@@H](O)Cc1ccc(O)c(Cl)c1)C(=O)N1[C@H](C(=O)NCCCCN=C(N)N)C[C@H]2CC[C@H](OS(=O)(=O)O)C[C@@H]21
REMARK SMILES IDX 22 1 36 2 46 3 35 4 23 5 45 6 37 7 39 8 38 9 20 10 21 11
REMARK SMILES IDX 5 12 6 13 7 14 8 15 9 17 11 18 12 19 17 20 19 21 15 22 14 23
REMARK SMILES IDX 13 24 18 25 16 26 10 28 3 30 4 31 2 32 1 33 24 34 25 35
REMARK SMILES IDX 26 36 27 38 28 39 29 40 30 41 31 42 32 43 33 44 34 45 40 50
REMARK SMILES IDX 41 51 42 52 43 53 44 54
REMARK H PARENT 6 16 16 27 10 29 26 37 33 46 33 47 34 48 34 49 44 55
ROOT
ATOM      1  N   UNL     1      12.129  -4.407   3.778  1.00  0.00    -0.326 N 
ATOM      2  C   UNL     1      11.388  -6.640   3.863  1.00  0.00     0.014 C 
ATOM      3  C   UNL     1      12.129  -5.570   4.670  1.00  0.00     0.091 C 
ATOM      4  C   UNL     1      11.813  -6.336   2.435  1.00  0.00     0.041 C 
ATOM      5  C   UNL     1      11.665  -4.803   2.426  1.00  0.00     0.175 C 
ATOM      6  C   UNL     1      11.452  -5.438   6.033  1.00  0.00     0.059 C 
ATOM      7  C   UNL     1      11.638  -8.021   4.436  1.00  0.00     0.008 C 
ATOM      8  C   UNL     1      10.839  -6.756   6.553  1.00  0.00     0.143 C 
ATOM      9  C   UNL     1      11.554  -7.995   5.977  1.00  0.00     0.034 C 
ENDROOT
BRANCH   1  10
ATOM     10  C   UNL     1      12.674  -3.147   3.962  1.00  0.00     0.246 C 
ATOM     11  O   UNL     1      13.838  -2.938   3.603  1.00  0.00    -0.272 OA
BRANCH  10  12
ATOM     12  C   UNL     1      11.800  -2.015   4.575  1.00  0.00     0.174 C 
BRANCH  12  13
ATOM     13  N   UNL     1      10.448  -2.511   4.830  1.00  0.00    -0.342 N 
ATOM     14  C   UNL     1       9.740  -2.314   5.994  1.00  0.00     0.249 C 
ATOM     15  O   UNL     1      10.161  -1.669   6.947  1.00  0.00    -0.272 OA
ATOM     16  H   UNL     1      10.034  -3.192   4.198  1.00  0.00     0.164 HD
BRANCH  14  17
ATOM     17  C   UNL     1       8.347  -2.977   5.964  1.00  0.00     0.207 C 
BRANCH  17  18
ATOM     18  C   UNL     1       7.259  -1.954   6.305  1.00  0.00     0.077 C 
BRANCH  18  19
ATOM     19  C   UNL     1       6.356  -1.679   5.124  1.00  0.00    -0.043 A 
ATOM     20  C   UNL     1       4.228  -0.927   4.235  1.00  0.00     0.083 A 
ATOM     21  C   UNL     1       5.078  -1.134   5.322  1.00  0.00     0.028 A 
ATOM     22  C   UNL     1       4.647  -1.265   2.947  1.00  0.00     0.134 A 
ATOM     23  C   UNL     1       5.910  -1.806   2.737  1.00  0.00     0.048 A 
ATOM     24  C   UNL     1       6.762  -2.015   3.824  1.00  0.00     0.008 A 
ATOM     25  Cl  UNL     1       2.661  -0.256   4.498  1.00  0.00    -0.080 Cl
BRANCH  22  26
ATOM     26  O   UNL     1       3.845  -1.091   1.852  1.00  0.00    -0.506 OA
ATOM     27  H   UNL     1       3.524  -0.170   1.883  1.00  0.00     0.293 HD
ENDBRANCH  22  26
ENDBRANCH  18  19
ENDBRANCH  17  18
BRANCH  17  28
ATOM     28  O   UNL     1       8.276  -4.075   6.889  1.00  0.00    -0.383 OA
ATOM     29  H   UNL     1       9.190  -4.432   6.957  1.00  0.00     0.211 HD
ENDBRANCH  17  28
ENDBRANCH  14  17
ENDBRANCH  12  13
BRANCH  12  30
ATOM     30  C   UNL     1      11.804  -0.722   3.715  1.00  0.00     0.018 C 
ATOM     31  C   UNL     1      11.528   0.514   4.586  1.00  0.00     0.010 C 
BRANCH  30  32
ATOM     32  C   UNL     1      10.816  -0.765   2.524  1.00  0.00     0.002 C 
ATOM     33  C   UNL     1       9.584   0.120   2.668  1.00  0.00     0.004 C 
ENDBRANCH  30  32
ENDBRANCH  12  30
ENDBRANCH  10  12
ENDBRANCH   1  10
BRANCH   5  34
ATOM     34  C   UNL     1      10.190  -4.373   2.202  1.00  0.00     0.242 C 
ATOM     35  O   UNL     1       9.326  -4.510   3.068  1.00  0.00    -0.273 OA
ATOM     36  N   UNL     1       9.909  -3.878   0.949  1.00  0.00    -0.354 N 
ATOM     37  H   UNL     1      10.639  -3.901   0.236  1.00  0.00     0.163 HD
BRANCH  36  38
ATOM     38  C   UNL     1       8.650  -3.234   0.636  1.00  0.00     0.116 C 
BRANCH  38  39
ATOM     39  C   UNL     1       7.622  -4.282   0.217  1.00  0.00     0.023 C 
BRANCH  39  40
ATOM     40  C   UNL     1       6.908  -3.912  -1.079  1.00  0.00     0.026 C 
BRANCH  40  41
ATOM     41  C   UNL     1       6.411  -5.165  -1.801  1.00  0.00     0.146 C 
BRANCH  41  42
ATOM     42  N   UNL     1       7.511  -5.781  -2.532  1.00  0.00    -0.254 NA
ATOM     43  C   UNL     1       7.277  -6.388  -3.634  1.00  0.00     0.185 C 
ATOM     44  N   UNL     1       6.117  -6.575  -4.290  1.00  0.00    -0.370 N 
ATOM     45  N   UNL     1       8.304  -6.953  -4.290  1.00  0.00    -0.370 N 
ATOM     46  H   UNL     1       6.042  -7.274  -5.010  1.00  0.00     0.159 HD
ATOM     47  H   UNL     1       5.241  -6.201  -3.940  1.00  0.00     0.159 HD
ATOM     48  H   UNL     1       9.217  -6.851  -3.868  1.00  0.00     0.159 HD
ATOM     49  H   UNL     1       8.246  -7.232  -5.254  1.00  0.00     0.159 HD
ENDBRANCH  41  42
ENDBRANCH  40  41
ENDBRANCH  39  40
ENDBRANCH  38  39
ENDBRANCH  36  38
ENDBRANCH   5  34
BRANCH   8  50
ATOM     50  O   UNL     1       9.457  -6.826   6.201  1.00  0.00    -0.245 OA
BRANCH  50  51
ATOM     51  S   UNL     1       8.441  -7.713   7.110  1.00  0.00     0.397 S 
ATOM     52  O   UNL     1       9.125  -8.060   8.335  1.00  0.00    -0.169 OA
ATOM     53  O   UNL     1       7.802  -8.717   6.285  1.00  0.00    -0.169 OA
BRANCH  51  54
ATOM     54  O   UNL     1       7.327  -6.629   7.523  1.00  0.00    -0.264 OA
ATOM     55  H   UNL     1       6.718  -7.055   8.160  1.00  0.00     0.236 HD
ENDBRANCH  51  54
ENDBRANCH  50  51
ENDBRANCH   8  50
TORSDOF 19
ENDMDL
