MODEL 1
REMARK VINA RESULT:    -6.453      0.000      0.000
REMARK INTER + INTRA:         -11.892
REMARK INTER:                 -10.980
REMARK INTRA:                  -0.912
REMARK UNBOUND:                -0.912
REMARK SMILES CC[C@H](C)[C@@H]1NC(=O)[C@H]2CSC(=N2)[C@@H]([C@@H](C)CC)NC(=O)c2csc(n2)CNC(=O)[C@H]2N=C1O[C@@H]2C
REMARK SMILES IDX 27 1 25 2 22 3 26 4 23 5 24 6 20 7 19 8 21 9 14 11 12 12
REMARK SMILES IDX 11 13 10 14 13 15 9 16 15 18 16 19 17 20 18 21 28 22 29 23
REMARK SMILES IDX 30 24 31 26 32 27 35 28 33 29 34 30 36 31 5 32 6 33 7 34
REMARK SMILES IDX 8 35 3 38 4 39 2 40 1 41
REMARK H PARENT 19 10 28 25 6 36
REMARK Flexibility Score:   91.900
ROOT
ATOM      1  C   UNL     1       2.879  -6.816  -5.055  1.00  0.00     0.183 C 
ENDROOT
BRANCH   1   2
ATOM      2  C   UNL     1       1.554  -6.880  -4.352  1.00  0.00     0.113 A 
ATOM      3  C   UNL     1       0.006  -6.539  -2.784  1.00  0.00     0.139 A 
ATOM      4  N   UNL     1       1.266  -6.182  -3.269  1.00  0.00    -0.234 NA
ATOM      5  C   UNL     1      -0.660  -7.470  -3.557  1.00  0.00     0.101 A 
ATOM      6  S   UNL     1       0.309  -7.928  -4.898  1.00  0.00    -0.125 S 
BRANCH   3   7
ATOM      7  C   UNL     1      -0.487  -5.966  -1.530  1.00  0.00     0.271 C 
ATOM      8  N   UNL     1       0.525  -5.384  -0.807  1.00  0.00    -0.341 N 
ATOM      9  O   UNL     1      -1.653  -6.033  -1.164  1.00  0.00    -0.267 OA
ATOM     10  H   UNL     1       1.442  -5.386  -1.253  1.00  0.00     0.164 HD
BRANCH   8  11
ATOM     11  C   UNL     1       0.382  -4.899   0.555  1.00  0.00     0.140 C 
BRANCH  11  12
ATOM     12  C   UNL     1       0.247  -3.375   0.500  1.00  0.00     0.091 C 
ATOM     13  S   UNL     1      -1.235  -2.634  -0.058  1.00  0.00    -0.106 SA
ATOM     14  C   UNL     1      -0.669  -1.025   0.534  1.00  0.00     0.113 C 
ATOM     15  N   UNL     1       1.235  -2.587   0.789  1.00  0.00    -0.267 NA
ATOM     16  C   UNL     1       0.846  -1.163   0.543  1.00  0.00     0.205 CG0
ATOM     17  G   UNL     1       1.446  -0.650  -0.777  1.00  0.00     0.000 G0
ENDBRANCH  11  12
BRANCH  11  18
ATOM     18  C   UNL     1      -0.688  -5.656   1.384  1.00  0.00     0.015 C 
ATOM     19  C   UNL     1      -0.111  -6.968   1.931  1.00  0.00     0.010 C 
BRANCH  18  20
ATOM     20  C   UNL     1      -1.347  -4.821   2.501  1.00  0.00     0.002 C 
ATOM     21  C   UNL     1      -1.239  -5.474   3.875  1.00  0.00     0.004 C 
ENDBRANCH  18  20
ENDBRANCH  11  18
ENDBRANCH   8  11
ENDBRANCH   3   7
ENDBRANCH   1   2
BRANCH   1  22
ATOM     22  N   UNL     1       3.665  -5.790  -4.406  1.00  0.00    -0.348 N 
ATOM     23  C   UNL     1       4.226  -4.718  -5.044  1.00  0.00     0.249 C 
ATOM     24  O   UNL     1       4.045  -4.472  -6.231  1.00  0.00    -0.272 OA
ATOM     25  H   UNL     1       3.895  -5.908  -3.420  1.00  0.00     0.163 HD
BRANCH  23  26
ATOM     26  C   UNL     1       5.050  -3.829  -4.101  1.00  0.00     0.238 C 
ATOM     27  N   UNL     1       4.517  -2.439  -4.144  1.00  0.00    -0.236 NA
ATOM     28  C   UNL     1       4.925  -4.267  -2.652  1.00  0.00     0.206 C 
ATOM     29  C   UNL     1       3.984  -2.288  -2.969  1.00  0.00     0.208 C 
ATOM     30  O   UNL     1       4.047  -3.303  -2.073  1.00  0.00    -0.474 OA
ATOM     31  C   UNL     1       6.255  -4.221  -1.911  1.00  0.00     0.056 C 
BRANCH  29  32
ATOM     32  C   UNL     1       3.216  -1.065  -2.474  1.00  0.00     0.171 C 
BRANCH  32  33
ATOM     33  N   UNL     1       2.544  -1.348  -1.216  1.00  0.00    -0.342 N 
ATOM     34  C   UNL     1       1.441  -0.646  -0.790  1.00  0.00     0.246 CG0
ATOM     35  O   UNL     1       0.955   0.287  -1.425  1.00  0.00    -0.273 OA
ATOM     36  H   UNL     1       2.894  -2.059  -0.583  1.00  0.00     0.164 HD
ATOM     37  G   UNL     1       0.845  -1.140   0.538  1.00  0.00     0.000 G0
ENDBRANCH  32  33
BRANCH  32  38
ATOM     38  C   UNL     1       4.156   0.166  -2.382  1.00  0.00     0.017 C 
ATOM     39  C   UNL     1       5.455  -0.216  -1.660  1.00  0.00     0.010 C 
BRANCH  38  40
ATOM     40  C   UNL     1       4.440   0.812  -3.758  1.00  0.00     0.002 C 
ATOM     41  C   UNL     1       5.920   0.869  -4.111  1.00  0.00     0.004 C 
ENDBRANCH  38  40
ENDBRANCH  32  38
ENDBRANCH  29  32
ENDBRANCH  23  26
ENDBRANCH   1  22
TORSDOF 4
ENDMDL
MODEL 2
REMARK VINA RESULT:    -6.451      2.530      5.381
REMARK INTER + INTRA:         -11.890
REMARK INTER:                 -10.066
REMARK INTRA:                  -1.824
REMARK UNBOUND:                -0.912
REMARK SMILES CC[C@H](C)[C@@H]1NC(=O)[C@H]2CSC(=N2)[C@@H]([C@@H](C)CC)NC(=O)c2csc(n2)CNC(=O)[C@H]2N=C1O[C@@H]2C
REMARK SMILES IDX 27 1 25 2 22 3 26 4 23 5 24 6 20 7 19 8 21 9 14 11 12 12
REMARK SMILES IDX 11 13 10 14 13 15 9 16 15 18 16 19 17 20 18 21 28 22 29 23
REMARK SMILES IDX 30 24 31 26 32 27 35 28 33 29 34 30 36 31 5 32 6 33 7 34
REMARK SMILES IDX 8 35 3 38 4 39 2 40 1 41
REMARK H PARENT 19 10 28 25 6 36
REMARK Flexibility Score:   91.900
ROOT
ATOM      1  C   UNL     1       2.954  -0.784  -1.616  1.00  0.00     0.183 C 
ENDROOT
BRANCH   1   2
ATOM      2  C   UNL     1       1.656  -1.055  -0.911  1.00  0.00     0.113 A 
ATOM      3  C   UNL     1      -0.137  -2.171  -0.200  1.00  0.00     0.139 A 
ATOM      4  N   UNL     1       1.118  -2.256  -0.806  1.00  0.00    -0.234 NA
ATOM      5  C   UNL     1      -0.496  -0.897   0.195  1.00  0.00     0.101 A 
ATOM      6  S   UNL     1       0.740   0.220  -0.217  1.00  0.00    -0.125 S 
BRANCH   3   7
ATOM      7  C   UNL     1      -0.969  -3.369  -0.066  1.00  0.00     0.271 C 
ATOM      8  N   UNL     1      -0.252  -4.513  -0.313  1.00  0.00    -0.341 N 
ATOM      9  O   UNL     1      -2.164  -3.341   0.201  1.00  0.00    -0.267 OA
ATOM     10  H   UNL     1       0.741  -4.379  -0.500  1.00  0.00     0.164 HD
BRANCH   8  11
ATOM     11  C   UNL     1      -0.841  -5.836  -0.439  1.00  0.00     0.140 C 
BRANCH  11  12
ATOM     12  C   UNL     1      -0.450  -6.397  -1.809  1.00  0.00     0.091 C 
ATOM     13  S   UNL     1      -0.790  -8.062  -2.217  1.00  0.00    -0.106 SA
ATOM     14  C   UNL     1      -0.385  -7.735  -3.946  1.00  0.00     0.113 C 
ATOM     15  N   UNL     1       0.204  -5.692  -2.678  1.00  0.00    -0.267 NA
ATOM     16  C   UNL     1       0.539  -6.530  -3.873  1.00  0.00     0.205 CG0
ATOM     17  G   UNL     1       2.011  -6.975  -3.835  1.00  0.00     0.000 G0
ENDBRANCH  11  12
BRANCH  11  18
ATOM     18  C   UNL     1      -0.587  -6.758   0.781  1.00  0.00     0.015 C 
ATOM     19  C   UNL     1       0.394  -6.095   1.757  1.00  0.00     0.010 C 
BRANCH  18  20
ATOM     20  C   UNL     1      -1.862  -7.239   1.503  1.00  0.00     0.002 C 
ATOM     21  C   UNL     1      -2.290  -6.313   2.636  1.00  0.00     0.004 C 
ENDBRANCH  18  20
ENDBRANCH  11  18
ENDBRANCH   8  11
ENDBRANCH   3   7
ENDBRANCH   1   2
BRANCH   1  22
ATOM     22  N   UNL     1       3.755  -1.984  -1.524  1.00  0.00    -0.348 N 
ATOM     23  C   UNL     1       5.016  -2.121  -2.039  1.00  0.00     0.249 C 
ATOM     24  O   UNL     1       5.632  -1.199  -2.562  1.00  0.00    -0.272 OA
ATOM     25  H   UNL     1       3.331  -2.821  -1.126  1.00  0.00     0.163 HD
BRANCH  23  26
ATOM     26  C   UNL     1       5.593  -3.530  -1.834  1.00  0.00     0.238 C 
ATOM     27  N   UNL     1       4.560  -4.540  -2.194  1.00  0.00    -0.236 NA
ATOM     28  C   UNL     1       6.768  -3.803  -2.757  1.00  0.00     0.206 C 
ATOM     29  C   UNL     1       5.033  -5.075  -3.280  1.00  0.00     0.208 C 
ATOM     30  O   UNL     1       6.226  -4.653  -3.766  1.00  0.00    -0.474 OA
ATOM     31  C   UNL     1       7.902  -4.540  -2.056  1.00  0.00     0.056 C 
BRANCH  29  32
ATOM     32  C   UNL     1       4.348  -6.134  -4.140  1.00  0.00     0.171 C 
BRANCH  32  33
ATOM     33  N   UNL     1       2.905  -5.946  -4.143  1.00  0.00    -0.342 N 
ATOM     34  C   UNL     1       2.026  -6.959  -3.845  1.00  0.00     0.246 CG0
ATOM     35  O   UNL     1       2.386  -8.103  -3.578  1.00  0.00    -0.273 OA
ATOM     36  H   UNL     1       2.493  -5.058  -4.407  1.00  0.00     0.164 HD
ATOM     37  G   UNL     1       0.547  -6.540  -3.847  1.00  0.00     0.000 G0
ENDBRANCH  32  33
BRANCH  32  38
ATOM     38  C   UNL     1       4.950  -6.145  -5.569  1.00  0.00     0.017 C 
ATOM     39  C   UNL     1       5.008  -7.581  -6.105  1.00  0.00     0.010 C 
BRANCH  38  40
ATOM     40  C   UNL     1       4.206  -5.204  -6.544  1.00  0.00     0.002 C 
ATOM     41  C   UNL     1       5.056  -4.039  -7.035  1.00  0.00     0.004 C 
ENDBRANCH  38  40
ENDBRANCH  32  38
ENDBRANCH  29  32
ENDBRANCH  23  26
ENDBRANCH   1  22
TORSDOF 4
ENDMDL
MODEL 3
REMARK VINA RESULT:    -6.295      2.697      8.318
REMARK INTER + INTRA:         -11.624
REMARK INTER:                  -9.951
REMARK INTRA:                  -1.673
REMARK UNBOUND:                -0.912
REMARK SMILES CC[C@H](C)[C@@H]1NC(=O)[C@H]2CSC(=N2)[C@@H]([C@@H](C)CC)NC(=O)c2csc(n2)CNC(=O)[C@H]2N=C1O[C@@H]2C
REMARK SMILES IDX 27 1 25 2 22 3 26 4 23 5 24 6 20 7 19 8 21 9 14 11 12 12
REMARK SMILES IDX 11 13 10 14 13 15 9 16 15 18 16 19 17 20 18 21 28 22 29 23
REMARK SMILES IDX 30 24 31 26 32 27 35 28 33 29 34 30 36 31 5 32 6 33 7 34
REMARK SMILES IDX 8 35 3 38 4 39 2 40 1 41
REMARK H PARENT 19 10 28 25 6 36
REMARK Flexibility Score:   91.900
ROOT
ATOM      1  C   UNL     1       0.739  -1.636   0.414  1.00  0.00     0.183 C 
ENDROOT
BRANCH   1   2
ATOM      2  C   UNL     1       1.750  -1.590  -0.696  1.00  0.00     0.113 A 
ATOM      3  C   UNL     1       3.418  -2.237  -2.025  1.00  0.00     0.139 A 
ATOM      4  N   UNL     1       2.500  -2.619  -1.044  1.00  0.00    -0.234 NA
ATOM      5  C   UNL     1       3.298  -0.925  -2.440  1.00  0.00     0.101 A 
ATOM      6  S   UNL     1       2.036  -0.145  -1.577  1.00  0.00    -0.125 S 
BRANCH   3   7
ATOM      7  C   UNL     1       4.425  -3.190  -2.497  1.00  0.00     0.271 C 
ATOM      8  N   UNL     1       4.163  -3.610  -3.778  1.00  0.00    -0.341 N 
ATOM      9  O   UNL     1       5.362  -3.583  -1.815  1.00  0.00    -0.267 OA
ATOM     10  H   UNL     1       3.358  -3.175  -4.228  1.00  0.00     0.164 HD
BRANCH   8  11
ATOM     11  C   UNL     1       4.873  -4.687  -4.446  1.00  0.00     0.140 C 
BRANCH  11  12
ATOM     12  C   UNL     1       3.894  -5.849  -4.636  1.00  0.00     0.091 C 
ATOM     13  S   UNL     1       3.321  -6.275  -6.232  1.00  0.00    -0.106 SA
ATOM     14  C   UNL     1       2.622  -7.809  -5.586  1.00  0.00     0.113 C 
ATOM     15  N   UNL     1       3.401  -6.503  -3.632  1.00  0.00    -0.267 NA
ATOM     16  C   UNL     1       2.396  -7.503  -4.113  1.00  0.00     0.205 CG0
ATOM     17  G   UNL     1       0.963  -7.000  -3.876  1.00  0.00     0.000 G0
ENDBRANCH  11  12
BRANCH  11  18
ATOM     18  C   UNL     1       5.662  -4.238  -5.703  1.00  0.00     0.015 C 
ATOM     19  C   UNL     1       5.092  -2.923  -6.251  1.00  0.00     0.010 C 
BRANCH  18  20
ATOM     20  C   UNL     1       7.190  -4.153  -5.509  1.00  0.00     0.002 C 
ATOM     21  C   UNL     1       7.831  -5.508  -5.228  1.00  0.00     0.004 C 
ENDBRANCH  18  20
ENDBRANCH  11  18
ENDBRANCH   8  11
ENDBRANCH   3   7
ENDBRANCH   1   2
BRANCH   1  22
ATOM     22  N   UNL     1       0.316  -3.011   0.558  1.00  0.00    -0.348 N 
ATOM     23  C   UNL     1      -0.987  -3.422   0.632  1.00  0.00     0.249 C 
ATOM     24  O   UNL     1      -1.940  -2.663   0.498  1.00  0.00    -0.272 OA
ATOM     25  H   UNL     1       1.030  -3.725   0.700  1.00  0.00     0.163 HD
BRANCH  23  26
ATOM     26  C   UNL     1      -1.122  -4.938   0.840  1.00  0.00     0.238 C 
ATOM     27  N   UNL     1      -1.775  -5.541  -0.355  1.00  0.00    -0.236 NA
ATOM     28  C   UNL     1       0.231  -5.620   0.951  1.00  0.00     0.206 C 
ATOM     29  C   UNL     1      -0.819  -6.231  -0.901  1.00  0.00     0.208 C 
ATOM     30  O   UNL     1       0.404  -6.256  -0.315  1.00  0.00    -0.474 OA
ATOM     31  C   UNL     1       0.262  -6.685   2.039  1.00  0.00     0.056 C 
BRANCH  29  32
ATOM     32  C   UNL     1      -0.899  -7.010  -2.211  1.00  0.00     0.171 C 
BRANCH  32  33
ATOM     33  N   UNL     1       0.425  -7.414  -2.657  1.00  0.00    -0.342 N 
ATOM     34  C   UNL     1       0.952  -7.019  -3.864  1.00  0.00     0.246 CG0
ATOM     35  O   UNL     1       0.339  -6.320  -4.666  1.00  0.00    -0.273 OA
ATOM     36  H   UNL     1       0.998  -8.039  -2.101  1.00  0.00     0.164 HD
ATOM     37  G   UNL     1       2.388  -7.505  -4.121  1.00  0.00     0.000 G0
ENDBRANCH  32  33
BRANCH  32  38
ATOM     38  C   UNL     1      -1.870  -8.212  -2.068  1.00  0.00     0.017 C 
ATOM     39  C   UNL     1      -1.768  -8.807  -0.659  1.00  0.00     0.010 C 
BRANCH  38  40
ATOM     40  C   UNL     1      -3.330  -7.853  -2.431  1.00  0.00     0.002 C 
ATOM     41  C   UNL     1      -4.346  -8.311  -1.392  1.00  0.00     0.004 C 
ENDBRANCH  38  40
ENDBRANCH  32  38
ENDBRANCH  29  32
ENDBRANCH  23  26
ENDBRANCH   1  22
TORSDOF 4
ENDMDL
MODEL 4
REMARK VINA RESULT:    -6.188      2.470      4.103
REMARK INTER + INTRA:         -11.442
REMARK INTER:                 -10.179
REMARK INTRA:                  -1.262
REMARK UNBOUND:                -0.912
REMARK SMILES CC[C@H](C)[C@@H]1NC(=O)[C@H]2CSC(=N2)[C@@H]([C@@H](C)CC)NC(=O)c2csc(n2)CNC(=O)[C@H]2N=C1O[C@@H]2C
REMARK SMILES IDX 27 1 25 2 22 3 26 4 23 5 24 6 20 7 19 8 21 9 14 11 12 12
REMARK SMILES IDX 11 13 10 14 13 15 9 16 15 18 16 19 17 20 18 21 28 22 29 23
REMARK SMILES IDX 30 24 31 26 32 27 35 28 33 29 34 30 36 31 5 32 6 33 7 34
REMARK SMILES IDX 8 35 3 38 4 39 2 40 1 41
REMARK H PARENT 19 10 28 25 6 36
REMARK Flexibility Score:   91.900
ROOT
ATOM      1  C   UNL     1      -0.700  -7.571  -5.164  1.00  0.00     0.183 C 
ENDROOT
BRANCH   1   2
ATOM      2  C   UNL     1      -1.205  -6.490  -4.253  1.00  0.00     0.113 A 
ATOM      3  C   UNL     1      -1.327  -5.147  -2.478  1.00  0.00     0.139 A 
ATOM      4  N   UNL     1      -0.555  -6.075  -3.181  1.00  0.00    -0.234 NA
ATOM      5  C   UNL     1      -2.532  -4.837  -3.076  1.00  0.00     0.101 A 
ATOM      6  S   UNL     1      -2.721  -5.734  -4.527  1.00  0.00    -0.125 S 
BRANCH   3   7
ATOM      7  C   UNL     1      -0.852  -4.619  -1.197  1.00  0.00     0.271 C 
ATOM      8  N   UNL     1       0.128  -3.674  -1.371  1.00  0.00    -0.341 N 
ATOM      9  O   UNL     1      -1.261  -5.005  -0.109  1.00  0.00    -0.267 OA
ATOM     10  H   UNL     1       0.348  -3.440  -2.339  1.00  0.00     0.164 HD
BRANCH   8  11
ATOM     11  C   UNL     1       0.920  -3.109  -0.290  1.00  0.00     0.140 C 
BRANCH  11  12
ATOM     12  C   UNL     1       2.106  -2.369  -0.914  1.00  0.00     0.091 C 
ATOM     13  S   UNL     1       1.883  -0.805  -1.663  1.00  0.00    -0.106 SA
ATOM     14  C   UNL     1       3.671  -0.573  -1.743  1.00  0.00     0.113 C 
ATOM     15  N   UNL     1       3.288  -2.896  -0.977  1.00  0.00    -0.267 NA
ATOM     16  C   UNL     1       4.215  -1.994  -1.731  1.00  0.00     0.205 CG0
ATOM     17  G   UNL     1       4.432  -2.505  -3.164  1.00  0.00     0.000 G0
ENDBRANCH  11  12
BRANCH  11  18
ATOM     18  C   UNL     1       0.088  -2.321   0.754  1.00  0.00     0.015 C 
ATOM     19  C   UNL     1       0.946  -1.992   1.983  1.00  0.00     0.010 C 
BRANCH  18  20
ATOM     20  C   UNL     1      -0.613  -1.063   0.204  1.00  0.00     0.002 C 
ATOM     21  C   UNL     1      -1.671  -0.508   1.151  1.00  0.00     0.004 C 
ENDBRANCH  18  20
ENDBRANCH  11  18
ENDBRANCH   8  11
ENDBRANCH   3   7
ENDBRANCH   1   2
BRANCH   1  22
ATOM     22  N   UNL     1       0.735  -7.643  -4.998  1.00  0.00    -0.348 N 
ATOM     23  C   UNL     1       1.644  -6.984  -5.779  1.00  0.00     0.249 C 
ATOM     24  O   UNL     1       1.326  -6.190  -6.657  1.00  0.00    -0.272 OA
ATOM     25  H   UNL     1       1.110  -8.293  -4.308  1.00  0.00     0.163 HD
BRANCH  23  26
ATOM     26  C   UNL     1       3.098  -7.300  -5.396  1.00  0.00     0.238 C 
ATOM     27  N   UNL     1       3.977  -6.184  -5.843  1.00  0.00    -0.236 NA
ATOM     28  C   UNL     1       3.284  -7.386  -3.891  1.00  0.00     0.206 C 
ATOM     29  C   UNL     1       4.355  -5.637  -4.727  1.00  0.00     0.208 C 
ATOM     30  O   UNL     1       3.928  -6.160  -3.551  1.00  0.00    -0.474 OA
ATOM     31  C   UNL     1       4.187  -8.541  -3.479  1.00  0.00     0.056 C 
BRANCH  29  32
ATOM     32  C   UNL     1       5.220  -4.389  -4.578  1.00  0.00     0.171 C 
BRANCH  32  33
ATOM     33  N   UNL     1       4.987  -3.745  -3.295  1.00  0.00    -0.342 N 
ATOM     34  C   UNL     1       4.458  -2.480  -3.187  1.00  0.00     0.246 CG0
ATOM     35  O   UNL     1       4.168  -1.789  -4.160  1.00  0.00    -0.273 OA
ATOM     36  H   UNL     1       5.244  -4.199  -2.426  1.00  0.00     0.164 HD
ATOM     37  G   UNL     1       4.235  -2.005  -1.742  1.00  0.00     0.000 G0
ENDBRANCH  32  33
BRANCH  32  38
ATOM     38  C   UNL     1       6.715  -4.735  -4.806  1.00  0.00     0.017 C 
ATOM     39  C   UNL     1       7.386  -3.645  -5.651  1.00  0.00     0.010 C 
BRANCH  38  40
ATOM     40  C   UNL     1       7.484  -4.986  -3.488  1.00  0.00     0.002 C 
ATOM     41  C   UNL     1       7.471  -6.443  -3.043  1.00  0.00     0.004 C 
ENDBRANCH  38  40
ENDBRANCH  32  38
ENDBRANCH  29  32
ENDBRANCH  23  26
ENDBRANCH   1  22
TORSDOF 4
ENDMDL
MODEL 5
REMARK VINA RESULT:    -5.928      2.851      6.600
REMARK INTER + INTRA:         -10.999
REMARK INTER:                  -9.450
REMARK INTRA:                  -1.549
REMARK UNBOUND:                -0.912
REMARK SMILES CC[C@H](C)[C@@H]1NC(=O)[C@H]2CSC(=N2)[C@@H]([C@@H](C)CC)NC(=O)c2csc(n2)CNC(=O)[C@H]2N=C1O[C@@H]2C
REMARK SMILES IDX 27 1 25 2 22 3 26 4 23 5 24 6 20 7 19 8 21 9 14 11 12 12
REMARK SMILES IDX 11 13 10 14 13 15 9 16 15 18 16 19 17 20 18 21 28 22 29 23
REMARK SMILES IDX 30 24 31 26 32 27 35 28 33 29 34 30 36 31 5 32 6 33 7 34
REMARK SMILES IDX 8 35 3 38 4 39 2 40 1 41
REMARK H PARENT 19 10 28 25 6 36
REMARK Flexibility Score:   91.900
ROOT
ATOM      1  C   UNL     1      -1.221  -4.355  -1.269  1.00  0.00     0.183 C 
ENDROOT
BRANCH   1   2
ATOM      2  C   UNL     1      -0.782  -5.601  -1.983  1.00  0.00     0.113 A 
ATOM      3  C   UNL     1      -0.118  -6.926  -3.647  1.00  0.00     0.139 A 
ATOM      4  N   UNL     1      -0.338  -5.613  -3.226  1.00  0.00    -0.234 NA
ATOM      5  C   UNL     1      -0.349  -7.883  -2.679  1.00  0.00     0.101 A 
ATOM      6  S   UNL     1      -0.875  -7.138  -1.225  1.00  0.00    -0.125 S 
BRANCH   3   7
ATOM      7  C   UNL     1       0.284  -7.195  -5.029  1.00  0.00     0.271 C 
ATOM      8  N   UNL     1       1.559  -7.702  -5.096  1.00  0.00    -0.341 N 
ATOM      9  O   UNL     1      -0.423  -6.961  -6.001  1.00  0.00    -0.267 OA
ATOM     10  H   UNL     1       2.016  -7.864  -4.200  1.00  0.00     0.164 HD
BRANCH   8  11
ATOM     11  C   UNL     1       2.299  -7.891  -6.333  1.00  0.00     0.140 C 
BRANCH  11  12
ATOM     12  C   UNL     1       3.332  -6.766  -6.439  1.00  0.00     0.091 C 
ATOM     13  S   UNL     1       4.972  -7.111  -6.937  1.00  0.00    -0.106 SA
ATOM     14  C   UNL     1       5.299  -5.346  -7.130  1.00  0.00     0.113 C 
ATOM     15  N   UNL     1       3.057  -5.546  -6.099  1.00  0.00    -0.267 NA
ATOM     16  C   UNL     1       4.282  -4.694  -6.206  1.00  0.00     0.205 CG0
ATOM     17  G   UNL     1       4.895  -4.437  -4.819  1.00  0.00     0.000 G0
ENDBRANCH  11  12
BRANCH  11  18
ATOM     18  C   UNL     1       2.828  -9.334  -6.536  1.00  0.00     0.015 C 
ATOM     19  C   UNL     1       2.557 -10.184  -5.288  1.00  0.00     0.010 C 
BRANCH  18  20
ATOM     20  C   UNL     1       2.322 -10.033  -7.814  1.00  0.00     0.002 C 
ATOM     21  C   UNL     1       3.013  -9.534  -9.079  1.00  0.00     0.004 C 
ENDBRANCH  18  20
ENDBRANCH  11  18
ENDBRANCH   8  11
ENDBRANCH   3   7
ENDBRANCH   1   2
BRANCH   1  22
ATOM     22  N   UNL     1      -0.087  -3.460  -1.222  1.00  0.00    -0.348 N 
ATOM     23  C   UNL     1       0.784  -3.359  -0.171  1.00  0.00     0.249 C 
ATOM     24  O   UNL     1       0.736  -4.088   0.814  1.00  0.00    -0.272 OA
ATOM     25  H   UNL     1       0.035  -2.792  -1.982  1.00  0.00     0.163 HD
BRANCH  23  26
ATOM     26  C   UNL     1       1.857  -2.282  -0.388  1.00  0.00     0.238 C 
ATOM     27  N   UNL     1       3.174  -2.939  -0.615  1.00  0.00    -0.236 NA
ATOM     28  C   UNL     1       1.592  -1.459  -1.637  1.00  0.00     0.206 C 
ATOM     29  C   UNL     1       3.419  -2.689  -1.866  1.00  0.00     0.208 C 
ATOM     30  O   UNL     1       2.534  -1.957  -2.586  1.00  0.00    -0.474 OA
ATOM     31  C   UNL     1       1.855   0.026  -1.425  1.00  0.00     0.056 C 
BRANCH  29  32
ATOM     32  C   UNL     1       4.616  -3.188  -2.671  1.00  0.00     0.171 C 
BRANCH  32  33
ATOM     33  N   UNL     1       4.230  -3.500  -4.038  1.00  0.00    -0.342 N 
ATOM     34  C   UNL     1       4.889  -4.436  -4.799  1.00  0.00     0.246 CG0
ATOM     35  O   UNL     1       5.866  -5.061  -4.395  1.00  0.00    -0.273 OA
ATOM     36  H   UNL     1       3.473  -3.003  -4.495  1.00  0.00     0.164 HD
ATOM     37  G   UNL     1       4.287  -4.659  -6.196  1.00  0.00     0.000 G0
ENDBRANCH  32  33
BRANCH  32  38
ATOM     38  C   UNL     1       5.782  -2.167  -2.600  1.00  0.00     0.017 C 
ATOM     39  C   UNL     1       5.250  -0.789  -2.188  1.00  0.00     0.010 C 
BRANCH  38  40
ATOM     40  C   UNL     1       6.935  -2.630  -1.681  1.00  0.00     0.002 C 
ATOM     41  C   UNL     1       6.814  -4.082  -1.236  1.00  0.00     0.004 C 
ENDBRANCH  38  40
ENDBRANCH  32  38
ENDBRANCH  29  32
ENDBRANCH  23  26
ENDBRANCH   1  22
TORSDOF 4
ENDMDL
MODEL 6
REMARK VINA RESULT:    -5.807      2.593      6.050
REMARK INTER + INTRA:         -10.793
REMARK INTER:                  -9.629
REMARK INTRA:                  -1.164
REMARK UNBOUND:                -0.912
REMARK SMILES CC[C@H](C)[C@@H]1NC(=O)[C@H]2CSC(=N2)[C@@H]([C@@H](C)CC)NC(=O)c2csc(n2)CNC(=O)[C@H]2N=C1O[C@@H]2C
REMARK SMILES IDX 27 1 25 2 22 3 26 4 23 5 24 6 20 7 19 8 21 9 14 11 12 12
REMARK SMILES IDX 11 13 10 14 13 15 9 16 15 18 16 19 17 20 18 21 28 22 29 23
REMARK SMILES IDX 30 24 31 26 32 27 35 28 33 29 34 30 36 31 5 32 6 33 7 34
REMARK SMILES IDX 8 35 3 38 4 39 2 40 1 41
REMARK H PARENT 19 10 28 25 6 36
REMARK Flexibility Score:   91.900
ROOT
ATOM      1  C   UNL     1      -1.574  -3.851  -0.603  1.00  0.00     0.183 C 
ENDROOT
BRANCH   1   2
ATOM      2  C   UNL     1      -1.067  -5.132  -1.201  1.00  0.00     0.113 A 
ATOM      3  C   UNL     1      -0.333  -6.568  -2.739  1.00  0.00     0.139 A 
ATOM      4  N   UNL     1      -0.626  -5.235  -2.441  1.00  0.00    -0.234 NA
ATOM      5  C   UNL     1      -0.508  -7.442  -1.684  1.00  0.00     0.101 A 
ATOM      6  S   UNL     1      -1.071  -6.594  -0.302  1.00  0.00    -0.125 S 
BRANCH   3   7
ATOM      7  C   UNL     1       0.080  -6.942  -4.093  1.00  0.00     0.271 C 
ATOM      8  N   UNL     1       1.389  -7.356  -4.127  1.00  0.00    -0.341 N 
ATOM      9  O   UNL     1      -0.649  -6.860  -5.074  1.00  0.00    -0.267 OA
ATOM     10  H   UNL     1       1.863  -7.393  -3.225  1.00  0.00     0.164 HD
BRANCH   8  11
ATOM     11  C   UNL     1       2.134  -7.611  -5.349  1.00  0.00     0.140 C 
BRANCH  11  12
ATOM     12  C   UNL     1       3.267  -6.584  -5.432  1.00  0.00     0.091 C 
ATOM     13  S   UNL     1       4.921  -7.103  -5.660  1.00  0.00    -0.106 SA
ATOM     14  C   UNL     1       5.422  -5.401  -5.994  1.00  0.00     0.113 C 
ATOM     15  N   UNL     1       3.058  -5.316  -5.265  1.00  0.00    -0.267 NA
ATOM     16  C   UNL     1       4.356  -4.573  -5.293  1.00  0.00     0.205 CG0
ATOM     17  G   UNL     1       4.806  -4.200  -3.871  1.00  0.00     0.000 G0
ENDBRANCH  11  12
BRANCH  11  18
ATOM     18  C   UNL     1       2.535  -9.096  -5.544  1.00  0.00     0.015 C 
ATOM     19  C   UNL     1       2.492  -9.842  -4.203  1.00  0.00     0.010 C 
BRANCH  18  20
ATOM     20  C   UNL     1       1.734  -9.843  -6.630  1.00  0.00     0.002 C 
ATOM     21  C   UNL     1       0.331 -10.228  -6.176  1.00  0.00     0.004 C 
ENDBRANCH  18  20
ENDBRANCH  11  18
ENDBRANCH   8  11
ENDBRANCH   3   7
ENDBRANCH   1   2
BRANCH   1  22
ATOM     22  N   UNL     1      -0.496  -2.889  -0.661  1.00  0.00    -0.348 N 
ATOM     23  C   UNL     1       0.571  -2.862   0.195  1.00  0.00     0.249 C 
ATOM     24  O   UNL     1       0.764  -3.712   1.056  1.00  0.00    -0.272 OA
ATOM     25  H   UNL     1      -0.567  -2.122  -1.329  1.00  0.00     0.163 HD
BRANCH  23  26
ATOM     26  C   UNL     1       1.525  -1.690  -0.080  1.00  0.00     0.238 C 
ATOM     27  N   UNL     1       2.922  -2.201  -0.154  1.00  0.00    -0.236 NA
ATOM     28  C   UNL     1       1.257  -1.043  -1.429  1.00  0.00     0.206 C 
ATOM     29  C   UNL     1       3.226  -2.058  -1.409  1.00  0.00     0.208 C 
ATOM     30  O   UNL     1       2.315  -1.521  -2.258  1.00  0.00    -0.474 OA
ATOM     31  C   UNL     1       1.331   0.477  -1.373  1.00  0.00     0.056 C 
BRANCH  29  32
ATOM     32  C   UNL     1       4.527  -2.489  -2.080  1.00  0.00     0.171 C 
BRANCH  32  33
ATOM     33  N   UNL     1       4.277  -2.994  -3.421  1.00  0.00    -0.342 N 
ATOM     34  C   UNL     1       4.793  -4.186  -3.872  1.00  0.00     0.246 CG0
ATOM     35  O   UNL     1       5.522  -4.901  -3.190  1.00  0.00    -0.273 OA
ATOM     36  H   UNL     1       3.736  -2.458  -4.091  1.00  0.00     0.164 HD
ATOM     37  G   UNL     1       4.362  -4.567  -5.298  1.00  0.00     0.000 G0
ENDBRANCH  32  33
BRANCH  32  38
ATOM     38  C   UNL     1       5.557  -1.329  -2.064  1.00  0.00     0.017 C 
ATOM     39  C   UNL     1       6.509  -1.453  -3.260  1.00  0.00     0.010 C 
BRANCH  38  40
ATOM     40  C   UNL     1       4.892   0.066  -2.007  1.00  0.00     0.002 C 
ATOM     41  C   UNL     1       4.416   0.570  -3.363  1.00  0.00     0.004 C 
ENDBRANCH  38  40
ENDBRANCH  32  38
ENDBRANCH  29  32
ENDBRANCH  23  26
ENDBRANCH   1  22
TORSDOF 4
ENDMDL
MODEL 7
REMARK VINA RESULT:    -5.803      2.580      5.963
REMARK INTER + INTRA:         -10.786
REMARK INTER:                  -9.159
REMARK INTRA:                  -1.628
REMARK UNBOUND:                -0.912
REMARK SMILES CC[C@H](C)[C@@H]1NC(=O)[C@H]2CSC(=N2)[C@@H]([C@@H](C)CC)NC(=O)c2csc(n2)CNC(=O)[C@H]2N=C1O[C@@H]2C
REMARK SMILES IDX 27 1 25 2 22 3 26 4 23 5 24 6 20 7 19 8 21 9 14 11 12 12
REMARK SMILES IDX 11 13 10 14 13 15 9 16 15 18 16 19 17 20 18 21 28 22 29 23
REMARK SMILES IDX 30 24 31 26 32 27 35 28 33 29 34 30 36 31 5 32 6 33 7 34
REMARK SMILES IDX 8 35 3 38 4 39 2 40 1 41
REMARK H PARENT 19 10 28 25 6 36
REMARK Flexibility Score:   91.900
ROOT
ATOM      1  C   UNL     1       0.650  -2.096  -0.007  1.00  0.00     0.183 C 
ENDROOT
BRANCH   1   2
ATOM      2  C   UNL     1       0.069  -3.469  -0.189  1.00  0.00     0.113 A 
ATOM      3  C   UNL     1      -0.944  -5.190  -1.178  1.00  0.00     0.139 A 
ATOM      4  N   UNL     1      -0.356  -3.935  -1.349  1.00  0.00    -0.234 NA
ATOM      5  C   UNL     1      -0.896  -5.673   0.115  1.00  0.00     0.101 A 
ATOM      6  S   UNL     1      -0.126  -4.534   1.143  1.00  0.00    -0.125 S 
BRANCH   3   7
ATOM      7  C   UNL     1      -1.580  -5.863  -2.313  1.00  0.00     0.271 C 
ATOM      8  N   UNL     1      -0.753  -6.808  -2.869  1.00  0.00    -0.341 N 
ATOM      9  O   UNL     1      -2.697  -5.585  -2.730  1.00  0.00    -0.267 OA
ATOM     10  H   UNL     1       0.141  -6.944  -2.397  1.00  0.00     0.164 HD
BRANCH   8  11
ATOM     11  C   UNL     1      -1.029  -7.504  -4.115  1.00  0.00     0.140 C 
BRANCH  11  12
ATOM     12  C   UNL     1       0.223  -7.413  -4.991  1.00  0.00     0.091 C 
ATOM     13  S   UNL     1       0.996  -8.863  -5.589  1.00  0.00    -0.106 SA
ATOM     14  C   UNL     1       2.013  -7.875  -6.707  1.00  0.00     0.113 C 
ATOM     15  N   UNL     1       0.793  -6.280  -5.259  1.00  0.00    -0.267 NA
ATOM     16  C   UNL     1       2.049  -6.509  -6.040  1.00  0.00     0.205 CG0
ATOM     17  G   UNL     1       3.288  -6.376  -5.140  1.00  0.00     0.000 G0
ENDBRANCH  11  12
BRANCH  11  18
ATOM     18  C   UNL     1      -1.636  -8.918  -3.925  1.00  0.00     0.015 C 
ATOM     19  C   UNL     1      -1.207  -9.508  -2.575  1.00  0.00     0.010 C 
BRANCH  18  20
ATOM     20  C   UNL     1      -3.165  -8.994  -4.113  1.00  0.00     0.002 C 
ATOM     21  C   UNL     1      -3.782 -10.237  -3.481  1.00  0.00     0.004 C 
ENDBRANCH  18  20
ENDBRANCH  11  18
ENDBRANCH   8  11
ENDBRANCH   3   7
ENDBRANCH   1   2
BRANCH   1  22
ATOM     22  N   UNL     1       2.025  -2.146  -0.452  1.00  0.00    -0.348 N 
ATOM     23  C   UNL     1       2.479  -1.643  -1.640  1.00  0.00     0.249 C 
ATOM     24  O   UNL     1       1.769  -1.016  -2.420  1.00  0.00    -0.272 OA
ATOM     25  H   UNL     1       2.698  -2.664   0.112  1.00  0.00     0.163 HD
BRANCH  23  26
ATOM     26  C   UNL     1       3.978  -1.894  -1.860  1.00  0.00     0.238 C 
ATOM     27  N   UNL     1       4.209  -3.353  -2.051  1.00  0.00    -0.236 NA
ATOM     28  C   UNL     1       4.486  -1.232  -3.129  1.00  0.00     0.206 C 
ATOM     29  C   UNL     1       4.547  -3.439  -3.303  1.00  0.00     0.208 C 
ATOM     30  O   UNL     1       4.623  -2.312  -4.052  1.00  0.00    -0.474 OA
ATOM     31  C   UNL     1       5.848  -0.577  -2.943  1.00  0.00     0.056 C 
BRANCH  29  32
ATOM     32  C   UNL     1       4.833  -4.724  -4.076  1.00  0.00     0.171 C 
BRANCH  32  33
ATOM     33  N   UNL     1       3.719  -5.064  -4.947  1.00  0.00    -0.342 N 
ATOM     34  C   UNL     1       3.300  -6.359  -5.142  1.00  0.00     0.246 CG0
ATOM     35  O   UNL     1       3.847  -7.326  -4.620  1.00  0.00    -0.273 OA
ATOM     36  H   UNL     1       3.230  -4.350  -5.476  1.00  0.00     0.164 HD
ATOM     37  G   UNL     1       2.070  -6.499  -6.053  1.00  0.00     0.000 G0
ENDBRANCH  32  33
BRANCH  32  38
ATOM     38  C   UNL     1       6.175  -4.607  -4.845  1.00  0.00     0.017 C 
ATOM     39  C   UNL     1       7.030  -5.858  -4.607  1.00  0.00     0.010 C 
BRANCH  38  40
ATOM     40  C   UNL     1       5.983  -4.328  -6.354  1.00  0.00     0.002 C 
ATOM     41  C   UNL     1       6.461  -2.947  -6.784  1.00  0.00     0.004 C 
ENDBRANCH  38  40
ENDBRANCH  32  38
ENDBRANCH  29  32
ENDBRANCH  23  26
ENDBRANCH   1  22
TORSDOF 4
ENDMDL
MODEL 8
REMARK VINA RESULT:    -5.790      2.723      5.975
REMARK INTER + INTRA:         -10.764
REMARK INTER:                  -9.121
REMARK INTRA:                  -1.643
REMARK UNBOUND:                -0.912
REMARK SMILES CC[C@H](C)[C@@H]1NC(=O)[C@H]2CSC(=N2)[C@@H]([C@@H](C)CC)NC(=O)c2csc(n2)CNC(=O)[C@H]2N=C1O[C@@H]2C
REMARK SMILES IDX 27 1 25 2 22 3 26 4 23 5 24 6 20 7 19 8 21 9 14 11 12 12
REMARK SMILES IDX 11 13 10 14 13 15 9 16 15 18 16 19 17 20 18 21 28 22 29 23
REMARK SMILES IDX 30 24 31 26 32 27 35 28 33 29 34 30 36 31 5 32 6 33 7 34
REMARK SMILES IDX 8 35 3 38 4 39 2 40 1 41
REMARK H PARENT 19 10 28 25 6 36
REMARK Flexibility Score:   91.900
ROOT
ATOM      1  C   UNL     1      -0.942  -5.483  -1.050  1.00  0.00     0.183 C 
ENDROOT
BRANCH   1   2
ATOM      2  C   UNL     1      -0.797  -5.946  -2.471  1.00  0.00     0.113 A 
ATOM      3  C   UNL     1       0.109  -6.892  -4.274  1.00  0.00     0.139 A 
ATOM      4  N   UNL     1       0.178  -6.732  -2.889  1.00  0.00    -0.234 NA
ATOM      5  C   UNL     1      -0.966  -6.262  -4.870  1.00  0.00     0.101 A 
ATOM      6  S   UNL     1      -1.895  -5.433  -3.688  1.00  0.00    -0.125 S 
BRANCH   3   7
ATOM      7  C   UNL     1       1.149  -7.645  -4.978  1.00  0.00     0.271 C 
ATOM      8  N   UNL     1       2.407  -7.250  -4.594  1.00  0.00    -0.341 N 
ATOM      9  O   UNL     1       0.916  -8.496  -5.827  1.00  0.00    -0.267 OA
ATOM     10  H   UNL     1       2.442  -6.546  -3.858  1.00  0.00     0.164 HD
BRANCH   8  11
ATOM     11  C   UNL     1       3.633  -7.679  -5.246  1.00  0.00     0.140 C 
BRANCH  11  12
ATOM     12  C   UNL     1       4.447  -6.428  -5.587  1.00  0.00     0.091 C 
ATOM     13  S   UNL     1       6.174  -6.532  -5.835  1.00  0.00    -0.106 SA
ATOM     14  C   UNL     1       6.194  -4.853  -6.498  1.00  0.00     0.113 C 
ATOM     15  N   UNL     1       3.908  -5.250  -5.632  1.00  0.00    -0.267 NA
ATOM     16  C   UNL     1       4.959  -4.213  -5.881  1.00  0.00     0.205 CG0
ATOM     17  G   UNL     1       5.321  -3.476  -4.581  1.00  0.00     0.000 G0
ENDBRANCH  11  12
BRANCH  11  18
ATOM     18  C   UNL     1       4.386  -8.807  -4.494  1.00  0.00     0.015 C 
ATOM     19  C   UNL     1       4.217  -8.644  -2.978  1.00  0.00     0.010 C 
BRANCH  18  20
ATOM     20  C   UNL     1       4.028 -10.236  -4.951  1.00  0.00     0.002 C 
ATOM     21  C   UNL     1       2.804 -10.800  -4.238  1.00  0.00     0.004 C 
ENDBRANCH  18  20
ENDBRANCH  11  18
ENDBRANCH   8  11
ENDBRANCH   3   7
ENDBRANCH   1   2
BRANCH   1  22
ATOM     22  N   UNL     1      -0.136  -4.292  -0.899  1.00  0.00    -0.348 N 
ATOM     23  C   UNL     1       1.184  -4.284  -0.536  1.00  0.00     0.249 C 
ATOM     24  O   UNL     1       1.845  -5.305  -0.383  1.00  0.00    -0.272 OA
ATOM     25  H   UNL     1      -0.592  -3.384  -0.983  1.00  0.00     0.163 HD
BRANCH  23  26
ATOM     26  C   UNL     1       1.757  -2.865  -0.404  1.00  0.00     0.238 C 
ATOM     27  N   UNL     1       3.193  -2.877  -0.798  1.00  0.00    -0.236 NA
ATOM     28  C   UNL     1       1.083  -1.889  -1.352  1.00  0.00     0.206 C 
ATOM     29  C   UNL     1       3.201  -2.209  -1.913  1.00  0.00     0.208 C 
ATOM     30  O   UNL     1       2.040  -1.700  -2.393  1.00  0.00    -0.474 OA
ATOM     31  C   UNL     1       0.800  -0.542  -0.700  1.00  0.00     0.056 C 
BRANCH  29  32
ATOM     32  C   UNL     1       4.410  -1.964  -2.812  1.00  0.00     0.171 C 
BRANCH  32  33
ATOM     33  N   UNL     1       4.294  -2.713  -4.053  1.00  0.00    -0.342 N 
ATOM     34  C   UNL     1       5.324  -3.466  -4.564  1.00  0.00     0.246 CG0
ATOM     35  O   UNL     1       6.426  -3.544  -4.027  1.00  0.00    -0.273 OA
ATOM     36  H   UNL     1       3.448  -2.674  -4.612  1.00  0.00     0.164 HD
ATOM     37  G   UNL     1       4.978  -4.226  -5.854  1.00  0.00     0.000 G0
ENDBRANCH  32  33
BRANCH  32  38
ATOM     38  C   UNL     1       4.610  -0.444  -3.050  1.00  0.00     0.017 C 
ATOM     39  C   UNL     1       4.218   0.342  -1.793  1.00  0.00     0.010 C 
BRANCH  38  40
ATOM     40  C   UNL     1       6.040  -0.091  -3.519  1.00  0.00     0.002 C 
ATOM     41  C   UNL     1       6.112   1.184  -4.348  1.00  0.00     0.004 C 
ENDBRANCH  38  40
ENDBRANCH  32  38
ENDBRANCH  29  32
ENDBRANCH  23  26
ENDBRANCH   1  22
TORSDOF 4
ENDMDL
MODEL 9
REMARK VINA RESULT:    -5.697      3.142      6.630
REMARK INTER + INTRA:         -10.606
REMARK INTER:                  -9.080
REMARK INTRA:                  -1.526
REMARK UNBOUND:                -0.912
REMARK SMILES CC[C@H](C)[C@@H]1NC(=O)[C@H]2CSC(=N2)[C@@H]([C@@H](C)CC)NC(=O)c2csc(n2)CNC(=O)[C@H]2N=C1O[C@@H]2C
REMARK SMILES IDX 27 1 25 2 22 3 26 4 23 5 24 6 20 7 19 8 21 9 14 11 12 12
REMARK SMILES IDX 11 13 10 14 13 15 9 16 15 18 16 19 17 20 18 21 28 22 29 23
REMARK SMILES IDX 30 24 31 26 32 27 35 28 33 29 34 30 36 31 5 32 6 33 7 34
REMARK SMILES IDX 8 35 3 38 4 39 2 40 1 41
REMARK H PARENT 19 10 28 25 6 36
REMARK Flexibility Score:   91.900
ROOT
ATOM      1  C   UNL     1       4.705  -5.340  -3.267  1.00  0.00     0.183 C 
ENDROOT
BRANCH   1   2
ATOM      2  C   UNL     1       4.238  -6.605  -3.928  1.00  0.00     0.113 A 
ATOM      3  C   UNL     1       2.841  -8.148  -4.726  1.00  0.00     0.139 A 
ATOM      4  N   UNL     1       2.976  -6.850  -4.229  1.00  0.00    -0.234 NA
ATOM      5  C   UNL     1       4.030  -8.840  -4.846  1.00  0.00     0.101 A 
ATOM      6  S   UNL     1       5.337  -7.868  -4.305  1.00  0.00    -0.125 S 
BRANCH   3   7
ATOM      7  C   UNL     1       1.512  -8.680  -5.036  1.00  0.00     0.271 C 
ATOM      8  N   UNL     1       0.553  -8.161  -4.202  1.00  0.00    -0.341 N 
ATOM      9  O   UNL     1       1.299  -9.510  -5.910  1.00  0.00    -0.267 OA
ATOM     10  H   UNL     1       0.879  -7.461  -3.537  1.00  0.00     0.164 HD
BRANCH   8  11
ATOM     11  C   UNL     1      -0.820  -8.635  -4.142  1.00  0.00     0.140 C 
BRANCH  11  12
ATOM     12  C   UNL     1      -1.234  -8.693  -2.669  1.00  0.00     0.091 C 
ATOM     13  S   UNL     1      -2.895  -9.007  -2.224  1.00  0.00    -0.106 SA
ATOM     14  C   UNL     1      -2.402  -9.253  -0.505  1.00  0.00     0.113 C 
ATOM     15  N   UNL     1      -0.398  -8.441  -1.711  1.00  0.00    -0.267 NA
ATOM     16  C   UNL     1      -1.105  -8.467  -0.391  1.00  0.00     0.205 CG0
ATOM     17  G   UNL     1      -1.376  -7.040   0.113  1.00  0.00     0.000 G0
ENDBRANCH  11  12
BRANCH  11  18
ATOM     18  C   UNL     1      -1.786  -7.891  -5.100  1.00  0.00     0.015 C 
ATOM     19  C   UNL     1      -1.202  -6.529  -5.496  1.00  0.00     0.010 C 
BRANCH  18  20
ATOM     20  C   UNL     1      -2.216  -8.702  -6.339  1.00  0.00     0.002 C 
ATOM     21  C   UNL     1      -2.988  -7.870  -7.357  1.00  0.00     0.004 C 
ENDBRANCH  18  20
ENDBRANCH  11  18
ENDBRANCH   8  11
ENDBRANCH   3   7
ENDBRANCH   1   2
BRANCH   1  22
ATOM     22  N   UNL     1       3.531  -4.563  -2.941  1.00  0.00    -0.348 N 
ATOM     23  C   UNL     1       3.411  -3.754  -1.844  1.00  0.00     0.249 C 
ATOM     24  O   UNL     1       4.331  -3.540  -1.063  1.00  0.00    -0.272 OA
ATOM     25  H   UNL     1       2.696  -4.682  -3.514  1.00  0.00     0.163 HD
BRANCH  23  26
ATOM     26  C   UNL     1       2.025  -3.100  -1.735  1.00  0.00     0.238 C 
ATOM     27  N   UNL     1       1.000  -4.156  -1.510  1.00  0.00    -0.236 NA
ATOM     28  C   UNL     1       1.926  -2.175  -0.534  1.00  0.00     0.206 C 
ATOM     29  C   UNL     1       0.617  -3.944  -0.287  1.00  0.00     0.208 C 
ATOM     30  O   UNL     1       1.160  -2.918   0.413  1.00  0.00    -0.474 OA
ATOM     31  C   UNL     1       1.186  -0.882  -0.852  1.00  0.00     0.056 C 
BRANCH  29  32
ATOM     32  C   UNL     1      -0.381  -4.782   0.507  1.00  0.00     0.171 C 
BRANCH  32  33
ATOM     33  N   UNL     1      -0.286  -6.187   0.141  1.00  0.00    -0.342 N 
ATOM     34  C   UNL     1      -1.381  -7.017   0.097  1.00  0.00     0.246 CG0
ATOM     35  O   UNL     1      -2.515  -6.645   0.387  1.00  0.00    -0.273 OA
ATOM     36  H   UNL     1       0.610  -6.617  -0.061  1.00  0.00     0.164 HD
ATOM     37  G   UNL     1      -1.076  -8.449  -0.370  1.00  0.00     0.000 G0
ENDBRANCH  32  33
BRANCH  32  38
ATOM     38  C   UNL     1      -0.194  -4.551   2.030  1.00  0.00     0.017 C 
ATOM     39  C   UNL     1      -1.372  -3.744   2.589  1.00  0.00     0.010 C 
BRANCH  38  40
ATOM     40  C   UNL     1       0.021  -5.864   2.817  1.00  0.00     0.002 C 
ATOM     41  C   UNL     1      -0.771  -5.932   4.116  1.00  0.00     0.004 C 
ENDBRANCH  38  40
ENDBRANCH  32  38
ENDBRANCH  29  32
ENDBRANCH  23  26
ENDBRANCH   1  22
TORSDOF 4
ENDMDL
MODEL 10
REMARK VINA RESULT:    -5.693      2.541      6.093
REMARK INTER + INTRA:         -10.598
REMARK INTER:                  -9.583
REMARK INTRA:                  -1.016
REMARK UNBOUND:                -0.912
REMARK SMILES CC[C@H](C)[C@@H]1NC(=O)[C@H]2CSC(=N2)[C@@H]([C@@H](C)CC)NC(=O)c2csc(n2)CNC(=O)[C@H]2N=C1O[C@@H]2C
REMARK SMILES IDX 27 1 25 2 22 3 26 4 23 5 24 6 20 7 19 8 21 9 14 11 12 12
REMARK SMILES IDX 11 13 10 14 13 15 9 16 15 18 16 19 17 20 18 21 28 22 29 23
REMARK SMILES IDX 30 24 31 26 32 27 35 28 33 29 34 30 36 31 5 32 6 33 7 34
REMARK SMILES IDX 8 35 3 38 4 39 2 40 1 41
REMARK H PARENT 19 10 28 25 6 36
REMARK Flexibility Score:   91.900
ROOT
ATOM      1  C   UNL     1      -1.030  -3.226   2.241  1.00  0.00     0.183 C 
ENDROOT
BRANCH   1   2
ATOM      2  C   UNL     1      -1.166  -4.624   1.710  1.00  0.00     0.113 A 
ATOM      3  C   UNL     1      -1.575  -6.279   0.274  1.00  0.00     0.139 A 
ATOM      4  N   UNL     1      -1.381  -4.905   0.438  1.00  0.00    -0.234 NA
ATOM      5  C   UNL     1      -1.442  -7.017   1.433  1.00  0.00     0.101 A 
ATOM      6  S   UNL     1      -1.094  -5.982   2.757  1.00  0.00    -0.125 S 
BRANCH   3   7
ATOM      7  C   UNL     1      -1.930  -6.817  -1.041  1.00  0.00     0.271 C 
ATOM      8  N   UNL     1      -1.016  -7.748  -1.469  1.00  0.00    -0.341 N 
ATOM      9  O   UNL     1      -2.904  -6.450  -1.686  1.00  0.00    -0.267 OA
ATOM     10  H   UNL     1      -0.269  -7.968  -0.812  1.00  0.00     0.164 HD
BRANCH   8  11
ATOM     11  C   UNL     1      -0.996  -8.318  -2.807  1.00  0.00     0.140 C 
BRANCH  11  12
ATOM     12  C   UNL     1       0.313  -7.892  -3.479  1.00  0.00     0.091 C 
ATOM     13  S   UNL     1       1.560  -9.069  -3.817  1.00  0.00    -0.106 SA
ATOM     14  C   UNL     1       2.434  -7.867  -4.843  1.00  0.00     0.113 C 
ATOM     15  N   UNL     1       0.573  -6.652  -3.751  1.00  0.00    -0.267 NA
ATOM     16  C   UNL     1       1.960  -6.527  -4.301  1.00  0.00     0.205 CG0
ATOM     17  G   UNL     1       2.929  -6.000  -3.231  1.00  0.00     0.000 G0
ENDBRANCH  11  12
BRANCH  11  18
ATOM     18  C   UNL     1      -1.334  -9.830  -2.853  1.00  0.00     0.015 C 
ATOM     19  C   UNL     1      -2.369 -10.180  -1.775  1.00  0.00     0.010 C 
BRANCH  18  20
ATOM     20  C   UNL     1      -1.765 -10.352  -4.239  1.00  0.00     0.002 C 
ATOM     21  C   UNL     1      -1.450 -11.830  -4.442  1.00  0.00     0.004 C 
ENDBRANCH  18  20
ENDBRANCH  11  18
ENDBRANCH   8  11
ENDBRANCH   3   7
ENDBRANCH   1   2
BRANCH   1  22
ATOM     22  N   UNL     1       0.137  -2.639   1.621  1.00  0.00    -0.348 N 
ATOM     23  C   UNL     1       0.121  -1.910   0.463  1.00  0.00     0.249 C 
ATOM     24  O   UNL     1      -0.910  -1.607  -0.127  1.00  0.00    -0.272 OA
ATOM     25  H   UNL     1       1.052  -2.847   2.019  1.00  0.00     0.163 HD
BRANCH  23  26
ATOM     26  C   UNL     1       1.523  -1.465   0.021  1.00  0.00     0.238 C 
ATOM     27  N   UNL     1       2.430  -2.646   0.002  1.00  0.00    -0.236 NA
ATOM     28  C   UNL     1       1.528  -0.925  -1.399  1.00  0.00     0.206 C 
ATOM     29  C   UNL     1       2.661  -2.823  -1.265  1.00  0.00     0.208 C 
ATOM     30  O   UNL     1       2.104  -1.979  -2.168  1.00  0.00    -0.474 OA
ATOM     31  C   UNL     1       2.395   0.317  -1.549  1.00  0.00     0.056 C 
BRANCH  29  32
ATOM     32  C   UNL     1       3.480  -3.951  -1.886  1.00  0.00     0.171 C 
BRANCH  32  33
ATOM     33  N   UNL     1       2.715  -4.645  -2.911  1.00  0.00    -0.342 N 
ATOM     34  C   UNL     1       2.935  -5.963  -3.234  1.00  0.00     0.246 CG0
ATOM     35  O   UNL     1       3.806  -6.647  -2.704  1.00  0.00    -0.273 OA
ATOM     36  H   UNL     1       2.009  -4.162  -3.455  1.00  0.00     0.164 HD
ATOM     37  G   UNL     1       1.981  -6.524  -4.301  1.00  0.00     0.000 G0
ENDBRANCH  32  33
BRANCH  32  38
ATOM     38  C   UNL     1       4.833  -3.410  -2.418  1.00  0.00     0.017 C 
ATOM     39  C   UNL     1       4.588  -2.303  -3.451  1.00  0.00     0.010 C 
BRANCH  38  40
ATOM     40  C   UNL     1       5.778  -2.937  -1.290  1.00  0.00     0.002 C 
ATOM     41  C   UNL     1       7.165  -3.562  -1.355  1.00  0.00     0.004 C 
ENDBRANCH  38  40
ENDBRANCH  32  38
ENDBRANCH  29  32
ENDBRANCH  23  26
ENDBRANCH   1  22
TORSDOF 4
ENDMDL
MODEL 11
REMARK VINA RESULT:    -5.501     14.860     17.917
REMARK INTER + INTRA:         -10.272
REMARK INTER:                  -8.634
REMARK INTRA:                  -1.638
REMARK UNBOUND:                -0.912
REMARK SMILES CC[C@H](C)[C@@H]1NC(=O)[C@H]2CSC(=N2)[C@@H]([C@@H](C)CC)NC(=O)c2csc(n2)CNC(=O)[C@H]2N=C1O[C@@H]2C
REMARK SMILES IDX 27 1 25 2 22 3 26 4 23 5 24 6 20 7 19 8 21 9 14 11 12 12
REMARK SMILES IDX 11 13 10 14 13 15 9 16 15 18 16 19 17 20 18 21 28 22 29 23
REMARK SMILES IDX 30 24 31 26 32 27 35 28 33 29 34 30 36 31 5 32 6 33 7 34
REMARK SMILES IDX 8 35 3 38 4 39 2 40 1 41
REMARK H PARENT 19 10 28 25 6 36
REMARK Flexibility Score:   91.900
ROOT
ATOM      1  C   UNL     1     -11.160  -7.207   0.984  1.00  0.00     0.183 C 
ENDROOT
BRANCH   1   2
ATOM      2  C   UNL     1     -11.905  -8.256   1.758  1.00  0.00     0.113 A 
ATOM      3  C   UNL     1     -13.472  -9.175   3.049  1.00  0.00     0.139 A 
ATOM      4  N   UNL     1     -13.092  -8.059   2.301  1.00  0.00    -0.234 NA
ATOM      5  C   UNL     1     -12.575 -10.225   3.005  1.00  0.00     0.101 A 
ATOM      6  S   UNL     1     -11.222  -9.807   2.035  1.00  0.00    -0.125 S 
BRANCH   3   7
ATOM      7  C   UNL     1     -14.713  -9.149   3.827  1.00  0.00     0.271 C 
ATOM      8  N   UNL     1     -15.810  -8.961   3.022  1.00  0.00    -0.341 N 
ATOM      9  O   UNL     1     -14.753  -9.249   5.046  1.00  0.00    -0.267 OA
ATOM     10  H   UNL     1     -15.620  -8.919   2.022  1.00  0.00     0.164 HD
BRANCH   8  11
ATOM     11  C   UNL     1     -17.152  -8.707   3.518  1.00  0.00     0.140 C 
BRANCH  11  12
ATOM     12  C   UNL     1     -17.631  -7.381   2.919  1.00  0.00     0.091 C 
ATOM     13  S   UNL     1     -18.729  -7.366   1.560  1.00  0.00    -0.106 SA
ATOM     14  C   UNL     1     -19.003  -5.596   1.784  1.00  0.00     0.113 C 
ATOM     15  N   UNL     1     -17.189  -6.238   3.342  1.00  0.00    -0.267 NA
ATOM     16  C   UNL     1     -17.747  -5.130   2.503  1.00  0.00     0.205 CG0
ATOM     17  G   UNL     1     -16.701  -4.624   1.497  1.00  0.00     0.000 G0
ENDBRANCH  11  12
BRANCH  11  18
ATOM     18  C   UNL     1     -18.115  -9.913   3.378  1.00  0.00     0.015 C 
ATOM     19  C   UNL     1     -17.580 -10.907   2.339  1.00  0.00     0.010 C 
BRANCH  18  20
ATOM     20  C   UNL     1     -18.463 -10.618   4.705  1.00  0.00     0.002 C 
ATOM     21  C   UNL     1     -17.934  -9.878   5.929  1.00  0.00     0.004 C 
ENDBRANCH  18  20
ENDBRANCH  11  18
ENDBRANCH   8  11
ENDBRANCH   3   7
ENDBRANCH   1   2
BRANCH   1  22
ATOM     22  N   UNL     1     -11.574  -5.918   1.492  1.00  0.00    -0.348 N 
ATOM     23  C   UNL     1     -11.052  -4.718   1.092  1.00  0.00     0.249 C 
ATOM     24  O   UNL     1     -10.230  -4.610   0.189  1.00  0.00    -0.272 OA
ATOM     25  H   UNL     1     -12.239  -5.893   2.264  1.00  0.00     0.163 HD
BRANCH  23  26
ATOM     26  C   UNL     1     -11.652  -3.525   1.851  1.00  0.00     0.238 C 
ATOM     27  N   UNL     1     -12.646  -2.839   0.980  1.00  0.00    -0.236 NA
ATOM     28  C   UNL     1     -12.425  -3.966   3.082  1.00  0.00     0.206 C 
ATOM     29  C   UNL     1     -13.780  -3.103   1.558  1.00  0.00     0.208 C 
ATOM     30  O   UNL     1     -13.793  -3.839   2.696  1.00  0.00    -0.474 OA
ATOM     31  C   UNL     1     -12.173  -3.064   4.284  1.00  0.00     0.056 C 
BRANCH  29  32
ATOM     32  C   UNL     1     -15.165  -2.707   1.054  1.00  0.00     0.171 C 
BRANCH  32  33
ATOM     33  N   UNL     1     -16.207  -3.362   1.830  1.00  0.00    -0.342 N 
ATOM     34  C   UNL     1     -16.700  -4.604   1.507  1.00  0.00     0.246 CG0
ATOM     35  O   UNL     1     -16.320  -5.243   0.529  1.00  0.00    -0.273 OA
ATOM     36  H   UNL     1     -16.636  -2.902   2.625  1.00  0.00     0.164 HD
ATOM     37  G   UNL     1     -17.754  -5.145   2.488  1.00  0.00     0.000 G0
ENDBRANCH  32  33
BRANCH  32  38
ATOM     38  C   UNL     1     -15.317  -1.163   1.040  1.00  0.00     0.017 C 
ATOM     39  C   UNL     1     -15.087  -0.624  -0.377  1.00  0.00     0.010 C 
BRANCH  38  40
ATOM     40  C   UNL     1     -16.669  -0.685   1.618  1.00  0.00     0.002 C 
ATOM     41  C   UNL     1     -17.215   0.564   0.939  1.00  0.00     0.004 C 
ENDBRANCH  38  40
ENDBRANCH  32  38
ENDBRANCH  29  32
ENDBRANCH  23  26
ENDBRANCH   1  22
TORSDOF 4
ENDMDL
MODEL 12
REMARK VINA RESULT:    -5.448      2.718      5.712
REMARK INTER + INTRA:         -10.182
REMARK INTER:                  -8.676
REMARK INTRA:                  -1.506
REMARK UNBOUND:                -0.912
REMARK SMILES CC[C@H](C)[C@@H]1NC(=O)[C@H]2CSC(=N2)[C@@H]([C@@H](C)CC)NC(=O)c2csc(n2)CNC(=O)[C@H]2N=C1O[C@@H]2C
REMARK SMILES IDX 27 1 25 2 22 3 26 4 23 5 24 6 20 7 19 8 21 9 14 11 12 12
REMARK SMILES IDX 11 13 10 14 13 15 9 16 15 18 16 19 17 20 18 21 28 22 29 23
REMARK SMILES IDX 30 24 31 26 32 27 35 28 33 29 34 30 36 31 5 32 6 33 7 34
REMARK SMILES IDX 8 35 3 38 4 39 2 40 1 41
REMARK H PARENT 19 10 28 25 6 36
REMARK Flexibility Score:   91.900
ROOT
ATOM      1  C   UNL     1       5.745  -5.471  -1.681  1.00  0.00     0.183 C 
ENDROOT
BRANCH   1   2
ATOM      2  C   UNL     1       5.367  -6.742  -2.387  1.00  0.00     0.113 A 
ATOM      3  C   UNL     1       4.082  -8.349  -3.242  1.00  0.00     0.139 A 
ATOM      4  N   UNL     1       4.126  -7.063  -2.700  1.00  0.00    -0.234 NA
ATOM      5  C   UNL     1       5.316  -8.953  -3.381  1.00  0.00     0.101 A 
ATOM      6  S   UNL     1       6.553  -7.912  -2.803  1.00  0.00    -0.125 S 
BRANCH   3   7
ATOM      7  C   UNL     1       2.794  -8.962  -3.575  1.00  0.00     0.271 C 
ATOM      8  N   UNL     1       1.793  -8.025  -3.651  1.00  0.00    -0.341 N 
ATOM      9  O   UNL     1       2.633 -10.166  -3.729  1.00  0.00    -0.267 OA
ATOM     10  H   UNL     1       2.085  -7.057  -3.522  1.00  0.00     0.164 HD
BRANCH   8  11
ATOM     11  C   UNL     1       0.381  -8.346  -3.779  1.00  0.00     0.140 C 
BRANCH  11  12
ATOM     12  C   UNL     1      -0.367  -7.631  -2.650  1.00  0.00     0.091 C 
ATOM     13  S   UNL     1      -2.115  -7.586  -2.633  1.00  0.00    -0.106 SA
ATOM     14  C   UNL     1      -2.094  -6.961  -0.939  1.00  0.00     0.113 C 
ATOM     15  N   UNL     1       0.255  -6.980  -1.719  1.00  0.00    -0.267 NA
ATOM     16  C   UNL     1      -0.731  -6.299  -0.821  1.00  0.00     0.205 CG0
ATOM     17  G   UNL     1      -0.824  -4.799  -1.147  1.00  0.00     0.000 G0
ENDBRANCH  11  12
BRANCH  11  18
ATOM     18  C   UNL     1      -0.182  -8.151  -5.210  1.00  0.00     0.015 C 
ATOM     19  C   UNL     1       0.110  -6.731  -5.712  1.00  0.00     0.010 C 
BRANCH  18  20
ATOM     20  C   UNL     1       0.271  -9.215  -6.231  1.00  0.00     0.002 C 
ATOM     21  C   UNL     1      -0.377 -10.576  -6.001  1.00  0.00     0.004 C 
ENDBRANCH  18  20
ENDBRANCH  11  18
ENDBRANCH   8  11
ENDBRANCH   3   7
ENDBRANCH   1   2
BRANCH   1  22
ATOM     22  N   UNL     1       4.855  -4.434  -2.152  1.00  0.00    -0.348 N 
ATOM     23  C   UNL     1       4.869  -3.137  -1.715  1.00  0.00     0.249 C 
ATOM     24  O   UNL     1       5.705  -2.701  -0.932  1.00  0.00    -0.272 OA
ATOM     25  H   UNL     1       4.104  -4.693  -2.791  1.00  0.00     0.163 HD
BRANCH  23  26
ATOM     26  C   UNL     1       3.768  -2.281  -2.357  1.00  0.00     0.238 C 
ATOM     27  N   UNL     1       2.470  -3.007  -2.276  1.00  0.00    -0.236 NA
ATOM     28  C   UNL     1       3.551  -0.977  -1.608  1.00  0.00     0.206 C 
ATOM     29  C   UNL     1       1.789  -2.304  -1.421  1.00  0.00     0.208 C 
ATOM     30  O   UNL     1       2.343  -1.192  -0.880  1.00  0.00    -0.474 OA
ATOM     31  C   UNL     1       3.351   0.208  -2.543  1.00  0.00     0.056 C 
BRANCH  29  32
ATOM     32  C   UNL     1       0.394  -2.627  -0.892  1.00  0.00     0.171 C 
BRANCH  32  33
ATOM     33  N   UNL     1       0.247  -4.053  -0.651  1.00  0.00    -0.342 N 
ATOM     34  C   UNL     1      -0.810  -4.783  -1.141  1.00  0.00     0.246 CG0
ATOM     35  O   UNL     1      -1.721  -4.285  -1.797  1.00  0.00    -0.273 OA
ATOM     36  H   UNL     1       0.910  -4.558  -0.072  1.00  0.00     0.164 HD
ATOM     37  G   UNL     1      -0.748  -6.286  -0.824  1.00  0.00     0.000 G0
ENDBRANCH  32  33
BRANCH  32  38
ATOM     38  C   UNL     1       0.080  -1.775   0.366  1.00  0.00     0.017 C 
ATOM     39  C   UNL     1      -1.429  -1.779   0.642  1.00  0.00     0.010 C 
BRANCH  38  40
ATOM     40  C   UNL     1       0.887  -2.216   1.609  1.00  0.00     0.002 C 
ATOM     41  C   UNL     1       0.027  -2.816   2.713  1.00  0.00     0.004 C 
ENDBRANCH  38  40
ENDBRANCH  32  38
ENDBRANCH  29  32
ENDBRANCH  23  26
ENDBRANCH   1  22
TORSDOF 4
ENDMDL
MODEL 13
REMARK VINA RESULT:    -5.214      2.555      5.018
REMARK INTER + INTRA:          -9.784
REMARK INTER:                  -8.161
REMARK INTRA:                  -1.624
REMARK UNBOUND:                -0.912
REMARK SMILES CC[C@H](C)[C@@H]1NC(=O)[C@H]2CSC(=N2)[C@@H]([C@@H](C)CC)NC(=O)c2csc(n2)CNC(=O)[C@H]2N=C1O[C@@H]2C
REMARK SMILES IDX 27 1 25 2 22 3 26 4 23 5 24 6 20 7 19 8 21 9 14 11 12 12
REMARK SMILES IDX 11 13 10 14 13 15 9 16 15 18 16 19 17 20 18 21 28 22 29 23
REMARK SMILES IDX 30 24 31 26 32 27 35 28 33 29 34 30 36 31 5 32 6 33 7 34
REMARK SMILES IDX 8 35 3 38 4 39 2 40 1 41
REMARK H PARENT 19 10 28 25 6 36
REMARK Flexibility Score:   91.900
ROOT
ATOM      1  C   UNL     1       4.940  -4.501  -5.742  1.00  0.00     0.183 C 
ENDROOT
BRANCH   1   2
ATOM      2  C   UNL     1       4.112  -5.750  -5.845  1.00  0.00     0.113 A 
ATOM      3  C   UNL     1       2.940  -7.534  -5.203  1.00  0.00     0.139 A 
ATOM      4  N   UNL     1       3.541  -6.337  -4.809  1.00  0.00    -0.234 NA
ATOM      5  C   UNL     1       3.023  -7.796  -6.557  1.00  0.00     0.101 A 
ATOM      6  S   UNL     1       3.886  -6.543  -7.350  1.00  0.00    -0.125 S 
BRANCH   3   7
ATOM      7  C   UNL     1       2.328  -8.410  -4.203  1.00  0.00     0.271 C 
ATOM      8  N   UNL     1       0.959  -8.420  -4.309  1.00  0.00    -0.341 N 
ATOM      9  O   UNL     1       2.964  -9.028  -3.359  1.00  0.00    -0.267 OA
ATOM     10  H   UNL     1       0.572  -7.873  -5.078  1.00  0.00     0.164 HD
BRANCH   8  11
ATOM     11  C   UNL     1       0.068  -9.044  -3.344  1.00  0.00     0.140 C 
BRANCH  11  12
ATOM     12  C   UNL     1      -0.396  -7.962  -2.364  1.00  0.00     0.091 C 
ATOM     13  S   UNL     1      -2.055  -7.413  -2.369  1.00  0.00    -0.106 SA
ATOM     14  C   UNL     1      -1.785  -6.540  -0.812  1.00  0.00     0.113 C 
ATOM     15  N   UNL     1       0.426  -7.368  -1.558  1.00  0.00    -0.267 NA
ATOM     16  C   UNL     1      -0.285  -6.289  -0.802  1.00  0.00     0.205 CG0
ATOM     17  G   UNL     1       0.038  -4.905  -1.388  1.00  0.00     0.000 G0
ENDBRANCH  11  12
BRANCH  11  18
ATOM     18  C   UNL     1      -1.042  -9.917  -3.983  1.00  0.00     0.015 C 
ATOM     19  C   UNL     1      -0.982  -9.822  -5.513  1.00  0.00     0.010 C 
BRANCH  18  20
ATOM     20  C   UNL     1      -1.061 -11.384  -3.510  1.00  0.00     0.002 C 
ATOM     21  C   UNL     1      -2.403 -11.802  -2.919  1.00  0.00     0.004 C 
ENDBRANCH  18  20
ENDBRANCH  11  18
ENDBRANCH   8  11
ENDBRANCH   3   7
ENDBRANCH   1   2
BRANCH   1  22
ATOM     22  N   UNL     1       4.830  -4.020  -4.382  1.00  0.00    -0.348 N 
ATOM     23  C   UNL     1       4.751  -2.701  -4.026  1.00  0.00     0.249 C 
ATOM     24  O   UNL     1       4.679  -1.788  -4.840  1.00  0.00    -0.272 OA
ATOM     25  H   UNL     1       4.901  -4.696  -3.622  1.00  0.00     0.163 HD
BRANCH  23  26
ATOM     26  C   UNL     1       4.700  -2.498  -2.504  1.00  0.00     0.238 C 
ATOM     27  N   UNL     1       3.390  -1.894  -2.133  1.00  0.00    -0.236 NA
ATOM     28  C   UNL     1       4.768  -3.816  -1.752  1.00  0.00     0.206 C 
ATOM     29  C   UNL     1       2.789  -2.855  -1.497  1.00  0.00     0.208 C 
ATOM     30  O   UNL     1       3.426  -4.039  -1.321  1.00  0.00    -0.474 OA
ATOM     31  C   UNL     1       5.667  -3.743  -0.525  1.00  0.00     0.056 C 
BRANCH  29  32
ATOM     32  C   UNL     1       1.367  -2.823  -0.944  1.00  0.00     0.171 C 
BRANCH  32  33
ATOM     33  N   UNL     1       0.920  -4.159  -0.581  1.00  0.00    -0.342 N 
ATOM     34  C   UNL     1       0.045  -4.882  -1.356  1.00  0.00     0.246 CG0
ATOM     35  O   UNL     1      -0.446  -4.450  -2.395  1.00  0.00    -0.273 OA
ATOM     36  H   UNL     1       1.215  -4.593   0.286  1.00  0.00     0.164 HD
ATOM     37  G   UNL     1      -0.255  -6.295  -0.827  1.00  0.00     0.000 G0
ENDBRANCH  32  33
BRANCH  32  38
ATOM     38  C   UNL     1       1.266  -1.822   0.237  1.00  0.00     0.017 C 
ATOM     39  C   UNL     1       0.937  -0.419  -0.288  1.00  0.00     0.010 C 
BRANCH  38  40
ATOM     40  C   UNL     1       0.264  -2.272   1.326  1.00  0.00     0.002 C 
ATOM     41  C   UNL     1      -1.042  -1.489   1.312  1.00  0.00     0.004 C 
ENDBRANCH  38  40
ENDBRANCH  32  38
ENDBRANCH  29  32
ENDBRANCH  23  26
ENDBRANCH   1  22
TORSDOF 4
ENDMDL
MODEL 14
REMARK VINA RESULT:    -5.183     14.777     18.062
REMARK INTER + INTRA:          -9.732
REMARK INTER:                  -8.697
REMARK INTRA:                  -1.035
REMARK UNBOUND:                -0.912
REMARK SMILES CC[C@H](C)[C@@H]1NC(=O)[C@H]2CSC(=N2)[C@@H]([C@@H](C)CC)NC(=O)c2csc(n2)CNC(=O)[C@H]2N=C1O[C@@H]2C
REMARK SMILES IDX 27 1 25 2 22 3 26 4 23 5 24 6 20 7 19 8 21 9 14 11 12 12
REMARK SMILES IDX 11 13 10 14 13 15 9 16 15 18 16 19 17 20 18 21 28 22 29 23
REMARK SMILES IDX 30 24 31 26 32 27 35 28 33 29 34 30 36 31 5 32 6 33 7 34
REMARK SMILES IDX 8 35 3 38 4 39 2 40 1 41
REMARK H PARENT 19 10 28 25 6 36
REMARK Flexibility Score:   91.900
ROOT
ATOM      1  C   UNL     1     -10.754  -6.783   0.822  1.00  0.00     0.183 C 
ENDROOT
BRANCH   1   2
ATOM      2  C   UNL     1     -11.283  -7.793   1.800  1.00  0.00     0.113 A 
ATOM      3  C   UNL     1     -12.742  -8.904   3.066  1.00  0.00     0.139 A 
ATOM      4  N   UNL     1     -12.569  -7.988   2.027  1.00  0.00    -0.234 NA
ATOM      5  C   UNL     1     -11.567  -9.430   3.566  1.00  0.00     0.101 A 
ATOM      6  S   UNL     1     -10.220  -8.753   2.746  1.00  0.00    -0.125 S 
BRANCH   3   7
ATOM      7  C   UNL     1     -14.087  -9.204   3.562  1.00  0.00     0.271 C 
ATOM      8  N   UNL     1     -15.003  -9.260   2.541  1.00  0.00    -0.341 N 
ATOM      9  O   UNL     1     -14.357  -9.352   4.747  1.00  0.00    -0.267 OA
ATOM     10  H   UNL     1     -14.624  -9.140   1.602  1.00  0.00     0.164 HD
BRANCH   8  11
ATOM     11  C   UNL     1     -16.440  -9.353   2.736  1.00  0.00     0.140 C 
BRANCH  11  12
ATOM     12  C   UNL     1     -17.084  -8.127   2.082  1.00  0.00     0.091 C 
ATOM     13  S   UNL     1     -16.574  -7.597   0.496  1.00  0.00    -0.106 SA
ATOM     14  C   UNL     1     -17.987  -6.477   0.403  1.00  0.00     0.113 C 
ATOM     15  N   UNL     1     -17.963  -7.402   2.699  1.00  0.00    -0.267 NA
ATOM     16  C   UNL     1     -18.332  -6.217   1.861  1.00  0.00     0.205 CG0
ATOM     17  G   UNL     1     -17.630  -4.947   2.368  1.00  0.00     0.000 G0
ENDBRANCH  11  12
BRANCH  11  18
ATOM     18  C   UNL     1     -17.040 -10.731   2.356  1.00  0.00     0.015 C 
ATOM     19  C   UNL     1     -17.487 -11.485   3.615  1.00  0.00     0.010 C 
BRANCH  18  20
ATOM     20  C   UNL     1     -18.164 -10.676   1.302  1.00  0.00     0.002 C 
ATOM     21  C   UNL     1     -18.814 -12.033   1.054  1.00  0.00     0.004 C 
ENDBRANCH  18  20
ENDBRANCH  11  18
ENDBRANCH   8  11
ENDBRANCH   3   7
ENDBRANCH   1   2
BRANCH   1  22
ATOM     22  N   UNL     1     -11.788  -5.792   0.622  1.00  0.00    -0.348 N 
ATOM     23  C   UNL     1     -11.628  -4.447   0.821  1.00  0.00     0.249 C 
ATOM     24  O   UNL     1     -10.553  -3.934   1.111  1.00  0.00    -0.272 OA
ATOM     25  H   UNL     1     -12.730  -6.112   0.401  1.00  0.00     0.163 HD
BRANCH  23  26
ATOM     26  C   UNL     1     -12.920  -3.652   0.582  1.00  0.00     0.238 C 
ATOM     27  N   UNL     1     -14.070  -4.395   1.168  1.00  0.00    -0.236 NA
ATOM     28  C   UNL     1     -12.900  -2.309   1.290  1.00  0.00     0.206 C 
ATOM     29  C   UNL     1     -14.421  -3.653   2.175  1.00  0.00     0.208 C 
ATOM     30  O   UNL     1     -13.752  -2.500   2.419  1.00  0.00    -0.474 OA
ATOM     31  C   UNL     1     -13.473  -1.187   0.433  1.00  0.00     0.056 C 
BRANCH  29  32
ATOM     32  C   UNL     1     -15.515  -3.967   3.192  1.00  0.00     0.171 C 
BRANCH  32  33
ATOM     33  N   UNL     1     -16.340  -5.078   2.741  1.00  0.00    -0.342 N 
ATOM     34  C   UNL     1     -17.651  -4.920   2.361  1.00  0.00     0.246 CG0
ATOM     35  O   UNL     1     -18.234  -3.839   2.397  1.00  0.00    -0.273 OA
ATOM     36  H   UNL     1     -15.980  -6.026   2.727  1.00  0.00     0.164 HD
ATOM     37  G   UNL     1     -18.329  -6.207   1.862  1.00  0.00     0.000 G0
ENDBRANCH  32  33
BRANCH  32  38
ATOM     38  C   UNL     1     -14.898  -4.216   4.594  1.00  0.00     0.017 C 
ATOM     39  C   UNL     1     -13.926  -5.401   4.539  1.00  0.00     0.010 C 
BRANCH  38  40
ATOM     40  C   UNL     1     -14.228  -2.956   5.189  1.00  0.00     0.002 C 
ATOM     41  C   UNL     1     -15.170  -1.767   5.317  1.00  0.00     0.004 C 
ENDBRANCH  38  40
ENDBRANCH  32  38
ENDBRANCH  29  32
ENDBRANCH  23  26
ENDBRANCH   1  22
TORSDOF 4
ENDMDL
MODEL 15
REMARK VINA RESULT:    -5.102      2.456      6.055
REMARK INTER + INTRA:          -9.593
REMARK INTER:                  -9.310
REMARK INTRA:                  -0.283
REMARK UNBOUND:                -0.912
REMARK SMILES CC[C@H](C)[C@@H]1NC(=O)[C@H]2CSC(=N2)[C@@H]([C@@H](C)CC)NC(=O)c2csc(n2)CNC(=O)[C@H]2N=C1O[C@@H]2C
REMARK SMILES IDX 27 1 25 2 22 3 26 4 23 5 24 6 20 7 19 8 21 9 14 11 12 12
REMARK SMILES IDX 11 13 10 14 13 15 9 16 15 18 16 19 17 20 18 21 28 22 29 23
REMARK SMILES IDX 30 24 31 26 32 27 35 28 33 29 34 30 36 31 5 32 6 33 7 34
REMARK SMILES IDX 8 35 3 38 4 39 2 40 1 41
REMARK H PARENT 19 10 28 25 6 36
REMARK Flexibility Score:   91.900
ROOT
ATOM      1  C   UNL     1       0.651  -1.202  -0.167  1.00  0.00     0.183 C 
ENDROOT
BRANCH   1   2
ATOM      2  C   UNL     1       0.057  -2.577  -0.273  1.00  0.00     0.113 A 
ATOM      3  C   UNL     1      -0.309  -4.637  -1.040  1.00  0.00     0.139 A 
ATOM      4  N   UNL     1       0.518  -3.513  -1.082  1.00  0.00    -0.234 NA
ATOM      5  C   UNL     1      -1.356  -4.544  -0.145  1.00  0.00     0.101 A 
ATOM      6  S   UNL     1      -1.327  -3.019   0.642  1.00  0.00    -0.125 S 
BRANCH   3   7
ATOM      7  C   UNL     1      -0.051  -5.770  -1.932  1.00  0.00     0.271 C 
ATOM      8  N   UNL     1      -0.589  -5.565  -3.179  1.00  0.00    -0.341 N 
ATOM      9  O   UNL     1       0.541  -6.785  -1.588  1.00  0.00    -0.267 OA
ATOM     10  H   UNL     1      -1.034  -4.659  -3.323  1.00  0.00     0.164 HD
BRANCH   8  11
ATOM     11  C   UNL     1      -0.658  -6.581  -4.216  1.00  0.00     0.140 C 
BRANCH  11  12
ATOM     12  C   UNL     1       0.763  -7.088  -4.473  1.00  0.00     0.091 C 
ATOM     13  S   UNL     1       1.212  -8.725  -4.054  1.00  0.00    -0.106 SA
ATOM     14  C   UNL     1       2.755  -8.552  -4.975  1.00  0.00     0.113 C 
ATOM     15  N   UNL     1       1.695  -6.315  -4.936  1.00  0.00    -0.267 NA
ATOM     16  C   UNL     1       2.998  -7.050  -4.982  1.00  0.00     0.205 CG0
ATOM     17  G   UNL     1       3.901  -6.640  -3.807  1.00  0.00     0.000 G0
ENDBRANCH  11  12
BRANCH  11  18
ATOM     18  C   UNL     1      -1.741  -7.663  -3.967  1.00  0.00     0.015 C 
ATOM     19  C   UNL     1      -2.996  -7.031  -3.350  1.00  0.00     0.010 C 
BRANCH  18  20
ATOM     20  C   UNL     1      -2.089  -8.522  -5.199  1.00  0.00     0.002 C 
ATOM     21  C   UNL     1      -3.464  -8.205  -5.776  1.00  0.00     0.004 C 
ENDBRANCH  18  20
ENDBRANCH  11  18
ENDBRANCH   8  11
ENDBRANCH   3   7
ENDBRANCH   1   2
BRANCH   1  22
ATOM     22  N   UNL     1       2.041  -1.301  -0.555  1.00  0.00    -0.348 N 
ATOM     23  C   UNL     1       2.537  -0.926  -1.774  1.00  0.00     0.249 C 
ATOM     24  O   UNL     1       1.858  -0.385  -2.640  1.00  0.00    -0.272 OA
ATOM     25  H   UNL     1       2.691  -1.758   0.083  1.00  0.00     0.163 HD
BRANCH  23  26
ATOM     26  C   UNL     1       4.042  -1.202  -1.914  1.00  0.00     0.238 C 
ATOM     27  N   UNL     1       4.332  -2.590  -1.458  1.00  0.00    -0.236 NA
ATOM     28  C   UNL     1       4.499  -1.145  -3.362  1.00  0.00     0.206 C 
ATOM     29  C   UNL     1       4.652  -3.204  -2.558  1.00  0.00     0.208 C 
ATOM     30  O   UNL     1       4.665  -2.515  -3.726  1.00  0.00    -0.474 OA
ATOM     31  C   UNL     1       5.834  -0.432  -3.526  1.00  0.00     0.056 C 
BRANCH  29  32
ATOM     32  C   UNL     1       4.978  -4.687  -2.704  1.00  0.00     0.171 C 
BRANCH  32  33
ATOM     33  N   UNL     1       4.198  -5.288  -3.773  1.00  0.00    -0.342 N 
ATOM     34  C   UNL     1       3.908  -6.631  -3.814  1.00  0.00     0.246 CG0
ATOM     35  O   UNL     1       4.305  -7.429  -2.969  1.00  0.00    -0.273 OA
ATOM     36  H   UNL     1       3.867  -4.735  -4.556  1.00  0.00     0.164 HD
ATOM     37  G   UNL     1       3.020  -7.056  -4.996  1.00  0.00     0.000 G0
ENDBRANCH  32  33
BRANCH  32  38
ATOM     38  C   UNL     1       6.505  -4.890  -2.895  1.00  0.00     0.017 C 
ATOM     39  C   UNL     1       7.175  -3.554  -3.237  1.00  0.00     0.010 C 
BRANCH  38  40
ATOM     40  C   UNL     1       7.179  -5.571  -1.682  1.00  0.00     0.002 C 
ATOM     41  C   UNL     1       6.264  -5.705  -0.472  1.00  0.00     0.004 C 
ENDBRANCH  38  40
ENDBRANCH  32  38
ENDBRANCH  29  32
ENDBRANCH  23  26
ENDBRANCH   1  22
TORSDOF 4
ENDMDL
MODEL 16
REMARK VINA RESULT:    -5.028      2.980      6.499
REMARK INTER + INTRA:          -9.468
REMARK INTER:                  -9.350
REMARK INTRA:                  -0.118
REMARK UNBOUND:                -0.912
REMARK SMILES CC[C@H](C)[C@@H]1NC(=O)[C@H]2CSC(=N2)[C@@H]([C@@H](C)CC)NC(=O)c2csc(n2)CNC(=O)[C@H]2N=C1O[C@@H]2C
REMARK SMILES IDX 27 1 25 2 22 3 26 4 23 5 24 6 20 7 19 8 21 9 14 11 12 12
REMARK SMILES IDX 11 13 10 14 13 15 9 16 15 18 16 19 17 20 18 21 28 22 29 23
REMARK SMILES IDX 30 24 31 26 32 27 35 28 33 29 34 30 36 31 5 32 6 33 7 34
REMARK SMILES IDX 8 35 3 38 4 39 2 40 1 41
REMARK H PARENT 19 10 28 25 6 36
REMARK Flexibility Score:   91.900
ROOT
ATOM      1  C   UNL     1      -0.837  -4.180   4.139  1.00  0.00     0.183 C 
ENDROOT
BRANCH   1   2
ATOM      2  C   UNL     1      -1.536  -5.258   3.362  1.00  0.00     0.113 A 
ATOM      3  C   UNL     1      -1.931  -6.742   1.746  1.00  0.00     0.139 A 
ATOM      4  N   UNL     1      -1.000  -5.878   2.327  1.00  0.00    -0.234 NA
ATOM      5  C   UNL     1      -3.146  -6.797   2.401  1.00  0.00     0.101 A 
ATOM      6  S   UNL     1      -3.139  -5.735   3.750  1.00  0.00    -0.125 S 
BRANCH   3   7
ATOM      7  C   UNL     1      -1.593  -7.466   0.519  1.00  0.00     0.271 C 
ATOM      8  N   UNL     1      -2.666  -7.544  -0.334  1.00  0.00    -0.341 N 
ATOM      9  O   UNL     1      -0.496  -7.967   0.305  1.00  0.00    -0.267 OA
ATOM     10  H   UNL     1      -3.508  -7.058  -0.029  1.00  0.00     0.164 HD
BRANCH   8  11
ATOM     11  C   UNL     1      -2.694  -8.356  -1.540  1.00  0.00     0.140 C 
BRANCH  11  12
ATOM     12  C   UNL     1      -1.600  -7.840  -2.479  1.00  0.00     0.091 C 
ATOM     13  S   UNL     1      -0.462  -8.948  -3.210  1.00  0.00    -0.106 SA
ATOM     14  C   UNL     1       0.112  -7.645  -4.320  1.00  0.00     0.113 C 
ATOM     15  N   UNL     1      -1.432  -6.576  -2.707  1.00  0.00    -0.267 NA
ATOM     16  C   UNL     1      -0.228  -6.365  -3.573  1.00  0.00     0.205 CG0
ATOM     17  G   UNL     1       0.971  -5.888  -2.738  1.00  0.00     0.000 G0
ENDBRANCH  11  12
BRANCH  11  18
ATOM     18  C   UNL     1      -2.707  -9.883  -1.271  1.00  0.00     0.015 C 
ATOM     19  C   UNL     1      -2.916 -10.162   0.224  1.00  0.00     0.010 C 
BRANCH  18  20
ATOM     20  C   UNL     1      -3.703 -10.681  -2.137  1.00  0.00     0.002 C 
ATOM     21  C   UNL     1      -4.149  -9.923  -3.382  1.00  0.00     0.004 C 
ENDBRANCH  18  20
ENDBRANCH  11  18
ENDBRANCH   8  11
ENDBRANCH   3   7
ENDBRANCH   1   2
BRANCH   1  22
ATOM     22  N   UNL     1      -0.063  -3.400   3.199  1.00  0.00    -0.348 N 
ATOM     23  C   UNL     1      -0.590  -2.496   2.317  1.00  0.00     0.249 C 
ATOM     24  O   UNL     1      -1.777  -2.191   2.295  1.00  0.00    -0.272 OA
ATOM     25  H   UNL     1       0.935  -3.591   3.117  1.00  0.00     0.163 HD
BRANCH  23  26
ATOM     26  C   UNL     1       0.474  -1.864   1.406  1.00  0.00     0.238 C 
ATOM     27  N   UNL     1       1.428  -2.918   0.961  1.00  0.00    -0.236 NA
ATOM     28  C   UNL     1      -0.131  -1.299   0.133  1.00  0.00     0.206 C 
ATOM     29  C   UNL     1       1.169  -3.037  -0.307  1.00  0.00     0.208 C 
ATOM     30  O   UNL     1       0.216  -2.253  -0.869  1.00  0.00    -0.474 OA
ATOM     31  C   UNL     1       0.467   0.048  -0.251  1.00  0.00     0.056 C 
BRANCH  29  32
ATOM     32  C   UNL     1       1.804  -4.037  -1.269  1.00  0.00     0.171 C 
BRANCH  32  33
ATOM     33  N   UNL     1       0.797  -4.649  -2.121  1.00  0.00    -0.342 N 
ATOM     34  C   UNL     1       0.991  -5.857  -2.748  1.00  0.00     0.246 CG0
ATOM     35  O   UNL     1       2.036  -6.498  -2.659  1.00  0.00    -0.273 OA
ATOM     36  H   UNL     1      -0.082  -4.181  -2.314  1.00  0.00     0.164 HD
ATOM     37  G   UNL     1      -0.218  -6.358  -3.555  1.00  0.00     0.000 G0
ENDBRANCH  32  33
BRANCH  32  38
ATOM     38  C   UNL     1       2.939  -3.361  -2.082  1.00  0.00     0.017 C 
ATOM     39  C   UNL     1       2.882  -1.839  -1.902  1.00  0.00     0.010 C 
BRANCH  38  40
ATOM     40  C   UNL     1       4.340  -3.922  -1.743  1.00  0.00     0.002 C 
ATOM     41  C   UNL     1       5.139  -4.347  -2.968  1.00  0.00     0.004 C 
ENDBRANCH  38  40
ENDBRANCH  32  38
ENDBRANCH  29  32
ENDBRANCH  23  26
ENDBRANCH   1  22
TORSDOF 4
ENDMDL
MODEL 17
REMARK VINA RESULT:    -4.994      3.157      7.935
REMARK INTER + INTRA:          -9.410
REMARK INTER:                  -8.317
REMARK INTRA:                  -1.092
REMARK UNBOUND:                -0.912
REMARK SMILES CC[C@H](C)[C@@H]1NC(=O)[C@H]2CSC(=N2)[C@@H]([C@@H](C)CC)NC(=O)c2csc(n2)CNC(=O)[C@H]2N=C1O[C@@H]2C
REMARK SMILES IDX 27 1 25 2 22 3 26 4 23 5 24 6 20 7 19 8 21 9 14 11 12 12
REMARK SMILES IDX 11 13 10 14 13 15 9 16 15 18 16 19 17 20 18 21 28 22 29 23
REMARK SMILES IDX 30 24 31 26 32 27 35 28 33 29 34 30 36 31 5 32 6 33 7 34
REMARK SMILES IDX 8 35 3 38 4 39 2 40 1 41
REMARK H PARENT 19 10 28 25 6 36
REMARK Flexibility Score:   91.900
ROOT
ATOM      1  C   UNL     1      -0.755  -3.067  -0.010  1.00  0.00     0.183 C 
ENDROOT
BRANCH   1   2
ATOM      2  C   UNL     1       0.522  -2.505  -0.563  1.00  0.00     0.113 A 
ATOM      3  C   UNL     1       2.524  -2.447  -1.541  1.00  0.00     0.139 A 
ATOM      4  N   UNL     1       1.388  -3.211  -1.268  1.00  0.00    -0.234 NA
ATOM      5  C   UNL     1       2.464  -1.146  -1.080  1.00  0.00     0.101 A 
ATOM      6  S   UNL     1       0.976  -0.875  -0.269  1.00  0.00    -0.125 S 
BRANCH   3   7
ATOM      7  C   UNL     1       3.667  -3.053  -2.228  1.00  0.00     0.271 C 
ATOM      8  N   UNL     1       3.877  -4.346  -1.816  1.00  0.00    -0.341 N 
ATOM      9  O   UNL     1       4.363  -2.460  -3.043  1.00  0.00    -0.267 OA
ATOM     10  H   UNL     1       3.199  -4.711  -1.149  1.00  0.00     0.164 HD
BRANCH   8  11
ATOM     11  C   UNL     1       5.040  -5.139  -2.177  1.00  0.00     0.140 C 
BRANCH  11  12
ATOM     12  C   UNL     1       4.774  -5.768  -3.548  1.00  0.00     0.091 C 
ATOM     13  S   UNL     1       5.379  -5.012  -5.004  1.00  0.00    -0.106 SA
ATOM     14  C   UNL     1       4.969  -6.490  -5.956  1.00  0.00     0.113 C 
ATOM     15  N   UNL     1       4.038  -6.825  -3.687  1.00  0.00    -0.267 NA
ATOM     16  C   UNL     1       3.866  -7.144  -5.140  1.00  0.00     0.205 CG0
ATOM     17  G   UNL     1       2.482  -6.698  -5.639  1.00  0.00     0.000 G0
ENDBRANCH  11  12
BRANCH  11  18
ATOM     18  C   UNL     1       6.389  -4.392  -2.012  1.00  0.00     0.015 C 
ATOM     19  C   UNL     1       6.508  -3.810  -0.598  1.00  0.00     0.010 C 
BRANCH  18  20
ATOM     20  C   UNL     1       7.635  -5.221  -2.387  1.00  0.00     0.002 C 
ATOM     21  C   UNL     1       7.822  -6.448  -1.503  1.00  0.00     0.004 C 
ENDBRANCH  18  20
ENDBRANCH  11  18
ENDBRANCH   8  11
ENDBRANCH   3   7
ENDBRANCH   1   2
BRANCH   1  22
ATOM     22  N   UNL     1      -1.005  -4.320  -0.687  1.00  0.00    -0.348 N 
ATOM     23  C   UNL     1      -2.028  -4.539  -1.570  1.00  0.00     0.249 C 
ATOM     24  O   UNL     1      -2.794  -3.658  -1.943  1.00  0.00    -0.272 OA
ATOM     25  H   UNL     1      -0.439  -5.129  -0.433  1.00  0.00     0.163 HD
BRANCH  23  26
ATOM     26  C   UNL     1      -2.071  -5.986  -2.084  1.00  0.00     0.238 C 
ATOM     27  N   UNL     1      -1.877  -5.989  -3.560  1.00  0.00    -0.236 NA
ATOM     28  C   UNL     1      -0.934  -6.823  -1.523  1.00  0.00     0.206 C 
ATOM     29  C   UNL     1      -0.704  -6.528  -3.706  1.00  0.00     0.208 C 
ATOM     30  O   UNL     1      -0.016  -6.933  -2.610  1.00  0.00    -0.474 OA
ATOM     31  C   UNL     1      -1.381  -8.222  -1.120  1.00  0.00     0.056 C 
BRANCH  29  32
ATOM     32  C   UNL     1       0.047  -6.719  -5.021  1.00  0.00     0.171 C 
BRANCH  32  33
ATOM     33  N   UNL     1       1.433  -7.088  -4.779  1.00  0.00    -0.342 N 
ATOM     34  C   UNL     1       2.457  -6.707  -5.612  1.00  0.00     0.246 CG0
ATOM     35  O   UNL     1       2.280  -6.049  -6.634  1.00  0.00    -0.273 OA
ATOM     36  H   UNL     1       1.688  -7.680  -3.995  1.00  0.00     0.164 HD
ATOM     37  G   UNL     1       3.854  -7.149  -5.147  1.00  0.00     0.000 G0
ENDBRANCH  32  33
BRANCH  32  38
ATOM     38  C   UNL     1      -0.692  -7.742  -5.923  1.00  0.00     0.017 C 
ATOM     39  C   UNL     1      -0.976  -7.123  -7.298  1.00  0.00     0.010 C 
BRANCH  38  40
ATOM     40  C   UNL     1       0.059  -9.088  -6.049  1.00  0.00     0.002 C 
ATOM     41  C   UNL     1      -0.800 -10.215  -6.607  1.00  0.00     0.004 C 
ENDBRANCH  38  40
ENDBRANCH  32  38
ENDBRANCH  29  32
ENDBRANCH  23  26
ENDBRANCH   1  22
TORSDOF 4
ENDMDL
MODEL 18
REMARK VINA RESULT:    -4.963      3.409      6.565
REMARK INTER + INTRA:          -9.357
REMARK INTER:                  -8.131
REMARK INTRA:                  -1.226
REMARK UNBOUND:                -0.912
REMARK SMILES CC[C@H](C)[C@@H]1NC(=O)[C@H]2CSC(=N2)[C@@H]([C@@H](C)CC)NC(=O)c2csc(n2)CNC(=O)[C@H]2N=C1O[C@@H]2C
REMARK SMILES IDX 27 1 25 2 22 3 26 4 23 5 24 6 20 7 19 8 21 9 14 11 12 12
REMARK SMILES IDX 11 13 10 14 13 15 9 16 15 18 16 19 17 20 18 21 28 22 29 23
REMARK SMILES IDX 30 24 31 26 32 27 35 28 33 29 34 30 36 31 5 32 6 33 7 34
REMARK SMILES IDX 8 35 3 38 4 39 2 40 1 41
REMARK H PARENT 19 10 28 25 6 36
REMARK Flexibility Score:   91.900
ROOT
ATOM      1  C   UNL     1       4.613  -8.662  -4.523  1.00  0.00     0.183 C 
ENDROOT
BRANCH   1   2
ATOM      2  C   UNL     1       3.495  -9.662  -4.597  1.00  0.00     0.113 A 
ATOM      3  C   UNL     1       1.460 -10.491  -4.970  1.00  0.00     0.139 A 
ATOM      4  N   UNL     1       2.326  -9.413  -5.159  1.00  0.00    -0.234 NA
ATOM      5  C   UNL     1       2.022 -11.567  -4.311  1.00  0.00     0.101 A 
ATOM      6  S   UNL     1       3.651 -11.221  -3.897  1.00  0.00    -0.125 S 
BRANCH   3   7
ATOM      7  C   UNL     1       0.070 -10.403  -5.422  1.00  0.00     0.271 C 
ATOM      8  N   UNL     1      -0.371  -9.103  -5.451  1.00  0.00    -0.341 N 
ATOM      9  O   UNL     1      -0.617 -11.377  -5.704  1.00  0.00    -0.267 OA
ATOM     10  H   UNL     1       0.324  -8.397  -5.211  1.00  0.00     0.164 HD
BRANCH   8  11
ATOM     11  C   UNL     1      -1.754  -8.714  -5.677  1.00  0.00     0.140 C 
BRANCH  11  12
ATOM     12  C   UNL     1      -2.342  -8.270  -4.334  1.00  0.00     0.091 C 
ATOM     13  S   UNL     1      -3.912  -7.505  -4.262  1.00  0.00    -0.106 SA
ATOM     14  C   UNL     1      -3.931  -7.684  -2.466  1.00  0.00     0.113 C 
ATOM     15  N   UNL     1      -1.678  -8.375  -3.226  1.00  0.00    -0.267 NA
ATOM     16  C   UNL     1      -2.457  -7.766  -2.101  1.00  0.00     0.205 CG0
ATOM     17  G   UNL     1      -1.906  -6.376  -1.743  1.00  0.00     0.000 G0
ENDBRANCH  11  12
BRANCH  11  18
ATOM     18  C   UNL     1      -1.948  -7.743  -6.869  1.00  0.00     0.015 C 
ATOM     19  C   UNL     1      -3.422  -7.709  -7.296  1.00  0.00     0.010 C 
BRANCH  18  20
ATOM     20  C   UNL     1      -1.395  -6.321  -6.640  1.00  0.00     0.002 C 
ATOM     21  C   UNL     1      -0.222  -5.985  -7.553  1.00  0.00     0.004 C 
ENDBRANCH  18  20
ENDBRANCH  11  18
ENDBRANCH   8  11
ENDBRANCH   3   7
ENDBRANCH   1   2
BRANCH   1  22
ATOM     22  N   UNL     1       4.016  -7.361  -4.313  1.00  0.00    -0.348 N 
ATOM     23  C   UNL     1       4.033  -6.678  -3.127  1.00  0.00     0.249 C 
ATOM     24  O   UNL     1       4.637  -7.070  -2.135  1.00  0.00    -0.272 OA
ATOM     25  H   UNL     1       3.469  -6.951  -5.069  1.00  0.00     0.163 HD
BRANCH  23  26
ATOM     26  C   UNL     1       3.269  -5.347  -3.196  1.00  0.00     0.238 C 
ATOM     27  N   UNL     1       1.812  -5.609  -3.041  1.00  0.00    -0.236 NA
ATOM     28  C   UNL     1       3.640  -4.419  -2.052  1.00  0.00     0.206 C 
ATOM     29  C   UNL     1       1.540  -5.101  -1.876  1.00  0.00     0.208 C 
ATOM     30  O   UNL     1       2.527  -4.503  -1.164  1.00  0.00    -0.474 OA
ATOM     31  C   UNL     1       3.797  -2.973  -2.501  1.00  0.00     0.056 C 
BRANCH  29  32
ATOM     32  C   UNL     1       0.193  -5.146  -1.161  1.00  0.00     0.171 C 
BRANCH  32  33
ATOM     33  N   UNL     1      -0.529  -6.365  -1.489  1.00  0.00    -0.342 N 
ATOM     34  C   UNL     1      -1.883  -6.383  -1.729  1.00  0.00     0.246 CG0
ATOM     35  O   UNL     1      -2.589  -5.381  -1.659  1.00  0.00    -0.273 OA
ATOM     36  H   UNL     1      -0.057  -7.263  -1.517  1.00  0.00     0.164 HD
ATOM     37  G   UNL     1      -2.442  -7.761  -2.118  1.00  0.00     0.000 G0
ENDBRANCH  32  33
BRANCH  32  38
ATOM     38  C   UNL     1       0.383  -4.962   0.368  1.00  0.00     0.017 C 
ATOM     39  C   UNL     1      -0.826  -4.229   0.965  1.00  0.00     0.010 C 
BRANCH  38  40
ATOM     40  C   UNL     1       0.664  -6.291   1.105  1.00  0.00     0.002 C 
ATOM     41  C   UNL     1      -0.263  -6.540   2.288  1.00  0.00     0.004 C 
ENDBRANCH  38  40
ENDBRANCH  32  38
ENDBRANCH  29  32
ENDBRANCH  23  26
ENDBRANCH   1  22
TORSDOF 4
ENDMDL
MODEL 19
REMARK VINA RESULT:    -4.916      2.635      8.077
REMARK INTER + INTRA:          -9.278
REMARK INTER:                 -10.398
REMARK INTRA:                   1.120
REMARK UNBOUND:                -0.912
REMARK SMILES CC[C@H](C)[C@@H]1NC(=O)[C@H]2CSC(=N2)[C@@H]([C@@H](C)CC)NC(=O)c2csc(n2)CNC(=O)[C@H]2N=C1O[C@@H]2C
REMARK SMILES IDX 27 1 25 2 22 3 26 4 23 5 24 6 20 7 19 8 21 9 14 11 12 12
REMARK SMILES IDX 11 13 10 14 13 15 9 16 15 18 16 19 17 20 18 21 28 22 29 23
REMARK SMILES IDX 30 24 31 26 32 27 35 28 33 29 34 30 36 31 5 32 6 33 7 34
REMARK SMILES IDX 8 35 3 38 4 39 2 40 1 41
REMARK H PARENT 19 10 28 25 6 36
REMARK Flexibility Score:   91.900
ROOT
ATOM      1  C   UNL     1      -1.294  -0.314   1.108  1.00  0.00     0.183 C 
ENDROOT
BRANCH   1   2
ATOM      2  C   UNL     1      -0.144  -0.230   0.146  1.00  0.00     0.113 A 
ATOM      3  C   UNL     1       1.519  -0.896  -1.179  1.00  0.00     0.139 A 
ATOM      4  N   UNL     1       0.403  -1.282  -0.434  1.00  0.00    -0.234 NA
ATOM      5  C   UNL     1       1.756   0.464  -1.191  1.00  0.00     0.101 A 
ATOM      6  S   UNL     1       0.584   1.277  -0.237  1.00  0.00    -0.125 S 
BRANCH   3   7
ATOM      7  C   UNL     1       2.348  -1.910  -1.834  1.00  0.00     0.271 C 
ATOM      8  N   UNL     1       3.678  -1.567  -1.813  1.00  0.00    -0.341 N 
ATOM      9  O   UNL     1       1.899  -2.919  -2.363  1.00  0.00    -0.267 OA
ATOM     10  H   UNL     1       3.903  -0.706  -1.315  1.00  0.00     0.164 HD
BRANCH   8  11
ATOM     11  C   UNL     1       4.717  -2.276  -2.542  1.00  0.00     0.140 C 
BRANCH  11  12
ATOM     12  C   UNL     1       4.370  -3.767  -2.522  1.00  0.00     0.091 C 
ATOM     13  S   UNL     1       4.437  -4.714  -3.991  1.00  0.00    -0.106 SA
ATOM     14  C   UNL     1       4.278  -6.235  -3.032  1.00  0.00     0.113 C 
ATOM     15  N   UNL     1       3.948  -4.360  -1.450  1.00  0.00    -0.267 NA
ATOM     16  C   UNL     1       3.588  -5.780  -1.755  1.00  0.00     0.205 CG0
ATOM     17  G   UNL     1       2.064  -5.946  -1.872  1.00  0.00     0.000 G0
ENDBRANCH  11  12
BRANCH  11  18
ATOM     18  C   UNL     1       5.045  -1.663  -3.928  1.00  0.00     0.015 C 
ATOM     19  C   UNL     1       4.562  -0.208  -3.997  1.00  0.00     0.010 C 
BRANCH  18  20
ATOM     20  C   UNL     1       6.521  -1.787  -4.355  1.00  0.00     0.002 C 
ATOM     21  C   UNL     1       6.737  -1.515  -5.839  1.00  0.00     0.004 C 
ENDBRANCH  18  20
ENDBRANCH  11  18
ENDBRANCH   8  11
ENDBRANCH   3   7
ENDBRANCH   1   2
BRANCH   1  22
ATOM     22  N   UNL     1      -1.635  -1.711   1.253  1.00  0.00    -0.348 N 
ATOM     23  C   UNL     1      -1.082  -2.557   2.176  1.00  0.00     0.249 C 
ATOM     24  O   UNL     1      -0.293  -2.188   3.038  1.00  0.00    -0.272 OA
ATOM     25  H   UNL     1      -2.268  -2.129   0.572  1.00  0.00     0.163 HD
BRANCH  23  26
ATOM     26  C   UNL     1      -1.603  -3.997   2.051  1.00  0.00     0.238 C 
ATOM     27  N   UNL     1      -1.559  -4.413   0.622  1.00  0.00    -0.236 NA
ATOM     28  C   UNL     1      -0.720  -4.987   2.791  1.00  0.00     0.206 C 
ATOM     29  C   UNL     1      -0.619  -5.310   0.602  1.00  0.00     0.208 C 
ATOM     30  O   UNL     1       0.016  -5.636   1.755  1.00  0.00    -0.474 OA
ATOM     31  C   UNL     1      -1.525  -6.037   3.546  1.00  0.00     0.056 C 
BRANCH  29  32
ATOM     32  C   UNL     1      -0.086  -6.035  -0.631  1.00  0.00     0.171 C 
BRANCH  32  33
ATOM     33  N   UNL     1       1.364  -5.947  -0.700  1.00  0.00    -0.342 N 
ATOM     34  C   UNL     1       2.051  -5.952  -1.890  1.00  0.00     0.246 CG0
ATOM     35  O   UNL     1       1.498  -6.057  -2.982  1.00  0.00    -0.273 OA
ATOM     36  H   UNL     1       1.928  -5.915   0.143  1.00  0.00     0.164 HD
ATOM     37  G   UNL     1       3.573  -5.790  -1.748  1.00  0.00     0.000 G0
ENDBRANCH  32  33
BRANCH  32  38
ATOM     38  C   UNL     1      -0.595  -7.501  -0.660  1.00  0.00     0.017 C 
ATOM     39  C   UNL     1      -2.045  -7.565  -0.164  1.00  0.00     0.010 C 
BRANCH  38  40
ATOM     40  C   UNL     1      -0.437  -8.166  -2.047  1.00  0.00     0.002 C 
ATOM     41  C   UNL     1      -1.627  -7.940  -2.970  1.00  0.00     0.004 C 
ENDBRANCH  38  40
ENDBRANCH  32  38
ENDBRANCH  29  32
ENDBRANCH  23  26
ENDBRANCH   1  22
TORSDOF 4
ENDMDL
MODEL 20
REMARK VINA RESULT:    -4.885      3.487      7.102
REMARK INTER + INTRA:          -9.224
REMARK INTER:                  -8.987
REMARK INTRA:                  -0.238
REMARK UNBOUND:                -0.912
REMARK SMILES CC[C@H](C)[C@@H]1NC(=O)[C@H]2CSC(=N2)[C@@H]([C@@H](C)CC)NC(=O)c2csc(n2)CNC(=O)[C@H]2N=C1O[C@@H]2C
REMARK SMILES IDX 27 1 25 2 22 3 26 4 23 5 24 6 20 7 19 8 21 9 14 11 12 12
REMARK SMILES IDX 11 13 10 14 13 15 9 16 15 18 16 19 17 20 18 21 28 22 29 23
REMARK SMILES IDX 30 24 31 26 32 27 35 28 33 29 34 30 36 31 5 32 6 33 7 34
REMARK SMILES IDX 8 35 3 38 4 39 2 40 1 41
REMARK H PARENT 19 10 28 25 6 36
REMARK Flexibility Score:   91.900
ROOT
ATOM      1  C   UNL     1      -3.196  -6.276   2.949  1.00  0.00     0.183 C 
ENDROOT
BRANCH   1   2
ATOM      2  C   UNL     1      -3.229  -7.452   2.017  1.00  0.00     0.113 A 
ATOM      3  C   UNL     1      -2.871  -8.673   0.187  1.00  0.00     0.139 A 
ATOM      4  N   UNL     1      -2.548  -7.508   0.886  1.00  0.00    -0.234 NA
ATOM      5  C   UNL     1      -3.756  -9.507   0.842  1.00  0.00     0.101 A 
ATOM      6  S   UNL     1      -4.214  -8.819   2.346  1.00  0.00    -0.125 S 
BRANCH   3   7
ATOM      7  C   UNL     1      -2.313  -8.905  -1.147  1.00  0.00     0.271 C 
ATOM      8  N   UNL     1      -3.235  -8.654  -2.133  1.00  0.00    -0.341 N 
ATOM      9  O   UNL     1      -1.173  -9.307  -1.347  1.00  0.00    -0.267 OA
ATOM     10  H   UNL     1      -4.137  -8.302  -1.813  1.00  0.00     0.164 HD
BRANCH   8  11
ATOM     11  C   UNL     1      -3.037  -8.971  -3.538  1.00  0.00     0.140 C 
BRANCH  11  12
ATOM     12  C   UNL     1      -1.793  -8.217  -4.018  1.00  0.00     0.091 C 
ATOM     13  S   UNL     1      -0.457  -9.081  -4.742  1.00  0.00    -0.106 SA
ATOM     14  C   UNL     1       0.274  -7.521  -5.285  1.00  0.00     0.113 C 
ATOM     15  N   UNL     1      -1.652  -6.941  -3.842  1.00  0.00    -0.267 NA
ATOM     16  C   UNL     1      -0.301  -6.503  -4.312  1.00  0.00     0.205 CG0
ATOM     17  G   UNL     1       0.651  -6.289  -3.124  1.00  0.00     0.000 G0
ENDBRANCH  11  12
BRANCH  11  18
ATOM     18  C   UNL     1      -3.089 -10.487  -3.855  1.00  0.00     0.015 C 
ATOM     19  C   UNL     1      -3.315 -11.295  -2.571  1.00  0.00     0.010 C 
BRANCH  18  20
ATOM     20  C   UNL     1      -4.098 -10.881  -4.954  1.00  0.00     0.002 C 
ATOM     21  C   UNL     1      -4.297  -9.789  -5.999  1.00  0.00     0.004 C 
ENDBRANCH  18  20
ENDBRANCH  11  18
ENDBRANCH   8  11
ENDBRANCH   3   7
ENDBRANCH   1   2
BRANCH   1  22
ATOM     22  N   UNL     1      -2.408  -5.243   2.316  1.00  0.00    -0.348 N 
ATOM     23  C   UNL     1      -1.076  -5.026   2.546  1.00  0.00     0.249 C 
ATOM     24  O   UNL     1      -0.391  -5.751   3.259  1.00  0.00    -0.272 OA
ATOM     25  H   UNL     1      -2.884  -4.568   1.718  1.00  0.00     0.163 HD
BRANCH  23  26
ATOM     26  C   UNL     1      -0.526  -3.821   1.769  1.00  0.00     0.238 C 
ATOM     27  N   UNL     1       0.733  -4.216   1.077  1.00  0.00    -0.236 NA
ATOM     28  C   UNL     1      -1.472  -3.374   0.668  1.00  0.00     0.206 C 
ATOM     29  C   UNL     1       0.397  -4.206  -0.179  1.00  0.00     0.208 C 
ATOM     30  O   UNL     1      -0.866  -3.859  -0.529  1.00  0.00    -0.474 OA
ATOM     31  C   UNL     1      -1.586  -1.858   0.576  1.00  0.00     0.056 C 
BRANCH  29  32
ATOM     32  C   UNL     1       1.284  -4.606  -1.355  1.00  0.00     0.171 C 
BRANCH  32  33
ATOM     33  N   UNL     1       0.481  -5.034  -2.489  1.00  0.00    -0.342 N 
ATOM     34  C   UNL     1       0.676  -6.238  -3.123  1.00  0.00     0.246 CG0
ATOM     35  O   UNL     1       1.556  -7.031  -2.799  1.00  0.00    -0.273 OA
ATOM     36  H   UNL     1      -0.237  -4.433  -2.880  1.00  0.00     0.164 HD
ATOM     37  G   UNL     1      -0.317  -6.527  -4.261  1.00  0.00     0.000 G0
ENDBRANCH  32  33
BRANCH  32  38
ATOM     38  C   UNL     1       2.257  -3.453  -1.717  1.00  0.00     0.017 C 
ATOM     39  C   UNL     1       2.032  -2.259  -0.781  1.00  0.00     0.010 C 
BRANCH  38  40
ATOM     40  C   UNL     1       3.739  -3.895  -1.728  1.00  0.00     0.002 C 
ATOM     41  C   UNL     1       4.696  -2.831  -1.209  1.00  0.00     0.004 C 
ENDBRANCH  38  40
ENDBRANCH  32  38
ENDBRANCH  29  32
ENDBRANCH  23  26
ENDBRANCH   1  22
TORSDOF 4
ENDMDL
MODEL 21
REMARK VINA RESULT:    -4.882      1.613      2.166
REMARK INTER + INTRA:          -9.218
REMARK INTER:                  -8.153
REMARK INTRA:                  -1.065
REMARK UNBOUND:                -0.912
REMARK SMILES CC[C@H](C)[C@@H]1NC(=O)[C@H]2CSC(=N2)[C@@H]([C@@H](C)CC)NC(=O)c2csc(n2)CNC(=O)[C@H]2N=C1O[C@@H]2C
REMARK SMILES IDX 27 1 25 2 22 3 26 4 23 5 24 6 20 7 19 8 21 9 14 11 12 12
REMARK SMILES IDX 11 13 10 14 13 15 9 16 15 18 16 19 17 20 18 21 28 22 29 23
REMARK SMILES IDX 30 24 31 26 32 27 35 28 33 29 34 30 36 31 5 32 6 33 7 34
REMARK SMILES IDX 8 35 3 38 4 39 2 40 1 41
REMARK H PARENT 19 10 28 25 6 36
REMARK Flexibility Score:   91.900
ROOT
ATOM      1  C   UNL     1       1.193  -7.472  -2.988  1.00  0.00     0.183 C 
ENDROOT
BRANCH   1   2
ATOM      2  C   UNL     1       0.150  -7.076  -1.982  1.00  0.00     0.113 A 
ATOM      3  C   UNL     1      -0.932  -5.838  -0.478  1.00  0.00     0.139 A 
ATOM      4  N   UNL     1       0.058  -5.865  -1.462  1.00  0.00    -0.234 NA
ATOM      5  C   UNL     1      -1.612  -7.029  -0.317  1.00  0.00     0.101 A 
ATOM      6  S   UNL     1      -0.992  -8.214  -1.392  1.00  0.00    -0.125 S 
BRANCH   3   7
ATOM      7  C   UNL     1      -1.149  -4.622   0.310  1.00  0.00     0.271 C 
ATOM      8  N   UNL     1      -0.006  -4.232   0.964  1.00  0.00    -0.341 N 
ATOM      9  O   UNL     1      -2.228  -4.050   0.396  1.00  0.00    -0.267 OA
ATOM     10  H   UNL     1       0.823  -4.795   0.775  1.00  0.00     0.164 HD
BRANCH   8  11
ATOM     11  C   UNL     1       0.045  -3.178   1.963  1.00  0.00     0.140 C 
BRANCH  11  12
ATOM     12  C   UNL     1       0.304  -1.855   1.236  1.00  0.00     0.091 C 
ATOM     13  S   UNL     1      -1.027  -0.911   0.609  1.00  0.00    -0.106 SA
ATOM     14  C   UNL     1       0.083   0.484   0.318  1.00  0.00     0.113 C 
ATOM     15  N   UNL     1       1.504  -1.427   0.995  1.00  0.00    -0.267 NA
ATOM     16  C   UNL     1       1.448  -0.172   0.182  1.00  0.00     0.205 CG0
ATOM     17  G   UNL     1       1.769  -0.460  -1.294  1.00  0.00     0.000 G0
ENDBRANCH  11  12
BRANCH  11  18
ATOM     18  C   UNL     1      -1.142  -3.195   2.959  1.00  0.00     0.015 C 
ATOM     19  C   UNL     1      -1.444  -4.632   3.406  1.00  0.00     0.010 C 
BRANCH  18  20
ATOM     20  C   UNL     1      -0.984  -2.250   4.167  1.00  0.00     0.002 C 
ATOM     21  C   UNL     1      -0.240  -2.893   5.332  1.00  0.00     0.004 C 
ENDBRANCH  18  20
ENDBRANCH  11  18
ENDBRANCH   8  11
ENDBRANCH   3   7
ENDBRANCH   1   2
BRANCH   1  22
ATOM     22  N   UNL     1       2.312  -6.571  -2.827  1.00  0.00    -0.348 N 
ATOM     23  C   UNL     1       3.081  -6.092  -3.854  1.00  0.00     0.249 C 
ATOM     24  O   UNL     1       2.840  -6.316  -5.035  1.00  0.00    -0.272 OA
ATOM     25  H   UNL     1       2.614  -6.336  -1.883  1.00  0.00     0.163 HD
BRANCH  23  26
ATOM     26  C   UNL     1       4.233  -5.200  -3.369  1.00  0.00     0.238 C 
ATOM     27  N   UNL     1       4.047  -3.823  -3.906  1.00  0.00    -0.236 NA
ATOM     28  C   UNL     1       4.238  -5.048  -1.857  1.00  0.00     0.206 C 
ATOM     29  C   UNL     1       3.759  -3.126  -2.848  1.00  0.00     0.208 C 
ATOM     30  O   UNL     1       3.719  -3.737  -1.638  1.00  0.00    -0.474 OA
ATOM     31  C   UNL     1       5.640  -5.121  -1.267  1.00  0.00     0.056 C 
BRANCH  29  32
ATOM     32  C   UNL     1       3.395  -1.645  -2.812  1.00  0.00     0.171 C 
BRANCH  32  33
ATOM     33  N   UNL     1       2.926  -1.257  -1.491  1.00  0.00    -0.342 N 
ATOM     34  C   UNL     1       1.831  -0.449  -1.301  1.00  0.00     0.246 CG0
ATOM     35  O   UNL     1       1.181   0.029  -2.228  1.00  0.00    -0.273 OA
ATOM     36  H   UNL     1       3.421  -1.545  -0.653  1.00  0.00     0.164 HD
ATOM     37  G   UNL     1       1.465  -0.207   0.173  1.00  0.00     0.000 G0
ENDBRANCH  32  33
BRANCH  32  38
ATOM     38  C   UNL     1       4.589  -0.780  -3.296  1.00  0.00     0.017 C 
ATOM     39  C   UNL     1       4.098   0.299  -4.269  1.00  0.00     0.010 C 
BRANCH  38  40
ATOM     40  C   UNL     1       5.402  -0.169  -2.131  1.00  0.00     0.002 C 
ATOM     41  C   UNL     1       6.632  -0.984  -1.753  1.00  0.00     0.004 C 
ENDBRANCH  38  40
ENDBRANCH  32  38
ENDBRANCH  29  32
ENDBRANCH  23  26
ENDBRANCH   1  22
TORSDOF 4
ENDMDL
MODEL 22
REMARK VINA RESULT:    -4.830     21.430     24.065
REMARK INTER + INTRA:          -9.130
REMARK INTER:                  -7.439
REMARK INTRA:                  -1.691
REMARK UNBOUND:                -0.912
REMARK SMILES CC[C@H](C)[C@@H]1NC(=O)[C@H]2CSC(=N2)[C@@H]([C@@H](C)CC)NC(=O)c2csc(n2)CNC(=O)[C@H]2N=C1O[C@@H]2C
REMARK SMILES IDX 27 1 25 2 22 3 26 4 23 5 24 6 20 7 19 8 21 9 14 11 12 12
REMARK SMILES IDX 11 13 10 14 13 15 9 16 15 18 16 19 17 20 18 21 28 22 29 23
REMARK SMILES IDX 30 24 31 26 32 27 35 28 33 29 34 30 36 31 5 32 6 33 7 34
REMARK SMILES IDX 8 35 3 38 4 39 2 40 1 41
REMARK H PARENT 19 10 28 25 6 36
REMARK Flexibility Score:   91.900
ROOT
ATOM      1  C   UNL     1     -16.519   6.942  -3.537  1.00  0.00     0.183 C 
ENDROOT
BRANCH   1   2
ATOM      2  C   UNL     1     -17.349   8.132  -3.151  1.00  0.00     0.113 A 
ATOM      3  C   UNL     1     -18.081  10.237  -3.103  1.00  0.00     0.139 A 
ATOM      4  N   UNL     1     -17.277   9.302  -3.759  1.00  0.00    -0.234 NA
ATOM      5  C   UNL     1     -18.796   9.728  -2.037  1.00  0.00     0.101 A 
ATOM      6  S   UNL     1     -18.442   8.061  -1.829  1.00  0.00    -0.125 S 
BRANCH   3   7
ATOM      7  C   UNL     1     -18.085  11.635  -3.540  1.00  0.00     0.271 C 
ATOM      8  N   UNL     1     -18.586  11.767  -4.811  1.00  0.00    -0.341 N 
ATOM      9  O   UNL     1     -17.659  12.561  -2.860  1.00  0.00    -0.267 OA
ATOM     10  H   UNL     1     -18.924  10.907  -5.243  1.00  0.00     0.164 HD
BRANCH   8  11
ATOM     11  C   UNL     1     -18.544  12.998  -5.582  1.00  0.00     0.140 C 
BRANCH  11  12
ATOM     12  C   UNL     1     -17.925  12.678  -6.946  1.00  0.00     0.091 C 
ATOM     13  S   UNL     1     -18.162  11.111  -7.682  1.00  0.00    -0.106 SA
ATOM     14  C   UNL     1     -17.488  11.727  -9.240  1.00  0.00     0.113 C 
ATOM     15  N   UNL     1     -17.151  13.516  -7.562  1.00  0.00    -0.267 NA
ATOM     16  C   UNL     1     -16.611  12.892  -8.811  1.00  0.00     0.205 CG0
ATOM     17  G   UNL     1     -15.157  12.434  -8.610  1.00  0.00     0.000 G0
ENDBRANCH  11  12
BRANCH  11  18
ATOM     18  C   UNL     1     -19.885  13.776  -5.600  1.00  0.00     0.015 C 
ATOM     19  C   UNL     1     -20.999  12.938  -4.959  1.00  0.00     0.010 C 
BRANCH  18  20
ATOM     20  C   UNL     1     -19.819  15.189  -4.986  1.00  0.00     0.002 C 
ATOM     21  C   UNL     1     -20.242  15.222  -3.522  1.00  0.00     0.004 C 
ENDBRANCH  18  20
ENDBRANCH  11  18
ENDBRANCH   8  11
ENDBRANCH   3   7
ENDBRANCH   1   2
BRANCH   1  22
ATOM     22  N   UNL     1     -15.832   7.273  -4.766  1.00  0.00    -0.348 N 
ATOM     23  C   UNL     1     -14.515   7.635  -4.849  1.00  0.00     0.249 C 
ATOM     24  O   UNL     1     -13.755   7.631  -3.887  1.00  0.00    -0.272 OA
ATOM     25  H   UNL     1     -16.377   7.328  -5.626  1.00  0.00     0.163 HD
BRANCH  23  26
ATOM     26  C   UNL     1     -14.083   7.983  -6.281  1.00  0.00     0.238 C 
ATOM     27  N   UNL     1     -14.619   9.324  -6.644  1.00  0.00    -0.236 NA
ATOM     28  C   UNL     1     -12.574   8.100  -6.407  1.00  0.00     0.206 C 
ATOM     29  C   UNL     1     -13.552  10.065  -6.703  1.00  0.00     0.208 C 
ATOM     30  O   UNL     1     -12.339   9.506  -6.469  1.00  0.00    -0.474 OA
ATOM     31  C   UNL     1     -12.042   7.462  -7.684  1.00  0.00     0.056 C 
BRANCH  29  32
ATOM     32  C   UNL     1     -13.508  11.567  -6.967  1.00  0.00     0.171 C 
BRANCH  32  33
ATOM     33  N   UNL     1     -14.821  12.068  -7.339  1.00  0.00    -0.342 N 
ATOM     34  C   UNL     1     -15.137  12.438  -8.624  1.00  0.00     0.246 CG0
ATOM     35  O   UNL     1     -14.330  12.399  -9.550  1.00  0.00    -0.273 OA
ATOM     36  H   UNL     1     -15.549  12.198  -6.644  1.00  0.00     0.164 HD
ATOM     37  G   UNL     1     -16.595  12.885  -8.819  1.00  0.00     0.000 G0
ENDBRANCH  32  33
BRANCH  32  38
ATOM     38  C   UNL     1     -12.909  12.315  -5.747  1.00  0.00     0.017 C 
ATOM     39  C   UNL     1     -12.507  13.740  -6.147  1.00  0.00     0.010 C 
BRANCH  38  40
ATOM     40  C   UNL     1     -13.849  12.313  -4.519  1.00  0.00     0.002 C 
ATOM     41  C   UNL     1     -14.324  13.702  -4.113  1.00  0.00     0.004 C 
ENDBRANCH  38  40
ENDBRANCH  32  38
ENDBRANCH  29  32
ENDBRANCH  23  26
ENDBRANCH   1  22
TORSDOF 4
ENDMDL
MODEL 23
REMARK VINA RESULT:    -4.821     14.867     18.335
REMARK INTER + INTRA:          -9.116
REMARK INTER:                  -7.542
REMARK INTRA:                  -1.574
REMARK UNBOUND:                -0.912
REMARK SMILES CC[C@H](C)[C@@H]1NC(=O)[C@H]2CSC(=N2)[C@@H]([C@@H](C)CC)NC(=O)c2csc(n2)CNC(=O)[C@H]2N=C1O[C@@H]2C
REMARK SMILES IDX 27 1 25 2 22 3 26 4 23 5 24 6 20 7 19 8 21 9 14 11 12 12
REMARK SMILES IDX 11 13 10 14 13 15 9 16 15 18 16 19 17 20 18 21 28 22 29 23
REMARK SMILES IDX 30 24 31 26 32 27 35 28 33 29 34 30 36 31 5 32 6 33 7 34
REMARK SMILES IDX 8 35 3 38 4 39 2 40 1 41
REMARK H PARENT 19 10 28 25 6 36
REMARK Flexibility Score:   91.900
ROOT
ATOM      1  C   UNL     1     -18.651  -7.704  -0.075  1.00  0.00     0.183 C 
ENDROOT
BRANCH   1   2
ATOM      2  C   UNL     1     -18.574  -7.372   1.388  1.00  0.00     0.113 A 
ATOM      3  C   UNL     1     -17.700  -6.751   3.342  1.00  0.00     0.139 A 
ATOM      4  N   UNL     1     -17.514  -6.832   1.961  1.00  0.00    -0.234 NA
ATOM      5  C   UNL     1     -18.937  -7.183   3.778  1.00  0.00     0.101 A 
ATOM      6  S   UNL     1     -19.877  -7.726   2.448  1.00  0.00    -0.125 S 
BRANCH   3   7
ATOM      7  C   UNL     1     -16.615  -6.275   4.202  1.00  0.00     0.271 C 
ATOM      8  N   UNL     1     -15.785  -5.406   3.536  1.00  0.00    -0.341 N 
ATOM      9  O   UNL     1     -16.454  -6.639   5.360  1.00  0.00    -0.267 OA
ATOM     10  H   UNL     1     -16.061  -5.179   2.581  1.00  0.00     0.164 HD
BRANCH   8  11
ATOM     11  C   UNL     1     -14.523  -4.915   4.063  1.00  0.00     0.140 C 
BRANCH  11  12
ATOM     12  C   UNL     1     -13.458  -5.095   2.977  1.00  0.00     0.091 C 
ATOM     13  S   UNL     1     -13.787  -4.627   1.325  1.00  0.00    -0.106 SA
ATOM     14  C   UNL     1     -12.040  -4.814   0.911  1.00  0.00     0.113 C 
ATOM     15  N   UNL     1     -12.318  -5.662   3.220  1.00  0.00    -0.267 NA
ATOM     16  C   UNL     1     -11.531  -5.796   1.954  1.00  0.00     0.205 CG0
ATOM     17  G   UNL     1     -11.592  -7.237   1.421  1.00  0.00     0.000 G0
ENDBRANCH  11  12
BRANCH  11  18
ATOM     18  C   UNL     1     -14.615  -3.510   4.711  1.00  0.00     0.015 C 
ATOM     19  C   UNL     1     -13.230  -2.850   4.755  1.00  0.00     0.010 C 
BRANCH  18  20
ATOM     20  C   UNL     1     -15.665  -2.575   4.079  1.00  0.00     0.002 C 
ATOM     21  C   UNL     1     -15.044  -1.455   3.251  1.00  0.00     0.004 C 
ENDBRANCH  18  20
ENDBRANCH  11  18
ENDBRANCH   8  11
ENDBRANCH   3   7
ENDBRANCH   1   2
BRANCH   1  22
ATOM     22  N   UNL     1     -17.309  -8.005  -0.522  1.00  0.00    -0.348 N 
ATOM     23  C   UNL     1     -16.725  -9.240  -0.456  1.00  0.00     0.249 C 
ATOM     24  O   UNL     1     -17.318 -10.246  -0.084  1.00  0.00    -0.272 OA
ATOM     25  H   UNL     1     -16.717  -7.234  -0.830  1.00  0.00     0.163 HD
BRANCH  23  26
ATOM     26  C   UNL     1     -15.272  -9.238  -0.954  1.00  0.00     0.238 C 
ATOM     27  N   UNL     1     -14.407  -8.567   0.056  1.00  0.00    -0.236 NA
ATOM     28  C   UNL     1     -14.716 -10.645  -1.094  1.00  0.00     0.206 C 
ATOM     29  C   UNL     1     -13.690  -9.542   0.529  1.00  0.00     0.208 C 
ATOM     30  O   UNL     1     -13.861 -10.794   0.038  1.00  0.00    -0.474 OA
ATOM     31  C   UNL     1     -13.886 -10.823  -2.358  1.00  0.00     0.056 C 
BRANCH  29  32
ATOM     32  C   UNL     1     -12.669  -9.449   1.660  1.00  0.00     0.171 C 
BRANCH  32  33
ATOM     33  N   UNL     1     -12.458  -8.065   2.056  1.00  0.00    -0.342 N 
ATOM     34  C   UNL     1     -11.562  -7.240   1.419  1.00  0.00     0.246 CG0
ATOM     35  O   UNL     1     -10.853  -7.613   0.487  1.00  0.00    -0.273 OA
ATOM     36  H   UNL     1     -12.947  -7.667   2.851  1.00  0.00     0.164 HD
ATOM     37  G   UNL     1     -11.533  -5.799   1.952  1.00  0.00     0.000 G0
ENDBRANCH  32  33
BRANCH  32  38
ATOM     38  C   UNL     1     -13.092 -10.350   2.849  1.00  0.00     0.017 C 
ATOM     39  C   UNL     1     -12.357  -9.919   4.124  1.00  0.00     0.010 C 
BRANCH  38  40
ATOM     40  C   UNL     1     -14.623 -10.389   3.061  1.00  0.00     0.002 C 
ATOM     41  C   UNL     1     -15.102 -11.620   3.820  1.00  0.00     0.004 C 
ENDBRANCH  38  40
ENDBRANCH  32  38
ENDBRANCH  29  32
ENDBRANCH  23  26
ENDBRANCH   1  22
TORSDOF 4
ENDMDL
MODEL 24
REMARK VINA RESULT:    -4.805      2.481      5.775
REMARK INTER + INTRA:          -9.087
REMARK INTER:                  -8.530
REMARK INTRA:                  -0.557
REMARK UNBOUND:                -0.912
REMARK SMILES CC[C@H](C)[C@@H]1NC(=O)[C@H]2CSC(=N2)[C@@H]([C@@H](C)CC)NC(=O)c2csc(n2)CNC(=O)[C@H]2N=C1O[C@@H]2C
REMARK SMILES IDX 27 1 25 2 22 3 26 4 23 5 24 6 20 7 19 8 21 9 14 11 12 12
REMARK SMILES IDX 11 13 10 14 13 15 9 16 15 18 16 19 17 20 18 21 28 22 29 23
REMARK SMILES IDX 30 24 31 26 32 27 35 28 33 29 34 30 36 31 5 32 6 33 7 34
REMARK SMILES IDX 8 35 3 38 4 39 2 40 1 41
REMARK H PARENT 19 10 28 25 6 36
REMARK Flexibility Score:   91.900
ROOT
ATOM      1  C   UNL     1       1.363  -0.462  -0.467  1.00  0.00     0.183 C 
ENDROOT
BRANCH   1   2
ATOM      2  C   UNL     1       0.628  -1.766  -0.345  1.00  0.00     0.113 A 
ATOM      3  C   UNL     1       0.039  -3.874  -0.763  1.00  0.00     0.139 A 
ATOM      4  N   UNL     1       0.977  -2.865  -0.988  1.00  0.00    -0.234 NA
ATOM      5  C   UNL     1      -0.978  -3.526   0.104  1.00  0.00     0.101 A 
ATOM      6  S   UNL     1      -0.779  -1.904   0.628  1.00  0.00    -0.125 S 
BRANCH   3   7
ATOM      7  C   UNL     1       0.164  -5.159  -1.455  1.00  0.00     0.271 C 
ATOM      8  N   UNL     1      -0.890  -5.379  -2.307  1.00  0.00    -0.341 N 
ATOM      9  O   UNL     1       1.081  -5.948  -1.265  1.00  0.00    -0.267 OA
ATOM     10  H   UNL     1      -1.566  -4.619  -2.377  1.00  0.00     0.164 HD
BRANCH   8  11
ATOM     11  C   UNL     1      -1.141  -6.638  -2.988  1.00  0.00     0.140 C 
BRANCH  11  12
ATOM     12  C   UNL     1       0.141  -7.039  -3.723  1.00  0.00     0.091 C 
ATOM     13  S   UNL     1       0.765  -8.667  -3.597  1.00  0.00    -0.106 SA
ATOM     14  C   UNL     1       1.923  -8.341  -4.944  1.00  0.00     0.113 C 
ATOM     15  N   UNL     1       0.844  -6.182  -4.396  1.00  0.00    -0.267 NA
ATOM     16  C   UNL     1       2.091  -6.830  -4.911  1.00  0.00     0.205 CG0
ATOM     17  G   UNL     1       3.306  -6.437  -4.056  1.00  0.00     0.000 G0
ENDBRANCH  11  12
BRANCH  11  18
ATOM     18  C   UNL     1      -1.787  -7.723  -2.089  1.00  0.00     0.015 C 
ATOM     19  C   UNL     1      -2.286  -7.104  -0.777  1.00  0.00     0.010 C 
BRANCH  18  20
ATOM     20  C   UNL     1      -2.890  -8.556  -2.774  1.00  0.00     0.002 C 
ATOM     21  C   UNL     1      -3.187  -9.863  -2.048  1.00  0.00     0.004 C 
ENDBRANCH  18  20
ENDBRANCH  11  18
ENDBRANCH   8  11
ENDBRANCH   3   7
ENDBRANCH   1   2
BRANCH   1  22
ATOM     22  N   UNL     1       2.672  -0.752  -1.008  1.00  0.00    -0.348 N 
ATOM     23  C   UNL     1       3.011  -0.643  -2.330  1.00  0.00     0.249 C 
ATOM     24  O   UNL     1       2.250  -0.203  -3.184  1.00  0.00    -0.272 OA
ATOM     25  H   UNL     1       3.377  -1.147  -0.387  1.00  0.00     0.163 HD
BRANCH  23  26
ATOM     26  C   UNL     1       4.458  -1.074  -2.610  1.00  0.00     0.238 C 
ATOM     27  N   UNL     1       4.638  -2.493  -2.194  1.00  0.00    -0.236 NA
ATOM     28  C   UNL     1       4.784  -1.041  -4.094  1.00  0.00     0.206 C 
ATOM     29  C   UNL     1       4.788  -3.117  -3.324  1.00  0.00     0.208 C 
ATOM     30  O   UNL     1       4.769  -2.414  -4.482  1.00  0.00    -0.474 OA
ATOM     31  C   UNL     1       6.167  -0.470  -4.376  1.00  0.00     0.056 C 
BRANCH  29  32
ATOM     32  C   UNL     1       4.940  -4.624  -3.511  1.00  0.00     0.171 C 
BRANCH  32  33
ATOM     33  N   UNL     1       3.821  -5.169  -4.264  1.00  0.00    -0.342 N 
ATOM     34  C   UNL     1       3.336  -6.438  -4.055  1.00  0.00     0.246 CG0
ATOM     35  O   UNL     1       3.823  -7.216  -3.239  1.00  0.00    -0.273 OA
ATOM     36  H   UNL     1       3.379  -4.636  -5.005  1.00  0.00     0.164 HD
ATOM     37  G   UNL     1       2.112  -6.801  -4.913  1.00  0.00     0.000 G0
ENDBRANCH  32  33
BRANCH  32  38
ATOM     38  C   UNL     1       6.310  -4.956  -4.158  1.00  0.00     0.017 C 
ATOM     39  C   UNL     1       6.995  -6.093  -3.389  1.00  0.00     0.010 C 
BRANCH  38  40
ATOM     40  C   UNL     1       6.203  -5.273  -5.667  1.00  0.00     0.002 C 
ATOM     41  C   UNL     1       6.984  -6.512  -6.087  1.00  0.00     0.004 C 
ENDBRANCH  38  40
ENDBRANCH  32  38
ENDBRANCH  29  32
ENDBRANCH  23  26
ENDBRANCH   1  22
TORSDOF 4
ENDMDL
MODEL 25
REMARK VINA RESULT:    -4.792      1.733      2.072
REMARK INTER + INTRA:          -9.066
REMARK INTER:                  -9.060
REMARK INTRA:                  -0.006
REMARK UNBOUND:                -0.912
REMARK SMILES CC[C@H](C)[C@@H]1NC(=O)[C@H]2CSC(=N2)[C@@H]([C@@H](C)CC)NC(=O)c2csc(n2)CNC(=O)[C@H]2N=C1O[C@@H]2C
REMARK SMILES IDX 27 1 25 2 22 3 26 4 23 5 24 6 20 7 19 8 21 9 14 11 12 12
REMARK SMILES IDX 11 13 10 14 13 15 9 16 15 18 16 19 17 20 18 21 28 22 29 23
REMARK SMILES IDX 30 24 31 26 32 27 35 28 33 29 34 30 36 31 5 32 6 33 7 34
REMARK SMILES IDX 8 35 3 38 4 39 2 40 1 41
REMARK H PARENT 19 10 28 25 6 36
REMARK Flexibility Score:   91.900
ROOT
ATOM      1  C   UNL     1       1.101  -7.819  -4.879  1.00  0.00     0.183 C 
ENDROOT
BRANCH   1   2
ATOM      2  C   UNL     1       0.211  -7.897  -3.672  1.00  0.00     0.113 A 
ATOM      3  C   UNL     1      -0.871  -7.250  -1.834  1.00  0.00     0.139 A 
ATOM      4  N   UNL     1      -0.137  -6.847  -2.951  1.00  0.00    -0.234 NA
ATOM      5  C   UNL     1      -1.112  -8.609  -1.768  1.00  0.00     0.101 A 
ATOM      6  S   UNL     1      -0.391  -9.403  -3.108  1.00  0.00    -0.125 S 
BRANCH   3   7
ATOM      7  C   UNL     1      -1.282  -6.265  -0.832  1.00  0.00     0.271 C 
ATOM      8  N   UNL     1      -0.556  -6.388   0.327  1.00  0.00    -0.341 N 
ATOM      9  O   UNL     1      -2.186  -5.457  -1.003  1.00  0.00    -0.267 OA
ATOM     10  H   UNL     1       0.181  -7.092   0.313  1.00  0.00     0.164 HD
BRANCH   8  11
ATOM     11  C   UNL     1      -0.858  -5.679   1.560  1.00  0.00     0.140 C 
BRANCH  11  12
ATOM     12  C   UNL     1      -0.461  -4.213   1.368  1.00  0.00     0.091 C 
ATOM     13  S   UNL     1      -1.680  -2.994   1.077  1.00  0.00    -0.106 SA
ATOM     14  C   UNL     1      -0.460  -1.691   1.346  1.00  0.00     0.113 C 
ATOM     15  N   UNL     1       0.778  -3.835   1.340  1.00  0.00    -0.267 NA
ATOM     16  C   UNL     1       0.863  -2.373   1.032  1.00  0.00     0.205 CG0
ATOM     17  G   UNL     1       1.257  -2.144  -0.437  1.00  0.00     0.000 G0
ENDBRANCH  11  12
BRANCH  11  18
ATOM     18  C   UNL     1      -2.286  -5.941   2.104  1.00  0.00     0.015 C 
ATOM     19  C   UNL     1      -2.667  -7.416   1.920  1.00  0.00     0.010 C 
BRANCH  18  20
ATOM     20  C   UNL     1      -2.518  -5.476   3.556  1.00  0.00     0.002 C 
ATOM     21  C   UNL     1      -1.282  -5.629   4.435  1.00  0.00     0.004 C 
ENDBRANCH  18  20
ENDBRANCH  11  18
ENDBRANCH   8  11
ENDBRANCH   3   7
ENDBRANCH   1   2
BRANCH   1  22
ATOM     22  N   UNL     1       2.216  -6.963  -4.541  1.00  0.00    -0.348 N 
ATOM     23  C   UNL     1       3.167  -7.256  -3.602  1.00  0.00     0.249 C 
ATOM     24  O   UNL     1       3.216  -8.327  -3.006  1.00  0.00    -0.272 OA
ATOM     25  H   UNL     1       2.260  -6.036  -4.962  1.00  0.00     0.163 HD
BRANCH  23  26
ATOM     26  C   UNL     1       4.194  -6.129  -3.423  1.00  0.00     0.238 C 
ATOM     27  N   UNL     1       3.539  -4.819  -3.696  1.00  0.00    -0.236 NA
ATOM     28  C   UNL     1       4.699  -6.041  -1.993  1.00  0.00     0.206 C 
ATOM     29  C   UNL     1       3.500  -4.256  -2.525  1.00  0.00     0.208 C 
ATOM     30  O   UNL     1       4.021  -4.906  -1.456  1.00  0.00    -0.474 OA
ATOM     31  C   UNL     1       6.199  -5.791  -1.917  1.00  0.00     0.056 C 
BRANCH  29  32
ATOM     32  C   UNL     1       2.861  -2.912  -2.189  1.00  0.00     0.171 C 
BRANCH  32  33
ATOM     33  N   UNL     1       2.377  -2.895  -0.818  1.00  0.00    -0.342 N 
ATOM     34  C   UNL     1       1.266  -2.183  -0.433  1.00  0.00     0.246 CG0
ATOM     35  O   UNL     1       0.613  -1.489  -1.208  1.00  0.00    -0.273 OA
ATOM     36  H   UNL     1       2.873  -3.385  -0.081  1.00  0.00     0.164 HD
ATOM     37  G   UNL     1       0.888  -2.345   1.048  1.00  0.00     0.000 G0
ENDBRANCH  32  33
BRANCH  32  38
ATOM     38  C   UNL     1       3.849  -1.753  -2.486  1.00  0.00     0.017 C 
ATOM     39  C   UNL     1       3.205  -0.407  -2.131  1.00  0.00     0.010 C 
BRANCH  38  40
ATOM     40  C   UNL     1       5.216  -1.931  -1.785  1.00  0.00     0.002 C 
ATOM     41  C   UNL     1       6.366  -1.240  -2.506  1.00  0.00     0.004 C 
ENDBRANCH  38  40
ENDBRANCH  32  38
ENDBRANCH  29  32
ENDBRANCH  23  26
ENDBRANCH   1  22
TORSDOF 4
ENDMDL
MODEL 26
REMARK VINA RESULT:    -4.777     17.103     20.479
REMARK INTER + INTRA:          -9.040
REMARK INTER:                  -7.074
REMARK INTRA:                  -1.966
REMARK UNBOUND:                -0.912
REMARK SMILES CC[C@H](C)[C@@H]1NC(=O)[C@H]2CSC(=N2)[C@@H]([C@@H](C)CC)NC(=O)c2csc(n2)CNC(=O)[C@H]2N=C1O[C@@H]2C
REMARK SMILES IDX 27 1 25 2 22 3 26 4 23 5 24 6 20 7 19 8 21 9 14 11 12 12
REMARK SMILES IDX 11 13 10 14 13 15 9 16 15 18 16 19 17 20 18 21 28 22 29 23
REMARK SMILES IDX 30 24 31 26 32 27 35 28 33 29 34 30 36 31 5 32 6 33 7 34
REMARK SMILES IDX 8 35 3 38 4 39 2 40 1 41
REMARK H PARENT 19 10 28 25 6 36
REMARK Flexibility Score:   91.900
ROOT
ATOM      1  C   UNL     1     -21.133  -6.670   1.371  1.00  0.00     0.183 C 
ENDROOT
BRANCH   1   2
ATOM      2  C   UNL     1     -20.378  -7.215   2.549  1.00  0.00     0.113 A 
ATOM      3  C   UNL     1     -18.680  -7.602   3.940  1.00  0.00     0.139 A 
ATOM      4  N   UNL     1     -19.154  -6.838   2.872  1.00  0.00    -0.234 NA
ATOM      5  C   UNL     1     -19.592  -8.509   4.443  1.00  0.00     0.101 A 
ATOM      6  S   UNL     1     -21.058  -8.430   3.554  1.00  0.00    -0.125 S 
BRANCH   3   7
ATOM      7  C   UNL     1     -17.304  -7.430   4.410  1.00  0.00     0.271 C 
ATOM      8  N   UNL     1     -16.453  -7.116   3.379  1.00  0.00    -0.341 N 
ATOM      9  O   UNL     1     -16.958  -7.584   5.575  1.00  0.00    -0.267 OA
ATOM     10  H   UNL     1     -16.891  -6.998   2.466  1.00  0.00     0.164 HD
BRANCH   8  11
ATOM     11  C   UNL     1     -15.005  -7.068   3.500  1.00  0.00     0.140 C 
BRANCH  11  12
ATOM     12  C   UNL     1     -14.425  -8.205   2.654  1.00  0.00     0.091 C 
ATOM     13  S   UNL     1     -12.709  -8.283   2.330  1.00  0.00    -0.106 SA
ATOM     14  C   UNL     1     -12.895  -9.959   1.683  1.00  0.00     0.113 C 
ATOM     15  N   UNL     1     -15.179  -9.096   2.091  1.00  0.00    -0.267 NA
ATOM     16  C   UNL     1     -14.350 -10.010   1.244  1.00  0.00     0.205 CG0
ATOM     17  G   UNL     1     -14.483  -9.650  -0.244  1.00  0.00     0.000 G0
ENDBRANCH  11  12
BRANCH  11  18
ATOM     18  C   UNL     1     -14.400  -5.659   3.271  1.00  0.00     0.015 C 
ATOM     19  C   UNL     1     -14.866  -5.089   1.925  1.00  0.00     0.010 C 
BRANCH  18  20
ATOM     20  C   UNL     1     -14.640  -4.659   4.420  1.00  0.00     0.002 C 
ATOM     21  C   UNL     1     -13.449  -3.740   4.668  1.00  0.00     0.004 C 
ENDBRANCH  18  20
ENDBRANCH  11  18
ENDBRANCH   8  11
ENDBRANCH   3   7
ENDBRANCH   1   2
BRANCH   1  22
ATOM     22  N   UNL     1     -20.184  -6.490   0.295  1.00  0.00    -0.348 N 
ATOM     23  C   UNL     1     -20.055  -7.328  -0.779  1.00  0.00     0.249 C 
ATOM     24  O   UNL     1     -20.799  -8.282  -0.981  1.00  0.00    -0.272 OA
ATOM     25  H   UNL     1     -19.501  -5.738   0.373  1.00  0.00     0.163 HD
BRANCH  23  26
ATOM     26  C   UNL     1     -18.923  -6.909  -1.729  1.00  0.00     0.238 C 
ATOM     27  N   UNL     1     -17.634  -7.463  -1.231  1.00  0.00    -0.236 NA
ATOM     28  C   UNL     1     -19.105  -7.489  -3.121  1.00  0.00     0.206 C 
ATOM     29  C   UNL     1     -17.335  -8.364  -2.119  1.00  0.00     0.208 C 
ATOM     30  O   UNL     1     -18.158  -8.555  -3.179  1.00  0.00    -0.474 OA
ATOM     31  C   UNL     1     -18.776  -6.486  -4.219  1.00  0.00     0.056 C 
BRANCH  29  32
ATOM     32  C   UNL     1     -16.138  -9.310  -2.079  1.00  0.00     0.171 C 
BRANCH  32  33
ATOM     33  N   UNL     1     -15.792  -9.654  -0.709  1.00  0.00    -0.342 N 
ATOM     34  C   UNL     1     -14.495  -9.680  -0.256  1.00  0.00     0.246 CG0
ATOM     35  O   UNL     1     -13.529  -9.442  -0.977  1.00  0.00    -0.273 OA
ATOM     36  H   UNL     1     -16.506  -9.926  -0.041  1.00  0.00     0.164 HD
ATOM     37  G   UNL     1     -14.348 -10.010   1.238  1.00  0.00     0.000 G0
ENDBRANCH  32  33
BRANCH  32  38
ATOM     38  C   UNL     1     -16.406 -10.561  -2.957  1.00  0.00     0.017 C 
ATOM     39  C   UNL     1     -15.122 -10.980  -3.684  1.00  0.00     0.010 C 
BRANCH  38  40
ATOM     40  C   UNL     1     -17.018 -11.736  -2.160  1.00  0.00     0.002 C 
ATOM     41  C   UNL     1     -18.226 -12.369  -2.838  1.00  0.00     0.004 C 
ENDBRANCH  38  40
ENDBRANCH  32  38
ENDBRANCH  29  32
ENDBRANCH  23  26
ENDBRANCH   1  22
TORSDOF 4
ENDMDL
MODEL 27
REMARK VINA RESULT:    -4.761      2.040      2.548
REMARK INTER + INTRA:          -9.013
REMARK INTER:                  -8.562
REMARK INTRA:                  -0.451
REMARK UNBOUND:                -0.912
REMARK SMILES CC[C@H](C)[C@@H]1NC(=O)[C@H]2CSC(=N2)[C@@H]([C@@H](C)CC)NC(=O)c2csc(n2)CNC(=O)[C@H]2N=C1O[C@@H]2C
REMARK SMILES IDX 27 1 25 2 22 3 26 4 23 5 24 6 20 7 19 8 21 9 14 11 12 12
REMARK SMILES IDX 11 13 10 14 13 15 9 16 15 18 16 19 17 20 18 21 28 22 29 23
REMARK SMILES IDX 30 24 31 26 32 27 35 28 33 29 34 30 36 31 5 32 6 33 7 34
REMARK SMILES IDX 8 35 3 38 4 39 2 40 1 41
REMARK H PARENT 19 10 28 25 6 36
REMARK Flexibility Score:   91.900
ROOT
ATOM      1  C   UNL     1       1.841  -7.094  -7.453  1.00  0.00     0.183 C 
ENDROOT
BRANCH   1   2
ATOM      2  C   UNL     1       0.891  -7.373  -6.324  1.00  0.00     0.113 A 
ATOM      3  C   UNL     1      -0.193  -7.102  -4.396  1.00  0.00     0.139 A 
ATOM      4  N   UNL     1       0.637  -6.515  -5.353  1.00  0.00    -0.234 NA
ATOM      5  C   UNL     1      -0.597  -8.387  -4.700  1.00  0.00     0.101 A 
ATOM      6  S   UNL     1       0.087  -8.884  -6.193  1.00  0.00    -0.125 S 
BRANCH   3   7
ATOM      7  C   UNL     1      -0.532  -6.372  -3.172  1.00  0.00     0.271 C 
ATOM      8  N   UNL     1       0.395  -6.585  -2.182  1.00  0.00    -0.341 N 
ATOM      9  O   UNL     1      -1.538  -5.685  -3.046  1.00  0.00    -0.267 OA
ATOM     10  H   UNL     1       1.194  -7.163  -2.443  1.00  0.00     0.164 HD
BRANCH   8  11
ATOM     11  C   UNL     1       0.236  -6.149  -0.805  1.00  0.00     0.140 C 
BRANCH  11  12
ATOM     12  C   UNL     1       0.719  -4.698  -0.713  1.00  0.00     0.091 C 
ATOM     13  S   UNL     1      -0.398  -3.374  -0.948  1.00  0.00    -0.106 SA
ATOM     14  C   UNL     1       0.836  -2.208  -0.334  1.00  0.00     0.113 C 
ATOM     15  N   UNL     1       1.967  -4.400  -0.534  1.00  0.00    -0.267 NA
ATOM     16  C   UNL     1       2.156  -2.917  -0.594  1.00  0.00     0.205 CG0
ATOM     17  G   UNL     1       2.742  -2.493  -1.951  1.00  0.00     0.000 G0
ENDBRANCH  11  12
BRANCH  11  18
ATOM     18  C   UNL     1      -1.163  -6.448  -0.207  1.00  0.00     0.015 C 
ATOM     19  C   UNL     1      -1.627  -7.854  -0.609  1.00  0.00     0.010 C 
BRANCH  18  20
ATOM     20  C   UNL     1      -1.272  -6.233   1.316  1.00  0.00     0.002 C 
ATOM     21  C   UNL     1       0.019  -6.561   2.058  1.00  0.00     0.004 C 
ENDBRANCH  18  20
ENDBRANCH  11  18
ENDBRANCH   8  11
ENDBRANCH   3   7
ENDBRANCH   1   2
BRANCH   1  22
ATOM     22  N   UNL     1       3.054  -6.558  -6.876  1.00  0.00    -0.348 N 
ATOM     23  C   UNL     1       3.964  -7.287  -6.159  1.00  0.00     0.249 C 
ATOM     24  O   UNL     1       3.882  -8.500  -6.005  1.00  0.00    -0.272 OA
ATOM     25  H   UNL     1       3.212  -5.553  -6.926  1.00  0.00     0.163 HD
BRANCH  23  26
ATOM     26  C   UNL     1       5.123  -6.432  -5.625  1.00  0.00     0.238 C 
ATOM     27  N   UNL     1       4.734  -4.995  -5.669  1.00  0.00    -0.236 NA
ATOM     28  C   UNL     1       5.423  -6.728  -4.165  1.00  0.00     0.206 C 
ATOM     29  C   UNL     1       4.617  -4.680  -4.414  1.00  0.00     0.208 C 
ATOM     30  O   UNL     1       4.866  -5.616  -3.465  1.00  0.00    -0.474 OA
ATOM     31  C   UNL     1       6.917  -6.786  -3.876  1.00  0.00     0.056 C 
BRANCH  29  32
ATOM     32  C   UNL     1       4.162  -3.333  -3.858  1.00  0.00     0.171 C 
BRANCH  32  33
ATOM     33  N   UNL     1       3.545  -3.493  -2.551  1.00  0.00    -0.342 N 
ATOM     34  C   UNL     1       2.793  -2.505  -1.961  1.00  0.00     0.246 CG0
ATOM     35  O   UNL     1       2.606  -1.406  -2.478  1.00  0.00    -0.273 OA
ATOM     36  H   UNL     1       3.681  -4.337  -2.006  1.00  0.00     0.164 HD
ATOM     37  G   UNL     1       2.179  -2.894  -0.606  1.00  0.00     0.000 G0
ENDBRANCH  32  33
BRANCH  32  38
ATOM     38  C   UNL     1       5.343  -2.327  -3.839  1.00  0.00     0.017 C 
ATOM     39  C   UNL     1       6.662  -3.068  -3.584  1.00  0.00     0.010 C 
BRANCH  38  40
ATOM     40  C   UNL     1       5.416  -1.459  -5.116  1.00  0.00     0.002 C 
ATOM     41  C   UNL     1       6.822  -1.331  -5.687  1.00  0.00     0.004 C 
ENDBRANCH  38  40
ENDBRANCH  32  38
ENDBRANCH  29  32
ENDBRANCH  23  26
ENDBRANCH   1  22
TORSDOF 4
ENDMDL
MODEL 28
REMARK VINA RESULT:    -4.717      3.524      7.709
REMARK INTER + INTRA:          -8.939
REMARK INTER:                  -7.490
REMARK INTRA:                  -1.449
REMARK UNBOUND:                -0.912
REMARK SMILES CC[C@H](C)[C@@H]1NC(=O)[C@H]2CSC(=N2)[C@@H]([C@@H](C)CC)NC(=O)c2csc(n2)CNC(=O)[C@H]2N=C1O[C@@H]2C
REMARK SMILES IDX 27 1 25 2 22 3 26 4 23 5 24 6 20 7 19 8 21 9 14 11 12 12
REMARK SMILES IDX 11 13 10 14 13 15 9 16 15 18 16 19 17 20 18 21 28 22 29 23
REMARK SMILES IDX 30 24 31 26 32 27 35 28 33 29 34 30 36 31 5 32 6 33 7 34
REMARK SMILES IDX 8 35 3 38 4 39 2 40 1 41
REMARK H PARENT 19 10 28 25 6 36
REMARK Flexibility Score:   91.900
ROOT
ATOM      1  C   UNL     1       6.631  -2.231  -5.597  1.00  0.00     0.183 C 
ENDROOT
BRANCH   1   2
ATOM      2  C   UNL     1       6.435  -3.455  -6.444  1.00  0.00     0.113 A 
ATOM      3  C   UNL     1       6.258  -5.610  -6.986  1.00  0.00     0.139 A 
ATOM      4  N   UNL     1       6.312  -4.674  -5.951  1.00  0.00    -0.234 NA
ATOM      5  C   UNL     1       6.284  -5.063  -8.254  1.00  0.00     0.101 A 
ATOM      6  S   UNL     1       6.402  -3.353  -8.157  1.00  0.00    -0.125 S 
BRANCH   3   7
ATOM      7  C   UNL     1       6.222  -7.041  -6.678  1.00  0.00     0.271 C 
ATOM      8  N   UNL     1       4.997  -7.590  -6.969  1.00  0.00    -0.341 N 
ATOM      9  O   UNL     1       7.161  -7.657  -6.190  1.00  0.00    -0.267 OA
ATOM     10  H   UNL     1       4.320  -6.958  -7.394  1.00  0.00     0.164 HD
BRANCH   8  11
ATOM     11  C   UNL     1       4.598  -8.939  -6.602  1.00  0.00     0.140 C 
BRANCH  11  12
ATOM     12  C   UNL     1       3.515  -8.831  -5.525  1.00  0.00     0.091 C 
ATOM     13  S   UNL     1       1.847  -9.191  -5.905  1.00  0.00    -0.106 SA
ATOM     14  C   UNL     1       1.431  -9.179  -4.148  1.00  0.00     0.113 C 
ATOM     15  N   UNL     1       3.775  -8.404  -4.329  1.00  0.00    -0.267 NA
ATOM     16  C   UNL     1       2.511  -8.304  -3.533  1.00  0.00     0.205 CG0
ATOM     17  G   UNL     1       2.039  -6.844  -3.436  1.00  0.00     0.000 G0
ENDBRANCH  11  12
BRANCH  11  18
ATOM     18  C   UNL     1       4.278  -9.854  -7.812  1.00  0.00     0.015 C 
ATOM     19  C   UNL     1       4.398  -9.067  -9.124  1.00  0.00     0.010 C 
BRANCH  18  20
ATOM     20  C   UNL     1       5.092 -11.163  -7.863  1.00  0.00     0.002 C 
ATOM     21  C   UNL     1       5.773 -11.493  -6.540  1.00  0.00     0.004 C 
ENDBRANCH  18  20
ENDBRANCH  11  18
ENDBRANCH   8  11
ENDBRANCH   3   7
ENDBRANCH   1   2
BRANCH   1  22
ATOM     22  N   UNL     1       6.112  -2.528  -4.280  1.00  0.00    -0.348 N 
ATOM     23  C   UNL     1       5.002  -1.946  -3.730  1.00  0.00     0.249 C 
ATOM     24  O   UNL     1       4.280  -1.166  -4.341  1.00  0.00    -0.272 OA
ATOM     25  H   UNL     1       6.649  -3.150  -3.677  1.00  0.00     0.163 HD
BRANCH  23  26
ATOM     26  C   UNL     1       4.730  -2.422  -2.296  1.00  0.00     0.238 C 
ATOM     27  N   UNL     1       3.276  -2.710  -2.142  1.00  0.00    -0.236 NA
ATOM     28  C   UNL     1       5.438  -3.730  -1.986  1.00  0.00     0.206 C 
ATOM     29  C   UNL     1       3.240  -4.003  -2.017  1.00  0.00     0.208 C 
ATOM     30  O   UNL     1       4.399  -4.707  -2.035  1.00  0.00    -0.474 OA
ATOM     31  C   UNL     1       6.055  -3.745  -0.594  1.00  0.00     0.056 C 
BRANCH  29  32
ATOM     32  C   UNL     1       1.987  -4.866  -1.900  1.00  0.00     0.171 C 
BRANCH  32  33
ATOM     33  N   UNL     1       2.286  -6.259  -2.191  1.00  0.00    -0.342 N 
ATOM     34  C   UNL     1       2.052  -6.826  -3.421  1.00  0.00     0.246 CG0
ATOM     35  O   UNL     1       1.550  -6.211  -4.358  1.00  0.00    -0.273 OA
ATOM     36  H   UNL     1       2.650  -6.878  -1.474  1.00  0.00     0.164 HD
ATOM     37  G   UNL     1       2.493  -8.294  -3.540  1.00  0.00     0.000 G0
ENDBRANCH  32  33
BRANCH  32  38
ATOM     38  C   UNL     1       1.326  -4.677  -0.509  1.00  0.00     0.017 C 
ATOM     39  C   UNL     1       0.614  -3.320  -0.444  1.00  0.00     0.010 C 
BRANCH  38  40
ATOM     40  C   UNL     1       0.377  -5.837  -0.131  1.00  0.00     0.002 C 
ATOM     41  C   UNL     1       0.245  -6.052   1.371  1.00  0.00     0.004 C 
ENDBRANCH  38  40
ENDBRANCH  32  38
ENDBRANCH  29  32
ENDBRANCH  23  26
ENDBRANCH   1  22
TORSDOF 4
ENDMDL
MODEL 29
REMARK VINA RESULT:    -4.676     15.858     19.494
REMARK INTER + INTRA:          -8.869
REMARK INTER:                  -6.739
REMARK INTRA:                  -2.129
REMARK UNBOUND:                -0.912
REMARK SMILES CC[C@H](C)[C@@H]1NC(=O)[C@H]2CSC(=N2)[C@@H]([C@@H](C)CC)NC(=O)c2csc(n2)CNC(=O)[C@H]2N=C1O[C@@H]2C
REMARK SMILES IDX 27 1 25 2 22 3 26 4 23 5 24 6 20 7 19 8 21 9 14 11 12 12
REMARK SMILES IDX 11 13 10 14 13 15 9 16 15 18 16 19 17 20 18 21 28 22 29 23
REMARK SMILES IDX 30 24 31 26 32 27 35 28 33 29 34 30 36 31 5 32 6 33 7 34
REMARK SMILES IDX 8 35 3 38 4 39 2 40 1 41
REMARK H PARENT 19 10 28 25 6 36
REMARK Flexibility Score:   91.900
ROOT
ATOM      1  C   UNL     1     -15.056  -5.009   3.755  1.00  0.00     0.183 C 
ENDROOT
BRANCH   1   2
ATOM      2  C   UNL     1     -16.409  -5.649   3.634  1.00  0.00     0.113 A 
ATOM      3  C   UNL     1     -18.088  -7.064   4.017  1.00  0.00     0.139 A 
ATOM      4  N   UNL     1     -16.849  -6.588   4.452  1.00  0.00    -0.234 NA
ATOM      5  C   UNL     1     -18.586  -6.424   2.899  1.00  0.00     0.101 A 
ATOM      6  S   UNL     1     -17.481  -5.224   2.364  1.00  0.00    -0.125 S 
BRANCH   3   7
ATOM      7  C   UNL     1     -18.729  -8.182   4.712  1.00  0.00     0.271 C 
ATOM      8  N   UNL     1     -17.860  -8.808   5.572  1.00  0.00    -0.341 N 
ATOM      9  O   UNL     1     -19.887  -8.530   4.519  1.00  0.00    -0.267 OA
ATOM     10  H   UNL     1     -16.933  -8.389   5.644  1.00  0.00     0.164 HD
BRANCH   8  11
ATOM     11  C   UNL     1     -18.147 -10.056   6.259  1.00  0.00     0.140 C 
BRANCH  11  12
ATOM     12  C   UNL     1     -16.942 -10.982   6.075  1.00  0.00     0.091 C 
ATOM     13  S   UNL     1     -16.377 -11.978   7.397  1.00  0.00    -0.106 SA
ATOM     14  C   UNL     1     -15.312 -12.898   6.266  1.00  0.00     0.113 C 
ATOM     15  N   UNL     1     -16.258 -11.009   4.975  1.00  0.00    -0.267 NA
ATOM     16  C   UNL     1     -15.081 -11.922   5.123  1.00  0.00     0.205 CG0
ATOM     17  G   UNL     1     -13.789 -11.119   5.347  1.00  0.00     0.000 G0
ENDBRANCH  11  12
BRANCH  11  18
ATOM     18  C   UNL     1     -18.661  -9.874   7.710  1.00  0.00     0.015 C 
ATOM     19  C   UNL     1     -17.921  -8.719   8.398  1.00  0.00     0.010 C 
BRANCH  18  20
ATOM     20  C   UNL     1     -20.190  -9.719   7.838  1.00  0.00     0.002 C 
ATOM     21  C   UNL     1     -20.621  -8.288   8.141  1.00  0.00     0.004 C 
ENDBRANCH  18  20
ENDBRANCH  11  18
ENDBRANCH   8  11
ENDBRANCH   3   7
ENDBRANCH   1   2
BRANCH   1  22
ATOM     22  N   UNL     1     -14.094  -5.914   3.166  1.00  0.00    -0.348 N 
ATOM     23  C   UNL     1     -12.739  -5.723   3.172  1.00  0.00     0.249 C 
ATOM     24  O   UNL     1     -12.193  -4.795   3.758  1.00  0.00    -0.272 OA
ATOM     25  H   UNL     1     -14.442  -6.710   2.633  1.00  0.00     0.163 HD
BRANCH  23  26
ATOM     26  C   UNL     1     -11.980  -6.826   2.419  1.00  0.00     0.238 C 
ATOM     27  N   UNL     1     -11.336  -7.739   3.404  1.00  0.00    -0.236 NA
ATOM     28  C   UNL     1     -12.913  -7.703   1.601  1.00  0.00     0.206 C 
ATOM     29  C   UNL     1     -12.011  -8.842   3.272  1.00  0.00     0.208 C 
ATOM     30  O   UNL     1     -13.013  -8.906   2.362  1.00  0.00    -0.474 OA
ATOM     31  C   UNL     1     -12.345  -8.040   0.229  1.00  0.00     0.056 C 
BRANCH  29  32
ATOM     32  C   UNL     1     -11.832 -10.115   4.095  1.00  0.00     0.171 C 
BRANCH  32  33
ATOM     33  N   UNL     1     -13.069 -10.878   4.147  1.00  0.00    -0.342 N 
ATOM     34  C   UNL     1     -13.743 -11.120   5.320  1.00  0.00     0.246 CG0
ATOM     35  O   UNL     1     -13.341 -10.734   6.415  1.00  0.00    -0.273 OA
ATOM     36  H   UNL     1     -13.463 -11.295   3.310  1.00  0.00     0.164 HD
ATOM     37  G   UNL     1     -15.060 -11.894   5.151  1.00  0.00     0.000 G0
ENDBRANCH  32  33
BRANCH  32  38
ATOM     38  C   UNL     1     -10.641 -10.949   3.553  1.00  0.00     0.017 C 
ATOM     39  C   UNL     1      -9.690 -11.315   4.699  1.00  0.00     0.010 C 
BRANCH  38  40
ATOM     40  C   UNL     1     -11.091 -12.201   2.765  1.00  0.00     0.002 C 
ATOM     41  C   UNL     1     -11.266 -11.952   1.273  1.00  0.00     0.004 C 
ENDBRANCH  38  40
ENDBRANCH  32  38
ENDBRANCH  29  32
ENDBRANCH  23  26
ENDBRANCH   1  22
TORSDOF 4
ENDMDL
MODEL 30
REMARK VINA RESULT:    -4.616     14.568     17.912
REMARK INTER + INTRA:          -8.767
REMARK INTER:                  -7.246
REMARK INTRA:                  -1.521
REMARK UNBOUND:                -0.912
REMARK SMILES CC[C@H](C)[C@@H]1NC(=O)[C@H]2CSC(=N2)[C@@H]([C@@H](C)CC)NC(=O)c2csc(n2)CNC(=O)[C@H]2N=C1O[C@@H]2C
REMARK SMILES IDX 27 1 25 2 22 3 26 4 23 5 24 6 20 7 19 8 21 9 14 11 12 12
REMARK SMILES IDX 11 13 10 14 13 15 9 16 15 18 16 19 17 20 18 21 28 22 29 23
REMARK SMILES IDX 30 24 31 26 32 27 35 28 33 29 34 30 36 31 5 32 6 33 7 34
REMARK SMILES IDX 8 35 3 38 4 39 2 40 1 41
REMARK H PARENT 19 10 28 25 6 36
REMARK Flexibility Score:   91.900
ROOT
ATOM      1  C   UNL     1     -16.125  -9.465  -0.500  1.00  0.00     0.183 C 
ENDROOT
BRANCH   1   2
ATOM      2  C   UNL     1     -16.782  -8.132  -0.280  1.00  0.00     0.113 A 
ATOM      3  C   UNL     1     -17.125  -6.086   0.532  1.00  0.00     0.139 A 
ATOM      4  N   UNL     1     -16.229  -7.148   0.405  1.00  0.00    -0.234 NA
ATOM      5  C   UNL     1     -18.330  -6.272  -0.118  1.00  0.00     0.101 A 
ATOM      6  S   UNL     1     -18.357  -7.809  -0.881  1.00  0.00    -0.125 S 
BRANCH   3   7
ATOM      7  C   UNL     1     -16.768  -4.917   1.339  1.00  0.00     0.271 C 
ATOM      8  N   UNL     1     -15.845  -4.125   0.702  1.00  0.00    -0.341 N 
ATOM      9  O   UNL     1     -17.215  -4.701   2.459  1.00  0.00    -0.267 OA
ATOM     10  H   UNL     1     -15.584  -4.422  -0.238  1.00  0.00     0.164 HD
BRANCH   8  11
ATOM     11  C   UNL     1     -15.162  -3.003   1.325  1.00  0.00     0.140 C 
BRANCH  11  12
ATOM     12  C   UNL     1     -13.855  -3.525   1.928  1.00  0.00     0.091 C 
ATOM     13  S   UNL     1     -12.313  -2.999   1.293  1.00  0.00    -0.106 SA
ATOM     14  C   UNL     1     -11.466  -3.734   2.709  1.00  0.00     0.113 C 
ATOM     15  N   UNL     1     -13.840  -4.418   2.867  1.00  0.00    -0.267 NA
ATOM     16  C   UNL     1     -12.430  -4.811   3.179  1.00  0.00     0.205 CG0
ATOM     17  G   UNL     1     -12.084  -6.166   2.541  1.00  0.00     0.000 G0
ENDBRANCH  11  12
BRANCH  11  18
ATOM     18  C   UNL     1     -15.051  -1.750   0.417  1.00  0.00     0.015 C 
ATOM     19  C   UNL     1     -15.345  -2.120  -1.043  1.00  0.00     0.010 C 
BRANCH  18  20
ATOM     20  C   UNL     1     -15.898  -0.546   0.875  1.00  0.00     0.002 C 
ATOM     21  C   UNL     1     -16.184  -0.554   2.373  1.00  0.00     0.004 C 
ENDBRANCH  18  20
ENDBRANCH  11  18
ENDBRANCH   8  11
ENDBRANCH   3   7
ENDBRANCH   1   2
BRANCH   1  22
ATOM     22  N   UNL     1     -15.455  -9.826   0.730  1.00  0.00    -0.348 N 
ATOM     23  C   UNL     1     -15.902 -10.772   1.611  1.00  0.00     0.249 C 
ATOM     24  O   UNL     1     -16.883 -11.477   1.402  1.00  0.00    -0.272 OA
ATOM     25  H   UNL     1     -14.639  -9.285   1.013  1.00  0.00     0.163 HD
BRANCH  23  26
ATOM     26  C   UNL     1     -15.009 -10.895   2.855  1.00  0.00     0.238 C 
ATOM     27  N   UNL     1     -13.598 -10.604   2.478  1.00  0.00    -0.236 NA
ATOM     28  C   UNL     1     -15.367  -9.867   3.916  1.00  0.00     0.206 C 
ATOM     29  C   UNL     1     -13.361  -9.469   3.066  1.00  0.00     0.208 C 
ATOM     30  O   UNL     1     -14.331  -8.891   3.815  1.00  0.00    -0.474 OA
ATOM     31  C   UNL     1     -15.350 -10.450   5.323  1.00  0.00     0.056 C 
BRANCH  29  32
ATOM     32  C   UNL     1     -12.077  -8.650   2.966  1.00  0.00     0.171 C 
BRANCH  32  33
ATOM     33  N   UNL     1     -12.304  -7.276   3.384  1.00  0.00    -0.342 N 
ATOM     34  C   UNL     1     -12.069  -6.202   2.559  1.00  0.00     0.246 CG0
ATOM     35  O   UNL     1     -11.627  -6.316   1.419  1.00  0.00    -0.273 OA
ATOM     36  H   UNL     1     -12.613  -7.059   4.326  1.00  0.00     0.164 HD
ATOM     37  G   UNL     1     -12.429  -4.838   3.171  1.00  0.00     0.000 G0
ENDBRANCH  32  33
BRANCH  32  38
ATOM     38  C   UNL     1     -10.934  -9.333   3.762  1.00  0.00     0.017 C 
ATOM     39  C   UNL     1      -9.588  -9.087   3.068  1.00  0.00     0.010 C 
BRANCH  38  40
ATOM     40  C   UNL     1     -10.895  -8.905   5.247  1.00  0.00     0.002 C 
ATOM     41  C   UNL     1      -9.914  -9.713   6.088  1.00  0.00     0.004 C 
ENDBRANCH  38  40
ENDBRANCH  32  38
ENDBRANCH  29  32
ENDBRANCH  23  26
ENDBRANCH   1  22
TORSDOF 4
ENDMDL
MODEL 31
REMARK VINA RESULT:    -4.602      3.507      7.450
REMARK INTER + INTRA:          -8.744
REMARK INTER:                  -7.082
REMARK INTRA:                  -1.661
REMARK UNBOUND:                -0.912
REMARK SMILES CC[C@H](C)[C@@H]1NC(=O)[C@H]2CSC(=N2)[C@@H]([C@@H](C)CC)NC(=O)c2csc(n2)CNC(=O)[C@H]2N=C1O[C@@H]2C
REMARK SMILES IDX 27 1 25 2 22 3 26 4 23 5 24 6 20 7 19 8 21 9 14 11 12 12
REMARK SMILES IDX 11 13 10 14 13 15 9 16 15 18 16 19 17 20 18 21 28 22 29 23
REMARK SMILES IDX 30 24 31 26 32 27 35 28 33 29 34 30 36 31 5 32 6 33 7 34
REMARK SMILES IDX 8 35 3 38 4 39 2 40 1 41
REMARK H PARENT 19 10 28 25 6 36
REMARK Flexibility Score:   91.900
ROOT
ATOM      1  C   UNL     1       6.674  -6.501  -1.280  1.00  0.00     0.183 C 
ENDROOT
BRANCH   1   2
ATOM      2  C   UNL     1       6.671  -7.769  -2.084  1.00  0.00     0.113 A 
ATOM      3  C   UNL     1       5.981  -9.322  -3.526  1.00  0.00     0.139 A 
ATOM      4  N   UNL     1       5.801  -8.024  -3.044  1.00  0.00    -0.234 NA
ATOM      5  C   UNL     1       7.034 -10.005  -2.950  1.00  0.00     0.101 A 
ATOM      6  S   UNL     1       7.800  -9.023  -1.769  1.00  0.00    -0.125 S 
BRANCH   3   7
ATOM      7  C   UNL     1       5.063  -9.865  -4.530  1.00  0.00     0.271 C 
ATOM      8  N   UNL     1       4.182  -8.913  -4.977  1.00  0.00    -0.341 N 
ATOM      9  O   UNL     1       5.067 -11.035  -4.894  1.00  0.00    -0.267 OA
ATOM     10  H   UNL     1       4.316  -7.975  -4.600  1.00  0.00     0.164 HD
BRANCH   8  11
ATOM     11  C   UNL     1       3.039  -9.193  -5.831  1.00  0.00     0.140 C 
BRANCH  11  12
ATOM     12  C   UNL     1       1.769  -8.886  -5.033  1.00  0.00     0.091 C 
ATOM     13  S   UNL     1       0.224  -8.754  -5.839  1.00  0.00    -0.106 SA
ATOM     14  C   UNL     1      -0.624  -8.772  -4.245  1.00  0.00     0.113 C 
ATOM     15  N   UNL     1       1.800  -8.641  -3.761  1.00  0.00    -0.267 NA
ATOM     16  C   UNL     1       0.434  -8.270  -3.275  1.00  0.00     0.205 CG0
ATOM     17  G   UNL     1       0.315  -6.750  -3.080  1.00  0.00     0.000 G0
ENDBRANCH  11  12
BRANCH  11  18
ATOM     18  C   UNL     1       3.136  -8.559  -7.243  1.00  0.00     0.015 C 
ATOM     19  C   UNL     1       3.111  -7.028  -7.144  1.00  0.00     0.010 C 
BRANCH  18  20
ATOM     20  C   UNL     1       4.328  -9.050  -8.089  1.00  0.00     0.002 C 
ATOM     21  C   UNL     1       4.191 -10.506  -8.522  1.00  0.00     0.004 C 
ENDBRANCH  18  20
ENDBRANCH  11  18
ENDBRANCH   8  11
ENDBRANCH   3   7
ENDBRANCH   1   2
BRANCH   1  22
ATOM     22  N   UNL     1       5.681  -5.622  -1.855  1.00  0.00    -0.348 N 
ATOM     23  C   UNL     1       5.191  -4.497  -1.248  1.00  0.00     0.249 C 
ATOM     24  O   UNL     1       5.613  -4.072  -0.179  1.00  0.00    -0.272 OA
ATOM     25  H   UNL     1       5.245  -5.893  -2.735  1.00  0.00     0.163 HD
BRANCH  23  26
ATOM     26  C   UNL     1       4.105  -3.798  -2.079  1.00  0.00     0.238 C 
ATOM     27  N   UNL     1       2.990  -4.752  -2.332  1.00  0.00    -0.236 NA
ATOM     28  C   UNL     1       3.480  -2.632  -1.332  1.00  0.00     0.206 C 
ATOM     29  C   UNL     1       2.016  -4.269  -1.620  1.00  0.00     0.208 C 
ATOM     30  O   UNL     1       2.211  -3.130  -0.910  1.00  0.00    -0.474 OA
ATOM     31  C   UNL     1       3.253  -1.420  -2.226  1.00  0.00     0.056 C 
BRANCH  29  32
ATOM     32  C   UNL     1       0.633  -4.888  -1.440  1.00  0.00     0.171 C 
BRANCH  32  33
ATOM     33  N   UNL     1       0.641  -6.294  -1.811  1.00  0.00    -0.342 N 
ATOM     34  C   UNL     1       0.311  -6.730  -3.072  1.00  0.00     0.246 CG0
ATOM     35  O   UNL     1      -0.040  -5.971  -3.973  1.00  0.00    -0.273 OA
ATOM     36  H   UNL     1       0.858  -7.015  -1.131  1.00  0.00     0.164 HD
ATOM     37  G   UNL     1       0.440  -8.248  -3.276  1.00  0.00     0.000 G0
ENDBRANCH  32  33
BRANCH  32  38
ATOM     38  C   UNL     1       0.119  -4.657   0.006  1.00  0.00     0.017 C 
ATOM     39  C   UNL     1      -1.286  -4.043  -0.027  1.00  0.00     0.010 C 
BRANCH  38  40
ATOM     40  C   UNL     1       0.160  -5.937   0.871  1.00  0.00     0.002 C 
ATOM     41  C   UNL     1      -1.155  -6.238   1.578  1.00  0.00     0.004 C 
ENDBRANCH  38  40
ENDBRANCH  32  38
ENDBRANCH  29  32
ENDBRANCH  23  26
ENDBRANCH   1  22
TORSDOF 4
ENDMDL
MODEL 32
REMARK VINA RESULT:    -4.588      3.386      7.000
REMARK INTER + INTRA:          -8.719
REMARK INTER:                  -7.215
REMARK INTRA:                  -1.504
REMARK UNBOUND:                -0.912
REMARK SMILES CC[C@H](C)[C@@H]1NC(=O)[C@H]2CSC(=N2)[C@@H]([C@@H](C)CC)NC(=O)c2csc(n2)CNC(=O)[C@H]2N=C1O[C@@H]2C
REMARK SMILES IDX 27 1 25 2 22 3 26 4 23 5 24 6 20 7 19 8 21 9 14 11 12 12
REMARK SMILES IDX 11 13 10 14 13 15 9 16 15 18 16 19 17 20 18 21 28 22 29 23
REMARK SMILES IDX 30 24 31 26 32 27 35 28 33 29 34 30 36 31 5 32 6 33 7 34
REMARK SMILES IDX 8 35 3 38 4 39 2 40 1 41
REMARK H PARENT 19 10 28 25 6 36
REMARK Flexibility Score:   91.900
ROOT
ATOM      1  C   UNL     1      -2.468  -6.291  -1.635  1.00  0.00     0.183 C 
ENDROOT
BRANCH   1   2
ATOM      2  C   UNL     1      -2.569  -6.289  -3.134  1.00  0.00     0.113 A 
ATOM      3  C   UNL     1      -2.053  -6.720  -5.259  1.00  0.00     0.139 A 
ATOM      4  N   UNL     1      -1.802  -7.023  -3.919  1.00  0.00    -0.234 NA
ATOM      5  C   UNL     1      -3.059  -5.795  -5.457  1.00  0.00     0.101 A 
ATOM      6  S   UNL     1      -3.687  -5.272  -3.947  1.00  0.00    -0.125 S 
BRANCH   3   7
ATOM      7  C   UNL     1      -1.249  -7.340  -6.314  1.00  0.00     0.271 C 
ATOM      8  N   UNL     1      -0.474  -8.363  -5.825  1.00  0.00    -0.341 N 
ATOM      9  O   UNL     1      -1.249  -6.963  -7.479  1.00  0.00    -0.267 OA
ATOM     10  H   UNL     1      -0.600  -8.577  -4.836  1.00  0.00     0.164 HD
BRANCH   8  11
ATOM     11  C   UNL     1       0.561  -9.040  -6.588  1.00  0.00     0.140 C 
BRANCH  11  12
ATOM     12  C   UNL     1       1.847  -8.218  -6.468  1.00  0.00     0.091 C 
ATOM     13  S   UNL     1       3.401  -8.948  -6.797  1.00  0.00    -0.106 SA
ATOM     14  C   UNL     1       4.182  -7.321  -6.790  1.00  0.00     0.113 C 
ATOM     15  N   UNL     1       1.842  -6.991  -6.053  1.00  0.00    -0.267 NA
ATOM     16  C   UNL     1       3.244  -6.481  -5.936  1.00  0.00     0.205 CG0
ATOM     17  G   UNL     1       3.704  -6.473  -4.469  1.00  0.00     0.000 G0
ENDBRANCH  11  12
BRANCH  11  18
ATOM     18  C   UNL     1       0.680 -10.555  -6.281  1.00  0.00     0.015 C 
ATOM     19  C   UNL     1      -0.311 -10.958  -5.181  1.00  0.00     0.010 C 
BRANCH  18  20
ATOM     20  C   UNL     1       0.559 -11.474  -7.514  1.00  0.00     0.002 C 
ATOM     21  C   UNL     1       1.848 -12.225  -7.826  1.00  0.00     0.004 C 
ENDBRANCH  18  20
ENDBRANCH  11  18
ENDBRANCH   8  11
ENDBRANCH   3   7
ENDBRANCH   1   2
BRANCH   1  22
ATOM     22  N   UNL     1      -1.299  -5.517  -1.279  1.00  0.00    -0.348 N 
ATOM     23  C   UNL     1      -0.337  -5.921  -0.394  1.00  0.00     0.249 C 
ATOM     24  O   UNL     1      -0.327  -7.030   0.128  1.00  0.00    -0.272 OA
ATOM     25  H   UNL     1      -1.219  -4.568  -1.641  1.00  0.00     0.163 HD
BRANCH  23  26
ATOM     26  C   UNL     1       0.754  -4.862  -0.177  1.00  0.00     0.238 C 
ATOM     27  N   UNL     1       2.086  -5.462  -0.467  1.00  0.00    -0.236 NA
ATOM     28  C   UNL     1       0.615  -3.696  -1.141  1.00  0.00     0.206 C 
ATOM     29  C   UNL     1       2.453  -4.858  -1.557  1.00  0.00     0.208 C 
ATOM     30  O   UNL     1       1.644  -3.917  -2.104  1.00  0.00    -0.474 OA
ATOM     31  C   UNL     1       0.858  -2.351  -0.470  1.00  0.00     0.056 C 
BRANCH  29  32
ATOM     32  C   UNL     1       3.723  -5.131  -2.359  1.00  0.00     0.171 C 
BRANCH  32  33
ATOM     33  N   UNL     1       3.418  -5.310  -3.770  1.00  0.00    -0.342 N 
ATOM     34  C   UNL     1       3.710  -6.469  -4.450  1.00  0.00     0.246 CG0
ATOM     35  O   UNL     1       4.271  -7.429  -3.928  1.00  0.00    -0.273 OA
ATOM     36  H   UNL     1       3.007  -4.561  -4.316  1.00  0.00     0.164 HD
ATOM     37  G   UNL     1       3.253  -6.478  -5.918  1.00  0.00     0.000 G0
ENDBRANCH  32  33
BRANCH  32  38
ATOM     38  C   UNL     1       4.771  -4.014  -2.114  1.00  0.00     0.017 C 
ATOM     39  C   UNL     1       5.843  -4.503  -1.133  1.00  0.00     0.010 C 
BRANCH  38  40
ATOM     40  C   UNL     1       5.397  -3.478  -3.422  1.00  0.00     0.002 C 
ATOM     41  C   UNL     1       5.011  -2.039  -3.739  1.00  0.00     0.004 C 
ENDBRANCH  38  40
ENDBRANCH  32  38
ENDBRANCH  29  32
ENDBRANCH  23  26
ENDBRANCH   1  22
TORSDOF 4
ENDMDL
MODEL 33
REMARK VINA RESULT:    -4.569      2.852      6.435
REMARK INTER + INTRA:          -8.686
REMARK INTER:                  -7.269
REMARK INTRA:                  -1.417
REMARK UNBOUND:                -0.912
REMARK SMILES CC[C@H](C)[C@@H]1NC(=O)[C@H]2CSC(=N2)[C@@H]([C@@H](C)CC)NC(=O)c2csc(n2)CNC(=O)[C@H]2N=C1O[C@@H]2C
REMARK SMILES IDX 27 1 25 2 22 3 26 4 23 5 24 6 20 7 19 8 21 9 14 11 12 12
REMARK SMILES IDX 11 13 10 14 13 15 9 16 15 18 16 19 17 20 18 21 28 22 29 23
REMARK SMILES IDX 30 24 31 26 32 27 35 28 33 29 34 30 36 31 5 32 6 33 7 34
REMARK SMILES IDX 8 35 3 38 4 39 2 40 1 41
REMARK H PARENT 19 10 28 25 6 36
REMARK Flexibility Score:   91.900
ROOT
ATOM      1  C   UNL     1       5.218  -2.331  -5.628  1.00  0.00     0.183 C 
ENDROOT
BRANCH   1   2
ATOM      2  C   UNL     1       5.232  -3.718  -6.203  1.00  0.00     0.113 A 
ATOM      3  C   UNL     1       4.990  -5.931  -6.317  1.00  0.00     0.139 A 
ATOM      4  N   UNL     1       4.724  -4.770  -5.587  1.00  0.00    -0.234 NA
ATOM      5  C   UNL     1       5.651  -5.717  -7.511  1.00  0.00     0.101 A 
ATOM      6  S   UNL     1       5.970  -4.043  -7.718  1.00  0.00    -0.125 S 
BRANCH   3   7
ATOM      7  C   UNL     1       4.608  -7.238  -5.779  1.00  0.00     0.271 C 
ATOM      8  N   UNL     1       3.266  -7.479  -5.940  1.00  0.00    -0.341 N 
ATOM      9  O   UNL     1       5.390  -8.001  -5.225  1.00  0.00    -0.267 OA
ATOM     10  H   UNL     1       2.746  -6.760  -6.442  1.00  0.00     0.164 HD
BRANCH   8  11
ATOM     11  C   UNL     1       2.560  -8.603  -5.346  1.00  0.00     0.140 C 
BRANCH  11  12
ATOM     12  C   UNL     1       1.652  -8.055  -4.241  1.00  0.00     0.091 C 
ATOM     13  S   UNL     1      -0.070  -7.909  -4.499  1.00  0.00    -0.106 SA
ATOM     14  C   UNL     1      -0.321  -7.595  -2.739  1.00  0.00     0.113 C 
ATOM     15  N   UNL     1       2.126  -7.617  -3.117  1.00  0.00    -0.267 NA
ATOM     16  C   UNL     1       1.022  -7.048  -2.281  1.00  0.00     0.205 CG0
ATOM     17  G   UNL     1       1.030  -5.511  -2.336  1.00  0.00     0.000 G0
ENDBRANCH  11  12
BRANCH  11  18
ATOM     18  C   UNL     1       1.896  -9.548  -6.379  1.00  0.00     0.015 C 
ATOM     19  C   UNL     1       2.625  -9.464  -7.727  1.00  0.00     0.010 C 
BRANCH  18  20
ATOM     20  C   UNL     1       1.742 -11.009  -5.911  1.00  0.00     0.002 C 
ATOM     21  C   UNL     1       0.754 -11.804  -6.758  1.00  0.00     0.004 C 
ENDBRANCH  18  20
ENDBRANCH  11  18
ENDBRANCH   8  11
ENDBRANCH   3   7
ENDBRANCH   1   2
BRANCH   1  22
ATOM     22  N   UNL     1       5.021  -2.456  -4.201  1.00  0.00    -0.348 N 
ATOM     23  C   UNL     1       5.023  -1.410  -3.319  1.00  0.00     0.249 C 
ATOM     24  O   UNL     1       5.109  -0.238  -3.667  1.00  0.00    -0.272 OA
ATOM     25  H   UNL     1       4.961  -3.392  -3.800  1.00  0.00     0.163 HD
BRANCH  23  26
ATOM     26  C   UNL     1       4.845  -1.860  -1.861  1.00  0.00     0.238 C 
ATOM     27  N   UNL     1       3.411  -1.730  -1.478  1.00  0.00    -0.236 NA
ATOM     28  C   UNL     1       5.184  -3.329  -1.673  1.00  0.00     0.206 C 
ATOM     29  C   UNL     1       3.023  -2.964  -1.356  1.00  0.00     0.208 C 
ATOM     30  O   UNL     1       3.912  -3.966  -1.560  1.00  0.00    -0.474 OA
ATOM     31  C   UNL     1       5.973  -3.588  -0.397  1.00  0.00     0.056 C 
BRANCH  29  32
ATOM     32  C   UNL     1       1.606  -3.439  -1.044  1.00  0.00     0.171 C 
BRANCH  32  33
ATOM     33  N   UNL     1       1.504  -4.885  -1.170  1.00  0.00    -0.342 N 
ATOM     34  C   UNL     1       1.014  -5.497  -2.299  1.00  0.00     0.246 CG0
ATOM     35  O   UNL     1       0.602  -4.874  -3.274  1.00  0.00    -0.273 OA
ATOM     36  H   UNL     1       1.761  -5.497  -0.403  1.00  0.00     0.164 HD
ATOM     37  G   UNL     1       1.045  -7.033  -2.254  1.00  0.00     0.000 G0
ENDBRANCH  32  33
BRANCH  32  38
ATOM     38  C   UNL     1       1.158  -2.931   0.352  1.00  0.00     0.017 C 
ATOM     39  C   UNL     1       0.670  -1.480   0.252  1.00  0.00     0.010 C 
BRANCH  38  40
ATOM     40  C   UNL     1       0.100  -3.843   1.014  1.00  0.00     0.002 C 
ATOM     41  C   UNL     1      -0.786  -3.119   2.019  1.00  0.00     0.004 C 
ENDBRANCH  38  40
ENDBRANCH  32  38
ENDBRANCH  29  32
ENDBRANCH  23  26
ENDBRANCH   1  22
TORSDOF 4
ENDMDL
MODEL 34
REMARK VINA RESULT:    -4.483     17.001     20.817
REMARK INTER + INTRA:          -8.541
REMARK INTER:                  -7.428
REMARK INTRA:                  -1.113
REMARK UNBOUND:                -0.912
REMARK SMILES CC[C@H](C)[C@@H]1NC(=O)[C@H]2CSC(=N2)[C@@H]([C@@H](C)CC)NC(=O)c2csc(n2)CNC(=O)[C@H]2N=C1O[C@@H]2C
REMARK SMILES IDX 27 1 25 2 22 3 26 4 23 5 24 6 20 7 19 8 21 9 14 11 12 12
REMARK SMILES IDX 11 13 10 14 13 15 9 16 15 18 16 19 17 20 18 21 28 22 29 23
REMARK SMILES IDX 30 24 31 26 32 27 35 28 33 29 34 30 36 31 5 32 6 33 7 34
REMARK SMILES IDX 8 35 3 38 4 39 2 40 1 41
REMARK H PARENT 19 10 28 25 6 36
REMARK Flexibility Score:   91.900
ROOT
ATOM      1  C   UNL     1     -12.315  -7.418   3.252  1.00  0.00     0.183 C 
ENDROOT
BRANCH   1   2
ATOM      2  C   UNL     1     -12.694  -8.663   4.001  1.00  0.00     0.113 A 
ATOM      3  C   UNL     1     -13.927 -10.084   5.196  1.00  0.00     0.139 A 
ATOM      4  N   UNL     1     -13.913  -8.908   4.443  1.00  0.00    -0.234 NA
ATOM      5  C   UNL     1     -12.712 -10.738   5.256  1.00  0.00     0.101 A 
ATOM      6  S   UNL     1     -11.524  -9.861   4.381  1.00  0.00    -0.125 S 
BRANCH   3   7
ATOM      7  C   UNL     1     -15.154 -10.507   5.873  1.00  0.00     0.271 C 
ATOM      8  N   UNL     1     -15.303  -9.882   7.087  1.00  0.00    -0.341 N 
ATOM      9  O   UNL     1     -15.928 -11.341   5.421  1.00  0.00    -0.267 OA
ATOM     10  H   UNL     1     -14.588  -9.193   7.319  1.00  0.00     0.164 HD
BRANCH   8  11
ATOM     11  C   UNL     1     -16.318 -10.232   8.067  1.00  0.00     0.140 C 
BRANCH  11  12
ATOM     12  C   UNL     1     -17.680  -9.819   7.501  1.00  0.00     0.091 C 
ATOM     13  S   UNL     1     -18.979 -10.982   7.376  1.00  0.00    -0.106 SA
ATOM     14  C   UNL     1     -20.150  -9.654   7.022  1.00  0.00     0.113 C 
ATOM     15  N   UNL     1     -17.896  -8.630   7.032  1.00  0.00    -0.267 NA
ATOM     16  C   UNL     1     -19.274  -8.550   6.452  1.00  0.00     0.205 CG0
ATOM     17  G   UNL     1     -19.228  -8.629   4.917  1.00  0.00     0.000 G0
ENDBRANCH  11  12
BRANCH  11  18
ATOM     18  C   UNL     1     -16.205 -11.683   8.601  1.00  0.00     0.015 C 
ATOM     19  C   UNL     1     -14.747 -12.158   8.555  1.00  0.00     0.010 C 
BRANCH  18  20
ATOM     20  C   UNL     1     -16.828 -11.908   9.994  1.00  0.00     0.002 C 
ATOM     21  C   UNL     1     -15.793 -12.248  11.060  1.00  0.00     0.004 C 
ENDBRANCH  18  20
ENDBRANCH  11  18
ENDBRANCH   8  11
ENDBRANCH   3   7
ENDBRANCH   1   2
BRANCH   1  22
ATOM     22  N   UNL     1     -13.538  -6.720   2.926  1.00  0.00    -0.348 N 
ATOM     23  C   UNL     1     -14.125  -6.713   1.689  1.00  0.00     0.249 C 
ATOM     24  O   UNL     1     -13.711  -7.375   0.745  1.00  0.00    -0.272 OA
ATOM     25  H   UNL     1     -13.957  -6.119   3.634  1.00  0.00     0.163 HD
BRANCH  23  26
ATOM     26  C   UNL     1     -15.386  -5.838   1.634  1.00  0.00     0.238 C 
ATOM     27  N   UNL     1     -16.574  -6.702   1.388  1.00  0.00    -0.236 NA
ATOM     28  C   UNL     1     -15.656  -5.145   2.959  1.00  0.00     0.206 C 
ATOM     29  C   UNL     1     -17.222  -6.647   2.513  1.00  0.00     0.208 C 
ATOM     30  O   UNL     1     -16.735  -5.888   3.525  1.00  0.00    -0.474 OA
ATOM     31  C   UNL     1     -16.101  -3.699   2.783  1.00  0.00     0.056 C 
BRANCH  29  32
ATOM     32  C   UNL     1     -18.496  -7.410   2.861  1.00  0.00     0.171 C 
BRANCH  32  33
ATOM     33  N   UNL     1     -18.657  -7.521   4.303  1.00  0.00    -0.342 N 
ATOM     34  C   UNL     1     -19.244  -8.611   4.901  1.00  0.00     0.246 CG0
ATOM     35  O   UNL     1     -19.698  -9.560   4.266  1.00  0.00    -0.273 OA
ATOM     36  H   UNL     1     -18.372  -6.770   4.922  1.00  0.00     0.164 HD
ATOM     37  G   UNL     1     -19.264  -8.561   6.437  1.00  0.00     0.000 G0
ENDBRANCH  32  33
BRANCH  32  38
ATOM     38  C   UNL     1     -19.725  -6.757   2.174  1.00  0.00     0.017 C 
ATOM     39  C   UNL     1     -20.562  -7.828   1.464  1.00  0.00     0.010 C 
BRANCH  38  40
ATOM     40  C   UNL     1     -20.583  -5.916   3.147  1.00  0.00     0.002 C 
ATOM     41  C   UNL     1     -20.661  -4.442   2.773  1.00  0.00     0.004 C 
ENDBRANCH  38  40
ENDBRANCH  32  38
ENDBRANCH  29  32
ENDBRANCH  23  26
ENDBRANCH   1  22
TORSDOF 4
ENDMDL
MODEL 35
REMARK VINA RESULT:    -4.454      3.519      7.073
REMARK INTER + INTRA:          -8.491
REMARK INTER:                  -6.917
REMARK INTRA:                  -1.574
REMARK UNBOUND:                -0.912
REMARK SMILES CC[C@H](C)[C@@H]1NC(=O)[C@H]2CSC(=N2)[C@@H]([C@@H](C)CC)NC(=O)c2csc(n2)CNC(=O)[C@H]2N=C1O[C@@H]2C
REMARK SMILES IDX 27 1 25 2 22 3 26 4 23 5 24 6 20 7 19 8 21 9 14 11 12 12
REMARK SMILES IDX 11 13 10 14 13 15 9 16 15 18 16 19 17 20 18 21 28 22 29 23
REMARK SMILES IDX 30 24 31 26 32 27 35 28 33 29 34 30 36 31 5 32 6 33 7 34
REMARK SMILES IDX 8 35 3 38 4 39 2 40 1 41
REMARK H PARENT 19 10 28 25 6 36
REMARK Flexibility Score:   91.900
ROOT
ATOM      1  C   UNL     1      -0.791  -4.809  -0.122  1.00  0.00     0.183 C 
ENDROOT
BRANCH   1   2
ATOM      2  C   UNL     1      -1.236  -6.036  -0.864  1.00  0.00     0.113 A 
ATOM      3  C   UNL     1      -1.820  -7.342  -2.573  1.00  0.00     0.139 A 
ATOM      4  N   UNL     1      -1.250  -6.129  -2.181  1.00  0.00    -0.234 NA
ATOM      5  C   UNL     1      -2.175  -8.171  -1.527  1.00  0.00     0.101 A 
ATOM      6  S   UNL     1      -1.815  -7.418  -0.027  1.00  0.00    -0.125 S 
BRANCH   3   7
ATOM      7  C   UNL     1      -2.033  -7.626  -3.994  1.00  0.00     0.271 C 
ATOM      8  N   UNL     1      -1.290  -8.703  -4.411  1.00  0.00    -0.341 N 
ATOM      9  O   UNL     1      -2.760  -6.959  -4.720  1.00  0.00    -0.267 OA
ATOM     10  H   UNL     1      -0.750  -9.173  -3.686  1.00  0.00     0.164 HD
BRANCH   8  11
ATOM     11  C   UNL     1      -1.148  -9.109  -5.800  1.00  0.00     0.140 C 
BRANCH  11  12
ATOM     12  C   UNL     1       0.309  -8.877  -6.210  1.00  0.00     0.091 C 
ATOM     13  S   UNL     1       1.273 -10.192  -6.840  1.00  0.00    -0.106 SA
ATOM     14  C   UNL     1       2.551  -9.025  -7.354  1.00  0.00     0.113 C 
ATOM     15  N   UNL     1       0.896  -7.734  -6.041  1.00  0.00    -0.267 NA
ATOM     16  C   UNL     1       2.338  -7.835  -6.431  1.00  0.00     0.205 CG0
ATOM     17  G   UNL     1       3.236  -7.943  -5.188  1.00  0.00     0.000 G0
ENDBRANCH  11  12
BRANCH  11  18
ATOM     18  C   UNL     1      -1.738 -10.509  -6.111  1.00  0.00     0.015 C 
ATOM     19  C   UNL     1      -2.349 -11.125  -4.845  1.00  0.00     0.010 C 
BRANCH  18  20
ATOM     20  C   UNL     1      -2.730 -10.543  -7.290  1.00  0.00     0.002 C 
ATOM     21  C   UNL     1      -3.609  -9.299  -7.365  1.00  0.00     0.004 C 
ENDBRANCH  18  20
ENDBRANCH  11  18
ENDBRANCH   8  11
ENDBRANCH   3   7
ENDBRANCH   1   2
BRANCH   1  22
ATOM     22  N   UNL     1       0.648  -4.726  -0.247  1.00  0.00    -0.348 N 
ATOM     23  C   UNL     1       1.309  -3.862  -1.077  1.00  0.00     0.249 C 
ATOM     24  O   UNL     1       0.742  -3.004  -1.745  1.00  0.00    -0.272 OA
ATOM     25  H   UNL     1       1.217  -5.410   0.249  1.00  0.00     0.163 HD
BRANCH  23  26
ATOM     26  C   UNL     1       2.834  -4.046  -1.034  1.00  0.00     0.238 C 
ATOM     27  N   UNL     1       3.165  -5.469  -1.321  1.00  0.00    -0.236 NA
ATOM     28  C   UNL     1       3.534  -3.239  -2.114  1.00  0.00     0.206 C 
ATOM     29  C   UNL     1       3.732  -5.413  -2.489  1.00  0.00     0.208 C 
ATOM     30  O   UNL     1       3.890  -4.211  -3.096  1.00  0.00    -0.474 OA
ATOM     31  C   UNL     1       4.805  -2.568  -1.610  1.00  0.00     0.056 C 
BRANCH  29  32
ATOM     32  C   UNL     1       4.217  -6.600  -3.318  1.00  0.00     0.171 C 
BRANCH  32  33
ATOM     33  N   UNL     1       3.453  -6.720  -4.549  1.00  0.00    -0.342 N 
ATOM     34  C   UNL     1       3.246  -7.924  -5.178  1.00  0.00     0.246 CG0
ATOM     35  O   UNL     1       3.709  -8.984  -4.765  1.00  0.00    -0.273 OA
ATOM     36  H   UNL     1       3.072  -5.901  -5.012  1.00  0.00     0.164 HD
ATOM     37  G   UNL     1       2.362  -7.844  -6.434  1.00  0.00     0.000 G0
ENDBRANCH  32  33
BRANCH  32  38
ATOM     38  C   UNL     1       5.744  -6.496  -3.573  1.00  0.00     0.017 C 
ATOM     39  C   UNL     1       6.464  -7.699  -2.953  1.00  0.00     0.010 C 
BRANCH  38  40
ATOM     40  C   UNL     1       6.095  -6.332  -5.070  1.00  0.00     0.002 C 
ATOM     41  C   UNL     1       6.193  -4.879  -5.517  1.00  0.00     0.004 C 
ENDBRANCH  38  40
ENDBRANCH  32  38
ENDBRANCH  29  32
ENDBRANCH  23  26
ENDBRANCH   1  22
TORSDOF 4
ENDMDL
MODEL 36
REMARK VINA RESULT:    -4.425     14.560     18.411
REMARK INTER + INTRA:          -8.441
REMARK INTER:                  -6.615
REMARK INTRA:                  -1.826
REMARK UNBOUND:                -0.912
REMARK SMILES CC[C@H](C)[C@@H]1NC(=O)[C@H]2CSC(=N2)[C@@H]([C@@H](C)CC)NC(=O)c2csc(n2)CNC(=O)[C@H]2N=C1O[C@@H]2C
REMARK SMILES IDX 27 1 25 2 22 3 26 4 23 5 24 6 20 7 19 8 21 9 14 11 12 12
REMARK SMILES IDX 11 13 10 14 13 15 9 16 15 18 16 19 17 20 18 21 28 22 29 23
REMARK SMILES IDX 30 24 31 26 32 27 35 28 33 29 34 30 36 31 5 32 6 33 7 34
REMARK SMILES IDX 8 35 3 38 4 39 2 40 1 41
REMARK H PARENT 19 10 28 25 6 36
REMARK Flexibility Score:   91.900
ROOT
ATOM      1  C   UNL     1     -11.693  -3.973   0.916  1.00  0.00     0.183 C 
ENDROOT
BRANCH   1   2
ATOM      2  C   UNL     1     -11.318  -5.409   1.147  1.00  0.00     0.113 A 
ATOM      3  C   UNL     1     -11.152  -7.382   2.171  1.00  0.00     0.139 A 
ATOM      4  N   UNL     1     -11.764  -6.127   2.162  1.00  0.00    -0.234 NA
ATOM      5  C   UNL     1     -10.291  -7.606   1.114  1.00  0.00     0.101 A 
ATOM      6  S   UNL     1     -10.221  -6.220   0.104  1.00  0.00    -0.125 S 
BRANCH   3   7
ATOM      7  C   UNL     1     -11.416  -8.318   3.265  1.00  0.00     0.271 C 
ATOM      8  N   UNL     1     -12.029  -9.462   2.816  1.00  0.00    -0.341 N 
ATOM      9  O   UNL     1     -11.150  -8.087   4.438  1.00  0.00    -0.267 OA
ATOM     10  H   UNL     1     -12.165  -9.522   1.807  1.00  0.00     0.164 HD
BRANCH   8  11
ATOM     11  C   UNL     1     -12.581 -10.489   3.685  1.00  0.00     0.140 C 
BRANCH  11  12
ATOM     12  C   UNL     1     -14.098 -10.288   3.745  1.00  0.00     0.091 C 
ATOM     13  S   UNL     1     -15.182 -11.553   3.215  1.00  0.00    -0.106 SA
ATOM     14  C   UNL     1     -16.582 -10.674   3.941  1.00  0.00     0.113 C 
ATOM     15  N   UNL     1     -14.628  -9.164   4.113  1.00  0.00    -0.267 NA
ATOM     16  C   UNL     1     -16.116  -9.226   3.970  1.00  0.00     0.205 CG0
ATOM     17  G   UNL     1     -16.578  -8.481   2.707  1.00  0.00     0.000 G0
ENDBRANCH  11  12
BRANCH  11  18
ATOM     18  C   UNL     1     -12.088 -11.922   3.359  1.00  0.00     0.015 C 
ATOM     19  C   UNL     1     -11.358 -11.942   2.009  1.00  0.00     0.010 C 
BRANCH  18  20
ATOM     20  C   UNL     1     -11.241 -12.580   4.467  1.00  0.00     0.002 C 
ATOM     21  C   UNL     1     -11.099 -11.704   5.707  1.00  0.00     0.004 C 
ENDBRANCH  18  20
ENDBRANCH  11  18
ENDBRANCH   8  11
ENDBRANCH   3   7
ENDBRANCH   1   2
BRANCH   1  22
ATOM     22  N   UNL     1     -13.048  -3.798   1.387  1.00  0.00    -0.348 N 
ATOM     23  C   UNL     1     -14.001  -3.043   0.759  1.00  0.00     0.249 C 
ATOM     24  O   UNL     1     -13.821  -2.502  -0.326  1.00  0.00    -0.272 OA
ATOM     25  H   UNL     1     -13.300  -4.189   2.294  1.00  0.00     0.163 HD
BRANCH  23  26
ATOM     26  C   UNL     1     -15.330  -3.001   1.528  1.00  0.00     0.238 C 
ATOM     27  N   UNL     1     -16.262  -4.010   0.952  1.00  0.00    -0.236 NA
ATOM     28  C   UNL     1     -15.156  -3.393   2.985  1.00  0.00     0.206 C 
ATOM     29  C   UNL     1     -16.352  -4.903   1.892  1.00  0.00     0.208 C 
ATOM     30  O   UNL     1     -15.671  -4.722   3.050  1.00  0.00    -0.474 OA
ATOM     31  C   UNL     1     -15.965  -2.512   3.928  1.00  0.00     0.056 C 
BRANCH  29  32
ATOM     32  C   UNL     1     -17.126  -6.216   1.821  1.00  0.00     0.171 C 
BRANCH  32  33
ATOM     33  N   UNL     1     -16.727  -7.114   2.894  1.00  0.00    -0.342 N 
ATOM     34  C   UNL     1     -16.596  -8.470   2.715  1.00  0.00     0.246 CG0
ATOM     35  O   UNL     1     -16.830  -9.031   1.648  1.00  0.00    -0.273 OA
ATOM     36  H   UNL     1     -16.565  -6.768   3.834  1.00  0.00     0.164 HD
ATOM     37  G   UNL     1     -16.107  -9.232   3.958  1.00  0.00     0.000 G0
ENDBRANCH  32  33
BRANCH  32  38
ATOM     38  C   UNL     1     -18.654  -5.945   1.810  1.00  0.00     0.017 C 
ATOM     39  C   UNL     1     -19.304  -6.637   0.606  1.00  0.00     0.010 C 
BRANCH  38  40
ATOM     40  C   UNL     1     -19.346  -6.340   3.135  1.00  0.00     0.002 C 
ATOM     41  C   UNL     1     -20.634  -7.129   2.939  1.00  0.00     0.004 C 
ENDBRANCH  38  40
ENDBRANCH  32  38
ENDBRANCH  29  32
ENDBRANCH  23  26
ENDBRANCH   1  22
TORSDOF 4
ENDMDL
MODEL 37
REMARK VINA RESULT:    -4.352      4.275      9.055
REMARK INTER + INTRA:          -8.318
REMARK INTER:                  -6.800
REMARK INTRA:                  -1.518
REMARK UNBOUND:                -0.912
REMARK SMILES CC[C@H](C)[C@@H]1NC(=O)[C@H]2CSC(=N2)[C@@H]([C@@H](C)CC)NC(=O)c2csc(n2)CNC(=O)[C@H]2N=C1O[C@@H]2C
REMARK SMILES IDX 27 1 25 2 22 3 26 4 23 5 24 6 20 7 19 8 21 9 14 11 12 12
REMARK SMILES IDX 11 13 10 14 13 15 9 16 15 18 16 19 17 20 18 21 28 22 29 23
REMARK SMILES IDX 30 24 31 26 32 27 35 28 33 29 34 30 36 31 5 32 6 33 7 34
REMARK SMILES IDX 8 35 3 38 4 39 2 40 1 41
REMARK H PARENT 19 10 28 25 6 36
REMARK Flexibility Score:   91.900
ROOT
ATOM      1  C   UNL     1       5.593  -2.152  -5.066  1.00  0.00     0.183 C 
ENDROOT
BRANCH   1   2
ATOM      2  C   UNL     1       6.246  -2.974  -6.141  1.00  0.00     0.113 A 
ATOM      3  C   UNL     1       6.938  -4.773  -7.259  1.00  0.00     0.139 A 
ATOM      4  N   UNL     1       6.129  -4.286  -6.231  1.00  0.00    -0.234 NA
ATOM      5  C   UNL     1       7.612  -3.798  -7.967  1.00  0.00     0.101 A 
ATOM      6  S   UNL     1       7.251  -2.247  -7.327  1.00  0.00    -0.125 S 
BRANCH   3   7
ATOM      7  C   UNL     1       7.049  -6.216  -7.483  1.00  0.00     0.271 C 
ATOM      8  N   UNL     1       6.013  -6.690  -8.250  1.00  0.00    -0.341 N 
ATOM      9  O   UNL     1       7.940  -6.912  -7.012  1.00  0.00    -0.267 OA
ATOM     10  H   UNL     1       5.359  -5.986  -8.590  1.00  0.00     0.164 HD
BRANCH   8  11
ATOM     11  C   UNL     1       5.748  -8.100  -8.485  1.00  0.00     0.140 C 
BRANCH  11  12
ATOM     12  C   UNL     1       4.446  -8.460  -7.764  1.00  0.00     0.091 C 
ATOM     13  S   UNL     1       2.960  -8.661  -8.663  1.00  0.00    -0.106 SA
ATOM     14  C   UNL     1       2.163  -9.376  -7.210  1.00  0.00     0.113 C 
ATOM     15  N   UNL     1       4.380  -8.556  -6.473  1.00  0.00    -0.267 NA
ATOM     16  C   UNL     1       2.967  -8.811  -6.049  1.00  0.00     0.205 CG0
ATOM     17  G   UNL     1       2.316  -7.526  -5.511  1.00  0.00     0.000 G0
ENDBRANCH  11  12
BRANCH  11  18
ATOM     18  C   UNL     1       5.851  -8.521  -9.973  1.00  0.00     0.015 C 
ATOM     19  C   UNL     1       6.974  -7.743 -10.673  1.00  0.00     0.010 C 
BRANCH  18  20
ATOM     20  C   UNL     1       5.988 -10.039 -10.206  1.00  0.00     0.002 C 
ATOM     21  C   UNL     1       7.434 -10.521 -10.154  1.00  0.00     0.004 C 
ENDBRANCH  18  20
ENDBRANCH  11  18
ENDBRANCH   8  11
ENDBRANCH   3   7
ENDBRANCH   1   2
BRANCH   1  22
ATOM     22  N   UNL     1       5.134  -3.065  -4.043  1.00  0.00    -0.348 N 
ATOM     23  C   UNL     1       4.758  -2.694  -2.780  1.00  0.00     0.249 C 
ATOM     24  O   UNL     1       4.691  -1.526  -2.414  1.00  0.00    -0.272 OA
ATOM     25  H   UNL     1       5.170  -4.065  -4.234  1.00  0.00     0.163 HD
BRANCH  23  26
ATOM     26  C   UNL     1       4.371  -3.891  -1.899  1.00  0.00     0.238 C 
ATOM     27  N   UNL     1       2.958  -4.271  -2.179  1.00  0.00    -0.236 NA
ATOM     28  C   UNL     1       5.195  -5.126  -2.222  1.00  0.00     0.206 C 
ATOM     29  C   UNL     1       3.072  -5.420  -2.777  1.00  0.00     0.208 C 
ATOM     30  O   UNL     1       4.303  -5.953  -2.968  1.00  0.00    -0.474 OA
ATOM     31  C   UNL     1       5.631  -5.881  -0.974  1.00  0.00     0.056 C 
BRANCH  29  32
ATOM     32  C   UNL     1       1.934  -6.251  -3.362  1.00  0.00     0.171 C 
BRANCH  32  33
ATOM     33  N   UNL     1       2.451  -7.392  -4.101  1.00  0.00    -0.342 N 
ATOM     34  C   UNL     1       2.311  -7.519  -5.463  1.00  0.00     0.246 CG0
ATOM     35  O   UNL     1       1.719  -6.694  -6.155  1.00  0.00    -0.273 OA
ATOM     36  H   UNL     1       2.906  -8.163  -3.624  1.00  0.00     0.164 HD
ATOM     37  G   UNL     1       2.980  -8.768  -6.058  1.00  0.00     0.000 G0
ENDBRANCH  32  33
BRANCH  32  38
ATOM     38  C   UNL     1       0.937  -6.666  -2.248  1.00  0.00     0.017 C 
ATOM     39  C   UNL     1      -0.080  -5.543  -2.006  1.00  0.00     0.010 C 
BRANCH  38  40
ATOM     40  C   UNL     1       0.237  -8.014  -2.537  1.00  0.00     0.002 C 
ATOM     41  C   UNL     1      -1.032  -7.876  -3.368  1.00  0.00     0.004 C 
ENDBRANCH  38  40
ENDBRANCH  32  38
ENDBRANCH  29  32
ENDBRANCH  23  26
ENDBRANCH   1  22
TORSDOF 4
ENDMDL
MODEL 38
REMARK VINA RESULT:    -4.306      2.819      8.097
REMARK INTER + INTRA:          -8.239
REMARK INTER:                  -9.796
REMARK INTRA:                   1.557
REMARK UNBOUND:                -0.912
REMARK SMILES CC[C@H](C)[C@@H]1NC(=O)[C@H]2CSC(=N2)[C@@H]([C@@H](C)CC)NC(=O)c2csc(n2)CNC(=O)[C@H]2N=C1O[C@@H]2C
REMARK SMILES IDX 27 1 25 2 22 3 26 4 23 5 24 6 20 7 19 8 21 9 14 11 12 12
REMARK SMILES IDX 11 13 10 14 13 15 9 16 15 18 16 19 17 20 18 21 28 22 29 23
REMARK SMILES IDX 30 24 31 26 32 27 35 28 33 29 34 30 36 31 5 32 6 33 7 34
REMARK SMILES IDX 8 35 3 38 4 39 2 40 1 41
REMARK H PARENT 19 10 28 25 6 36
REMARK Flexibility Score:   91.900
ROOT
ATOM      1  C   UNL     1       1.125   0.003  -0.987  1.00  0.00     0.183 C 
ENDROOT
BRANCH   1   2
ATOM      2  C   UNL     1       2.445  -0.307  -1.634  1.00  0.00     0.113 A 
ATOM      3  C   UNL     1       4.021  -1.461  -2.707  1.00  0.00     0.139 A 
ATOM      4  N   UNL     1       2.677  -1.403  -2.332  1.00  0.00    -0.234 NA
ATOM      5  C   UNL     1       4.768  -0.363  -2.326  1.00  0.00     0.101 A 
ATOM      6  S   UNL     1       3.787   0.750  -1.464  1.00  0.00    -0.125 S 
BRANCH   3   7
ATOM      7  C   UNL     1       4.537  -2.639  -3.407  1.00  0.00     0.271 C 
ATOM      8  N   UNL     1       5.884  -2.801  -3.199  1.00  0.00    -0.341 N 
ATOM      9  O   UNL     1       3.850  -3.364  -4.116  1.00  0.00    -0.267 OA
ATOM     10  H   UNL     1       6.316  -2.131  -2.565  1.00  0.00     0.164 HD
BRANCH   8  11
ATOM     11  C   UNL     1       6.710  -3.765  -3.908  1.00  0.00     0.140 C 
BRANCH  11  12
ATOM     12  C   UNL     1       5.996  -5.119  -3.862  1.00  0.00     0.091 C 
ATOM     13  S   UNL     1       5.882  -6.112  -5.297  1.00  0.00    -0.106 SA
ATOM     14  C   UNL     1       5.302  -7.503  -4.303  1.00  0.00     0.113 C 
ATOM     15  N   UNL     1       5.393  -5.542  -2.796  1.00  0.00    -0.267 NA
ATOM     16  C   UNL     1       4.697  -6.837  -3.077  1.00  0.00     0.205 CG0
ATOM     17  G   UNL     1       3.187  -6.618  -3.267  1.00  0.00     0.000 G0
ENDBRANCH  11  12
BRANCH  11  18
ATOM     18  C   UNL     1       7.185  -3.283  -5.303  1.00  0.00     0.015 C 
ATOM     19  C   UNL     1       6.332  -3.921  -6.408  1.00  0.00     0.010 C 
BRANCH  18  20
ATOM     20  C   UNL     1       7.263  -1.752  -5.464  1.00  0.00     0.002 C 
ATOM     21  C   UNL     1       7.139  -1.298  -6.914  1.00  0.00     0.004 C 
ENDBRANCH  18  20
ENDBRANCH  11  18
ENDBRANCH   8  11
ENDBRANCH   3   7
ENDBRANCH   1   2
BRANCH   1  22
ATOM     22  N   UNL     1       0.453  -1.255  -0.750  1.00  0.00    -0.348 N 
ATOM     23  C   UNL     1       0.828  -2.173   0.194  1.00  0.00     0.249 C 
ATOM     24  O   UNL     1       1.731  -1.979   0.999  1.00  0.00    -0.272 OA
ATOM     25  H   UNL     1      -0.301  -1.527  -1.379  1.00  0.00     0.163 HD
BRANCH  23  26
ATOM     26  C   UNL     1      -0.044  -3.438   0.172  1.00  0.00     0.238 C 
ATOM     27  N   UNL     1      -0.037  -4.015  -1.201  1.00  0.00    -0.236 NA
ATOM     28  C   UNL     1       0.512  -4.527   1.073  1.00  0.00     0.206 C 
ATOM     29  C   UNL     1       0.637  -5.117  -1.058  1.00  0.00     0.208 C 
ATOM     30  O   UNL     1       1.106  -5.457   0.168  1.00  0.00    -0.474 OA
ATOM     31  C   UNL     1      -0.575  -5.244   1.863  1.00  0.00     0.056 C 
BRANCH  29  32
ATOM     32  C   UNL     1       1.023  -6.092  -2.167  1.00  0.00     0.171 C 
BRANCH  32  33
ATOM     33  N   UNL     1       2.452  -6.361  -2.147  1.00  0.00    -0.342 N 
ATOM     34  C   UNL     1       3.172  -6.625  -3.288  1.00  0.00     0.246 CG0
ATOM     35  O   UNL     1       2.663  -6.680  -4.404  1.00  0.00    -0.273 OA
ATOM     36  H   UNL     1       2.967  -6.399  -1.274  1.00  0.00     0.164 HD
ATOM     37  G   UNL     1       4.679  -6.823  -3.058  1.00  0.00     0.000 G0
ENDBRANCH  32  33
BRANCH  32  38
ATOM     38  C   UNL     1       0.173  -7.386  -2.072  1.00  0.00     0.017 C 
ATOM     39  C   UNL     1      -1.085  -7.130  -1.233  1.00  0.00     0.010 C 
BRANCH  38  40
ATOM     40  C   UNL     1      -0.177  -7.980  -3.456  1.00  0.00     0.002 C 
ATOM     41  C   UNL     1      -1.127  -7.111  -4.269  1.00  0.00     0.004 C 
ENDBRANCH  38  40
ENDBRANCH  32  38
ENDBRANCH  29  32
ENDBRANCH  23  26
ENDBRANCH   1  22
TORSDOF 4
ENDMDL
MODEL 39
REMARK VINA RESULT:    -4.274     15.309     19.079
REMARK INTER + INTRA:          -8.185
REMARK INTER:                  -6.436
REMARK INTRA:                  -1.749
REMARK UNBOUND:                -0.912
REMARK SMILES CC[C@H](C)[C@@H]1NC(=O)[C@H]2CSC(=N2)[C@@H]([C@@H](C)CC)NC(=O)c2csc(n2)CNC(=O)[C@H]2N=C1O[C@@H]2C
REMARK SMILES IDX 27 1 25 2 22 3 26 4 23 5 24 6 20 7 19 8 21 9 14 11 12 12
REMARK SMILES IDX 11 13 10 14 13 15 9 16 15 18 16 19 17 20 18 21 28 22 29 23
REMARK SMILES IDX 30 24 31 26 32 27 35 28 33 29 34 30 36 31 5 32 6 33 7 34
REMARK SMILES IDX 8 35 3 38 4 39 2 40 1 41
REMARK H PARENT 19 10 28 25 6 36
REMARK Flexibility Score:   91.900
ROOT
ATOM      1  C   UNL     1     -13.195  -3.976   3.643  1.00  0.00     0.183 C 
ENDROOT
BRANCH   1   2
ATOM      2  C   UNL     1     -14.644  -3.914   3.253  1.00  0.00     0.113 A 
ATOM      3  C   UNL     1     -16.633  -4.585   2.506  1.00  0.00     0.139 A 
ATOM      4  N   UNL     1     -15.361  -4.974   2.930  1.00  0.00    -0.234 NA
ATOM      5  C   UNL     1     -16.868  -3.226   2.576  1.00  0.00     0.101 A 
ATOM      6  S   UNL     1     -15.472  -2.413   3.157  1.00  0.00    -0.125 S 
BRANCH   3   7
ATOM      7  C   UNL     1     -17.575  -5.586   2.001  1.00  0.00     0.271 C 
ATOM      8  N   UNL     1     -17.831  -6.558   2.937  1.00  0.00    -0.341 N 
ATOM      9  O   UNL     1     -18.045  -5.569   0.870  1.00  0.00    -0.267 OA
ATOM     10  H   UNL     1     -17.385  -6.425   3.844  1.00  0.00     0.164 HD
BRANCH   8  11
ATOM     11  C   UNL     1     -18.575  -7.777   2.667  1.00  0.00     0.140 C 
BRANCH  11  12
ATOM     12  C   UNL     1     -17.924  -8.911   3.463  1.00  0.00     0.091 C 
ATOM     13  S   UNL     1     -18.350  -9.180   5.137  1.00  0.00    -0.106 SA
ATOM     14  C   UNL     1     -17.488 -10.766   5.115  1.00  0.00     0.113 C 
ATOM     15  N   UNL     1     -16.992  -9.657   2.958  1.00  0.00    -0.267 NA
ATOM     16  C   UNL     1     -16.472 -10.603   3.996  1.00  0.00     0.205 CG0
ATOM     17  G   UNL     1     -15.123 -10.120   4.552  1.00  0.00     0.000 G0
ENDBRANCH  11  12
BRANCH  11  18
ATOM     18  C   UNL     1     -20.111  -7.624   2.816  1.00  0.00     0.015 C 
ATOM     19  C   UNL     1     -20.444  -6.467   3.767  1.00  0.00     0.010 C 
BRANCH  18  20
ATOM     20  C   UNL     1     -20.878  -7.497   1.484  1.00  0.00     0.002 C 
ATOM     21  C   UNL     1     -20.297  -8.369   0.376  1.00  0.00     0.004 C 
ENDBRANCH  18  20
ENDBRANCH  11  18
ENDBRANCH   8  11
ENDBRANCH   3   7
ENDBRANCH   1   2
BRANCH   1  22
ATOM     22  N   UNL     1     -12.658  -5.210   3.114  1.00  0.00    -0.348 N 
ATOM     23  C   UNL     1     -11.749  -5.291   2.095  1.00  0.00     0.249 C 
ATOM     24  O   UNL     1     -11.229  -4.308   1.578  1.00  0.00    -0.272 OA
ATOM     25  H   UNL     1     -13.038  -6.091   3.459  1.00  0.00     0.163 HD
BRANCH  23  26
ATOM     26  C   UNL     1     -11.408  -6.740   1.714  1.00  0.00     0.238 C 
ATOM     27  N   UNL     1     -11.326  -7.566   2.951  1.00  0.00    -0.236 NA
ATOM     28  C   UNL     1     -12.499  -7.378   0.871  1.00  0.00     0.206 C 
ATOM     29  C   UNL     1     -12.365  -8.341   2.861  1.00  0.00     0.208 C 
ATOM     30  O   UNL     1     -13.177  -8.244   1.779  1.00  0.00    -0.474 OA
ATOM     31  C   UNL     1     -11.939  -8.214  -0.273  1.00  0.00     0.056 C 
BRANCH  29  32
ATOM     32  C   UNL     1     -12.827  -9.358   3.900  1.00  0.00     0.171 C 
BRANCH  32  33
ATOM     33  N   UNL     1     -14.154  -9.862   3.580  1.00  0.00    -0.342 N 
ATOM     34  C   UNL     1     -15.098 -10.125   4.543  1.00  0.00     0.246 CG0
ATOM     35  O   UNL     1     -14.888  -9.982   5.745  1.00  0.00    -0.273 OA
ATOM     36  H   UNL     1     -14.418 -10.073   2.624  1.00  0.00     0.164 HD
ATOM     37  G   UNL     1     -16.455 -10.593   3.993  1.00  0.00     0.000 G0
ENDBRANCH  32  33
BRANCH  32  38
ATOM     38  C   UNL     1     -11.781 -10.494   4.051  1.00  0.00     0.017 C 
ATOM     39  C   UNL     1     -11.682 -10.927   5.519  1.00  0.00     0.010 C 
BRANCH  38  40
ATOM     40  C   UNL     1     -12.058 -11.697   3.120  1.00  0.00     0.002 C 
ATOM     41  C   UNL     1     -11.135 -11.758   1.911  1.00  0.00     0.004 C 
ENDBRANCH  38  40
ENDBRANCH  32  38
ENDBRANCH  29  32
ENDBRANCH  23  26
ENDBRANCH   1  22
TORSDOF 4
ENDMDL
MODEL 40
REMARK VINA RESULT:    -4.179     15.458     19.357
REMARK INTER + INTRA:          -8.023
REMARK INTER:                  -6.668
REMARK INTRA:                  -1.355
REMARK UNBOUND:                -0.912
REMARK SMILES CC[C@H](C)[C@@H]1NC(=O)[C@H]2CSC(=N2)[C@@H]([C@@H](C)CC)NC(=O)c2csc(n2)CNC(=O)[C@H]2N=C1O[C@@H]2C
REMARK SMILES IDX 27 1 25 2 22 3 26 4 23 5 24 6 20 7 19 8 21 9 14 11 12 12
REMARK SMILES IDX 11 13 10 14 13 15 9 16 15 18 16 19 17 20 18 21 28 22 29 23
REMARK SMILES IDX 30 24 31 26 32 27 35 28 33 29 34 30 36 31 5 32 6 33 7 34
REMARK SMILES IDX 8 35 3 38 4 39 2 40 1 41
REMARK H PARENT 19 10 28 25 6 36
REMARK Flexibility Score:   91.900
ROOT
ATOM      1  C   UNL     1     -14.756  -3.699   0.961  1.00  0.00     0.183 C 
ENDROOT
BRANCH   1   2
ATOM      2  C   UNL     1     -13.653  -4.696   1.177  1.00  0.00     0.113 A 
ATOM      3  C   UNL     1     -12.635  -6.576   1.805  1.00  0.00     0.139 A 
ATOM      4  N   UNL     1     -13.856  -5.933   1.590  1.00  0.00    -0.234 NA
ATOM      5  C   UNL     1     -11.525  -5.817   1.489  1.00  0.00     0.101 A 
ATOM      6  S   UNL     1     -12.009  -4.265   0.937  1.00  0.00    -0.125 S 
BRANCH   3   7
ATOM      7  C   UNL     1     -12.608  -7.930   2.363  1.00  0.00     0.271 C 
ATOM      8  N   UNL     1     -12.443  -8.877   1.383  1.00  0.00    -0.341 N 
ATOM      9  O   UNL     1     -12.749  -8.178   3.554  1.00  0.00    -0.267 OA
ATOM     10  H   UNL     1     -12.315  -8.517   0.438  1.00  0.00     0.164 HD
BRANCH   8  11
ATOM     11  C   UNL     1     -12.563 -10.309   1.603  1.00  0.00     0.140 C 
BRANCH  11  12
ATOM     12  C   UNL     1     -13.648 -10.840   0.661  1.00  0.00     0.091 C 
ATOM     13  S   UNL     1     -13.251 -11.304  -0.978  1.00  0.00    -0.106 SA
ATOM     14  C   UNL     1     -14.871 -12.078  -1.164  1.00  0.00     0.113 C 
ATOM     15  N   UNL     1     -14.894 -10.895   1.010  1.00  0.00    -0.267 NA
ATOM     16  C   UNL     1     -15.732 -11.351  -0.143  1.00  0.00     0.205 CG0
ATOM     17  G   UNL     1     -16.461 -10.164  -0.794  1.00  0.00     0.000 G0
ENDBRANCH  11  12
BRANCH  11  18
ATOM     18  C   UNL     1     -11.209 -11.064   1.590  1.00  0.00     0.015 C 
ATOM     19  C   UNL     1     -10.171 -10.315   2.435  1.00  0.00     0.010 C 
BRANCH  18  20
ATOM     20  C   UNL     1     -11.296 -12.551   1.991  1.00  0.00     0.002 C 
ATOM     21  C   UNL     1     -11.956 -12.763   3.350  1.00  0.00     0.004 C 
ENDBRANCH  18  20
ENDBRANCH  11  18
ENDBRANCH   8  11
ENDBRANCH   3   7
ENDBRANCH   1   2
BRANCH   1  22
ATOM     22  N   UNL     1     -16.010  -4.406   1.098  1.00  0.00    -0.348 N 
ATOM     23  C   UNL     1     -16.747  -4.468   2.249  1.00  0.00     0.249 C 
ATOM     24  O   UNL     1     -16.455  -3.853   3.269  1.00  0.00    -0.272 OA
ATOM     25  H   UNL     1     -16.336  -4.971   0.315  1.00  0.00     0.163 HD
BRANCH  23  26
ATOM     26  C   UNL     1     -18.004  -5.339   2.105  1.00  0.00     0.238 C 
ATOM     27  N   UNL     1     -18.103  -5.830   0.702  1.00  0.00    -0.236 NA
ATOM     28  C   UNL     1     -17.934  -6.587   2.968  1.00  0.00     0.206 C 
ATOM     29  C   UNL     1     -17.873  -7.104   0.816  1.00  0.00     0.208 C 
ATOM     30  O   UNL     1     -17.643  -7.633   2.043  1.00  0.00    -0.474 OA
ATOM     31  C   UNL     1     -19.258  -6.898   3.654  1.00  0.00     0.056 C 
BRANCH  29  32
ATOM     32  C   UNL     1     -17.776  -8.111  -0.327  1.00  0.00     0.171 C 
BRANCH  32  33
ATOM     33  N   UNL     1     -17.066  -9.309   0.095  1.00  0.00    -0.342 N 
ATOM     34  C   UNL     1     -16.481 -10.176  -0.796  1.00  0.00     0.246 CG0
ATOM     35  O   UNL     1     -16.534 -10.022  -2.014  1.00  0.00    -0.273 OA
ATOM     36  H   UNL     1     -17.009  -9.567   1.074  1.00  0.00     0.164 HD
ATOM     37  G   UNL     1     -15.729 -11.348  -0.145  1.00  0.00     0.000 G0
ENDBRANCH  32  33
BRANCH  32  38
ATOM     38  C   UNL     1     -19.185  -8.425  -0.894  1.00  0.00     0.017 C 
ATOM     39  C   UNL     1     -20.208  -8.499   0.246  1.00  0.00     0.010 C 
BRANCH  38  40
ATOM     40  C   UNL     1     -19.628  -7.431  -1.992  1.00  0.00     0.002 C 
ATOM     41  C   UNL     1     -18.754  -7.471  -3.239  1.00  0.00     0.004 C 
ENDBRANCH  38  40
ENDBRANCH  32  38
ENDBRANCH  29  32
ENDBRANCH  23  26
ENDBRANCH   1  22
TORSDOF 4
ENDMDL
MODEL 41
REMARK VINA RESULT:    -4.121      2.834      6.313
REMARK INTER + INTRA:          -7.924
REMARK INTER:                  -7.507
REMARK INTRA:                  -0.417
REMARK UNBOUND:                -0.912
REMARK SMILES CC[C@H](C)[C@@H]1NC(=O)[C@H]2CSC(=N2)[C@@H]([C@@H](C)CC)NC(=O)c2csc(n2)CNC(=O)[C@H]2N=C1O[C@@H]2C
REMARK SMILES IDX 27 1 25 2 22 3 26 4 23 5 24 6 20 7 19 8 21 9 14 11 12 12
REMARK SMILES IDX 11 13 10 14 13 15 9 16 15 18 16 19 17 20 18 21 28 22 29 23
REMARK SMILES IDX 30 24 31 26 32 27 35 28 33 29 34 30 36 31 5 32 6 33 7 34
REMARK SMILES IDX 8 35 3 38 4 39 2 40 1 41
REMARK H PARENT 19 10 28 25 6 36
REMARK Flexibility Score:   91.900
ROOT
ATOM      1  C   UNL     1      -0.285  -4.514   0.758  1.00  0.00     0.183 C 
ENDROOT
BRANCH   1   2
ATOM      2  C   UNL     1      -0.283  -5.764  -0.073  1.00  0.00     0.113 A 
ATOM      3  C   UNL     1       0.177  -7.146  -1.760  1.00  0.00     0.139 A 
ATOM      4  N   UNL     1       0.482  -5.935  -1.136  1.00  0.00    -0.234 NA
ATOM      5  C   UNL     1      -0.784  -7.897  -1.113  1.00  0.00     0.101 A 
ATOM      6  S   UNL     1      -1.336  -7.071   0.287  1.00  0.00    -0.125 S 
BRANCH   3   7
ATOM      7  C   UNL     1       0.831  -7.506  -3.021  1.00  0.00     0.271 C 
ATOM      8  N   UNL     1      -0.074  -7.608  -4.049  1.00  0.00    -0.341 N 
ATOM      9  O   UNL     1       2.032  -7.721  -3.127  1.00  0.00    -0.267 OA
ATOM     10  H   UNL     1      -1.038  -7.376  -3.812  1.00  0.00     0.164 HD
BRANCH   8  11
ATOM     11  C   UNL     1       0.245  -8.128  -5.368  1.00  0.00     0.140 C 
BRANCH  11  12
ATOM     12  C   UNL     1       1.561  -7.490  -5.820  1.00  0.00     0.091 C 
ATOM     13  S   UNL     1       2.889  -8.487  -6.366  1.00  0.00    -0.106 SA
ATOM     14  C   UNL     1       3.748  -7.025  -6.987  1.00  0.00     0.113 C 
ATOM     15  N   UNL     1       1.766  -6.213  -5.746  1.00  0.00    -0.267 NA
ATOM     16  C   UNL     1       3.171  -5.893  -6.152  1.00  0.00     0.205 CG0
ATOM     17  G   UNL     1       4.051  -5.624  -4.920  1.00  0.00     0.000 G0
ENDBRANCH  11  12
BRANCH  11  18
ATOM     18  C   UNL     1       0.155  -9.672  -5.475  1.00  0.00     0.015 C 
ATOM     19  C   UNL     1      -0.818 -10.226  -4.426  1.00  0.00     0.010 C 
BRANCH  18  20
ATOM     20  C   UNL     1      -0.177 -10.202  -6.885  1.00  0.00     0.002 C 
ATOM     21  C   UNL     1      -1.066 -11.440  -6.862  1.00  0.00     0.004 C 
ENDBRANCH  18  20
ENDBRANCH  11  18
ENDBRANCH   8  11
ENDBRANCH   3   7
ENDBRANCH   1   2
BRANCH   1  22
ATOM     22  N   UNL     1       0.920  -3.781   0.441  1.00  0.00    -0.348 N 
ATOM     23  C   UNL     1       1.015  -2.817  -0.526  1.00  0.00     0.249 C 
ATOM     24  O   UNL     1       0.053  -2.415  -1.171  1.00  0.00    -0.272 OA
ATOM     25  H   UNL     1       1.787  -4.051   0.903  1.00  0.00     0.163 HD
BRANCH  23  26
ATOM     26  C   UNL     1       2.437  -2.256  -0.671  1.00  0.00     0.238 C 
ATOM     27  N   UNL     1       3.370  -3.365  -1.016  1.00  0.00    -0.236 NA
ATOM     28  C   UNL     1       2.544  -1.264  -1.816  1.00  0.00     0.206 C 
ATOM     29  C   UNL     1       3.706  -3.100  -2.243  1.00  0.00     0.208 C 
ATOM     30  O   UNL     1       3.205  -1.995  -2.848  1.00  0.00    -0.474 OA
ATOM     31  C   UNL     1       3.392  -0.050  -1.460  1.00  0.00     0.056 C 
BRANCH  29  32
ATOM     32  C   UNL     1       4.598  -3.953  -3.141  1.00  0.00     0.171 C 
BRANCH  32  33
ATOM     33  N   UNL     1       3.882  -4.373  -4.336  1.00  0.00    -0.342 N 
ATOM     34  C   UNL     1       4.064  -5.607  -4.913  1.00  0.00     0.246 CG0
ATOM     35  O   UNL     1       4.861  -6.438  -4.482  1.00  0.00    -0.273 OA
ATOM     36  H   UNL     1       3.242  -3.746  -4.811  1.00  0.00     0.164 HD
ATOM     37  G   UNL     1       3.169  -5.878  -6.133  1.00  0.00     0.000 G0
ENDBRANCH  32  33
BRANCH  32  38
ATOM     38  C   UNL     1       5.914  -3.200  -3.471  1.00  0.00     0.017 C 
ATOM     39  C   UNL     1       7.119  -4.123  -3.246  1.00  0.00     0.010 C 
BRANCH  38  40
ATOM     40  C   UNL     1       5.921  -2.591  -4.892  1.00  0.00     0.002 C 
ATOM     41  C   UNL     1       6.965  -3.207  -5.814  1.00  0.00     0.004 C 
ENDBRANCH  38  40
ENDBRANCH  32  38
ENDBRANCH  29  32
ENDBRANCH  23  26
ENDBRANCH   1  22
TORSDOF 4
ENDMDL
MODEL 42
REMARK VINA RESULT:    -4.096      2.918      6.337
REMARK INTER + INTRA:          -7.882
REMARK INTER:                  -7.575
REMARK INTRA:                  -0.307
REMARK UNBOUND:                -0.912
REMARK SMILES CC[C@H](C)[C@@H]1NC(=O)[C@H]2CSC(=N2)[C@@H]([C@@H](C)CC)NC(=O)c2csc(n2)CNC(=O)[C@H]2N=C1O[C@@H]2C
REMARK SMILES IDX 27 1 25 2 22 3 26 4 23 5 24 6 20 7 19 8 21 9 14 11 12 12
REMARK SMILES IDX 11 13 10 14 13 15 9 16 15 18 16 19 17 20 18 21 28 22 29 23
REMARK SMILES IDX 30 24 31 26 32 27 35 28 33 29 34 30 36 31 5 32 6 33 7 34
REMARK SMILES IDX 8 35 3 38 4 39 2 40 1 41
REMARK H PARENT 19 10 28 25 6 36
REMARK Flexibility Score:   91.900
ROOT
ATOM      1  C   UNL     1       0.017  -3.087   1.595  1.00  0.00     0.183 C 
ENDROOT
BRANCH   1   2
ATOM      2  C   UNL     1      -0.676  -4.397   1.352  1.00  0.00     0.113 A 
ATOM      3  C   UNL     1      -1.319  -6.251   0.296  1.00  0.00     0.139 A 
ATOM      4  N   UNL     1      -0.444  -5.162   0.301  1.00  0.00    -0.234 NA
ATOM      5  C   UNL     1      -2.162  -6.312   1.388  1.00  0.00     0.101 A 
ATOM      6  S   UNL     1      -1.879  -4.978   2.429  1.00  0.00    -0.125 S 
BRANCH   3   7
ATOM      7  C   UNL     1      -1.316  -7.187  -0.830  1.00  0.00     0.271 C 
ATOM      8  N   UNL     1      -2.194  -6.801  -1.812  1.00  0.00    -0.341 N 
ATOM      9  O   UNL     1      -0.636  -8.206  -0.866  1.00  0.00    -0.267 OA
ATOM     10  H   UNL     1      -2.673  -5.916  -1.651  1.00  0.00     0.164 HD
BRANCH   8  11
ATOM     11  C   UNL     1      -2.548  -7.619  -2.961  1.00  0.00     0.140 C 
BRANCH  11  12
ATOM     12  C   UNL     1      -1.269  -7.886  -3.759  1.00  0.00     0.091 C 
ATOM     13  S   UNL     1      -0.721  -9.523  -4.037  1.00  0.00    -0.106 SA
ATOM     14  C   UNL     1       0.478  -8.930  -5.249  1.00  0.00     0.113 C 
ATOM     15  N   UNL     1      -0.515  -6.924  -4.190  1.00  0.00    -0.267 NA
ATOM     16  C   UNL     1       0.713  -7.484  -4.838  1.00  0.00     0.205 CG0
ATOM     17  G   UNL     1       1.926  -7.376  -3.901  1.00  0.00     0.000 G0
ENDBRANCH  11  12
BRANCH  11  18
ATOM     18  C   UNL     1      -3.412  -8.858  -2.609  1.00  0.00     0.015 C 
ATOM     19  C   UNL     1      -4.496  -8.482  -1.590  1.00  0.00     0.010 C 
BRANCH  18  20
ATOM     20  C   UNL     1      -4.013  -9.591  -3.826  1.00  0.00     0.002 C 
ATOM     21  C   UNL     1      -3.821 -11.102  -3.765  1.00  0.00     0.004 C 
ENDBRANCH  18  20
ENDBRANCH  11  18
ENDBRANCH   8  11
ENDBRANCH   3   7
ENDBRANCH   1   2
BRANCH   1  22
ATOM     22  N   UNL     1       1.237  -3.091   0.818  1.00  0.00    -0.348 N 
ATOM     23  C   UNL     1       1.557  -2.163  -0.134  1.00  0.00     0.249 C 
ATOM     24  O   UNL     1       0.871  -1.174  -0.368  1.00  0.00    -0.272 OA
ATOM     25  H   UNL     1       1.871  -3.883   0.917  1.00  0.00     0.163 HD
BRANCH  23  26
ATOM     26  C   UNL     1       2.893  -2.462  -0.831  1.00  0.00     0.238 C 
ATOM     27  N   UNL     1       3.187  -3.918  -0.725  1.00  0.00    -0.236 NA
ATOM     28  C   UNL     1       2.837  -2.166  -2.320  1.00  0.00     0.206 C 
ATOM     29  C   UNL     1       3.057  -4.338  -1.948  1.00  0.00     0.208 C 
ATOM     30  O   UNL     1       2.741  -3.454  -2.926  1.00  0.00    -0.474 OA
ATOM     31  C   UNL     1       4.100  -1.483  -2.828  1.00  0.00     0.056 C 
BRANCH  29  32
ATOM     32  C   UNL     1       3.174  -5.783  -2.426  1.00  0.00     0.171 C 
BRANCH  32  33
ATOM     33  N   UNL     1       2.139  -6.093  -3.399  1.00  0.00    -0.342 N 
ATOM     34  C   UNL     1       1.936  -7.362  -3.886  1.00  0.00     0.246 CG0
ATOM     35  O   UNL     1       2.625  -8.324  -3.557  1.00  0.00    -0.273 OA
ATOM     36  H   UNL     1       1.548  -5.365  -3.786  1.00  0.00     0.164 HD
ATOM     37  G   UNL     1       0.754  -7.489  -4.861  1.00  0.00     0.000 G0
ENDBRANCH  32  33
BRANCH  32  38
ATOM     38  C   UNL     1       4.601  -6.063  -2.965  1.00  0.00     0.017 C 
ATOM     39  C   UNL     1       5.016  -4.963  -3.951  1.00  0.00     0.010 C 
BRANCH  38  40
ATOM     40  C   UNL     1       5.646  -6.242  -1.840  1.00  0.00     0.002 C 
ATOM     41  C   UNL     1       6.951  -6.870  -2.315  1.00  0.00     0.004 C 
ENDBRANCH  38  40
ENDBRANCH  32  38
ENDBRANCH  29  32
ENDBRANCH  23  26
ENDBRANCH   1  22
TORSDOF 4
ENDMDL
MODEL 43
REMARK VINA RESULT:    -4.049      2.809      7.691
REMARK INTER + INTRA:          -7.802
REMARK INTER:                  -8.424
REMARK INTRA:                   0.622
REMARK UNBOUND:                -0.912
REMARK SMILES CC[C@H](C)[C@@H]1NC(=O)[C@H]2CSC(=N2)[C@@H]([C@@H](C)CC)NC(=O)c2csc(n2)CNC(=O)[C@H]2N=C1O[C@@H]2C
REMARK SMILES IDX 27 1 25 2 22 3 26 4 23 5 24 6 20 7 19 8 21 9 14 11 12 12
REMARK SMILES IDX 11 13 10 14 13 15 9 16 15 18 16 19 17 20 18 21 28 22 29 23
REMARK SMILES IDX 30 24 31 26 32 27 35 28 33 29 34 30 36 31 5 32 6 33 7 34
REMARK SMILES IDX 8 35 3 38 4 39 2 40 1 41
REMARK H PARENT 19 10 28 25 6 36
REMARK Flexibility Score:   91.900
ROOT
ATOM      1  C   UNL     1      -0.950  -2.514   0.171  1.00  0.00     0.183 C 
ENDROOT
BRANCH   1   2
ATOM      2  C   UNL     1       0.296  -1.833  -0.319  1.00  0.00     0.113 A 
ATOM      3  C   UNL     1       2.275  -1.565  -1.308  1.00  0.00     0.139 A 
ATOM      4  N   UNL     1       1.173  -2.403  -1.124  1.00  0.00    -0.234 NA
ATOM      5  C   UNL     1       2.175  -0.342  -0.676  1.00  0.00     0.101 A 
ATOM      6  S   UNL     1       0.693  -0.241   0.185  1.00  0.00    -0.125 S 
BRANCH   3   7
ATOM      7  C   UNL     1       3.426  -2.029  -2.086  1.00  0.00     0.271 C 
ATOM      8  N   UNL     1       4.537  -2.195  -1.297  1.00  0.00    -0.341 N 
ATOM      9  O   UNL     1       3.400  -2.209  -3.297  1.00  0.00    -0.267 OA
ATOM     10  H   UNL     1       4.398  -2.028  -0.301  1.00  0.00     0.164 HD
BRANCH   8  11
ATOM     11  C   UNL     1       5.870  -2.464  -1.809  1.00  0.00     0.140 C 
BRANCH  11  12
ATOM     12  C   UNL     1       5.894  -3.906  -2.322  1.00  0.00     0.091 C 
ATOM     13  S   UNL     1       6.782  -4.318  -3.771  1.00  0.00    -0.106 SA
ATOM     14  C   UNL     1       6.584  -6.075  -3.407  1.00  0.00     0.113 C 
ATOM     15  N   UNL     1       5.208  -4.848  -1.755  1.00  0.00    -0.267 NA
ATOM     16  C   UNL     1       5.340  -6.120  -2.534  1.00  0.00     0.205 CG0
ATOM     17  G   UNL     1       4.086  -6.374  -3.386  1.00  0.00     0.000 G0
ENDBRANCH  11  12
BRANCH  11  18
ATOM     18  C   UNL     1       6.404  -1.378  -2.778  1.00  0.00     0.015 C 
ATOM     19  C   UNL     1       6.103  -1.764  -4.232  1.00  0.00     0.010 C 
BRANCH  18  20
ATOM     20  C   UNL     1       5.929   0.055  -2.465  1.00  0.00     0.002 C 
ATOM     21  C   UNL     1       5.370   0.777  -3.687  1.00  0.00     0.004 C 
ENDBRANCH  18  20
ENDBRANCH  11  18
ENDBRANCH   8  11
ENDBRANCH   3   7
ENDBRANCH   1   2
BRANCH   1  22
ATOM     22  N   UNL     1      -0.858  -3.907  -0.207  1.00  0.00    -0.348 N 
ATOM     23  C   UNL     1      -1.658  -4.517  -1.134  1.00  0.00     0.249 C 
ATOM     24  O   UNL     1      -2.488  -3.915  -1.806  1.00  0.00    -0.272 OA
ATOM     25  H   UNL     1      -0.214  -4.507   0.307  1.00  0.00     0.163 HD
BRANCH  23  26
ATOM     26  C   UNL     1      -1.362  -6.017  -1.282  1.00  0.00     0.238 C 
ATOM     27  N   UNL     1      -0.727  -6.264  -2.606  1.00  0.00    -0.236 NA
ATOM     28  C   UNL     1      -0.356  -6.502  -0.252  1.00  0.00     0.206 C 
ATOM     29  C   UNL     1       0.493  -6.589  -2.296  1.00  0.00     0.208 C 
ATOM     30  O   UNL     1       0.857  -6.642  -0.991  1.00  0.00    -0.474 OA
ATOM     31  C   UNL     1      -0.727  -7.857   0.334  1.00  0.00     0.056 C 
BRANCH  29  32
ATOM     32  C   UNL     1       1.627  -6.881  -3.274  1.00  0.00     0.171 C 
BRANCH  32  33
ATOM     33  N   UNL     1       2.921  -6.647  -2.653  1.00  0.00    -0.342 N 
ATOM     34  C   UNL     1       4.063  -6.419  -3.383  1.00  0.00     0.246 CG0
ATOM     35  O   UNL     1       4.085  -6.423  -4.612  1.00  0.00    -0.273 OA
ATOM     36  H   UNL     1       3.033  -6.680  -1.645  1.00  0.00     0.164 HD
ATOM     37  G   UNL     1       5.315  -6.135  -2.537  1.00  0.00     0.000 G0
ENDBRANCH  32  33
BRANCH  32  38
ATOM     38  C   UNL     1       1.494  -8.317  -3.846  1.00  0.00     0.017 C 
ATOM     39  C   UNL     1       0.308  -9.037  -3.191  1.00  0.00     0.010 C 
BRANCH  38  40
ATOM     40  C   UNL     1       1.395  -8.345  -5.388  1.00  0.00     0.002 C 
ATOM     41  C   UNL     1       0.718  -7.115  -5.978  1.00  0.00     0.004 C 
ENDBRANCH  38  40
ENDBRANCH  32  38
ENDBRANCH  29  32
ENDBRANCH  23  26
ENDBRANCH   1  22
TORSDOF 4
ENDMDL
MODEL 44
REMARK VINA RESULT:    -3.940     15.537     19.326
REMARK INTER + INTRA:          -7.616
REMARK INTER:                  -6.504
REMARK INTRA:                  -1.113
REMARK UNBOUND:                -0.912
REMARK SMILES CC[C@H](C)[C@@H]1NC(=O)[C@H]2CSC(=N2)[C@@H]([C@@H](C)CC)NC(=O)c2csc(n2)CNC(=O)[C@H]2N=C1O[C@@H]2C
REMARK SMILES IDX 27 1 25 2 22 3 26 4 23 5 24 6 20 7 19 8 21 9 14 11 12 12
REMARK SMILES IDX 11 13 10 14 13 15 9 16 15 18 16 19 17 20 18 21 28 22 29 23
REMARK SMILES IDX 30 24 31 26 32 27 35 28 33 29 34 30 36 31 5 32 6 33 7 34
REMARK SMILES IDX 8 35 3 38 4 39 2 40 1 41
REMARK H PARENT 19 10 28 25 6 36
REMARK Flexibility Score:   91.900
ROOT
ATOM      1  C   UNL     1     -12.387  -3.473   1.252  1.00  0.00     0.183 C 
ENDROOT
BRANCH   1   2
ATOM      2  C   UNL     1     -11.890  -4.806   0.769  1.00  0.00     0.113 A 
ATOM      3  C   UNL     1     -11.905  -6.973   0.250  1.00  0.00     0.139 A 
ATOM      4  N   UNL     1     -12.670  -5.857   0.594  1.00  0.00    -0.234 NA
ATOM      5  C   UNL     1     -10.554  -6.721   0.115  1.00  0.00     0.101 A 
ATOM      6  S   UNL     1     -10.225  -5.069   0.447  1.00  0.00    -0.125 S 
BRANCH   3   7
ATOM      7  C   UNL     1     -12.544  -8.282   0.102  1.00  0.00     0.271 C 
ATOM      8  N   UNL     1     -13.598  -8.432   0.970  1.00  0.00    -0.341 N 
ATOM      9  O   UNL     1     -12.158  -9.144  -0.678  1.00  0.00    -0.267 OA
ATOM     10  H   UNL     1     -13.816  -7.618   1.543  1.00  0.00     0.164 HD
BRANCH   8  11
ATOM     11  C   UNL     1     -14.306  -9.683   1.187  1.00  0.00     0.140 C 
BRANCH  11  12
ATOM     12  C   UNL     1     -15.685  -9.563   0.531  1.00  0.00     0.091 C 
ATOM     13  S   UNL     1     -15.828  -9.321  -1.194  1.00  0.00    -0.106 SA
ATOM     14  C   UNL     1     -17.600  -9.659  -1.107  1.00  0.00     0.113 C 
ATOM     15  N   UNL     1     -16.778  -9.561   1.227  1.00  0.00    -0.267 NA
ATOM     16  C   UNL     1     -17.955  -9.322   0.333  1.00  0.00     0.205 CG0
ATOM     17  G   UNL     1     -18.444  -7.869   0.446  1.00  0.00     0.000 G0
ENDBRANCH  11  12
BRANCH  11  18
ATOM     18  C   UNL     1     -13.480 -10.945   0.830  1.00  0.00     0.015 C 
ATOM     19  C   UNL     1     -12.557 -11.328   1.994  1.00  0.00     0.010 C 
BRANCH  18  20
ATOM     20  C   UNL     1     -14.318 -12.150   0.354  1.00  0.00     0.002 C 
ATOM     21  C   UNL     1     -13.938 -12.624  -1.044  1.00  0.00     0.004 C 
ENDBRANCH  18  20
ENDBRANCH  11  18
ENDBRANCH   8  11
ENDBRANCH   3   7
ENDBRANCH   1   2
BRANCH   1  22
ATOM     22  N   UNL     1     -13.517  -3.721   2.119  1.00  0.00    -0.348 N 
ATOM     23  C   UNL     1     -14.811  -3.387   1.827  1.00  0.00     0.249 C 
ATOM     24  O   UNL     1     -15.157  -2.914   0.750  1.00  0.00    -0.272 OA
ATOM     25  H   UNL     1     -13.340  -4.093   3.052  1.00  0.00     0.163 HD
BRANCH  23  26
ATOM     26  C   UNL     1     -15.785  -3.725   2.966  1.00  0.00     0.238 C 
ATOM     27  N   UNL     1     -17.152  -3.909   2.404  1.00  0.00    -0.236 NA
ATOM     28  C   UNL     1     -15.440  -5.043   3.637  1.00  0.00     0.206 C 
ATOM     29  C   UNL     1     -17.365  -5.183   2.550  1.00  0.00     0.208 C 
ATOM     30  O   UNL     1     -16.414  -5.955   3.130  1.00  0.00    -0.474 OA
ATOM     31  C   UNL     1     -15.575  -4.981   5.152  1.00  0.00     0.056 C 
BRANCH  29  32
ATOM     32  C   UNL     1     -18.595  -5.954   2.079  1.00  0.00     0.171 C 
BRANCH  32  33
ATOM     33  N   UNL     1     -18.248  -7.325   1.737  1.00  0.00    -0.342 N 
ATOM     34  C   UNL     1     -18.435  -7.845   0.479  1.00  0.00     0.246 CG0
ATOM     35  O   UNL     1     -18.932  -7.204  -0.444  1.00  0.00    -0.273 OA
ATOM     36  H   UNL     1     -17.885  -7.964   2.436  1.00  0.00     0.164 HD
ATOM     37  G   UNL     1     -17.949  -9.294   0.309  1.00  0.00     0.000 G0
ENDBRANCH  32  33
BRANCH  32  38
ATOM     38  C   UNL     1     -19.725  -5.873   3.138  1.00  0.00     0.017 C 
ATOM     39  C   UNL     1     -20.706  -4.750   2.777  1.00  0.00     0.010 C 
BRANCH  38  40
ATOM     40  C   UNL     1     -20.455  -7.221   3.345  1.00  0.00     0.002 C 
ATOM     41  C   UNL     1     -20.485  -7.681   4.796  1.00  0.00     0.004 C 
ENDBRANCH  38  40
ENDBRANCH  32  38
ENDBRANCH  29  32
ENDBRANCH  23  26
ENDBRANCH   1  22
TORSDOF 4
ENDMDL
MODEL 45
REMARK VINA RESULT:    -3.927      2.384      3.481
REMARK INTER + INTRA:          -7.594
REMARK INTER:                  -7.958
REMARK INTRA:                   0.364
REMARK UNBOUND:                -0.912
REMARK SMILES CC[C@H](C)[C@@H]1NC(=O)[C@H]2CSC(=N2)[C@@H]([C@@H](C)CC)NC(=O)c2csc(n2)CNC(=O)[C@H]2N=C1O[C@@H]2C
REMARK SMILES IDX 27 1 25 2 22 3 26 4 23 5 24 6 20 7 19 8 21 9 14 11 12 12
REMARK SMILES IDX 11 13 10 14 13 15 9 16 15 18 16 19 17 20 18 21 28 22 29 23
REMARK SMILES IDX 30 24 31 26 32 27 35 28 33 29 34 30 36 31 5 32 6 33 7 34
REMARK SMILES IDX 8 35 3 38 4 39 2 40 1 41
REMARK H PARENT 19 10 28 25 6 36
REMARK Flexibility Score:   91.900
ROOT
ATOM      1  C   UNL     1       2.305  -9.277  -3.669  1.00  0.00     0.183 C 
ENDROOT
BRANCH   1   2
ATOM      2  C   UNL     1       1.166  -8.324  -3.449  1.00  0.00     0.113 A 
ATOM      3  C   UNL     1       0.055  -6.535  -2.719  1.00  0.00     0.139 A 
ATOM      4  N   UNL     1       1.304  -7.136  -2.888  1.00  0.00    -0.234 NA
ATOM      5  C   UNL     1      -1.005  -7.268  -3.216  1.00  0.00     0.101 A 
ATOM      6  S   UNL     1      -0.440  -8.744  -3.885  1.00  0.00    -0.125 S 
BRANCH   3   7
ATOM      7  C   UNL     1      -0.051  -5.250  -2.024  1.00  0.00     0.271 C 
ATOM      8  N   UNL     1       0.987  -5.063  -1.145  1.00  0.00    -0.341 N 
ATOM      9  O   UNL     1      -0.975  -4.463  -2.187  1.00  0.00    -0.267 OA
ATOM     10  H   UNL     1       1.694  -5.797  -1.135  1.00  0.00     0.164 HD
BRANCH   8  11
ATOM     11  C   UNL     1       1.056  -3.976  -0.182  1.00  0.00     0.140 C 
BRANCH  11  12
ATOM     12  C   UNL     1       1.960  -2.887  -0.767  1.00  0.00     0.091 C 
ATOM     13  S   UNL     1       1.279  -1.381  -1.336  1.00  0.00    -0.106 SA
ATOM     14  C   UNL     1       2.932  -0.665  -1.457  1.00  0.00     0.113 C 
ATOM     15  N   UNL     1       3.233  -3.065  -0.929  1.00  0.00    -0.267 NA
ATOM     16  C   UNL     1       3.834  -1.879  -1.617  1.00  0.00     0.205 CG0
ATOM     17  G   UNL     1       4.087  -2.176  -3.104  1.00  0.00     0.000 G0
ENDBRANCH  11  12
BRANCH  11  18
ATOM     18  C   UNL     1      -0.325  -3.515   0.348  1.00  0.00     0.015 C 
ATOM     19  C   UNL     1      -1.066  -4.688   1.005  1.00  0.00     0.010 C 
BRANCH  18  20
ATOM     20  C   UNL     1      -0.281  -2.285   1.278  1.00  0.00     0.002 C 
ATOM     21  C   UNL     1       0.425  -2.564   2.600  1.00  0.00     0.004 C 
ENDBRANCH  18  20
ENDBRANCH  11  18
ENDBRANCH   8  11
ENDBRANCH   3   7
ENDBRANCH   1   2
BRANCH   1  22
ATOM     22  N   UNL     1       3.338  -8.561  -4.383  1.00  0.00    -0.348 N 
ATOM     23  C   UNL     1       4.613  -8.368  -3.924  1.00  0.00     0.249 C 
ATOM     24  O   UNL     1       5.035  -8.862  -2.885  1.00  0.00    -0.272 OA
ATOM     25  H   UNL     1       3.088  -8.089  -5.252  1.00  0.00     0.163 HD
BRANCH  23  26
ATOM     26  C   UNL     1       5.467  -7.520  -4.879  1.00  0.00     0.238 C 
ATOM     27  N   UNL     1       4.700  -6.307  -5.279  1.00  0.00    -0.236 NA
ATOM     28  C   UNL     1       6.726  -7.001  -4.206  1.00  0.00     0.206 C 
ATOM     29  C   UNL     1       5.341  -5.342  -4.690  1.00  0.00     0.208 C 
ATOM     30  O   UNL     1       6.442  -5.627  -3.951  1.00  0.00    -0.474 OA
ATOM     31  C   UNL     1       7.949  -7.086  -5.111  1.00  0.00     0.056 C 
BRANCH  29  32
ATOM     32  C   UNL     1       4.954  -3.866  -4.691  1.00  0.00     0.171 C 
BRANCH  32  33
ATOM     33  N   UNL     1       4.669  -3.403  -3.342  1.00  0.00    -0.342 N 
ATOM     34  C   UNL     1       4.131  -2.166  -3.081  1.00  0.00     0.246 CG0
ATOM     35  O   UNL     1       3.874  -1.348  -3.961  1.00  0.00    -0.273 OA
ATOM     36  H   UNL     1       4.896  -3.972  -2.533  1.00  0.00     0.164 HD
ATOM     37  G   UNL     1       3.851  -1.893  -1.594  1.00  0.00     0.000 G0
ENDBRANCH  32  33
BRANCH  32  38
ATOM     38  C   UNL     1       6.048  -3.018  -5.392  1.00  0.00     0.017 C 
ATOM     39  C   UNL     1       7.390  -3.188  -4.669  1.00  0.00     0.010 C 
BRANCH  38  40
ATOM     40  C   UNL     1       6.172  -3.325  -6.902  1.00  0.00     0.002 C 
ATOM     41  C   UNL     1       7.280  -4.316  -7.234  1.00  0.00     0.004 C 
ENDBRANCH  38  40
ENDBRANCH  32  38
ENDBRANCH  29  32
ENDBRANCH  23  26
ENDBRANCH   1  22
TORSDOF 4
ENDMDL
MODEL 46
REMARK VINA RESULT:    -3.753     14.682     18.302
REMARK INTER + INTRA:          -7.298
REMARK INTER:                  -6.442
REMARK INTRA:                  -0.856
REMARK UNBOUND:                -0.912
REMARK SMILES CC[C@H](C)[C@@H]1NC(=O)[C@H]2CSC(=N2)[C@@H]([C@@H](C)CC)NC(=O)c2csc(n2)CNC(=O)[C@H]2N=C1O[C@@H]2C
REMARK SMILES IDX 27 1 25 2 22 3 26 4 23 5 24 6 20 7 19 8 21 9 14 11 12 12
REMARK SMILES IDX 11 13 10 14 13 15 9 16 15 18 16 19 17 20 18 21 28 22 29 23
REMARK SMILES IDX 30 24 31 26 32 27 35 28 33 29 34 30 36 31 5 32 6 33 7 34
REMARK SMILES IDX 8 35 3 38 4 39 2 40 1 41
REMARK H PARENT 19 10 28 25 6 36
REMARK Flexibility Score:   91.900
ROOT
ATOM      1  C   UNL     1     -15.672  -5.068   2.819  1.00  0.00     0.183 C 
ENDROOT
BRANCH   1   2
ATOM      2  C   UNL     1     -16.644  -5.941   2.078  1.00  0.00     0.113 A 
ATOM      3  C   UNL     1     -17.394  -7.570   0.755  1.00  0.00     0.139 A 
ATOM      4  N   UNL     1     -16.297  -7.043   1.439  1.00  0.00    -0.234 NA
ATOM      5  C   UNL     1     -18.573  -6.877   0.945  1.00  0.00     0.101 A 
ATOM      6  S   UNL     1     -18.307  -5.528   1.973  1.00  0.00    -0.125 S 
BRANCH   3   7
ATOM      7  C   UNL     1     -17.227  -8.741  -0.108  1.00  0.00     0.271 C 
ATOM      8  N   UNL     1     -16.169  -8.587  -0.970  1.00  0.00    -0.341 N 
ATOM      9  O   UNL     1     -17.965  -9.718  -0.081  1.00  0.00    -0.267 OA
ATOM     10  H   UNL     1     -15.631  -7.728  -0.858  1.00  0.00     0.164 HD
BRANCH   8  11
ATOM     11  C   UNL     1     -15.869  -9.493  -2.067  1.00  0.00     0.140 C 
BRANCH  11  12
ATOM     12  C   UNL     1     -14.974 -10.610  -1.523  1.00  0.00     0.091 C 
ATOM     13  S   UNL     1     -15.673 -12.098  -0.929  1.00  0.00    -0.106 SA
ATOM     14  C   UNL     1     -14.038 -12.861  -0.880  1.00  0.00     0.113 C 
ATOM     15  N   UNL     1     -13.690 -10.469  -1.413  1.00  0.00    -0.267 NA
ATOM     16  C   UNL     1     -13.095 -11.674  -0.755  1.00  0.00     0.205 CG0
ATOM     17  G   UNL     1     -12.773 -11.389   0.721  1.00  0.00     0.000 G0
ENDBRANCH  11  12
BRANCH  11  18
ATOM     18  C   UNL     1     -17.116  -9.940  -2.873  1.00  0.00     0.015 C 
ATOM     19  C   UNL     1     -17.887  -8.718  -3.389  1.00  0.00     0.010 C 
BRANCH  18  20
ATOM     20  C   UNL     1     -16.824 -10.942  -4.008  1.00  0.00     0.002 C 
ATOM     21  C   UNL     1     -15.851 -10.397  -5.048  1.00  0.00     0.004 C 
ENDBRANCH  18  20
ENDBRANCH  11  18
ENDBRANCH   8  11
ENDBRANCH   3   7
ENDBRANCH   1   2
BRANCH   1  22
ATOM     22  N   UNL     1     -14.343  -5.563   2.536  1.00  0.00    -0.348 N 
ATOM     23  C   UNL     1     -13.210  -5.175   3.198  1.00  0.00     0.249 C 
ATOM     24  O   UNL     1     -13.220  -4.422   4.165  1.00  0.00    -0.272 OA
ATOM     25  H   UNL     1     -14.216  -6.180   1.735  1.00  0.00     0.163 HD
BRANCH  23  26
ATOM     26  C   UNL     1     -11.939  -5.831   2.637  1.00  0.00     0.238 C 
ATOM     27  N   UNL     1     -11.790  -7.193   3.222  1.00  0.00    -0.236 NA
ATOM     28  C   UNL     1     -12.023  -6.042   1.135  1.00  0.00     0.206 C 
ATOM     29  C   UNL     1     -12.010  -7.978   2.210  1.00  0.00     0.208 C 
ATOM     30  O   UNL     1     -12.273  -7.440   0.994  1.00  0.00    -0.474 OA
ATOM     31  C   UNL     1     -10.719  -5.707   0.424  1.00  0.00     0.056 C 
BRANCH  29  32
ATOM     32  C   UNL     1     -12.058  -9.503   2.243  1.00  0.00     0.171 C 
BRANCH  32  33
ATOM     33  N   UNL     1     -12.363 -10.041   0.926  1.00  0.00    -0.342 N 
ATOM     34  C   UNL     1     -12.749 -11.345   0.729  1.00  0.00     0.246 CG0
ATOM     35  O   UNL     1     -12.841 -12.161   1.643  1.00  0.00    -0.273 OA
ATOM     36  H   UNL     1     -12.264  -9.472   0.092  1.00  0.00     0.164 HD
ATOM     37  G   UNL     1     -13.081 -11.698  -0.729  1.00  0.00     0.000 G0
ENDBRANCH  32  33
BRANCH  32  38
ATOM     38  C   UNL     1     -10.741 -10.076   2.829  1.00  0.00     0.017 C 
ATOM     39  C   UNL     1      -9.561  -9.171   2.455  1.00  0.00     0.010 C 
BRANCH  38  40
ATOM     40  C   UNL     1     -10.814 -10.314   4.355  1.00  0.00     0.002 C 
ATOM     41  C   UNL     1     -12.162 -10.846   4.824  1.00  0.00     0.004 C 
ENDBRANCH  38  40
ENDBRANCH  32  38
ENDBRANCH  29  32
ENDBRANCH  23  26
ENDBRANCH   1  22
TORSDOF 4
ENDMDL
MODEL 47
REMARK VINA RESULT:    -3.734     15.025     19.280
REMARK INTER + INTRA:          -7.265
REMARK INTER:                  -6.074
REMARK INTRA:                  -1.192
REMARK UNBOUND:                -0.912
REMARK SMILES CC[C@H](C)[C@@H]1NC(=O)[C@H]2CSC(=N2)[C@@H]([C@@H](C)CC)NC(=O)c2csc(n2)CNC(=O)[C@H]2N=C1O[C@@H]2C
REMARK SMILES IDX 27 1 25 2 22 3 26 4 23 5 24 6 20 7 19 8 21 9 14 11 12 12
REMARK SMILES IDX 11 13 10 14 13 15 9 16 15 18 16 19 17 20 18 21 28 22 29 23
REMARK SMILES IDX 30 24 31 26 32 27 35 28 33 29 34 30 36 31 5 32 6 33 7 34
REMARK SMILES IDX 8 35 3 38 4 39 2 40 1 41
REMARK H PARENT 19 10 28 25 6 36
REMARK Flexibility Score:   91.900
ROOT
ATOM      1  C   UNL     1     -15.034  -3.389   1.946  1.00  0.00     0.183 C 
ENDROOT
BRANCH   1   2
ATOM      2  C   UNL     1     -13.722  -4.041   1.615  1.00  0.00     0.113 A 
ATOM      3  C   UNL     1     -12.231  -5.655   1.242  1.00  0.00     0.139 A 
ATOM      4  N   UNL     1     -13.580  -5.339   1.416  1.00  0.00    -0.234 NA
ATOM      5  C   UNL     1     -11.381  -4.566   1.258  1.00  0.00     0.101 A 
ATOM      6  S   UNL     1     -12.274  -3.123   1.517  1.00  0.00    -0.125 S 
BRANCH   3   7
ATOM      7  C   UNL     1     -11.818  -7.053   1.104  1.00  0.00     0.271 C 
ATOM      8  N   UNL     1     -12.600  -7.889   1.862  1.00  0.00    -0.341 N 
ATOM      9  O   UNL     1     -10.869  -7.418   0.421  1.00  0.00    -0.267 OA
ATOM     10  H   UNL     1     -13.368  -7.442   2.361  1.00  0.00     0.164 HD
BRANCH   8  11
ATOM     11  C   UNL     1     -12.319  -9.300   2.076  1.00  0.00     0.140 C 
BRANCH  11  12
ATOM     12  C   UNL     1     -13.191 -10.104   1.107  1.00  0.00     0.091 C 
ATOM     13  S   UNL     1     -13.131  -9.790  -0.611  1.00  0.00    -0.106 SA
ATOM     14  C   UNL     1     -14.072 -11.296  -0.933  1.00  0.00     0.113 C 
ATOM     15  N   UNL     1     -14.048 -10.983   1.523  1.00  0.00    -0.267 NA
ATOM     16  C   UNL     1     -14.828 -11.527   0.367  1.00  0.00     0.205 CG0
ATOM     17  G   UNL     1     -16.227 -10.894   0.302  1.00  0.00     0.000 G0
ENDBRANCH  11  12
BRANCH  11  18
ATOM     18  C   UNL     1     -10.809  -9.646   2.093  1.00  0.00     0.015 C 
ATOM     19  C   UNL     1     -10.167  -9.176   3.406  1.00  0.00     0.010 C 
BRANCH  18  20
ATOM     20  C   UNL     1     -10.483 -11.126   1.805  1.00  0.00     0.002 C 
ATOM     21  C   UNL     1      -9.563 -11.747   2.849  1.00  0.00     0.004 C 
ENDBRANCH  18  20
ENDBRANCH  11  18
ENDBRANCH   8  11
ENDBRANCH   3   7
ENDBRANCH   1   2
BRANCH   1  22
ATOM     22  N   UNL     1     -15.882  -4.400   2.537  1.00  0.00    -0.348 N 
ATOM     23  C   UNL     1     -16.873  -5.071   1.874  1.00  0.00     0.249 C 
ATOM     24  O   UNL     1     -17.086  -4.941   0.674  1.00  0.00    -0.272 OA
ATOM     25  H   UNL     1     -15.804  -4.573   3.539  1.00  0.00     0.163 HD
BRANCH  23  26
ATOM     26  C   UNL     1     -17.642  -6.045   2.780  1.00  0.00     0.238 C 
ATOM     27  N   UNL     1     -18.312  -7.074   1.937  1.00  0.00    -0.236 NA
ATOM     28  C   UNL     1     -16.714  -6.816   3.703  1.00  0.00     0.206 C 
ATOM     29  C   UNL     1     -17.654  -8.160   2.215  1.00  0.00     0.208 C 
ATOM     30  O   UNL     1     -16.643  -8.115   3.117  1.00  0.00    -0.474 OA
ATOM     31  C   UNL     1     -17.272  -6.949   5.114  1.00  0.00     0.056 C 
BRANCH  29  32
ATOM     32  C   UNL     1     -17.864  -9.532   1.580  1.00  0.00     0.171 C 
BRANCH  32  33
ATOM     33  N   UNL     1     -16.602 -10.245   1.455  1.00  0.00    -0.342 N 
ATOM     34  C   UNL     1     -16.229 -10.897   0.304  1.00  0.00     0.246 CG0
ATOM     35  O   UNL     1     -16.941 -10.950  -0.696  1.00  0.00    -0.273 OA
ATOM     36  H   UNL     1     -15.961 -10.317   2.238  1.00  0.00     0.164 HD
ATOM     37  G   UNL     1     -14.833 -11.537   0.358  1.00  0.00     0.000 G0
ENDBRANCH  32  33
BRANCH  32  38
ATOM     38  C   UNL     1     -18.927 -10.339   2.369  1.00  0.00     0.017 C 
ATOM     39  C   UNL     1     -19.892 -11.032   1.398  1.00  0.00     0.010 C 
BRANCH  38  40
ATOM     40  C   UNL     1     -18.304 -11.344   3.365  1.00  0.00     0.002 C 
ATOM     41  C   UNL     1     -18.169 -10.796   4.780  1.00  0.00     0.004 C 
ENDBRANCH  38  40
ENDBRANCH  32  38
ENDBRANCH  29  32
ENDBRANCH  23  26
ENDBRANCH   1  22
TORSDOF 4
ENDMDL
MODEL 48
REMARK VINA RESULT:    -3.700     16.427     19.470
REMARK INTER + INTRA:          -7.207
REMARK INTER:                  -5.870
REMARK INTRA:                  -1.338
REMARK UNBOUND:                -0.912
REMARK SMILES CC[C@H](C)[C@@H]1NC(=O)[C@H]2CSC(=N2)[C@@H]([C@@H](C)CC)NC(=O)c2csc(n2)CNC(=O)[C@H]2N=C1O[C@@H]2C
REMARK SMILES IDX 27 1 25 2 22 3 26 4 23 5 24 6 20 7 19 8 21 9 14 11 12 12
REMARK SMILES IDX 11 13 10 14 13 15 9 16 15 18 16 19 17 20 18 21 28 22 29 23
REMARK SMILES IDX 30 24 31 26 32 27 35 28 33 29 34 30 36 31 5 32 6 33 7 34
REMARK SMILES IDX 8 35 3 38 4 39 2 40 1 41
REMARK H PARENT 19 10 28 25 6 36
REMARK Flexibility Score:   91.900
ROOT
ATOM      1  C   UNL     1     -16.420  -4.268   1.800  1.00  0.00     0.183 C 
ENDROOT
BRANCH   1   2
ATOM      2  C   UNL     1     -15.423  -5.107   2.546  1.00  0.00     0.113 A 
ATOM      3  C   UNL     1     -14.502  -6.902   3.494  1.00  0.00     0.139 A 
ATOM      4  N   UNL     1     -15.503  -6.421   2.647  1.00  0.00    -0.234 NA
ATOM      5  C   UNL     1     -13.643  -5.932   3.972  1.00  0.00     0.101 A 
ATOM      6  S   UNL     1     -14.104  -4.389   3.377  1.00  0.00    -0.125 S 
BRANCH   3   7
ATOM      7  C   UNL     1     -14.453  -8.325   3.837  1.00  0.00     0.271 C 
ATOM      8  N   UNL     1     -13.202  -8.852   3.631  1.00  0.00    -0.341 N 
ATOM      9  O   UNL     1     -15.422  -8.964   4.227  1.00  0.00    -0.267 OA
ATOM     10  H   UNL     1     -12.490  -8.190   3.326  1.00  0.00     0.164 HD
BRANCH   8  11
ATOM     11  C   UNL     1     -12.891 -10.270   3.703  1.00  0.00     0.140 C 
BRANCH  11  12
ATOM     12  C   UNL     1     -13.114 -10.872   2.313  1.00  0.00     0.091 C 
ATOM     13  S   UNL     1     -11.755 -11.233   1.274  1.00  0.00    -0.106 SA
ATOM     14  C   UNL     1     -12.836 -12.158   0.162  1.00  0.00     0.113 C 
ATOM     15  N   UNL     1     -14.301 -11.064   1.830  1.00  0.00    -0.267 NA
ATOM     16  C   UNL     1     -14.209 -11.558   0.420  1.00  0.00     0.205 CG0
ATOM     17  G   UNL     1     -14.505 -10.427  -0.578  1.00  0.00     0.000 G0
ENDBRANCH  11  12
BRANCH  11  18
ATOM     18  C   UNL     1     -11.532 -10.584   4.380  1.00  0.00     0.015 C 
ATOM     19  C   UNL     1     -10.789  -9.284   4.715  1.00  0.00     0.010 C 
BRANCH  18  20
ATOM     20  C   UNL     1     -11.622 -11.514   5.607  1.00  0.00     0.002 C 
ATOM     21  C   UNL     1     -11.659 -12.991   5.233  1.00  0.00     0.004 C 
ENDBRANCH  18  20
ENDBRANCH  11  18
ENDBRANCH   8  11
ENDBRANCH   3   7
ENDBRANCH   1   2
BRANCH   1  22
ATOM     22  N   UNL     1     -17.160  -5.150   0.925  1.00  0.00    -0.348 N 
ATOM     23  C   UNL     1     -18.333  -5.773   1.256  1.00  0.00     0.249 C 
ATOM     24  O   UNL     1     -18.924  -5.575   2.312  1.00  0.00    -0.272 OA
ATOM     25  H   UNL     1     -16.746  -5.402   0.028  1.00  0.00     0.163 HD
BRANCH  23  26
ATOM     26  C   UNL     1     -18.853  -6.693   0.142  1.00  0.00     0.238 C 
ATOM     27  N   UNL     1     -17.768  -6.924  -0.851  1.00  0.00    -0.236 NA
ATOM     28  C   UNL     1     -19.224  -8.070   0.667  1.00  0.00     0.206 C 
ATOM     29  C   UNL     1     -17.468  -8.177  -0.679  1.00  0.00     0.208 C 
ATOM     30  O   UNL     1     -18.146  -8.903   0.243  1.00  0.00    -0.474 OA
ATOM     31  C   UNL     1     -20.516  -8.599   0.060  1.00  0.00     0.056 C 
BRANCH  29  32
ATOM     32  C   UNL     1     -16.358  -8.947  -1.387  1.00  0.00     0.171 C 
BRANCH  32  33
ATOM     33  N   UNL     1     -15.854 -10.022  -0.548  1.00  0.00    -0.342 N 
ATOM     34  C   UNL     1     -14.546 -10.445  -0.590  1.00  0.00     0.246 CG0
ATOM     35  O   UNL     1     -13.712  -9.967  -1.355  1.00  0.00    -0.273 OA
ATOM     36  H   UNL     1     -16.468 -10.529   0.081  1.00  0.00     0.164 HD
ATOM     37  G   UNL     1     -14.202 -11.553   0.419  1.00  0.00     0.000 G0
ENDBRANCH  32  33
BRANCH  32  38
ATOM     38  C   UNL     1     -16.845  -9.452  -2.771  1.00  0.00     0.017 C 
ATOM     39  C   UNL     1     -18.274 -10.000  -2.658  1.00  0.00     0.010 C 
BRANCH  38  40
ATOM     40  C   UNL     1     -16.733  -8.379  -3.878  1.00  0.00     0.002 C 
ATOM     41  C   UNL     1     -17.947  -8.320  -4.795  1.00  0.00     0.004 C 
ENDBRANCH  38  40
ENDBRANCH  32  38
ENDBRANCH  29  32
ENDBRANCH  23  26
ENDBRANCH   1  22
TORSDOF 4
ENDMDL
MODEL 49
REMARK VINA RESULT:    -3.489     15.468     19.579
REMARK INTER + INTRA:          -6.849
REMARK INTER:                  -5.851
REMARK INTRA:                  -0.999
REMARK UNBOUND:                -0.912
REMARK SMILES CC[C@H](C)[C@@H]1NC(=O)[C@H]2CSC(=N2)[C@@H]([C@@H](C)CC)NC(=O)c2csc(n2)CNC(=O)[C@H]2N=C1O[C@@H]2C
REMARK SMILES IDX 27 1 25 2 22 3 26 4 23 5 24 6 20 7 19 8 21 9 14 11 12 12
REMARK SMILES IDX 11 13 10 14 13 15 9 16 15 18 16 19 17 20 18 21 28 22 29 23
REMARK SMILES IDX 30 24 31 26 32 27 35 28 33 29 34 30 36 31 5 32 6 33 7 34
REMARK SMILES IDX 8 35 3 38 4 39 2 40 1 41
REMARK H PARENT 19 10 28 25 6 36
REMARK Flexibility Score:   91.900
ROOT
ATOM      1  C   UNL     1     -15.563  -3.600   2.538  1.00  0.00     0.183 C 
ENDROOT
BRANCH   1   2
ATOM      2  C   UNL     1     -14.315  -4.412   2.339  1.00  0.00     0.113 A 
ATOM      3  C   UNL     1     -12.829  -6.051   2.607  1.00  0.00     0.139 A 
ATOM      4  N   UNL     1     -14.123  -5.602   2.878  1.00  0.00    -0.234 NA
ATOM      5  C   UNL     1     -12.084  -5.203   1.810  1.00  0.00     0.101 A 
ATOM      6  S   UNL     1     -13.003  -3.809   1.411  1.00  0.00    -0.125 S 
BRANCH   3   7
ATOM      7  C   UNL     1     -12.352  -7.308   3.188  1.00  0.00     0.271 C 
ATOM      8  N   UNL     1     -12.221  -8.288   2.235  1.00  0.00    -0.341 N 
ATOM      9  O   UNL     1     -12.134  -7.466   4.382  1.00  0.00    -0.267 OA
ATOM     10  H   UNL     1     -12.416  -8.000   1.277  1.00  0.00     0.164 HD
BRANCH   8  11
ATOM     11  C   UNL     1     -11.948  -9.685   2.531  1.00  0.00     0.140 C 
BRANCH  11  12
ATOM     12  C   UNL     1     -13.016 -10.531   1.832  1.00  0.00     0.091 C 
ATOM     13  S   UNL     1     -12.685 -11.277   0.286  1.00  0.00    -0.106 SA
ATOM     14  C   UNL     1     -14.189 -12.266   0.427  1.00  0.00     0.113 C 
ATOM     15  N   UNL     1     -14.211 -10.664   2.315  1.00  0.00    -0.267 NA
ATOM     16  C   UNL     1     -15.063 -11.451   1.368  1.00  0.00     0.205 CG0
ATOM     17  G   UNL     1     -16.001 -10.526   0.575  1.00  0.00     0.000 G0
ENDBRANCH  11  12
BRANCH  11  18
ATOM     18  C   UNL     1     -10.474 -10.103   2.295  1.00  0.00     0.015 C 
ATOM     19  C   UNL     1      -9.527  -8.948   2.646  1.00  0.00     0.010 C 
BRANCH  18  20
ATOM     20  C   UNL     1     -10.054 -11.409   3.000  1.00  0.00     0.002 C 
ATOM     21  C   UNL     1      -8.626 -11.366   3.532  1.00  0.00     0.004 C 
ENDBRANCH  18  20
ENDBRANCH  11  18
ENDBRANCH   8  11
ENDBRANCH   3   7
ENDBRANCH   1   2
BRANCH   1  22
ATOM     22  N   UNL     1     -16.679  -4.520   2.552  1.00  0.00    -0.348 N 
ATOM     23  C   UNL     1     -17.153  -5.186   1.454  1.00  0.00     0.249 C 
ATOM     24  O   UNL     1     -16.618  -5.134   0.353  1.00  0.00    -0.272 OA
ATOM     25  H   UNL     1     -17.212  -4.622   3.414  1.00  0.00     0.163 HD
BRANCH  23  26
ATOM     26  C   UNL     1     -18.384  -6.049   1.768  1.00  0.00     0.238 C 
ATOM     27  N   UNL     1     -18.601  -7.017   0.658  1.00  0.00    -0.236 NA
ATOM     28  C   UNL     1     -18.182  -6.897   3.013  1.00  0.00     0.206 C 
ATOM     29  C   UNL     1     -18.313  -8.162   1.200  1.00  0.00     0.208 C 
ATOM     30  O   UNL     1     -17.944  -8.208   2.504  1.00  0.00    -0.474 OA
ATOM     31  C   UNL     1     -19.420  -6.937   3.900  1.00  0.00     0.056 C 
BRANCH  29  32
ATOM     32  C   UNL     1     -18.291  -9.517   0.497  1.00  0.00     0.171 C 
BRANCH  32  33
ATOM     33  N   UNL     1     -17.283 -10.388   1.080  1.00  0.00    -0.342 N 
ATOM     34  C   UNL     1     -16.014 -10.502   0.565  1.00  0.00     0.246 CG0
ATOM     35  O   UNL     1     -15.641  -9.899  -0.438  1.00  0.00    -0.273 OA
ATOM     36  H   UNL     1     -17.498 -10.979   1.877  1.00  0.00     0.164 HD
ATOM     37  G   UNL     1     -15.084 -11.431   1.363  1.00  0.00     0.000 G0
ENDBRANCH  32  33
BRANCH  32  38
ATOM     38  C   UNL     1     -19.705 -10.155   0.503  1.00  0.00     0.017 C 
ATOM     39  C   UNL     1     -20.484  -9.697   1.742  1.00  0.00     0.010 C 
BRANCH  38  40
ATOM     40  C   UNL     1     -20.495  -9.882  -0.798  1.00  0.00     0.002 C 
ATOM     41  C   UNL     1     -19.607  -9.679  -2.019  1.00  0.00     0.004 C 
ENDBRANCH  38  40
ENDBRANCH  32  38
ENDBRANCH  29  32
ENDBRANCH  23  26
ENDBRANCH   1  22
TORSDOF 4
ENDMDL
