MODEL 1
REMARK VINA RESULT:    -7.106      0.000      0.000
REMARK INTER + INTRA:         -27.723
REMARK INTER:                 -21.230
REMARK INTRA:                  -6.494
REMARK UNBOUND:                -6.494
REMARK SMILES C=C1C(=O)N[C@H](C)C(=O)N[C@@H](CC(C)C)C(=O)N[C@@H](C(=O)O)[C@H](C)C(=O)N[C@@H](CCCN=C(N)N)C(=O)N[C@@H](/C=C/C(C)=C/[C@H](C)[C@H](Cc2ccccc2)OC)[C@H](C)C(=O)N[C@@H](C(=O)O)CCC(=O)N1C
REMARK SMILES IDX 39 1 38 2 37 3 36 4 28 6 27 7 25 8 26 9 23 11 24 12 19 13
REMARK SMILES IDX 18 14 16 15 17 16 11 18 10 19 8 20 9 21 12 24 13 25 14 26
REMARK SMILES IDX 15 27 20 28 21 29 22 30 29 32 30 33 31 34 32 35 33 36 34 37
REMARK SMILES IDX 35 38 57 43 58 44 59 45 60 46 61 47 62 49 66 50 67 51 68 52
REMARK SMILES IDX 69 53 70 54 71 55 2 56 1 57 3 58 4 59 5 60 6 62 7 63 63 65
REMARK SMILES IDX 64 66 65 67 40 69 41 70 42 71 44 72 43 73 45 74 46 75 47 76
REMARK SMILES IDX 55 77 56 78 48 79 49 80 50 81 54 82 51 83 53 84 52 85
REMARK H PARENT 38 5 27 10 18 17 10 22 22 31 34 39 34 40 35 41 35 42 61 48
REMARK H PARENT 5 61 65 68
REMARK Flexibility Score:  369.900
ROOT
ATOM      1  C   UNL     1      -6.358  -6.656  -1.530  1.00  0.00     0.117 C 
ENDROOT
BRANCH   1   2
ATOM      2  N   UNL     1      -6.359  -5.313  -0.948  1.00  0.00    -0.347 N 
ATOM      3  O   UNL     1      -8.339  -4.583  -1.851  1.00  0.00    -0.273 OA
ATOM      4  C   UNL     1      -7.399  -4.413  -1.082  1.00  0.00     0.243 C 
ATOM      5  H   UNL     1      -5.585  -5.025  -0.369  1.00  0.00     0.164 HD
BRANCH   4   6
ATOM      6  C   UNL     1      -7.187  -3.095  -0.296  1.00  0.00     0.171 C 
BRANCH   6   7
ATOM      7  N   UNL     1      -7.742  -1.955  -1.043  1.00  0.00    -0.344 N 
ATOM      8  C   UNL     1      -6.941  -1.203  -1.875  1.00  0.00     0.226 C 
ATOM      9  O   UNL     1      -5.744  -1.423  -2.015  1.00  0.00    -0.275 OA
ATOM     10  H   UNL     1      -8.712  -1.701  -0.901  1.00  0.00     0.164 HD
BRANCH   8  11
ATOM     11  C   UNL     1      -7.673  -0.098  -2.617  1.00  0.00     0.109 C 
ATOM     12  C   UNL     1      -9.184  -0.279  -2.472  1.00  0.00     0.021 C 
BRANCH  11  13
ATOM     13  C   UNL     1      -7.139   1.276  -2.165  1.00  0.00     0.204 C 
BRANCH  13  14
ATOM     14  N   UNL     1      -8.130   2.341  -2.349  1.00  0.00    -0.340 N 
ATOM     15  C   UNL     1      -7.797   3.606  -2.784  1.00  0.00     0.243 C 
ATOM     16  O   UNL     1      -6.651   3.913  -3.107  1.00  0.00    -0.273 OA
ATOM     17  H   UNL     1      -9.065   2.200  -1.958  1.00  0.00     0.164 HD
BRANCH  15  18
ATOM     18  C   UNL     1      -8.968   4.616  -2.702  1.00  0.00     0.171 C 
BRANCH  18  19
ATOM     19  N   UNL     1      -9.438   4.823  -4.071  1.00  0.00    -0.343 N 
ATOM     20  C   UNL     1      -9.010   5.891  -4.835  1.00  0.00     0.242 CG0
ATOM     21  O   UNL     1      -8.318   6.787  -4.357  1.00  0.00    -0.273 OA
ATOM     22  H   UNL     1     -10.102   4.170  -4.472  1.00  0.00     0.164 HD
ATOM     23  G   UNL     1      -9.553   5.899  -6.279  1.00  0.00     0.000 G0
ENDBRANCH  18  19
BRANCH  18  24
ATOM     24  C   UNL     1     -10.085   4.078  -1.799  1.00  0.00     0.038 C 
BRANCH  24  25
ATOM     25  C   UNL     1     -10.287   4.864  -0.487  1.00  0.00    -0.015 C 
ATOM     26  C   UNL     1      -9.494   6.171  -0.459  1.00  0.00     0.007 C 
ATOM     27  C   UNL     1      -9.882   3.991   0.704  1.00  0.00     0.007 C 
ENDBRANCH  24  25
ENDBRANCH  18  24
ENDBRANCH  15  18
ENDBRANCH  13  14
BRANCH  13  28
ATOM     28  C   UNL     1      -6.710   1.304  -0.695  1.00  0.00     0.327 C 
ATOM     29  O   UNL     1      -7.453   1.369   0.273  1.00  0.00    -0.250 OA
BRANCH  28  30
ATOM     30  O   UNL     1      -5.373   1.368  -0.535  1.00  0.00    -0.480 OA
ATOM     31  H   UNL     1      -5.251   1.500   0.428  1.00  0.00     0.296 HD
ENDBRANCH  28  30
ENDBRANCH  13  28
ENDBRANCH  11  13
ENDBRANCH   8  11
ENDBRANCH   6   7
BRANCH   6  32
ATOM     32  C   UNL     1      -7.846  -3.219   1.082  1.00  0.00     0.037 C 
BRANCH  32  33
ATOM     33  C   UNL     1      -8.847  -2.086   1.350  1.00  0.00     0.026 C 
BRANCH  33  34
ATOM     34  C   UNL     1     -10.268  -2.603   1.580  1.00  0.00     0.146 C 
BRANCH  34  35
ATOM     35  N   UNL     1     -10.525  -3.698   0.655  1.00  0.00    -0.254 NA
ATOM     36  C   UNL     1     -11.122  -4.744   1.092  1.00  0.00     0.185 C 
ATOM     37  N   UNL     1     -11.369  -5.757   0.248  1.00  0.00    -0.370 N 
ATOM     38  N   UNL     1     -11.569  -5.005   2.334  1.00  0.00    -0.370 N 
ATOM     39  H   UNL     1     -11.071  -5.631  -0.711  1.00  0.00     0.159 HD
ATOM     40  H   UNL     1     -11.978  -6.527   0.465  1.00  0.00     0.159 HD
ATOM     41  H   UNL     1     -11.899  -5.922   2.586  1.00  0.00     0.159 HD
ATOM     42  H   UNL     1     -11.437  -4.337   3.077  1.00  0.00     0.159 HD
ENDBRANCH  34  35
ENDBRANCH  33  34
ENDBRANCH  32  33
ENDBRANCH   6  32
ENDBRANCH   4   6
ENDBRANCH   1   2
BRANCH   1  43
ATOM     43  C   UNL     1      -6.281  -7.696  -0.375  1.00  0.00     0.102 C 
ATOM     44  C   UNL     1      -6.141  -9.147  -0.866  1.00  0.00     0.020 C 
BRANCH  43  45
ATOM     45  C   UNL     1      -7.417  -7.487   0.631  1.00  0.00     0.225 C 
ATOM     46  O   UNL     1      -8.597  -7.410   0.303  1.00  0.00    -0.275 OA
ATOM     47  N   UNL     1      -7.025  -7.294   1.936  1.00  0.00    -0.342 N 
ATOM     48  H   UNL     1      -6.077  -7.510   2.210  1.00  0.00     0.164 HD
BRANCH  47  49
ATOM     49  C   UNL     1      -8.004  -7.118   3.012  1.00  0.00     0.192 C 
BRANCH  49  50
ATOM     50  C   UNL     1      -7.540  -6.003   3.953  1.00  0.00     0.047 C 
BRANCH  50  51
ATOM     51  C   UNL     1      -8.617  -4.930   4.161  1.00  0.00     0.103 C 
BRANCH  51  52
ATOM     52  C   UNL     1      -8.510  -4.269   5.534  1.00  0.00     0.226 C 
ATOM     53  O   UNL     1      -7.554  -3.533   5.784  1.00  0.00    -0.275 OA
BRANCH  52  54
ATOM     54  N   UNL     1      -9.579  -4.491   6.422  1.00  0.00    -0.311 N 
ATOM     55  C   UNL     1     -10.082  -3.414   7.284  1.00  0.00     0.153 C 
BRANCH  54  56
ATOM     56  C   UNL     1     -10.208  -5.745   6.512  1.00  0.00     0.102 C 
ATOM     57  C   UNL     1     -11.372  -6.065   5.925  1.00  0.00     0.043 C 
BRANCH  56  58
ATOM     58  C   UNL     1      -9.565  -6.880   7.273  1.00  0.00     0.268 C 
ATOM     59  O   UNL     1      -8.385  -7.183   7.155  1.00  0.00    -0.268 OA
ATOM     60  N   UNL     1     -10.423  -7.492   8.156  1.00  0.00    -0.339 N 
ATOM     61  H   UNL     1     -11.389  -7.189   8.187  1.00  0.00     0.164 HD
BRANCH  60  62
ATOM     62  C   UNL     1      -9.990  -8.575   9.038  1.00  0.00     0.168 CG0
ATOM     63  C   UNL     1      -9.872  -9.889   8.275  1.00  0.00     0.041 C 
ATOM     64  G   UNL     1     -10.981  -8.713  10.213  1.00  0.00     0.000 G0
ENDBRANCH  60  62
ENDBRANCH  56  58
ENDBRANCH  54  56
ENDBRANCH  52  54
ENDBRANCH  51  52
ENDBRANCH  50  51
ENDBRANCH  49  50
BRANCH  49  65
ATOM     65  C   UNL     1      -8.203  -8.412   3.815  1.00  0.00     0.326 C 
ATOM     66  O   UNL     1      -7.309  -9.132   4.236  1.00  0.00    -0.250 OA
BRANCH  65  67
ATOM     67  O   UNL     1      -9.494  -8.770   3.998  1.00  0.00    -0.480 OA
ATOM     68  H   UNL     1      -9.918  -7.947   4.321  1.00  0.00     0.296 HD
ENDBRANCH  65  67
ENDBRANCH  49  65
ENDBRANCH  47  49
ENDBRANCH  43  45
ENDBRANCH   1  43
BRANCH   1  69
ATOM     69  C   UNL     1      -5.273  -6.657  -2.591  1.00  0.00    -0.001 C 
ATOM     70  C   UNL     1      -5.340  -6.131  -3.827  1.00  0.00     0.001 C 
BRANCH  70  71
ATOM     71  C   UNL     1      -4.278  -6.119  -4.836  1.00  0.00    -0.055 C 
ATOM     72  C   UNL     1      -4.634  -5.898  -6.119  1.00  0.00    -0.018 C 
ATOM     73  C   UNL     1      -2.864  -6.347  -4.370  1.00  0.00     0.044 C 
BRANCH  72  74
ATOM     74  C   UNL     1      -3.760  -5.827  -7.363  1.00  0.00     0.038 C 
ATOM     75  C   UNL     1      -3.483  -4.344  -7.638  1.00  0.00     0.015 C 
BRANCH  74  76
ATOM     76  C   UNL     1      -4.474  -6.585  -8.521  1.00  0.00     0.128 C 
BRANCH  76  77
ATOM     77  O   UNL     1      -4.547  -5.744  -9.685  1.00  0.00    -0.381 OA
ATOM     78  C   UNL     1      -5.821  -5.754 -10.317  1.00  0.00     0.195 C 
ENDBRANCH  76  77
BRANCH  76  79
ATOM     79  C   UNL     1      -3.873  -7.980  -8.825  1.00  0.00     0.068 C 
BRANCH  79  80
ATOM     80  C   UNL     1      -2.820  -8.516  -7.887  1.00  0.00    -0.045 A 
ATOM     81  C   UNL     1      -3.166  -9.338  -6.806  1.00  0.00     0.004 A 
ATOM     82  C   UNL     1      -1.471  -8.173  -8.068  1.00  0.00     0.004 A 
ATOM     83  C   UNL     1      -2.186  -9.818  -5.934  1.00  0.00     0.000 A 
ATOM     84  C   UNL     1      -0.492  -8.653  -7.195  1.00  0.00     0.000 A 
ATOM     85  C   UNL     1      -0.850  -9.477  -6.130  1.00  0.00     0.000 A 
ENDBRANCH  79  80
ENDBRANCH  76  79
ENDBRANCH  74  76
ENDBRANCH  72  74
ENDBRANCH  70  71
ENDBRANCH   1  69
TORSDOF 17
ENDMDL
MODEL 2
REMARK VINA RESULT:    -7.063      3.530     12.332
REMARK INTER + INTRA:         -27.595
REMARK INTER:                 -18.185
REMARK INTRA:                  -9.410
REMARK UNBOUND:                -6.494
REMARK SMILES C=C1C(=O)N[C@H](C)C(=O)N[C@@H](CC(C)C)C(=O)N[C@@H](C(=O)O)[C@H](C)C(=O)N[C@@H](CCCN=C(N)N)C(=O)N[C@@H](/C=C/C(C)=C/[C@H](C)[C@H](Cc2ccccc2)OC)[C@H](C)C(=O)N[C@@H](C(=O)O)CCC(=O)N1C
REMARK SMILES IDX 39 1 38 2 37 3 36 4 28 6 27 7 25 8 26 9 23 11 24 12 19 13
REMARK SMILES IDX 18 14 16 15 17 16 11 18 10 19 8 20 9 21 12 24 13 25 14 26
REMARK SMILES IDX 15 27 20 28 21 29 22 30 29 32 30 33 31 34 32 35 33 36 34 37
REMARK SMILES IDX 35 38 57 43 58 44 59 45 60 46 61 47 62 49 66 50 67 51 68 52
REMARK SMILES IDX 69 53 70 54 71 55 2 56 1 57 3 58 4 59 5 60 6 62 7 63 63 65
REMARK SMILES IDX 64 66 65 67 40 69 41 70 42 71 44 72 43 73 45 74 46 75 47 76
REMARK SMILES IDX 55 77 56 78 48 79 49 80 50 81 54 82 51 83 53 84 52 85
REMARK H PARENT 38 5 27 10 18 17 10 22 22 31 34 39 34 40 35 41 35 42 61 48
REMARK H PARENT 5 61 65 68
REMARK Flexibility Score:  369.900
ROOT
ATOM      1  C   UNL     1      -8.926  -2.091   0.350  1.00  0.00     0.117 C 
ENDROOT
BRANCH   1   2
ATOM      2  N   UNL     1      -7.997  -2.491   1.407  1.00  0.00    -0.347 N 
ATOM      3  O   UNL     1      -8.815  -4.608   1.756  1.00  0.00    -0.273 OA
ATOM      4  C   UNL     1      -7.958  -3.755   1.964  1.00  0.00     0.243 C 
ATOM      5  H   UNL     1      -7.302  -1.835   1.730  1.00  0.00     0.164 HD
BRANCH   4   6
ATOM      6  C   UNL     1      -6.823  -3.944   3.003  1.00  0.00     0.171 C 
BRANCH   6   7
ATOM      7  N   UNL     1      -7.180  -4.995   3.969  1.00  0.00    -0.344 N 
ATOM      8  C   UNL     1      -7.720  -4.669   5.195  1.00  0.00     0.226 C 
ATOM      9  O   UNL     1      -7.906  -3.510   5.547  1.00  0.00    -0.275 OA
ATOM     10  H   UNL     1      -6.979  -5.960   3.741  1.00  0.00     0.164 HD
BRANCH   8  11
ATOM     11  C   UNL     1      -8.085  -5.865   6.056  1.00  0.00     0.109 C 
ATOM     12  C   UNL     1      -7.750  -5.581   7.520  1.00  0.00     0.021 C 
BRANCH  11  13
ATOM     13  C   UNL     1      -9.549  -6.271   5.792  1.00  0.00     0.204 C 
BRANCH  13  14
ATOM     14  N   UNL     1     -10.430  -5.105   5.667  1.00  0.00    -0.340 N 
ATOM     15  C   UNL     1     -11.584  -4.958   6.404  1.00  0.00     0.243 C 
ATOM     16  O   UNL     1     -11.926  -5.767   7.265  1.00  0.00    -0.273 OA
ATOM     17  H   UNL     1     -10.287  -4.478   4.870  1.00  0.00     0.164 HD
BRANCH  15  18
ATOM     18  C   UNL     1     -12.456  -3.759   5.955  1.00  0.00     0.171 C 
BRANCH  18  19
ATOM     19  N   UNL     1     -12.963  -3.131   7.174  1.00  0.00    -0.343 N 
ATOM     20  C   UNL     1     -14.302  -3.175   7.513  1.00  0.00     0.242 CG0
ATOM     21  O   UNL     1     -15.146  -3.627   6.744  1.00  0.00    -0.273 OA
ATOM     22  H   UNL     1     -12.320  -2.643   7.787  1.00  0.00     0.164 HD
ATOM     23  G   UNL     1     -14.636  -2.527   8.873  1.00  0.00     0.000 G0
ENDBRANCH  18  19
BRANCH  18  24
ATOM     24  C   UNL     1     -11.632  -2.774   5.117  1.00  0.00     0.038 C 
BRANCH  24  25
ATOM     25  C   UNL     1     -12.254  -2.413   3.751  1.00  0.00    -0.015 C 
ATOM     26  C   UNL     1     -13.724  -2.008   3.867  1.00  0.00     0.007 C 
ATOM     27  C   UNL     1     -12.120  -3.600   2.794  1.00  0.00     0.007 C 
ENDBRANCH  24  25
ENDBRANCH  18  24
ENDBRANCH  15  18
ENDBRANCH  13  14
BRANCH  13  28
ATOM     28  C   UNL     1      -9.723  -7.110   4.522  1.00  0.00     0.327 C 
ATOM     29  O   UNL     1      -9.494  -8.304   4.408  1.00  0.00    -0.250 OA
BRANCH  28  30
ATOM     30  O   UNL     1     -10.060  -6.374   3.444  1.00  0.00    -0.480 OA
ATOM     31  H   UNL     1      -9.894  -6.969   2.684  1.00  0.00     0.296 HD
ENDBRANCH  28  30
ENDBRANCH  13  28
ENDBRANCH  11  13
ENDBRANCH   8  11
ENDBRANCH   6   7
BRANCH   6  32
ATOM     32  C   UNL     1      -5.523  -4.292   2.270  1.00  0.00     0.037 C 
BRANCH  32  33
ATOM     33  C   UNL     1      -4.891  -5.588   2.797  1.00  0.00     0.026 C 
BRANCH  33  34
ATOM     34  C   UNL     1      -4.954  -6.727   1.778  1.00  0.00     0.146 C 
BRANCH  34  35
ATOM     35  N   UNL     1      -6.312  -6.818   1.260  1.00  0.00    -0.254 NA
ATOM     36  C   UNL     1      -7.122  -7.649   1.803  1.00  0.00     0.185 C 
ATOM     37  N   UNL     1      -8.378  -7.738   1.337  1.00  0.00    -0.370 N 
ATOM     38  N   UNL     1      -6.905  -8.494   2.826  1.00  0.00    -0.370 N 
ATOM     39  H   UNL     1      -8.622  -7.124   0.571  1.00  0.00     0.159 HD
ATOM     40  H   UNL     1      -9.114  -8.230   1.813  1.00  0.00     0.159 HD
ATOM     41  H   UNL     1      -7.582  -9.198   3.073  1.00  0.00     0.159 HD
ATOM     42  H   UNL     1      -5.999  -8.546   3.265  1.00  0.00     0.159 HD
ENDBRANCH  34  35
ENDBRANCH  33  34
ENDBRANCH  32  33
ENDBRANCH   6  32
ENDBRANCH   4   6
ENDBRANCH   1   2
BRANCH   1  43
ATOM     43  C   UNL     1      -8.101  -1.661  -0.897  1.00  0.00     0.102 C 
ATOM     44  C   UNL     1      -8.967  -1.121  -2.048  1.00  0.00     0.020 C 
BRANCH  43  45
ATOM     45  C   UNL     1      -7.126  -2.765  -1.319  1.00  0.00     0.225 C 
ATOM     46  O   UNL     1      -5.955  -2.801  -0.953  1.00  0.00    -0.275 OA
ATOM     47  N   UNL     1      -7.621  -3.679  -2.221  1.00  0.00    -0.342 N 
ATOM     48  H   UNL     1      -8.615  -3.725  -2.392  1.00  0.00     0.164 HD
BRANCH  47  49
ATOM     49  C   UNL     1      -6.813  -4.810  -2.686  1.00  0.00     0.192 C 
BRANCH  49  50
ATOM     50  C   UNL     1      -6.904  -4.915  -4.211  1.00  0.00     0.047 C 
BRANCH  50  51
ATOM     51  C   UNL     1      -5.550  -4.678  -4.893  1.00  0.00     0.103 C 
BRANCH  51  52
ATOM     52  C   UNL     1      -4.994  -5.953  -5.524  1.00  0.00     0.226 C 
ATOM     53  O   UNL     1      -4.630  -6.883  -4.802  1.00  0.00    -0.275 OA
BRANCH  52  54
ATOM     54  N   UNL     1      -5.004  -6.012  -6.930  1.00  0.00    -0.311 N 
ATOM     55  C   UNL     1      -6.266  -6.128  -7.673  1.00  0.00     0.153 C 
BRANCH  54  56
ATOM     56  C   UNL     1      -3.814  -5.957  -7.674  1.00  0.00     0.102 C 
ATOM     57  C   UNL     1      -3.265  -4.833  -8.163  1.00  0.00     0.043 C 
BRANCH  56  58
ATOM     58  C   UNL     1      -3.012  -7.207  -7.947  1.00  0.00     0.268 C 
ATOM     59  O   UNL     1      -3.445  -8.152  -8.593  1.00  0.00    -0.268 OA
ATOM     60  N   UNL     1      -1.730  -7.145  -7.455  1.00  0.00    -0.339 N 
ATOM     61  H   UNL     1      -1.452  -6.330  -6.921  1.00  0.00     0.164 HD
BRANCH  60  62
ATOM     62  C   UNL     1      -0.763  -8.223  -7.662  1.00  0.00     0.168 CG0
ATOM     63  C   UNL     1      -0.796  -9.216  -6.507  1.00  0.00     0.041 C 
ATOM     64  G   UNL     1       0.649  -7.625  -7.828  1.00  0.00     0.000 G0
ENDBRANCH  60  62
ENDBRANCH  56  58
ENDBRANCH  54  56
ENDBRANCH  52  54
ENDBRANCH  51  52
ENDBRANCH  50  51
ENDBRANCH  49  50
BRANCH  49  65
ATOM     65  C   UNL     1      -7.275  -6.134  -2.056  1.00  0.00     0.326 C 
ATOM     66  O   UNL     1      -6.888  -7.248  -2.379  1.00  0.00    -0.250 OA
BRANCH  65  67
ATOM     67  O   UNL     1      -8.230  -6.004  -1.109  1.00  0.00    -0.480 OA
ATOM     68  H   UNL     1      -8.232  -5.042  -0.913  1.00  0.00     0.296 HD
ENDBRANCH  65  67
ENDBRANCH  49  65
ENDBRANCH  47  49
ENDBRANCH  43  45
ENDBRANCH   1  43
BRANCH   1  69
ATOM     69  C   UNL     1      -9.879  -1.090   0.979  1.00  0.00    -0.001 C 
ATOM     70  C   UNL     1      -9.702  -0.400   2.120  1.00  0.00     0.001 C 
BRANCH  70  71
ATOM     71  C   UNL     1     -10.620   0.579   2.706  1.00  0.00    -0.055 C 
ATOM     72  C   UNL     1     -11.412   1.278   1.867  1.00  0.00    -0.018 C 
ATOM     73  C   UNL     1     -10.620   0.731   4.205  1.00  0.00     0.044 C 
BRANCH  72  74
ATOM     74  C   UNL     1     -12.451   2.344   2.186  1.00  0.00     0.038 C 
ATOM     75  C   UNL     1     -13.465   2.346   1.036  1.00  0.00     0.015 C 
BRANCH  74  76
ATOM     76  C   UNL     1     -11.721   3.700   2.415  1.00  0.00     0.128 C 
BRANCH  76  77
ATOM     77  O   UNL     1     -11.875   4.115   3.783  1.00  0.00    -0.381 OA
ATOM     78  C   UNL     1     -12.181   5.495   3.931  1.00  0.00     0.195 C 
ENDBRANCH  76  77
BRANCH  76  79
ATOM     79  C   UNL     1     -10.244   3.707   1.949  1.00  0.00     0.068 C 
BRANCH  79  80
ATOM     80  C   UNL     1      -9.933   4.290   0.591  1.00  0.00    -0.045 A 
ATOM     81  C   UNL     1      -9.500   3.475  -0.462  1.00  0.00     0.004 A 
ATOM     82  C   UNL     1     -10.049   5.671   0.372  1.00  0.00     0.004 A 
ATOM     83  C   UNL     1      -9.201   4.024  -1.711  1.00  0.00     0.000 A 
ATOM     84  C   UNL     1      -9.749   6.219  -0.878  1.00  0.00     0.000 A 
ATOM     85  C   UNL     1      -9.327   5.396  -1.919  1.00  0.00     0.000 A 
ENDBRANCH  79  80
ENDBRANCH  76  79
ENDBRANCH  74  76
ENDBRANCH  72  74
ENDBRANCH  70  71
ENDBRANCH   1  69
TORSDOF 17
ENDMDL
MODEL 3
REMARK VINA RESULT:    -7.014      3.208      5.865
REMARK INTER + INTRA:         -27.450
REMARK INTER:                 -19.380
REMARK INTRA:                  -8.069
REMARK UNBOUND:                -6.494
REMARK SMILES C=C1C(=O)N[C@H](C)C(=O)N[C@@H](CC(C)C)C(=O)N[C@@H](C(=O)O)[C@H](C)C(=O)N[C@@H](CCCN=C(N)N)C(=O)N[C@@H](/C=C/C(C)=C/[C@H](C)[C@H](Cc2ccccc2)OC)[C@H](C)C(=O)N[C@@H](C(=O)O)CCC(=O)N1C
REMARK SMILES IDX 39 1 38 2 37 3 36 4 28 6 27 7 25 8 26 9 23 11 24 12 19 13
REMARK SMILES IDX 18 14 16 15 17 16 11 18 10 19 8 20 9 21 12 24 13 25 14 26
REMARK SMILES IDX 15 27 20 28 21 29 22 30 29 32 30 33 31 34 32 35 33 36 34 37
REMARK SMILES IDX 35 38 57 43 58 44 59 45 60 46 61 47 62 49 66 50 67 51 68 52
REMARK SMILES IDX 69 53 70 54 71 55 2 56 1 57 3 58 4 59 5 60 6 62 7 63 63 65
REMARK SMILES IDX 64 66 65 67 40 69 41 70 42 71 44 72 43 73 45 74 46 75 47 76
REMARK SMILES IDX 55 77 56 78 48 79 49 80 50 81 54 82 51 83 53 84 52 85
REMARK H PARENT 38 5 27 10 18 17 10 22 22 31 34 39 34 40 35 41 35 42 61 48
REMARK H PARENT 5 61 65 68
REMARK Flexibility Score:  369.900
ROOT
ATOM      1  C   UNL     1      -5.185  -7.143  -2.236  1.00  0.00     0.117 C 
ENDROOT
BRANCH   1   2
ATOM      2  N   UNL     1      -5.830  -5.830  -2.231  1.00  0.00    -0.347 N 
ATOM      3  O   UNL     1      -7.979  -6.535  -2.625  1.00  0.00    -0.273 OA
ATOM      4  C   UNL     1      -7.194  -5.638  -2.336  1.00  0.00     0.243 C 
ATOM      5  H   UNL     1      -5.268  -5.003  -2.095  1.00  0.00     0.164 HD
BRANCH   4   6
ATOM      6  C   UNL     1      -7.626  -4.154  -2.216  1.00  0.00     0.171 C 
BRANCH   6   7
ATOM      7  N   UNL     1      -8.002  -3.619  -3.534  1.00  0.00    -0.344 N 
ATOM      8  C   UNL     1      -7.149  -2.785  -4.224  1.00  0.00     0.226 C 
ATOM      9  O   UNL     1      -6.064  -2.433  -3.775  1.00  0.00    -0.275 OA
ATOM     10  H   UNL     1      -8.918  -3.834  -3.908  1.00  0.00     0.164 HD
BRANCH   8  11
ATOM     11  C   UNL     1      -7.656  -2.363  -5.591  1.00  0.00     0.109 C 
ATOM     12  C   UNL     1      -7.610  -0.841  -5.723  1.00  0.00     0.021 C 
BRANCH  11  13
ATOM     13  C   UNL     1      -6.895  -3.132  -6.690  1.00  0.00     0.204 C 
BRANCH  13  14
ATOM     14  N   UNL     1      -5.619  -2.494  -7.027  1.00  0.00    -0.340 N 
ATOM     15  C   UNL     1      -5.270  -2.153  -8.316  1.00  0.00     0.243 C 
ATOM     16  O   UNL     1      -6.033  -2.305  -9.269  1.00  0.00    -0.273 OA
ATOM     17  H   UNL     1      -4.886  -2.478  -6.313  1.00  0.00     0.164 HD
BRANCH  15  18
ATOM     18  C   UNL     1      -3.800  -1.686  -8.456  1.00  0.00     0.171 C 
BRANCH  18  19
ATOM     19  N   UNL     1      -3.797  -0.242  -8.236  1.00  0.00    -0.343 N 
ATOM     20  C   UNL     1      -3.204   0.630  -9.130  1.00  0.00     0.242 CG0
ATOM     21  O   UNL     1      -2.539   0.224 -10.080  1.00  0.00    -0.273 OA
ATOM     22  H   UNL     1      -4.234   0.136  -7.404  1.00  0.00     0.164 HD
ATOM     23  G   UNL     1      -3.370   2.121  -8.770  1.00  0.00     0.000 G0
ENDBRANCH  18  19
BRANCH  18  24
ATOM     24  C   UNL     1      -2.904  -2.411  -7.445  1.00  0.00     0.038 C 
BRANCH  24  25
ATOM     25  C   UNL     1      -1.498  -2.770  -7.972  1.00  0.00    -0.015 C 
ATOM     26  C   UNL     1      -0.493  -1.634  -7.780  1.00  0.00     0.007 C 
ATOM     27  C   UNL     1      -1.583  -3.139  -9.455  1.00  0.00     0.007 C 
ENDBRANCH  24  25
ENDBRANCH  18  24
ENDBRANCH  15  18
ENDBRANCH  13  14
BRANCH  13  28
ATOM     28  C   UNL     1      -6.590  -4.584  -6.309  1.00  0.00     0.327 C 
ATOM     29  O   UNL     1      -5.486  -5.054  -6.079  1.00  0.00    -0.250 OA
BRANCH  28  30
ATOM     30  O   UNL     1      -7.675  -5.383  -6.358  1.00  0.00    -0.480 OA
ATOM     31  H   UNL     1      -7.470  -6.107  -5.731  1.00  0.00     0.296 HD
ENDBRANCH  28  30
ENDBRANCH  13  28
ENDBRANCH  11  13
ENDBRANCH   8  11
ENDBRANCH   6   7
BRANCH   6  32
ATOM     32  C   UNL     1      -8.794  -4.047  -1.229  1.00  0.00     0.037 C 
BRANCH  32  33
ATOM     33  C   UNL     1      -9.180  -2.589  -0.944  1.00  0.00     0.026 C 
BRANCH  33  34
ATOM     34  C   UNL     1      -7.988  -1.745  -0.493  1.00  0.00     0.146 C 
BRANCH  34  35
ATOM     35  N   UNL     1      -8.063  -0.442  -1.138  1.00  0.00    -0.254 NA
ATOM     36  C   UNL     1      -6.993   0.066  -1.623  1.00  0.00     0.185 C 
ATOM     37  N   UNL     1      -7.052   1.265  -2.225  1.00  0.00    -0.370 N 
ATOM     38  N   UNL     1      -5.745  -0.437  -1.629  1.00  0.00    -0.370 N 
ATOM     39  H   UNL     1      -7.962   1.705  -2.270  1.00  0.00     0.159 HD
ATOM     40  H   UNL     1      -6.304   1.647  -2.777  1.00  0.00     0.159 HD
ATOM     41  H   UNL     1      -4.960   0.122  -1.919  1.00  0.00     0.159 HD
ATOM     42  H   UNL     1      -5.550  -1.326  -1.196  1.00  0.00     0.159 HD
ENDBRANCH  34  35
ENDBRANCH  33  34
ENDBRANCH  32  33
ENDBRANCH   6  32
ENDBRANCH   4   6
ENDBRANCH   1   2
BRANCH   1  43
ATOM     43  C   UNL     1      -4.443  -7.336  -0.882  1.00  0.00     0.102 C 
ATOM     44  C   UNL     1      -3.712  -8.684  -0.772  1.00  0.00     0.020 C 
BRANCH  43  45
ATOM     45  C   UNL     1      -5.368  -7.032   0.300  1.00  0.00     0.225 C 
ATOM     46  O   UNL     1      -6.418  -7.635   0.503  1.00  0.00    -0.275 OA
ATOM     47  N   UNL     1      -4.997  -5.963   1.083  1.00  0.00    -0.342 N 
ATOM     48  H   UNL     1      -4.066  -5.579   0.997  1.00  0.00     0.164 HD
BRANCH  47  49
ATOM     49  C   UNL     1      -5.767  -5.578   2.270  1.00  0.00     0.192 C 
BRANCH  49  50
ATOM     50  C   UNL     1      -6.740  -4.453   1.909  1.00  0.00     0.047 C 
BRANCH  50  51
ATOM     51  C   UNL     1      -7.999  -4.468   2.786  1.00  0.00     0.103 C 
BRANCH  51  52
ATOM     52  C   UNL     1      -8.834  -5.729   2.568  1.00  0.00     0.226 C 
ATOM     53  O   UNL     1      -9.165  -6.052   1.426  1.00  0.00    -0.275 OA
BRANCH  52  54
ATOM     54  N   UNL     1      -9.115  -6.500   3.712  1.00  0.00    -0.311 N 
ATOM     55  C   UNL     1      -8.412  -7.765   3.962  1.00  0.00     0.153 C 
BRANCH  54  56
ATOM     56  C   UNL     1     -10.070  -6.088   4.656  1.00  0.00     0.102 C 
ATOM     57  C   UNL     1     -11.341  -5.760   4.371  1.00  0.00     0.043 C 
BRANCH  56  58
ATOM     58  C   UNL     1      -9.730  -6.028   6.127  1.00  0.00     0.268 C 
ATOM     59  O   UNL     1      -8.749  -5.441   6.563  1.00  0.00    -0.268 OA
ATOM     60  N   UNL     1     -10.668  -6.640   6.924  1.00  0.00    -0.339 N 
ATOM     61  H   UNL     1     -11.447  -7.113   6.483  1.00  0.00     0.164 HD
BRANCH  60  62
ATOM     62  C   UNL     1     -10.567  -6.645   8.382  1.00  0.00     0.168 CG0
ATOM     63  C   UNL     1      -9.951  -7.945   8.884  1.00  0.00     0.041 C 
ATOM     64  G   UNL     1     -11.965  -6.429   8.998  1.00  0.00     0.000 G0
ENDBRANCH  60  62
ENDBRANCH  56  58
ENDBRANCH  54  56
ENDBRANCH  52  54
ENDBRANCH  51  52
ENDBRANCH  50  51
ENDBRANCH  49  50
BRANCH  49  65
ATOM     65  C   UNL     1      -4.852  -5.113   3.413  1.00  0.00     0.326 C 
ATOM     66  O   UNL     1      -4.627  -5.735   4.441  1.00  0.00    -0.250 OA
BRANCH  65  67
ATOM     67  O   UNL     1      -4.319  -3.883   3.244  1.00  0.00    -0.480 OA
ATOM     68  H   UNL     1      -3.482  -4.057   2.763  1.00  0.00     0.296 HD
ENDBRANCH  65  67
ENDBRANCH  49  65
ENDBRANCH  47  49
ENDBRANCH  43  45
ENDBRANCH   1  43
BRANCH   1  69
ATOM     69  C   UNL     1      -4.389  -7.219  -3.526  1.00  0.00    -0.001 C 
ATOM     70  C   UNL     1      -3.171  -6.701  -3.767  1.00  0.00     0.001 C 
BRANCH  70  71
ATOM     71  C   UNL     1      -2.403  -6.800  -5.010  1.00  0.00    -0.055 C 
ATOM     72  C   UNL     1      -2.117  -8.034  -5.474  1.00  0.00    -0.018 C 
ATOM     73  C   UNL     1      -1.995  -5.518  -5.686  1.00  0.00     0.044 C 
BRANCH  72  74
ATOM     74  C   UNL     1      -1.348  -8.439  -6.724  1.00  0.00     0.038 C 
ATOM     75  C   UNL     1      -0.567  -7.206  -7.193  1.00  0.00     0.015 C 
BRANCH  74  76
ATOM     76  C   UNL     1      -2.353  -9.011  -7.767  1.00  0.00     0.128 C 
BRANCH  76  77
ATOM     77  O   UNL     1      -2.094 -10.409  -7.982  1.00  0.00    -0.381 OA
ATOM     78  C   UNL     1      -0.848 -10.846  -7.457  1.00  0.00     0.195 C 
ENDBRANCH  76  77
BRANCH  76  79
ATOM     79  C   UNL     1      -3.839  -8.721  -7.435  1.00  0.00     0.068 C 
BRANCH  79  80
ATOM     80  C   UNL     1      -4.567  -7.707  -8.283  1.00  0.00    -0.045 A 
ATOM     81  C   UNL     1      -3.936  -6.529  -8.702  1.00  0.00     0.004 A 
ATOM     82  C   UNL     1      -5.907  -7.917  -8.642  1.00  0.00     0.004 A 
ATOM     83  C   UNL     1      -4.621  -5.589  -9.474  1.00  0.00     0.000 A 
ATOM     84  C   UNL     1      -6.592  -6.977  -9.414  1.00  0.00     0.000 A 
ATOM     85  C   UNL     1      -5.949  -5.814  -9.831  1.00  0.00     0.000 A 
ENDBRANCH  79  80
ENDBRANCH  76  79
ENDBRANCH  74  76
ENDBRANCH  72  74
ENDBRANCH  70  71
ENDBRANCH   1  69
TORSDOF 17
ENDMDL
MODEL 4
REMARK VINA RESULT:    -6.986      6.078     14.433
REMARK INTER + INTRA:         -27.365
REMARK INTER:                 -17.904
REMARK INTRA:                  -9.461
REMARK UNBOUND:                -6.494
REMARK SMILES C=C1C(=O)N[C@H](C)C(=O)N[C@@H](CC(C)C)C(=O)N[C@@H](C(=O)O)[C@H](C)C(=O)N[C@@H](CCCN=C(N)N)C(=O)N[C@@H](/C=C/C(C)=C/[C@H](C)[C@H](Cc2ccccc2)OC)[C@H](C)C(=O)N[C@@H](C(=O)O)CCC(=O)N1C
REMARK SMILES IDX 39 1 38 2 37 3 36 4 28 6 27 7 25 8 26 9 23 11 24 12 19 13
REMARK SMILES IDX 18 14 16 15 17 16 11 18 10 19 8 20 9 21 12 24 13 25 14 26
REMARK SMILES IDX 15 27 20 28 21 29 22 30 29 32 30 33 31 34 32 35 33 36 34 37
REMARK SMILES IDX 35 38 57 43 58 44 59 45 60 46 61 47 62 49 66 50 67 51 68 52
REMARK SMILES IDX 69 53 70 54 71 55 2 56 1 57 3 58 4 59 5 60 6 62 7 63 63 65
REMARK SMILES IDX 64 66 65 67 40 69 41 70 42 71 44 72 43 73 45 74 46 75 47 76
REMARK SMILES IDX 55 77 56 78 48 79 49 80 50 81 54 82 51 83 53 84 52 85
REMARK H PARENT 38 5 27 10 18 17 10 22 22 31 34 39 34 40 35 41 35 42 61 48
REMARK H PARENT 5 61 65 68
REMARK Flexibility Score:  369.900
ROOT
ATOM      1  C   UNL     1      -5.454   1.315  -8.541  1.00  0.00     0.117 C 
ENDROOT
BRANCH   1   2
ATOM      2  N   UNL     1      -5.383  -0.124  -8.284  1.00  0.00    -0.347 N 
ATOM      3  O   UNL     1      -5.981  -0.847 -10.379  1.00  0.00    -0.273 OA
ATOM      4  C   UNL     1      -5.564  -1.093  -9.252  1.00  0.00     0.243 C 
ATOM      5  H   UNL     1      -5.141  -0.450  -7.360  1.00  0.00     0.164 HD
BRANCH   4   6
ATOM      6  C   UNL     1      -5.351  -2.538  -8.735  1.00  0.00     0.171 C 
BRANCH   6   7
ATOM      7  N   UNL     1      -6.124  -2.763  -7.503  1.00  0.00    -0.344 N 
ATOM      8  C   UNL     1      -5.539  -2.595  -6.266  1.00  0.00     0.226 C 
ATOM      9  O   UNL     1      -4.364  -2.279  -6.129  1.00  0.00    -0.275 OA
ATOM     10  H   UNL     1      -7.079  -3.091  -7.575  1.00  0.00     0.164 HD
BRANCH   8  11
ATOM     11  C   UNL     1      -6.481  -2.811  -5.095  1.00  0.00     0.109 C 
ATOM     12  C   UNL     1      -7.818  -2.118  -5.360  1.00  0.00     0.021 C 
BRANCH  11  13
ATOM     13  C   UNL     1      -6.583  -4.317  -4.778  1.00  0.00     0.204 C 
BRANCH  13  14
ATOM     14  N   UNL     1      -6.741  -4.569  -3.342  1.00  0.00    -0.340 N 
ATOM     15  C   UNL     1      -5.693  -4.944  -2.529  1.00  0.00     0.243 C 
ATOM     16  O   UNL     1      -4.538  -5.033  -2.940  1.00  0.00    -0.273 OA
ATOM     17  H   UNL     1      -7.691  -4.660  -2.972  1.00  0.00     0.164 HD
BRANCH  15  18
ATOM     18  C   UNL     1      -6.134  -5.356  -1.103  1.00  0.00     0.171 C 
BRANCH  18  19
ATOM     19  N   UNL     1      -5.955  -6.803  -1.012  1.00  0.00    -0.343 N 
ATOM     20  C   UNL     1      -6.821  -7.685  -1.629  1.00  0.00     0.242 CG0
ATOM     21  O   UNL     1      -7.854  -7.300  -2.170  1.00  0.00    -0.273 OA
ATOM     22  H   UNL     1      -5.178  -7.176  -0.477  1.00  0.00     0.164 HD
ATOM     23  G   UNL     1      -6.426  -9.170  -1.487  1.00  0.00     0.000 G0
ENDBRANCH  18  19
BRANCH  18  24
ATOM     24  C   UNL     1      -5.303  -4.619  -0.045  1.00  0.00     0.038 C 
BRANCH  24  25
ATOM     25  C   UNL     1      -5.776  -4.832   1.409  1.00  0.00    -0.015 C 
ATOM     26  C   UNL     1      -7.141  -4.198   1.679  1.00  0.00     0.007 C 
ATOM     27  C   UNL     1      -4.739  -4.256   2.377  1.00  0.00     0.007 C 
ENDBRANCH  24  25
ENDBRANCH  18  24
ENDBRANCH  15  18
ENDBRANCH  13  14
BRANCH  13  28
ATOM     28  C   UNL     1      -7.751  -5.006  -5.491  1.00  0.00     0.327 C 
ATOM     29  O   UNL     1      -8.854  -5.232  -5.018  1.00  0.00    -0.250 OA
BRANCH  28  30
ATOM     30  O   UNL     1      -7.422  -5.474  -6.712  1.00  0.00    -0.480 OA
ATOM     31  H   UNL     1      -6.453  -5.607  -6.666  1.00  0.00     0.296 HD
ENDBRANCH  28  30
ENDBRANCH  13  28
ENDBRANCH  11  13
ENDBRANCH   8  11
ENDBRANCH   6   7
BRANCH   6  32
ATOM     32  C   UNL     1      -5.763  -3.530  -9.828  1.00  0.00     0.037 C 
BRANCH  32  33
ATOM     33  C   UNL     1      -4.647  -4.533 -10.151  1.00  0.00     0.026 C 
BRANCH  33  34
ATOM     34  C   UNL     1      -4.534  -5.641  -9.102  1.00  0.00     0.146 C 
BRANCH  34  35
ATOM     35  N   UNL     1      -3.750  -5.146  -7.979  1.00  0.00    -0.254 NA
ATOM     36  C   UNL     1      -3.857  -5.736  -6.847  1.00  0.00     0.185 C 
ATOM     37  N   UNL     1      -3.136  -5.292  -5.807  1.00  0.00    -0.370 N 
ATOM     38  N   UNL     1      -4.621  -6.792  -6.515  1.00  0.00    -0.370 N 
ATOM     39  H   UNL     1      -2.526  -4.503  -5.981  1.00  0.00     0.159 HD
ATOM     40  H   UNL     1      -3.032  -5.799  -4.945  1.00  0.00     0.159 HD
ATOM     41  H   UNL     1      -4.724  -7.078  -5.555  1.00  0.00     0.159 HD
ATOM     42  H   UNL     1      -5.229  -7.220  -7.195  1.00  0.00     0.159 HD
ENDBRANCH  34  35
ENDBRANCH  33  34
ENDBRANCH  32  33
ENDBRANCH   6  32
ENDBRANCH   4   6
ENDBRANCH   1   2
BRANCH   1  43
ATOM     43  C   UNL     1      -4.041   1.927  -8.319  1.00  0.00     0.102 C 
ATOM     44  C   UNL     1      -3.474   2.624  -9.568  1.00  0.00     0.020 C 
BRANCH  43  45
ATOM     45  C   UNL     1      -3.090   0.904  -7.693  1.00  0.00     0.225 C 
ATOM     46  O   UNL     1      -3.118   0.601  -6.503  1.00  0.00    -0.275 OA
ATOM     47  N   UNL     1      -2.123   0.401  -8.534  1.00  0.00    -0.342 N 
ATOM     48  H   UNL     1      -2.206   0.540  -9.531  1.00  0.00     0.164 HD
BRANCH  47  49
ATOM     49  C   UNL     1      -1.166  -0.613  -8.081  1.00  0.00     0.192 C 
BRANCH  49  50
ATOM     50  C   UNL     1       0.175  -0.407  -8.789  1.00  0.00     0.047 C 
BRANCH  50  51
ATOM     51  C   UNL     1       0.004   0.150 -10.209  1.00  0.00     0.103 C 
BRANCH  51  52
ATOM     52  C   UNL     1       0.681   1.509 -10.377  1.00  0.00     0.226 C 
ATOM     53  O   UNL     1       0.202   2.502  -9.826  1.00  0.00    -0.275 OA
BRANCH  52  54
ATOM     54  N   UNL     1       1.882   1.525 -11.110  1.00  0.00    -0.311 N 
ATOM     55  C   UNL     1       1.897   1.210 -12.545  1.00  0.00     0.153 C 
BRANCH  54  56
ATOM     56  C   UNL     1       3.107   1.847 -10.502  1.00  0.00     0.102 C 
ATOM     57  C   UNL     1       3.873   0.986  -9.813  1.00  0.00     0.043 C 
BRANCH  56  58
ATOM     58  C   UNL     1       3.692   3.234 -10.626  1.00  0.00     0.268 C 
ATOM     59  O   UNL     1       4.877   3.479 -10.447  1.00  0.00    -0.268 OA
ATOM     60  N   UNL     1       2.772   4.176 -11.022  1.00  0.00    -0.339 N 
ATOM     61  H   UNL     1       1.806   3.894 -11.139  1.00  0.00     0.164 HD
BRANCH  60  62
ATOM     62  C   UNL     1       3.139   5.570 -11.263  1.00  0.00     0.168 CG0
ATOM     63  C   UNL     1       2.128   6.519 -10.631  1.00  0.00     0.041 C 
ATOM     64  G   UNL     1       3.248   5.821 -12.781  1.00  0.00     0.000 G0
ENDBRANCH  60  62
ENDBRANCH  56  58
ENDBRANCH  54  56
ENDBRANCH  52  54
ENDBRANCH  51  52
ENDBRANCH  50  51
ENDBRANCH  49  50
BRANCH  49  65
ATOM     65  C   UNL     1      -1.675  -2.036  -8.359  1.00  0.00     0.326 C 
ATOM     66  O   UNL     1      -1.941  -2.493  -9.462  1.00  0.00    -0.250 OA
BRANCH  65  67
ATOM     67  O   UNL     1      -1.881  -2.787  -7.255  1.00  0.00    -0.480 OA
ATOM     68  H   UNL     1      -1.595  -2.202  -6.521  1.00  0.00     0.296 HD
ENDBRANCH  65  67
ENDBRANCH  49  65
ENDBRANCH  47  49
ENDBRANCH  43  45
ENDBRANCH   1  43
BRANCH   1  69
ATOM     69  C   UNL     1      -6.617   1.836  -7.717  1.00  0.00    -0.001 C 
ATOM     70  C   UNL     1      -7.070   1.354  -6.547  1.00  0.00     0.001 C 
BRANCH  70  71
ATOM     71  C   UNL     1      -8.181   1.880  -5.750  1.00  0.00    -0.055 C 
ATOM     72  C   UNL     1      -7.977   3.027  -5.069  1.00  0.00    -0.018 C 
ATOM     73  C   UNL     1      -9.474   1.107  -5.753  1.00  0.00     0.044 C 
BRANCH  72  74
ATOM     74  C   UNL     1      -8.936   3.799  -4.173  1.00  0.00     0.038 C 
ATOM     75  C   UNL     1      -9.345   5.066  -4.934  1.00  0.00     0.015 C 
BRANCH  74  76
ATOM     76  C   UNL     1      -8.244   4.055  -2.802  1.00  0.00     0.128 C 
BRANCH  76  77
ATOM     77  O   UNL     1      -8.414   5.430  -2.416  1.00  0.00    -0.381 OA
ATOM     78  C   UNL     1      -9.231   5.603  -1.266  1.00  0.00     0.195 C 
ENDBRANCH  76  77
BRANCH  76  79
ATOM     79  C   UNL     1      -8.665   3.063  -1.689  1.00  0.00     0.068 C 
BRANCH  79  80
ATOM     80  C   UNL     1      -8.156   1.645  -1.777  1.00  0.00    -0.045 A 
ATOM     81  C   UNL     1      -9.029   0.579  -2.032  1.00  0.00     0.004 A 
ATOM     82  C   UNL     1      -6.795   1.368  -1.575  1.00  0.00     0.004 A 
ATOM     83  C   UNL     1      -8.553  -0.732  -2.097  1.00  0.00     0.000 A 
ATOM     84  C   UNL     1      -6.320   0.056  -1.640  1.00  0.00     0.000 A 
ATOM     85  C   UNL     1      -7.198  -0.993  -1.903  1.00  0.00     0.000 A 
ENDBRANCH  79  80
ENDBRANCH  76  79
ENDBRANCH  74  76
ENDBRANCH  72  74
ENDBRANCH  70  71
ENDBRANCH   1  69
TORSDOF 17
ENDMDL
MODEL 5
REMARK VINA RESULT:    -6.939      3.872      6.518
REMARK INTER + INTRA:         -27.225
REMARK INTER:                 -20.153
REMARK INTRA:                  -7.071
REMARK UNBOUND:                -6.494
REMARK SMILES C=C1C(=O)N[C@H](C)C(=O)N[C@@H](CC(C)C)C(=O)N[C@@H](C(=O)O)[C@H](C)C(=O)N[C@@H](CCCN=C(N)N)C(=O)N[C@@H](/C=C/C(C)=C/[C@H](C)[C@H](Cc2ccccc2)OC)[C@H](C)C(=O)N[C@@H](C(=O)O)CCC(=O)N1C
REMARK SMILES IDX 39 1 38 2 37 3 36 4 28 6 27 7 25 8 26 9 23 11 24 12 19 13
REMARK SMILES IDX 18 14 16 15 17 16 11 18 10 19 8 20 9 21 12 24 13 25 14 26
REMARK SMILES IDX 15 27 20 28 21 29 22 30 29 32 30 33 31 34 32 35 33 36 34 37
REMARK SMILES IDX 35 38 57 43 58 44 59 45 60 46 61 47 62 49 66 50 67 51 68 52
REMARK SMILES IDX 69 53 70 54 71 55 2 56 1 57 3 58 4 59 5 60 6 62 7 63 63 65
REMARK SMILES IDX 64 66 65 67 40 69 41 70 42 71 44 72 43 73 45 74 46 75 47 76
REMARK SMILES IDX 55 77 56 78 48 79 49 80 50 81 54 82 51 83 53 84 52 85
REMARK H PARENT 38 5 27 10 18 17 10 22 22 31 34 39 34 40 35 41 35 42 61 48
REMARK H PARENT 5 61 65 68
REMARK Flexibility Score:  369.900
ROOT
ATOM      1  C   UNL     1      -5.726  -5.466  -2.559  1.00  0.00     0.117 C 
ENDROOT
BRANCH   1   2
ATOM      2  N   UNL     1      -5.780  -4.262  -3.387  1.00  0.00    -0.347 N 
ATOM      3  O   UNL     1      -8.061  -4.138  -3.612  1.00  0.00    -0.273 OA
ATOM      4  C   UNL     1      -6.952  -3.640  -3.772  1.00  0.00     0.243 C 
ATOM      5  H   UNL     1      -4.920  -3.813  -3.664  1.00  0.00     0.164 HD
BRANCH   4   6
ATOM      6  C   UNL     1      -6.729  -2.332  -4.574  1.00  0.00     0.171 C 
BRANCH   6   7
ATOM      7  N   UNL     1      -5.565  -2.466  -5.464  1.00  0.00    -0.344 N 
ATOM      8  C   UNL     1      -5.058  -1.370  -6.127  1.00  0.00     0.226 C 
ATOM      9  O   UNL     1      -5.552  -0.253  -6.031  1.00  0.00    -0.275 OA
ATOM     10  H   UNL     1      -5.171  -3.385  -5.622  1.00  0.00     0.164 HD
BRANCH   8  11
ATOM     11  C   UNL     1      -3.824  -1.661  -6.964  1.00  0.00     0.109 C 
ATOM     12  C   UNL     1      -3.725  -3.159  -7.253  1.00  0.00     0.021 C 
BRANCH  11  13
ATOM     13  C   UNL     1      -3.816  -0.757  -8.213  1.00  0.00     0.204 C 
BRANCH  13  14
ATOM     14  N   UNL     1      -2.543  -0.049  -8.374  1.00  0.00    -0.340 N 
ATOM     15  C   UNL     1      -2.332   1.228  -7.900  1.00  0.00     0.243 C 
ATOM     16  O   UNL     1      -3.180   1.841  -7.254  1.00  0.00    -0.273 OA
ATOM     17  H   UNL     1      -1.856  -0.437  -9.026  1.00  0.00     0.164 HD
BRANCH  15  18
ATOM     18  C   UNL     1      -0.992   1.848  -8.366  1.00  0.00     0.171 C 
BRANCH  18  19
ATOM     19  N   UNL     1      -0.495   2.657  -7.255  1.00  0.00    -0.343 N 
ATOM     20  C   UNL     1      -0.464   4.037  -7.315  1.00  0.00     0.242 CG0
ATOM     21  O   UNL     1      -0.726   4.642  -8.352  1.00  0.00    -0.273 OA
ATOM     22  H   UNL     1      -0.158   2.197  -6.416  1.00  0.00     0.164 HD
ATOM     23  G   UNL     1       0.017   4.720  -6.018  1.00  0.00     0.000 G0
ENDBRANCH  18  19
BRANCH  18  24
ATOM     24  C   UNL     1       0.007   0.750  -8.751  1.00  0.00     0.038 C 
BRANCH  24  25
ATOM     25  C   UNL     1       1.058   1.173  -9.799  1.00  0.00    -0.015 C 
ATOM     26  C   UNL     1       2.357   1.666  -9.160  1.00  0.00     0.007 C 
ATOM     27  C   UNL     1       0.477   2.270 -10.696  1.00  0.00     0.007 C 
ENDBRANCH  24  25
ENDBRANCH  18  24
ENDBRANCH  15  18
ENDBRANCH  13  14
BRANCH  13  28
ATOM     28  C   UNL     1      -4.076  -1.524  -9.514  1.00  0.00     0.327 C 
ATOM     29  O   UNL     1      -3.233  -1.881 -10.323  1.00  0.00    -0.250 OA
BRANCH  28  30
ATOM     30  O   UNL     1      -5.388  -1.690  -9.776  1.00  0.00    -0.480 OA
ATOM     31  H   UNL     1      -5.840  -1.124  -9.116  1.00  0.00     0.296 HD
ENDBRANCH  28  30
ENDBRANCH  13  28
ENDBRANCH  11  13
ENDBRANCH   8  11
ENDBRANCH   6   7
BRANCH   6  32
ATOM     32  C   UNL     1      -7.996  -2.010  -5.374  1.00  0.00     0.037 C 
BRANCH  32  33
ATOM     33  C   UNL     1      -8.897  -0.999  -4.651  1.00  0.00     0.026 C 
BRANCH  33  34
ATOM     34  C   UNL     1      -8.099  -0.007  -3.803  1.00  0.00     0.146 C 
BRANCH  34  35
ATOM     35  N   UNL     1      -8.518  -0.134  -2.414  1.00  0.00    -0.254 NA
ATOM     36  C   UNL     1      -7.619  -0.150  -1.501  1.00  0.00     0.185 C 
ATOM     37  N   UNL     1      -7.994  -0.261  -0.217  1.00  0.00    -0.370 N 
ATOM     38  N   UNL     1      -6.283  -0.067  -1.629  1.00  0.00    -0.370 N 
ATOM     39  H   UNL     1      -8.988  -0.318  -0.037  1.00  0.00     0.159 HD
ATOM     40  H   UNL     1      -7.373  -0.108   0.559  1.00  0.00     0.159 HD
ATOM     41  H   UNL     1      -5.674  -0.232  -0.844  1.00  0.00     0.159 HD
ATOM     42  H   UNL     1      -5.859   0.005  -2.540  1.00  0.00     0.159 HD
ENDBRANCH  34  35
ENDBRANCH  33  34
ENDBRANCH  32  33
ENDBRANCH   6  32
ENDBRANCH   4   6
ENDBRANCH   1   2
BRANCH   1  43
ATOM     43  C   UNL     1      -5.294  -5.059  -1.120  1.00  0.00     0.102 C 
ATOM     44  C   UNL     1      -5.050  -6.261  -0.192  1.00  0.00     0.020 C 
BRANCH  43  45
ATOM     45  C   UNL     1      -6.243  -4.007  -0.538  1.00  0.00     0.225 C 
ATOM     46  O   UNL     1      -5.978  -2.809  -0.505  1.00  0.00    -0.275 OA
ATOM     47  N   UNL     1      -7.391  -4.500   0.039  1.00  0.00    -0.342 N 
ATOM     48  H   UNL     1      -7.665  -5.458  -0.129  1.00  0.00     0.164 HD
BRANCH  47  49
ATOM     49  C   UNL     1      -8.408  -3.608   0.605  1.00  0.00     0.192 C 
BRANCH  49  50
ATOM     50  C   UNL     1      -8.775  -4.075   2.016  1.00  0.00     0.047 C 
BRANCH  50  51
ATOM     51  C   UNL     1      -9.239  -2.917   2.910  1.00  0.00     0.103 C 
BRANCH  51  52
ATOM     52  C   UNL     1      -9.725  -3.404   4.273  1.00  0.00     0.226 C 
ATOM     53  O   UNL     1      -9.366  -2.817   5.295  1.00  0.00    -0.275 OA
BRANCH  52  54
ATOM     54  N   UNL     1     -10.637  -4.476   4.267  1.00  0.00    -0.311 N 
ATOM     55  C   UNL     1     -11.842  -4.439   3.427  1.00  0.00     0.153 C 
BRANCH  54  56
ATOM     56  C   UNL     1     -10.429  -5.620   5.055  1.00  0.00     0.102 C 
ATOM     57  C   UNL     1      -9.641  -6.653   4.716  1.00  0.00     0.043 C 
BRANCH  56  58
ATOM     58  C   UNL     1     -11.070  -5.750   6.417  1.00  0.00     0.268 C 
ATOM     59  O   UNL     1     -11.368  -6.827   6.916  1.00  0.00    -0.268 OA
ATOM     60  N   UNL     1     -11.220  -4.545   7.060  1.00  0.00    -0.339 N 
ATOM     61  H   UNL     1     -10.957  -3.696   6.573  1.00  0.00     0.164 HD
BRANCH  60  62
ATOM     62  C   UNL     1     -11.762  -4.448   8.415  1.00  0.00     0.168 CG0
ATOM     63  C   UNL     1     -13.176  -3.881   8.399  1.00  0.00     0.041 C 
ATOM     64  G   UNL     1     -10.833  -3.573   9.282  1.00  0.00     0.000 G0
ENDBRANCH  60  62
ENDBRANCH  56  58
ENDBRANCH  54  56
ENDBRANCH  52  54
ENDBRANCH  51  52
ENDBRANCH  50  51
ENDBRANCH  49  50
BRANCH  49  65
ATOM     65  C   UNL     1      -9.675  -3.571  -0.264  1.00  0.00     0.326 C 
ATOM     66  O   UNL     1     -10.725  -4.144  -0.014  1.00  0.00    -0.250 OA
BRANCH  65  67
ATOM     67  O   UNL     1      -9.548  -2.878  -1.417  1.00  0.00    -0.480 OA
ATOM     68  H   UNL     1      -9.481  -1.945  -1.120  1.00  0.00     0.296 HD
ENDBRANCH  65  67
ENDBRANCH  49  65
ENDBRANCH  47  49
ENDBRANCH  43  45
ENDBRANCH   1  43
BRANCH   1  69
ATOM     69  C   UNL     1      -4.879  -6.468  -3.322  1.00  0.00    -0.001 C 
ATOM     70  C   UNL     1      -3.839  -6.209  -4.135  1.00  0.00     0.001 C 
BRANCH  70  71
ATOM     71  C   UNL     1      -3.016  -7.186  -4.850  1.00  0.00    -0.055 C 
ATOM     72  C   UNL     1      -2.547  -6.840  -6.067  1.00  0.00    -0.018 C 
ATOM     73  C   UNL     1      -2.744  -8.504  -4.173  1.00  0.00     0.044 C 
BRANCH  72  74
ATOM     74  C   UNL     1      -1.677  -7.640  -7.026  1.00  0.00     0.038 C 
ATOM     75  C   UNL     1      -0.610  -6.683  -7.573  1.00  0.00     0.015 C 
BRANCH  74  76
ATOM     76  C   UNL     1      -2.589  -8.288  -8.109  1.00  0.00     0.128 C 
BRANCH  76  77
ATOM     77  O   UNL     1      -2.214  -9.662  -8.308  1.00  0.00    -0.381 OA
ATOM     78  C   UNL     1      -1.437 -10.201  -7.248  1.00  0.00     0.195 C 
ENDBRANCH  76  77
BRANCH  76  79
ATOM     79  C   UNL     1      -4.105  -8.113  -7.841  1.00  0.00     0.068 C 
BRANCH  79  80
ATOM     80  C   UNL     1      -4.898  -7.256  -8.798  1.00  0.00    -0.045 A 
ATOM     81  C   UNL     1      -6.148  -7.674  -9.275  1.00  0.00     0.004 A 
ATOM     82  C   UNL     1      -4.378  -6.034  -9.250  1.00  0.00     0.004 A 
ATOM     83  C   UNL     1      -6.869  -6.882 -10.171  1.00  0.00     0.000 A 
ATOM     84  C   UNL     1      -5.100  -5.243 -10.146  1.00  0.00     0.000 A 
ATOM     85  C   UNL     1      -6.345  -5.666 -10.606  1.00  0.00     0.000 A 
ENDBRANCH  79  80
ENDBRANCH  76  79
ENDBRANCH  74  76
ENDBRANCH  72  74
ENDBRANCH  70  71
ENDBRANCH   1  69
TORSDOF 17
ENDMDL
MODEL 6
REMARK VINA RESULT:    -6.923      3.794      9.757
REMARK INTER + INTRA:         -27.178
REMARK INTER:                 -20.887
REMARK INTRA:                  -6.291
REMARK UNBOUND:                -6.494
REMARK SMILES C=C1C(=O)N[C@H](C)C(=O)N[C@@H](CC(C)C)C(=O)N[C@@H](C(=O)O)[C@H](C)C(=O)N[C@@H](CCCN=C(N)N)C(=O)N[C@@H](/C=C/C(C)=C/[C@H](C)[C@H](Cc2ccccc2)OC)[C@H](C)C(=O)N[C@@H](C(=O)O)CCC(=O)N1C
REMARK SMILES IDX 39 1 38 2 37 3 36 4 28 6 27 7 25 8 26 9 23 11 24 12 19 13
REMARK SMILES IDX 18 14 16 15 17 16 11 18 10 19 8 20 9 21 12 24 13 25 14 26
REMARK SMILES IDX 15 27 20 28 21 29 22 30 29 32 30 33 31 34 32 35 33 36 34 37
REMARK SMILES IDX 35 38 57 43 58 44 59 45 60 46 61 47 62 49 66 50 67 51 68 52
REMARK SMILES IDX 69 53 70 54 71 55 2 56 1 57 3 58 4 59 5 60 6 62 7 63 63 65
REMARK SMILES IDX 64 66 65 67 40 69 41 70 42 71 44 72 43 73 45 74 46 75 47 76
REMARK SMILES IDX 55 77 56 78 48 79 49 80 50 81 54 82 51 83 53 84 52 85
REMARK H PARENT 38 5 27 10 18 17 10 22 22 31 34 39 34 40 35 41 35 42 61 48
REMARK H PARENT 5 61 65 68
REMARK Flexibility Score:  369.900
ROOT
ATOM      1  C   UNL     1      -5.969  -4.996  -1.952  1.00  0.00     0.117 C 
ENDROOT
BRANCH   1   2
ATOM      2  N   UNL     1      -5.556  -5.092  -3.353  1.00  0.00    -0.347 N 
ATOM      3  O   UNL     1      -3.445  -5.923  -3.001  1.00  0.00    -0.273 OA
ATOM      4  C   UNL     1      -4.356  -5.636  -3.770  1.00  0.00     0.243 C 
ATOM      5  H   UNL     1      -6.192  -4.795  -4.077  1.00  0.00     0.164 HD
BRANCH   4   6
ATOM      6  C   UNL     1      -4.202  -5.698  -5.311  1.00  0.00     0.171 C 
BRANCH   6   7
ATOM      7  N   UNL     1      -5.127  -4.754  -5.958  1.00  0.00    -0.344 N 
ATOM      8  C   UNL     1      -6.156  -5.212  -6.752  1.00  0.00     0.226 C 
ATOM      9  O   UNL     1      -6.338  -6.403  -6.976  1.00  0.00    -0.275 OA
ATOM     10  H   UNL     1      -4.968  -3.760  -5.852  1.00  0.00     0.164 HD
BRANCH   8  11
ATOM     11  C   UNL     1      -7.055  -4.119  -7.303  1.00  0.00     0.109 C 
ATOM     12  C   UNL     1      -6.965  -2.871  -6.425  1.00  0.00     0.021 C 
BRANCH  11  13
ATOM     13  C   UNL     1      -6.739  -3.886  -8.794  1.00  0.00     0.204 C 
BRANCH  13  14
ATOM     14  N   UNL     1      -5.351  -3.461  -9.004  1.00  0.00    -0.340 N 
ATOM     15  C   UNL     1      -4.975  -2.606 -10.017  1.00  0.00     0.243 C 
ATOM     16  O   UNL     1      -5.789  -2.090 -10.782  1.00  0.00    -0.273 OA
ATOM     17  H   UNL     1      -4.614  -3.967  -8.506  1.00  0.00     0.164 HD
BRANCH  15  18
ATOM     18  C   UNL     1      -3.441  -2.467 -10.172  1.00  0.00     0.171 C 
BRANCH  18  19
ATOM     19  N   UNL     1      -3.214  -1.510 -11.254  1.00  0.00    -0.343 N 
ATOM     20  C   UNL     1      -2.220  -1.696 -12.195  1.00  0.00     0.242 CG0
ATOM     21  O   UNL     1      -1.396  -2.602 -12.090  1.00  0.00    -0.273 OA
ATOM     22  H   UNL     1      -3.796  -0.683 -11.316  1.00  0.00     0.164 HD
ATOM     23  G   UNL     1      -2.184  -0.624 -13.303  1.00  0.00     0.000 G0
ENDBRANCH  18  19
BRANCH  18  24
ATOM     24  C   UNL     1      -2.805  -1.992  -8.860  1.00  0.00     0.038 C 
BRANCH  24  25
ATOM     25  C   UNL     1      -1.363  -2.490  -8.625  1.00  0.00    -0.015 C 
ATOM     26  C   UNL     1      -1.247  -4.011  -8.717  1.00  0.00     0.007 C 
ATOM     27  C   UNL     1      -0.872  -2.017  -7.254  1.00  0.00     0.007 C 
ENDBRANCH  24  25
ENDBRANCH  18  24
ENDBRANCH  15  18
ENDBRANCH  13  14
BRANCH  13  28
ATOM     28  C   UNL     1      -6.970  -5.127  -9.661  1.00  0.00     0.327 C 
ATOM     29  O   UNL     1      -6.108  -5.793 -10.214  1.00  0.00    -0.250 OA
BRANCH  28  30
ATOM     30  O   UNL     1      -8.275  -5.385  -9.878  1.00  0.00    -0.480 OA
ATOM     31  H   UNL     1      -8.712  -5.146  -9.034  1.00  0.00     0.296 HD
ENDBRANCH  28  30
ENDBRANCH  13  28
ENDBRANCH  11  13
ENDBRANCH   8  11
ENDBRANCH   6   7
BRANCH   6  32
ATOM     32  C   UNL     1      -2.749  -5.383  -5.684  1.00  0.00     0.037 C 
BRANCH  32  33
ATOM     33  C   UNL     1      -1.911  -6.655  -5.872  1.00  0.00     0.026 C 
BRANCH  33  34
ATOM     34  C   UNL     1      -2.774  -7.898  -6.094  1.00  0.00     0.146 C 
BRANCH  34  35
ATOM     35  N   UNL     1      -2.328  -8.570  -7.306  1.00  0.00    -0.254 NA
ATOM     36  C   UNL     1      -3.011  -8.420  -8.379  1.00  0.00     0.185 C 
ATOM     37  N   UNL     1      -2.606  -9.031  -9.503  1.00  0.00    -0.370 N 
ATOM     38  N   UNL     1      -4.135  -7.707  -8.572  1.00  0.00    -0.370 N 
ATOM     39  H   UNL     1      -1.758  -9.580  -9.441  1.00  0.00     0.159 HD
ATOM     40  H   UNL     1      -2.982  -8.827 -10.413  1.00  0.00     0.159 HD
ATOM     41  H   UNL     1      -4.658  -7.781  -9.429  1.00  0.00     0.159 HD
ATOM     42  H   UNL     1      -4.563  -7.208  -7.808  1.00  0.00     0.159 HD
ENDBRANCH  34  35
ENDBRANCH  33  34
ENDBRANCH  32  33
ENDBRANCH   6  32
ENDBRANCH   4   6
ENDBRANCH   1   2
BRANCH   1  43
ATOM     43  C   UNL     1      -7.159  -5.971  -1.719  1.00  0.00     0.102 C 
ATOM     44  C   UNL     1      -8.132  -5.498  -0.626  1.00  0.00     0.020 C 
BRANCH  43  45
ATOM     45  C   UNL     1      -6.664  -7.408  -1.530  1.00  0.00     0.225 C 
ATOM     46  O   UNL     1      -7.239  -8.383  -2.005  1.00  0.00    -0.275 OA
ATOM     47  N   UNL     1      -5.571  -7.555  -0.707  1.00  0.00    -0.342 N 
ATOM     48  H   UNL     1      -5.025  -6.745  -0.451  1.00  0.00     0.164 HD
BRANCH  47  49
ATOM     49  C   UNL     1      -4.967  -8.868  -0.463  1.00  0.00     0.192 C 
BRANCH  49  50
ATOM     50  C   UNL     1      -4.894  -9.130   1.044  1.00  0.00     0.047 C 
BRANCH  50  51
ATOM     51  C   UNL     1      -5.346  -7.916   1.867  1.00  0.00     0.103 C 
BRANCH  51  52
ATOM     52  C   UNL     1      -6.270  -8.315   3.017  1.00  0.00     0.226 C 
ATOM     53  O   UNL     1      -6.475  -9.508   3.249  1.00  0.00    -0.275 OA
BRANCH  52  54
ATOM     54  N   UNL     1      -6.781  -7.266   3.803  1.00  0.00    -0.311 N 
ATOM     55  C   UNL     1      -5.900  -6.473   4.670  1.00  0.00     0.153 C 
BRANCH  54  56
ATOM     56  C   UNL     1      -8.146  -6.935   3.784  1.00  0.00     0.102 C 
ATOM     57  C   UNL     1      -8.735  -6.155   2.863  1.00  0.00     0.043 C 
BRANCH  56  58
ATOM     58  C   UNL     1      -9.094  -7.494   4.819  1.00  0.00     0.268 C 
ATOM     59  O   UNL     1      -9.014  -8.636   5.252  1.00  0.00    -0.268 OA
ATOM     60  N   UNL     1     -10.007  -6.572   5.270  1.00  0.00    -0.339 N 
ATOM     61  H   UNL     1     -10.014  -5.649   4.852  1.00  0.00     0.164 HD
BRANCH  60  62
ATOM     62  C   UNL     1     -10.978  -6.884   6.318  1.00  0.00     0.168 CG0
ATOM     63  C   UNL     1     -10.467  -6.448   7.685  1.00  0.00     0.041 C 
ATOM     64  G   UNL     1     -11.282  -8.397   6.306  1.00  0.00     0.000 G0
ENDBRANCH  60  62
ENDBRANCH  56  58
ENDBRANCH  54  56
ENDBRANCH  52  54
ENDBRANCH  51  52
ENDBRANCH  50  51
ENDBRANCH  49  50
BRANCH  49  65
ATOM     65  C   UNL     1      -3.556  -8.963  -1.064  1.00  0.00     0.326 C 
ATOM     66  O   UNL     1      -2.524  -9.133  -0.432  1.00  0.00    -0.250 OA
BRANCH  65  67
ATOM     67  O   UNL     1      -3.500  -8.782  -2.402  1.00  0.00    -0.480 OA
ATOM     68  H   UNL     1      -4.039  -7.974  -2.549  1.00  0.00     0.296 HD
ENDBRANCH  65  67
ENDBRANCH  49  65
ENDBRANCH  47  49
ENDBRANCH  43  45
ENDBRANCH   1  43
BRANCH   1  69
ATOM     69  C   UNL     1      -6.165  -3.518  -1.669  1.00  0.00    -0.001 C 
ATOM     70  C   UNL     1      -7.041  -2.683  -2.254  1.00  0.00     0.001 C 
BRANCH  70  71
ATOM     71  C   UNL     1      -7.236  -1.263  -1.957  1.00  0.00    -0.055 C 
ATOM     72  C   UNL     1      -8.190  -0.934  -1.060  1.00  0.00    -0.018 C 
ATOM     73  C   UNL     1      -6.353  -0.269  -2.666  1.00  0.00     0.044 C 
BRANCH  72  74
ATOM     74  C   UNL     1      -8.608   0.441  -0.559  1.00  0.00     0.038 C 
ATOM     75  C   UNL     1      -9.002   0.285   0.915  1.00  0.00     0.015 C 
BRANCH  74  76
ATOM     76  C   UNL     1      -9.737   0.988  -1.482  1.00  0.00     0.128 C 
BRANCH  76  77
ATOM     77  O   UNL     1     -10.398  -0.101  -2.148  1.00  0.00    -0.381 OA
ATOM     78  C   UNL     1     -11.793  -0.166  -1.888  1.00  0.00     0.195 C 
ENDBRANCH  76  77
BRANCH  76  79
ATOM     79  C   UNL     1     -10.726   1.943  -0.768  1.00  0.00     0.068 C 
BRANCH  79  80
ATOM     80  C   UNL     1     -10.289   3.369  -0.536  1.00  0.00    -0.045 A 
ATOM     81  C   UNL     1     -10.640   4.050   0.638  1.00  0.00     0.004 A 
ATOM     82  C   UNL     1      -9.544   4.048  -1.512  1.00  0.00     0.004 A 
ATOM     83  C   UNL     1     -10.244   5.374   0.838  1.00  0.00     0.000 A 
ATOM     84  C   UNL     1      -9.149   5.373  -1.310  1.00  0.00     0.000 A 
ATOM     85  C   UNL     1      -9.498   6.035  -0.135  1.00  0.00     0.000 A 
ENDBRANCH  79  80
ENDBRANCH  76  79
ENDBRANCH  74  76
ENDBRANCH  72  74
ENDBRANCH  70  71
ENDBRANCH   1  69
TORSDOF 17
ENDMDL
MODEL 7
REMARK VINA RESULT:    -6.923      3.917     10.867
REMARK INTER + INTRA:         -27.177
REMARK INTER:                 -20.236
REMARK INTRA:                  -6.941
REMARK UNBOUND:                -6.494
REMARK SMILES C=C1C(=O)N[C@H](C)C(=O)N[C@@H](CC(C)C)C(=O)N[C@@H](C(=O)O)[C@H](C)C(=O)N[C@@H](CCCN=C(N)N)C(=O)N[C@@H](/C=C/C(C)=C/[C@H](C)[C@H](Cc2ccccc2)OC)[C@H](C)C(=O)N[C@@H](C(=O)O)CCC(=O)N1C
REMARK SMILES IDX 39 1 38 2 37 3 36 4 28 6 27 7 25 8 26 9 23 11 24 12 19 13
REMARK SMILES IDX 18 14 16 15 17 16 11 18 10 19 8 20 9 21 12 24 13 25 14 26
REMARK SMILES IDX 15 27 20 28 21 29 22 30 29 32 30 33 31 34 32 35 33 36 34 37
REMARK SMILES IDX 35 38 57 43 58 44 59 45 60 46 61 47 62 49 66 50 67 51 68 52
REMARK SMILES IDX 69 53 70 54 71 55 2 56 1 57 3 58 4 59 5 60 6 62 7 63 63 65
REMARK SMILES IDX 64 66 65 67 40 69 41 70 42 71 44 72 43 73 45 74 46 75 47 76
REMARK SMILES IDX 55 77 56 78 48 79 49 80 50 81 54 82 51 83 53 84 52 85
REMARK H PARENT 38 5 27 10 18 17 10 22 22 31 34 39 34 40 35 41 35 42 61 48
REMARK H PARENT 5 61 65 68
REMARK Flexibility Score:  369.900
ROOT
ATOM      1  C   UNL     1      -6.114  -3.388  -1.731  1.00  0.00     0.117 C 
ENDROOT
BRANCH   1   2
ATOM      2  N   UNL     1      -6.951  -2.299  -1.224  1.00  0.00    -0.347 N 
ATOM      3  O   UNL     1      -5.878  -0.563  -2.275  1.00  0.00    -0.273 OA
ATOM      4  C   UNL     1      -6.821  -0.979  -1.611  1.00  0.00     0.243 C 
ATOM      5  H   UNL     1      -7.706  -2.511  -0.589  1.00  0.00     0.164 HD
BRANCH   4   6
ATOM      6  C   UNL     1      -7.887  -0.041  -0.991  1.00  0.00     0.171 C 
BRANCH   6   7
ATOM      7  N   UNL     1      -8.368  -0.583   0.290  1.00  0.00    -0.344 N 
ATOM      8  C   UNL     1      -9.680  -0.413   0.677  1.00  0.00     0.226 C 
ATOM      9  O   UNL     1     -10.493   0.207   0.001  1.00  0.00    -0.275 OA
ATOM     10  H   UNL     1      -7.710  -1.043   0.907  1.00  0.00     0.164 HD
BRANCH   8  11
ATOM     11  C   UNL     1     -10.034  -1.077   1.996  1.00  0.00     0.109 C 
ATOM     12  C   UNL     1      -9.122  -2.279   2.241  1.00  0.00     0.021 C 
BRANCH  11  13
ATOM     13  C   UNL     1     -10.038  -0.026   3.125  1.00  0.00     0.204 C 
BRANCH  13  14
ATOM     14  N   UNL     1     -10.428   1.302   2.640  1.00  0.00    -0.340 N 
ATOM     15  C   UNL     1     -10.146   2.462   3.329  1.00  0.00     0.243 C 
ATOM     16  O   UNL     1      -9.493   2.469   4.371  1.00  0.00    -0.273 OA
ATOM     17  H   UNL     1     -11.097   1.354   1.868  1.00  0.00     0.164 HD
BRANCH  15  18
ATOM     18  C   UNL     1     -10.833   3.716   2.735  1.00  0.00     0.171 C 
BRANCH  18  19
ATOM     19  N   UNL     1     -10.622   4.801   3.691  1.00  0.00    -0.343 N 
ATOM     20  C   UNL     1     -11.671   5.386   4.373  1.00  0.00     0.242 CG0
ATOM     21  O   UNL     1     -12.840   5.114   4.111  1.00  0.00    -0.273 OA
ATOM     22  H   UNL     1      -9.681   5.141   3.858  1.00  0.00     0.164 HD
ATOM     23  G   UNL     1     -11.246   6.459   5.397  1.00  0.00     0.000 G0
ENDBRANCH  18  19
BRANCH  18  24
ATOM     24  C   UNL     1     -10.244   4.056   1.360  1.00  0.00     0.038 C 
BRANCH  24  25
ATOM     25  C   UNL     1     -10.526   5.494   0.876  1.00  0.00    -0.015 C 
ATOM     26  C   UNL     1     -11.960   5.673   0.378  1.00  0.00     0.007 C 
ATOM     27  C   UNL     1      -9.543   5.864  -0.238  1.00  0.00     0.007 C 
ENDBRANCH  24  25
ENDBRANCH  18  24
ENDBRANCH  15  18
ENDBRANCH  13  14
BRANCH  13  28
ATOM     28  C   UNL     1     -10.981  -0.383   4.278  1.00  0.00     0.327 C 
ATOM     29  O   UNL     1     -12.179  -0.607   4.189  1.00  0.00    -0.250 OA
BRANCH  28  30
ATOM     30  O   UNL     1     -10.386  -0.321   5.486  1.00  0.00    -0.480 OA
ATOM     31  H   UNL     1      -9.584   0.220   5.332  1.00  0.00     0.296 HD
ENDBRANCH  28  30
ENDBRANCH  13  28
ENDBRANCH  11  13
ENDBRANCH   8  11
ENDBRANCH   6   7
BRANCH   6  32
ATOM     32  C   UNL     1      -7.281   1.354  -0.801  1.00  0.00     0.037 C 
BRANCH  32  33
ATOM     33  C   UNL     1      -8.147   2.453  -1.432  1.00  0.00     0.026 C 
BRANCH  33  34
ATOM     34  C   UNL     1      -7.892   2.610  -2.932  1.00  0.00     0.146 C 
BRANCH  34  35
ATOM     35  N   UNL     1      -6.869   3.628  -3.130  1.00  0.00    -0.254 NA
ATOM     36  C   UNL     1      -7.233   4.803  -3.487  1.00  0.00     0.185 C 
ATOM     37  N   UNL     1      -6.299   5.750  -3.669  1.00  0.00    -0.370 N 
ATOM     38  N   UNL     1      -8.472   5.268  -3.723  1.00  0.00    -0.370 N 
ATOM     39  H   UNL     1      -5.339   5.479  -3.500  1.00  0.00     0.159 HD
ATOM     40  H   UNL     1      -6.512   6.727  -3.776  1.00  0.00     0.159 HD
ATOM     41  H   UNL     1      -8.619   6.176  -4.134  1.00  0.00     0.159 HD
ATOM     42  H   UNL     1      -9.273   4.661  -3.641  1.00  0.00     0.159 HD
ENDBRANCH  34  35
ENDBRANCH  33  34
ENDBRANCH  32  33
ENDBRANCH   6  32
ENDBRANCH   4   6
ENDBRANCH   1   2
BRANCH   1  43
ATOM     43  C   UNL     1      -6.914  -4.160  -2.820  1.00  0.00     0.102 C 
ATOM     44  C   UNL     1      -6.244  -5.475  -3.253  1.00  0.00     0.020 C 
BRANCH  43  45
ATOM     45  C   UNL     1      -7.286  -3.239  -3.986  1.00  0.00     0.225 C 
ATOM     46  O   UNL     1      -8.391  -2.716  -4.101  1.00  0.00    -0.275 OA
ATOM     47  N   UNL     1      -6.327  -3.103  -4.963  1.00  0.00    -0.342 N 
ATOM     48  H   UNL     1      -5.382  -3.411  -4.783  1.00  0.00     0.164 HD
BRANCH  47  49
ATOM     49  C   UNL     1      -6.531  -2.226  -6.120  1.00  0.00     0.192 C 
BRANCH  49  50
ATOM     50  C   UNL     1      -6.143  -2.966  -7.402  1.00  0.00     0.047 C 
BRANCH  50  51
ATOM     51  C   UNL     1      -5.636  -4.387  -7.123  1.00  0.00     0.103 C 
BRANCH  51  52
ATOM     52  C   UNL     1      -4.750  -4.912  -8.251  1.00  0.00     0.226 C 
ATOM     53  O   UNL     1      -3.593  -4.500  -8.360  1.00  0.00    -0.275 OA
BRANCH  52  54
ATOM     54  N   UNL     1      -5.304  -5.915  -9.068  1.00  0.00    -0.311 N 
ATOM     55  C   UNL     1      -5.810  -5.602 -10.411  1.00  0.00     0.153 C 
BRANCH  54  56
ATOM     56  C   UNL     1      -5.388  -7.249  -8.635  1.00  0.00     0.102 C 
ATOM     57  C   UNL     1      -6.495  -8.007  -8.695  1.00  0.00     0.043 C 
BRANCH  56  58
ATOM     58  C   UNL     1      -4.175  -7.965  -8.091  1.00  0.00     0.268 C 
ATOM     59  O   UNL     1      -3.421  -8.630  -8.789  1.00  0.00    -0.268 OA
ATOM     60  N   UNL     1      -3.971  -7.740  -6.750  1.00  0.00    -0.339 N 
ATOM     61  H   UNL     1      -4.649  -7.186  -6.241  1.00  0.00     0.164 HD
BRANCH  60  62
ATOM     62  C   UNL     1      -2.819  -8.287  -6.035  1.00  0.00     0.168 CG0
ATOM     63  C   UNL     1      -1.620  -7.352  -6.132  1.00  0.00     0.041 C 
ATOM     64  G   UNL     1      -2.473  -9.680  -6.602  1.00  0.00     0.000 G0
ENDBRANCH  60  62
ENDBRANCH  56  58
ENDBRANCH  54  56
ENDBRANCH  52  54
ENDBRANCH  51  52
ENDBRANCH  50  51
ENDBRANCH  49  50
BRANCH  49  65
ATOM     65  C   UNL     1      -5.703  -0.936  -6.006  1.00  0.00     0.326 C 
ATOM     66  O   UNL     1      -4.508  -0.879  -5.757  1.00  0.00    -0.250 OA
BRANCH  65  67
ATOM     67  O   UNL     1      -6.413   0.205  -6.148  1.00  0.00    -0.480 OA
ATOM     68  H   UNL     1      -5.923   0.698  -6.840  1.00  0.00     0.296 HD
ENDBRANCH  65  67
ENDBRANCH  49  65
ENDBRANCH  47  49
ENDBRANCH  43  45
ENDBRANCH   1  43
BRANCH   1  69
ATOM     69  C   UNL     1      -5.616  -4.143  -0.513  1.00  0.00    -0.001 C 
ATOM     70  C   UNL     1      -6.151  -4.147   0.721  1.00  0.00     0.001 C 
BRANCH  70  71
ATOM     71  C   UNL     1      -5.674  -4.898   1.884  1.00  0.00    -0.055 C 
ATOM     72  C   UNL     1      -6.204  -6.120   2.103  1.00  0.00    -0.018 C 
ATOM     73  C   UNL     1      -4.620  -4.257   2.749  1.00  0.00     0.044 C 
BRANCH  72  74
ATOM     74  C   UNL     1      -5.902  -7.115   3.215  1.00  0.00     0.038 C 
ATOM     75  C   UNL     1      -5.937  -8.515   2.591  1.00  0.00     0.015 C 
BRANCH  74  76
ATOM     76  C   UNL     1      -6.917  -6.892   4.375  1.00  0.00     0.128 C 
BRANCH  76  77
ATOM     77  O   UNL     1      -7.621  -8.114   4.653  1.00  0.00    -0.381 OA
ATOM     78  C   UNL     1      -8.002  -8.256   6.015  1.00  0.00     0.195 C 
ENDBRANCH  76  77
BRANCH  76  79
ATOM     79  C   UNL     1      -6.293  -6.257   5.644  1.00  0.00     0.068 C 
BRANCH  79  80
ATOM     80  C   UNL     1      -6.389  -4.759   5.805  1.00  0.00    -0.045 A 
ATOM     81  C   UNL     1      -7.502  -4.052   5.332  1.00  0.00     0.004 A 
ATOM     82  C   UNL     1      -5.344  -4.045   6.411  1.00  0.00     0.004 A 
ATOM     83  C   UNL     1      -7.576  -2.664   5.472  1.00  0.00     0.000 A 
ATOM     84  C   UNL     1      -5.419  -2.658   6.550  1.00  0.00     0.000 A 
ATOM     85  C   UNL     1      -6.535  -1.968   6.082  1.00  0.00     0.000 A 
ENDBRANCH  79  80
ENDBRANCH  76  79
ENDBRANCH  74  76
ENDBRANCH  72  74
ENDBRANCH  70  71
ENDBRANCH   1  69
TORSDOF 17
ENDMDL
MODEL 8
REMARK VINA RESULT:    -6.906      3.723      9.006
REMARK INTER + INTRA:         -27.127
REMARK INTER:                 -19.626
REMARK INTRA:                  -7.500
REMARK UNBOUND:                -6.494
REMARK SMILES C=C1C(=O)N[C@H](C)C(=O)N[C@@H](CC(C)C)C(=O)N[C@@H](C(=O)O)[C@H](C)C(=O)N[C@@H](CCCN=C(N)N)C(=O)N[C@@H](/C=C/C(C)=C/[C@H](C)[C@H](Cc2ccccc2)OC)[C@H](C)C(=O)N[C@@H](C(=O)O)CCC(=O)N1C
REMARK SMILES IDX 39 1 38 2 37 3 36 4 28 6 27 7 25 8 26 9 23 11 24 12 19 13
REMARK SMILES IDX 18 14 16 15 17 16 11 18 10 19 8 20 9 21 12 24 13 25 14 26
REMARK SMILES IDX 15 27 20 28 21 29 22 30 29 32 30 33 31 34 32 35 33 36 34 37
REMARK SMILES IDX 35 38 57 43 58 44 59 45 60 46 61 47 62 49 66 50 67 51 68 52
REMARK SMILES IDX 69 53 70 54 71 55 2 56 1 57 3 58 4 59 5 60 6 62 7 63 63 65
REMARK SMILES IDX 64 66 65 67 40 69 41 70 42 71 44 72 43 73 45 74 46 75 47 76
REMARK SMILES IDX 55 77 56 78 48 79 49 80 50 81 54 82 51 83 53 84 52 85
REMARK H PARENT 38 5 27 10 18 17 10 22 22 31 34 39 34 40 35 41 35 42 61 48
REMARK H PARENT 5 61 65 68
REMARK Flexibility Score:  369.900
ROOT
ATOM      1  C   UNL     1      -5.857  -6.039  -2.016  1.00  0.00     0.117 C 
ENDROOT
BRANCH   1   2
ATOM      2  N   UNL     1      -5.402  -6.077  -3.406  1.00  0.00    -0.347 N 
ATOM      3  O   UNL     1      -3.236  -6.724  -3.009  1.00  0.00    -0.273 OA
ATOM      4  C   UNL     1      -4.149  -6.506  -3.798  1.00  0.00     0.243 C 
ATOM      5  H   UNL     1      -6.043  -5.824  -4.143  1.00  0.00     0.164 HD
BRANCH   4   6
ATOM      6  C   UNL     1      -3.951  -6.529  -5.335  1.00  0.00     0.171 C 
BRANCH   6   7
ATOM      7  N   UNL     1      -5.082  -5.872  -6.009  1.00  0.00    -0.344 N 
ATOM      8  C   UNL     1      -5.542  -6.336  -7.222  1.00  0.00     0.226 C 
ATOM      9  O   UNL     1      -5.031  -7.286  -7.803  1.00  0.00    -0.275 OA
ATOM     10  H   UNL     1      -5.486  -5.042  -5.593  1.00  0.00     0.164 HD
BRANCH   8  11
ATOM     11  C   UNL     1      -6.748  -5.586  -7.762  1.00  0.00     0.109 C 
ATOM     12  C   UNL     1      -7.291  -4.630  -6.700  1.00  0.00     0.021 C 
BRANCH  11  13
ATOM     13  C   UNL     1      -6.392  -4.926  -9.109  1.00  0.00     0.204 C 
BRANCH  13  14
ATOM     14  N   UNL     1      -5.099  -4.235  -9.059  1.00  0.00    -0.340 N 
ATOM     15  C   UNL     1      -4.936  -2.923  -9.450  1.00  0.00     0.243 C 
ATOM     16  O   UNL     1      -5.878  -2.220  -9.811  1.00  0.00    -0.273 OA
ATOM     17  H   UNL     1      -4.258  -4.800  -8.916  1.00  0.00     0.164 HD
BRANCH  15  18
ATOM     18  C   UNL     1      -3.455  -2.475  -9.509  1.00  0.00     0.171 C 
BRANCH  18  19
ATOM     19  N   UNL     1      -3.389  -1.377 -10.472  1.00  0.00    -0.343 N 
ATOM     20  C   UNL     1      -2.940  -1.568 -11.765  1.00  0.00     0.242 CG0
ATOM     21  O   UNL     1      -2.452  -2.637 -12.125  1.00  0.00    -0.273 OA
ATOM     22  H   UNL     1      -3.673  -0.447 -10.187  1.00  0.00     0.164 HD
ATOM     23  G   UNL     1      -3.015  -0.312 -12.657  1.00  0.00     0.000 G0
ENDBRANCH  18  19
BRANCH  18  24
ATOM     24  C   UNL     1      -2.967  -2.037  -8.123  1.00  0.00     0.038 C 
BRANCH  24  25
ATOM     25  C   UNL     1      -1.624  -2.660  -7.687  1.00  0.00    -0.015 C 
ATOM     26  C   UNL     1      -0.493  -1.632  -7.629  1.00  0.00     0.007 C 
ATOM     27  C   UNL     1      -1.244  -3.790  -8.647  1.00  0.00     0.007 C 
ENDBRANCH  24  25
ENDBRANCH  18  24
ENDBRANCH  15  18
ENDBRANCH  13  14
BRANCH  13  28
ATOM     28  C   UNL     1      -6.330  -5.921 -10.271  1.00  0.00     0.327 C 
ATOM     29  O   UNL     1      -7.266  -6.566 -10.721  1.00  0.00    -0.250 OA
BRANCH  28  30
ATOM     30  O   UNL     1      -5.077  -6.133 -10.720  1.00  0.00    -0.480 OA
ATOM     31  H   UNL     1      -5.016  -7.106 -10.815  1.00  0.00     0.296 HD
ENDBRANCH  28  30
ENDBRANCH  13  28
ENDBRANCH  11  13
ENDBRANCH   8  11
ENDBRANCH   6   7
BRANCH   6  32
ATOM     32  C   UNL     1      -2.629  -5.836  -5.682  1.00  0.00     0.037 C 
BRANCH  32  33
ATOM     33  C   UNL     1      -1.720  -6.721  -6.546  1.00  0.00     0.026 C 
BRANCH  33  34
ATOM     34  C   UNL     1      -2.118  -8.197  -6.493  1.00  0.00     0.146 C 
BRANCH  34  35
ATOM     35  N   UNL     1      -1.320  -8.934  -7.462  1.00  0.00    -0.254 NA
ATOM     36  C   UNL     1      -1.804  -9.136  -8.631  1.00  0.00     0.185 C 
ATOM     37  N   UNL     1      -1.075  -9.810  -9.533  1.00  0.00    -0.370 N 
ATOM     38  N   UNL     1      -2.995  -8.758  -9.129  1.00  0.00    -0.370 N 
ATOM     39  H   UNL     1      -0.158 -10.120  -9.237  1.00  0.00     0.159 HD
ATOM     40  H   UNL     1      -1.305  -9.858 -10.511  1.00  0.00     0.159 HD
ATOM     41  H   UNL     1      -3.318  -9.097 -10.019  1.00  0.00     0.159 HD
ATOM     42  H   UNL     1      -3.654  -8.256  -8.555  1.00  0.00     0.159 HD
ENDBRANCH  34  35
ENDBRANCH  33  34
ENDBRANCH  32  33
ENDBRANCH   6  32
ENDBRANCH   4   6
ENDBRANCH   1   2
BRANCH   1  43
ATOM     43  C   UNL     1      -6.686  -7.325  -1.731  1.00  0.00     0.102 C 
ATOM     44  C   UNL     1      -8.100  -7.037  -1.198  1.00  0.00     0.020 C 
BRANCH  43  45
ATOM     45  C   UNL     1      -5.890  -8.315  -0.876  1.00  0.00     0.225 C 
ATOM     46  O   UNL     1      -5.188  -9.202  -1.355  1.00  0.00    -0.275 OA
ATOM     47  N   UNL     1      -6.081  -8.213   0.482  1.00  0.00    -0.342 N 
ATOM     48  H   UNL     1      -6.534  -7.394   0.863  1.00  0.00     0.164 HD
BRANCH  47  49
ATOM     49  C   UNL     1      -5.358  -9.071   1.425  1.00  0.00     0.192 C 
BRANCH  49  50
ATOM     50  C   UNL     1      -6.118  -9.133   2.752  1.00  0.00     0.047 C 
BRANCH  50  51
ATOM     51  C   UNL     1      -7.081  -7.951   2.927  1.00  0.00     0.103 C 
BRANCH  51  52
ATOM     52  C   UNL     1      -7.197  -7.516   4.387  1.00  0.00     0.226 C 
ATOM     53  O   UNL     1      -6.346  -7.880   5.201  1.00  0.00    -0.275 OA
BRANCH  52  54
ATOM     54  N   UNL     1      -8.256  -6.644   4.699  1.00  0.00    -0.311 N 
ATOM     55  C   UNL     1      -8.040  -5.194   4.787  1.00  0.00     0.153 C 
BRANCH  54  56
ATOM     56  C   UNL     1      -9.555  -7.124   4.933  1.00  0.00     0.102 C 
ATOM     57  C   UNL     1     -10.684  -6.447   4.665  1.00  0.00     0.043 C 
BRANCH  56  58
ATOM     58  C   UNL     1      -9.782  -8.512   5.484  1.00  0.00     0.268 C 
ATOM     59  O   UNL     1      -9.869  -9.507   4.777  1.00  0.00    -0.268 OA
ATOM     60  N   UNL     1      -9.813  -8.549   6.858  1.00  0.00    -0.339 N 
ATOM     61  H   UNL     1      -9.744  -7.679   7.370  1.00  0.00     0.164 HD
BRANCH  60  62
ATOM     62  C   UNL     1      -9.958  -9.801   7.600  1.00  0.00     0.168 CG0
ATOM     63  C   UNL     1      -9.119  -9.784   8.871  1.00  0.00     0.041 C 
ATOM     64  G   UNL     1      -9.559 -10.987   6.697  1.00  0.00     0.000 G0
ENDBRANCH  60  62
ENDBRANCH  56  58
ENDBRANCH  54  56
ENDBRANCH  52  54
ENDBRANCH  51  52
ENDBRANCH  50  51
ENDBRANCH  49  50
BRANCH  49  65
ATOM     65  C   UNL     1      -3.932  -8.557   1.680  1.00  0.00     0.326 C 
ATOM     66  O   UNL     1      -3.618  -7.708   2.502  1.00  0.00    -0.250 OA
BRANCH  65  67
ATOM     67  O   UNL     1      -2.991  -9.079   0.863  1.00  0.00    -0.480 OA
ATOM     68  H   UNL     1      -3.163  -8.640   0.002  1.00  0.00     0.296 HD
ENDBRANCH  65  67
ENDBRANCH  49  65
ENDBRANCH  47  49
ENDBRANCH  43  45
ENDBRANCH   1  43
BRANCH   1  69
ATOM     69  C   UNL     1      -6.515  -4.685  -1.821  1.00  0.00    -0.001 C 
ATOM     70  C   UNL     1      -6.871  -3.805  -2.773  1.00  0.00     0.001 C 
BRANCH  70  71
ATOM     71  C   UNL     1      -7.524  -2.510  -2.574  1.00  0.00    -0.055 C 
ATOM     72  C   UNL     1      -8.815  -2.394  -2.952  1.00  0.00    -0.018 C 
ATOM     73  C   UNL     1      -6.713  -1.402  -1.955  1.00  0.00     0.044 C 
BRANCH  72  74
ATOM     74  C   UNL     1      -9.739  -1.187  -2.865  1.00  0.00     0.038 C 
ATOM     75  C   UNL     1      -9.342  -0.231  -3.996  1.00  0.00     0.015 C 
BRANCH  74  76
ATOM     76  C   UNL     1      -9.639  -0.583  -1.433  1.00  0.00     0.128 C 
BRANCH  76  77
ATOM     77  O   UNL     1      -9.730   0.851  -1.498  1.00  0.00    -0.381 OA
ATOM     78  C   UNL     1      -9.951   1.467  -0.237  1.00  0.00     0.195 C 
ENDBRANCH  76  77
BRANCH  76  79
ATOM     79  C   UNL     1     -10.633  -1.201  -0.418  1.00  0.00     0.068 C 
BRANCH  79  80
ATOM     80  C   UNL     1     -10.269  -2.524   0.211  1.00  0.00    -0.045 A 
ATOM     81  C   UNL     1      -8.992  -2.744   0.743  1.00  0.00     0.004 A 
ATOM     82  C   UNL     1     -11.203  -3.571   0.246  1.00  0.00     0.004 A 
ATOM     83  C   UNL     1      -8.659  -3.975   1.311  1.00  0.00     0.000 A 
ATOM     84  C   UNL     1     -10.868  -4.803   0.814  1.00  0.00     0.000 A 
ATOM     85  C   UNL     1      -9.598  -5.004   1.347  1.00  0.00     0.000 A 
ENDBRANCH  79  80
ENDBRANCH  76  79
ENDBRANCH  74  76
ENDBRANCH  72  74
ENDBRANCH  70  71
ENDBRANCH   1  69
TORSDOF 17
ENDMDL
MODEL 9
REMARK VINA RESULT:    -6.865      4.132     13.401
REMARK INTER + INTRA:         -27.003
REMARK INTER:                 -19.329
REMARK INTRA:                  -7.674
REMARK UNBOUND:                -6.494
REMARK SMILES C=C1C(=O)N[C@H](C)C(=O)N[C@@H](CC(C)C)C(=O)N[C@@H](C(=O)O)[C@H](C)C(=O)N[C@@H](CCCN=C(N)N)C(=O)N[C@@H](/C=C/C(C)=C/[C@H](C)[C@H](Cc2ccccc2)OC)[C@H](C)C(=O)N[C@@H](C(=O)O)CCC(=O)N1C
REMARK SMILES IDX 39 1 38 2 37 3 36 4 28 6 27 7 25 8 26 9 23 11 24 12 19 13
REMARK SMILES IDX 18 14 16 15 17 16 11 18 10 19 8 20 9 21 12 24 13 25 14 26
REMARK SMILES IDX 15 27 20 28 21 29 22 30 29 32 30 33 31 34 32 35 33 36 34 37
REMARK SMILES IDX 35 38 57 43 58 44 59 45 60 46 61 47 62 49 66 50 67 51 68 52
REMARK SMILES IDX 69 53 70 54 71 55 2 56 1 57 3 58 4 59 5 60 6 62 7 63 63 65
REMARK SMILES IDX 64 66 65 67 40 69 41 70 42 71 44 72 43 73 45 74 46 75 47 76
REMARK SMILES IDX 55 77 56 78 48 79 49 80 50 81 54 82 51 83 53 84 52 85
REMARK H PARENT 38 5 27 10 18 17 10 22 22 31 34 39 34 40 35 41 35 42 61 48
REMARK H PARENT 5 61 65 68
REMARK Flexibility Score:  369.900
ROOT
ATOM      1  C   UNL     1      -6.244  -3.626  -5.570  1.00  0.00     0.117 C 
ENDROOT
BRANCH   1   2
ATOM      2  N   UNL     1      -5.552  -4.230  -4.431  1.00  0.00    -0.347 N 
ATOM      3  O   UNL     1      -5.443  -6.378  -5.234  1.00  0.00    -0.273 OA
ATOM      4  C   UNL     1      -5.124  -5.543  -4.394  1.00  0.00     0.243 C 
ATOM      5  H   UNL     1      -5.319  -3.657  -3.634  1.00  0.00     0.164 HD
BRANCH   4   6
ATOM      6  C   UNL     1      -4.340  -5.907  -3.107  1.00  0.00     0.171 C 
BRANCH   6   7
ATOM      7  N   UNL     1      -5.000  -7.015  -2.399  1.00  0.00    -0.344 N 
ATOM      8  C   UNL     1      -5.935  -6.765  -1.418  1.00  0.00     0.226 C 
ATOM      9  O   UNL     1      -6.244  -5.630  -1.074  1.00  0.00    -0.275 OA
ATOM     10  H   UNL     1      -4.722  -7.966  -2.608  1.00  0.00     0.164 HD
BRANCH   8  11
ATOM     11  C   UNL     1      -6.565  -8.011  -0.821  1.00  0.00     0.109 C 
ATOM     12  C   UNL     1      -5.536  -8.771   0.016  1.00  0.00     0.021 C 
BRANCH  11  13
ATOM     13  C   UNL     1      -7.859  -7.634  -0.073  1.00  0.00     0.204 C 
BRANCH  13  14
ATOM     14  N   UNL     1      -7.661  -6.501   0.836  1.00  0.00    -0.340 N 
ATOM     15  C   UNL     1      -7.681  -6.629   2.208  1.00  0.00     0.243 C 
ATOM     16  O   UNL     1      -7.806  -7.716   2.768  1.00  0.00    -0.273 OA
ATOM     17  H   UNL     1      -7.704  -5.557   0.442  1.00  0.00     0.164 HD
BRANCH  15  18
ATOM     18  C   UNL     1      -7.659  -5.273   2.956  1.00  0.00     0.171 C 
BRANCH  18  19
ATOM     19  N   UNL     1      -6.667  -5.400   4.022  1.00  0.00    -0.343 N 
ATOM     20  C   UNL     1      -7.033  -5.493   5.351  1.00  0.00     0.242 CG0
ATOM     21  O   UNL     1      -8.199  -5.341   5.709  1.00  0.00    -0.273 OA
ATOM     22  H   UNL     1      -5.681  -5.413   3.785  1.00  0.00     0.164 HD
ATOM     23  G   UNL     1      -5.854  -5.700   6.323  1.00  0.00     0.000 G0
ENDBRANCH  18  19
BRANCH  18  24
ATOM     24  C   UNL     1      -7.309  -4.130   1.995  1.00  0.00     0.038 C 
BRANCH  24  25
ATOM     25  C   UNL     1      -8.524  -3.340   1.464  1.00  0.00    -0.015 C 
ATOM     26  C   UNL     1      -8.360  -2.931  -0.000  1.00  0.00     0.007 C 
ATOM     27  C   UNL     1      -8.745  -2.095   2.326  1.00  0.00     0.007 C 
ENDBRANCH  24  25
ENDBRANCH  18  24
ENDBRANCH  15  18
ENDBRANCH  13  14
BRANCH  13  28
ATOM     28  C   UNL     1      -9.014  -7.268  -1.010  1.00  0.00     0.327 C 
ATOM     29  O   UNL     1      -9.109  -7.569  -2.190  1.00  0.00    -0.250 OA
BRANCH  28  30
ATOM     30  O   UNL     1      -9.918  -6.447  -0.440  1.00  0.00    -0.480 OA
ATOM     31  H   UNL     1      -9.721  -6.500   0.519  1.00  0.00     0.296 HD
ENDBRANCH  28  30
ENDBRANCH  13  28
ENDBRANCH  11  13
ENDBRANCH   8  11
ENDBRANCH   6   7
BRANCH   6  32
ATOM     32  C   UNL     1      -2.901  -6.277  -3.482  1.00  0.00     0.037 C 
BRANCH  32  33
ATOM     33  C   UNL     1      -2.744  -7.777  -3.769  1.00  0.00     0.026 C 
BRANCH  33  34
ATOM     34  C   UNL     1      -2.353  -8.058  -5.220  1.00  0.00     0.146 C 
BRANCH  34  35
ATOM     35  N   UNL     1      -2.059  -6.794  -5.880  1.00  0.00    -0.254 NA
ATOM     36  C   UNL     1      -1.146  -6.767  -6.779  1.00  0.00     0.185 C 
ATOM     37  N   UNL     1      -0.870  -5.609  -7.397  1.00  0.00    -0.370 N 
ATOM     38  N   UNL     1      -0.375  -7.773  -7.229  1.00  0.00    -0.370 N 
ATOM     39  H   UNL     1      -1.418  -4.804  -7.120  1.00  0.00     0.159 HD
ATOM     40  H   UNL     1      -0.300  -5.541  -8.223  1.00  0.00     0.159 HD
ATOM     41  H   UNL     1       0.405  -7.597  -7.841  1.00  0.00     0.159 HD
ATOM     42  H   UNL     1      -0.462  -8.699  -6.842  1.00  0.00     0.159 HD
ENDBRANCH  34  35
ENDBRANCH  33  34
ENDBRANCH  32  33
ENDBRANCH   6  32
ENDBRANCH   4   6
ENDBRANCH   1   2
BRANCH   1  43
ATOM     43  C   UNL     1      -5.179  -3.076  -6.562  1.00  0.00     0.102 C 
ATOM     44  C   UNL     1      -5.582  -1.743  -7.216  1.00  0.00     0.020 C 
BRANCH  43  45
ATOM     45  C   UNL     1      -4.750  -4.153  -7.563  1.00  0.00     0.225 C 
ATOM     46  O   UNL     1      -3.576  -4.394  -7.827  1.00  0.00    -0.275 OA
ATOM     47  N   UNL     1      -5.775  -4.784  -8.229  1.00  0.00    -0.342 N 
ATOM     48  H   UNL     1      -6.724  -4.687  -7.896  1.00  0.00     0.164 HD
BRANCH  47  49
ATOM     49  C   UNL     1      -5.516  -5.862  -9.189  1.00  0.00     0.192 C 
BRANCH  49  50
ATOM     50  C   UNL     1      -5.837  -5.376 -10.605  1.00  0.00     0.047 C 
BRANCH  50  51
ATOM     51  C   UNL     1      -5.805  -3.846 -10.717  1.00  0.00     0.103 C 
BRANCH  51  52
ATOM     52  C   UNL     1      -4.427  -3.329 -11.125  1.00  0.00     0.226 C 
ATOM     53  O   UNL     1      -3.661  -4.062 -11.753  1.00  0.00    -0.275 OA
BRANCH  52  54
ATOM     54  N   UNL     1      -4.143  -1.986 -10.811  1.00  0.00    -0.311 N 
ATOM     55  C   UNL     1      -3.025  -1.637  -9.925  1.00  0.00     0.153 C 
BRANCH  54  56
ATOM     56  C   UNL     1      -4.912  -0.934 -11.336  1.00  0.00     0.102 C 
ATOM     57  C   UNL     1      -5.369   0.111 -10.628  1.00  0.00     0.043 C 
BRANCH  56  58
ATOM     58  C   UNL     1      -5.252  -0.882 -12.807  1.00  0.00     0.268 C 
ATOM     59  O   UNL     1      -6.390  -0.713 -13.225  1.00  0.00    -0.268 OA
ATOM     60  N   UNL     1      -4.149  -0.976 -13.621  1.00  0.00    -0.339 N 
ATOM     61  H   UNL     1      -3.241  -1.125 -13.196  1.00  0.00     0.164 HD
BRANCH  60  62
ATOM     62  C   UNL     1      -4.245  -0.885 -15.077  1.00  0.00     0.168 CG0
ATOM     63  C   UNL     1      -3.649   0.423 -15.584  1.00  0.00     0.041 C 
ATOM     64  G   UNL     1      -5.720  -1.015 -15.507  1.00  0.00     0.000 G0
ENDBRANCH  60  62
ENDBRANCH  56  58
ENDBRANCH  54  56
ENDBRANCH  52  54
ENDBRANCH  51  52
ENDBRANCH  50  51
ENDBRANCH  49  50
BRANCH  49  65
ATOM     65  C   UNL     1      -6.354  -7.112  -8.878  1.00  0.00     0.326 C 
ATOM     66  O   UNL     1      -6.614  -8.008  -9.668  1.00  0.00    -0.250 OA
BRANCH  65  67
ATOM     67  O   UNL     1      -6.870  -7.148  -7.630  1.00  0.00    -0.480 OA
ATOM     68  H   UNL     1      -7.809  -7.396  -7.774  1.00  0.00     0.296 HD
ENDBRANCH  65  67
ENDBRANCH  49  65
ENDBRANCH  47  49
ENDBRANCH  43  45
ENDBRANCH   1  43
BRANCH   1  69
ATOM     69  C   UNL     1      -7.266  -2.668  -4.986  1.00  0.00    -0.001 C 
ATOM     70  C   UNL     1      -7.182  -1.990  -3.828  1.00  0.00     0.001 C 
BRANCH  70  71
ATOM     71  C   UNL     1      -8.165  -1.051  -3.284  1.00  0.00    -0.055 C 
ATOM     72  C   UNL     1      -7.712  -0.052  -2.499  1.00  0.00    -0.018 C 
ATOM     73  C   UNL     1      -9.612  -1.263  -3.646  1.00  0.00     0.044 C 
BRANCH  72  74
ATOM     74  C   UNL     1      -8.490   1.058  -1.807  1.00  0.00     0.038 C 
ATOM     75  C   UNL     1      -7.620   2.319  -1.855  1.00  0.00     0.015 C 
BRANCH  74  76
ATOM     76  C   UNL     1      -8.873   0.583  -0.374  1.00  0.00     0.128 C 
BRANCH  76  77
ATOM     77  O   UNL     1      -7.937   1.105   0.583  1.00  0.00    -0.381 OA
ATOM     78  C   UNL     1      -8.552   1.741   1.695  1.00  0.00     0.195 C 
ENDBRANCH  76  77
BRANCH  76  79
ATOM     79  C   UNL     1     -10.347   0.869   0.011  1.00  0.00     0.068 C 
BRANCH  79  80
ATOM     80  C   UNL     1     -11.217  -0.302   0.396  1.00  0.00    -0.045 A 
ATOM     81  C   UNL     1     -11.520  -1.311  -0.528  1.00  0.00     0.004 A 
ATOM     82  C   UNL     1     -11.763  -0.384   1.686  1.00  0.00     0.004 A 
ATOM     83  C   UNL     1     -12.338  -2.385  -0.168  1.00  0.00     0.000 A 
ATOM     84  C   UNL     1     -12.581  -1.457   2.045  1.00  0.00     0.000 A 
ATOM     85  C   UNL     1     -12.867  -2.458   1.119  1.00  0.00     0.000 A 
ENDBRANCH  79  80
ENDBRANCH  76  79
ENDBRANCH  74  76
ENDBRANCH  72  74
ENDBRANCH  70  71
ENDBRANCH   1  69
TORSDOF 17
ENDMDL
MODEL 10
REMARK VINA RESULT:    -6.827      4.187     12.902
REMARK INTER + INTRA:         -26.889
REMARK INTER:                 -18.726
REMARK INTRA:                  -8.162
REMARK UNBOUND:                -6.494
REMARK SMILES C=C1C(=O)N[C@H](C)C(=O)N[C@@H](CC(C)C)C(=O)N[C@@H](C(=O)O)[C@H](C)C(=O)N[C@@H](CCCN=C(N)N)C(=O)N[C@@H](/C=C/C(C)=C/[C@H](C)[C@H](Cc2ccccc2)OC)[C@H](C)C(=O)N[C@@H](C(=O)O)CCC(=O)N1C
REMARK SMILES IDX 39 1 38 2 37 3 36 4 28 6 27 7 25 8 26 9 23 11 24 12 19 13
REMARK SMILES IDX 18 14 16 15 17 16 11 18 10 19 8 20 9 21 12 24 13 25 14 26
REMARK SMILES IDX 15 27 20 28 21 29 22 30 29 32 30 33 31 34 32 35 33 36 34 37
REMARK SMILES IDX 35 38 57 43 58 44 59 45 60 46 61 47 62 49 66 50 67 51 68 52
REMARK SMILES IDX 69 53 70 54 71 55 2 56 1 57 3 58 4 59 5 60 6 62 7 63 63 65
REMARK SMILES IDX 64 66 65 67 40 69 41 70 42 71 44 72 43 73 45 74 46 75 47 76
REMARK SMILES IDX 55 77 56 78 48 79 49 80 50 81 54 82 51 83 53 84 52 85
REMARK H PARENT 38 5 27 10 18 17 10 22 22 31 34 39 34 40 35 41 35 42 61 48
REMARK H PARENT 5 61 65 68
REMARK Flexibility Score:  369.900
ROOT
ATOM      1  C   UNL     1      -7.523  -3.419  -5.572  1.00  0.00     0.117 C 
ENDROOT
BRANCH   1   2
ATOM      2  N   UNL     1      -6.599  -4.048  -4.628  1.00  0.00    -0.347 N 
ATOM      3  O   UNL     1      -8.004  -5.699  -3.870  1.00  0.00    -0.273 OA
ATOM      4  C   UNL     1      -6.885  -5.198  -3.917  1.00  0.00     0.243 C 
ATOM      5  H   UNL     1      -5.674  -3.664  -4.511  1.00  0.00     0.164 HD
BRANCH   4   6
ATOM      6  C   UNL     1      -5.703  -5.706  -3.052  1.00  0.00     0.171 C 
BRANCH   6   7
ATOM      7  N   UNL     1      -6.133  -6.827  -2.201  1.00  0.00    -0.344 N 
ATOM      8  C   UNL     1      -6.302  -6.654  -0.844  1.00  0.00     0.226 C 
ATOM      9  O   UNL     1      -6.086  -5.587  -0.282  1.00  0.00    -0.275 OA
ATOM     10  H   UNL     1      -6.256  -7.740  -2.618  1.00  0.00     0.164 HD
BRANCH   8  11
ATOM     11  C   UNL     1      -6.801  -7.889  -0.114  1.00  0.00     0.109 C 
ATOM     12  C   UNL     1      -5.755  -8.361   0.896  1.00  0.00     0.021 C 
BRANCH  11  13
ATOM     13  C   UNL     1      -8.197  -7.615   0.479  1.00  0.00     0.204 C 
BRANCH  13  14
ATOM     14  N   UNL     1      -8.187  -6.488   1.417  1.00  0.00    -0.340 N 
ATOM     15  C   UNL     1      -8.365  -6.643   2.775  1.00  0.00     0.243 C 
ATOM     16  O   UNL     1      -8.485  -7.747   3.303  1.00  0.00    -0.273 OA
ATOM     17  H   UNL     1      -8.245  -5.542   1.032  1.00  0.00     0.164 HD
BRANCH  15  18
ATOM     18  C   UNL     1      -8.525  -5.304   3.535  1.00  0.00     0.171 C 
BRANCH  18  19
ATOM     19  N   UNL     1      -7.923  -5.496   4.853  1.00  0.00    -0.343 N 
ATOM     20  C   UNL     1      -8.670  -5.420   6.013  1.00  0.00     0.242 CG0
ATOM     21  O   UNL     1      -9.844  -5.058   6.000  1.00  0.00    -0.273 OA
ATOM     22  H   UNL     1      -6.930  -5.684   4.923  1.00  0.00     0.164 HD
ATOM     23  G   UNL     1      -7.879  -5.729   7.301  1.00  0.00     0.000 G0
ENDBRANCH  18  19
BRANCH  18  24
ATOM     24  C   UNL     1      -7.846  -4.162   2.768  1.00  0.00     0.038 C 
BRANCH  24  25
ATOM     25  C   UNL     1      -8.817  -3.197   2.056  1.00  0.00    -0.015 C 
ATOM     26  C   UNL     1      -8.346  -2.825   0.650  1.00  0.00     0.007 C 
ATOM     27  C   UNL     1      -8.990  -1.928   2.895  1.00  0.00     0.007 C 
ENDBRANCH  24  25
ENDBRANCH  18  24
ENDBRANCH  15  18
ENDBRANCH  13  14
BRANCH  13  28
ATOM     28  C   UNL     1      -9.256  -7.310  -0.585  1.00  0.00     0.327 C 
ATOM     29  O   UNL     1      -9.224  -7.656  -1.756  1.00  0.00    -0.250 OA
BRANCH  28  30
ATOM     30  O   UNL     1     -10.229  -6.489  -0.143  1.00  0.00    -0.480 OA
ATOM     31  H   UNL     1     -11.044  -7.031  -0.193  1.00  0.00     0.296 HD
ENDBRANCH  28  30
ENDBRANCH  13  28
ENDBRANCH  11  13
ENDBRANCH   8  11
ENDBRANCH   6   7
BRANCH   6  32
ATOM     32  C   UNL     1      -4.551  -6.127  -3.971  1.00  0.00     0.037 C 
BRANCH  32  33
ATOM     33  C   UNL     1      -3.309  -6.563  -3.180  1.00  0.00     0.026 C 
BRANCH  33  34
ATOM     34  C   UNL     1      -2.892  -8.000  -3.493  1.00  0.00     0.146 C 
BRANCH  34  35
ATOM     35  N   UNL     1      -2.654  -8.120  -4.925  1.00  0.00    -0.254 NA
ATOM     36  C   UNL     1      -2.425  -9.281  -5.415  1.00  0.00     0.185 C 
ATOM     37  N   UNL     1      -2.209  -9.403  -6.733  1.00  0.00    -0.370 N 
ATOM     38  N   UNL     1      -2.364 -10.467  -4.784  1.00  0.00    -0.370 N 
ATOM     39  H   UNL     1      -2.249  -8.553  -7.281  1.00  0.00     0.159 HD
ATOM     40  H   UNL     1      -2.197 -10.286  -7.215  1.00  0.00     0.159 HD
ATOM     41  H   UNL     1      -2.038 -11.293  -5.258  1.00  0.00     0.159 HD
ATOM     42  H   UNL     1      -2.491 -10.524  -3.785  1.00  0.00     0.159 HD
ENDBRANCH  34  35
ENDBRANCH  33  34
ENDBRANCH  32  33
ENDBRANCH   6  32
ENDBRANCH   4   6
ENDBRANCH   1   2
BRANCH   1  43
ATOM     43  C   UNL     1      -6.835  -3.349  -6.966  1.00  0.00     0.102 C 
ATOM     44  C   UNL     1      -7.420  -4.339  -7.988  1.00  0.00     0.020 C 
BRANCH  43  45
ATOM     45  C   UNL     1      -5.311  -3.422  -6.832  1.00  0.00     0.225 C 
ATOM     46  O   UNL     1      -4.662  -2.655  -6.127  1.00  0.00    -0.275 OA
ATOM     47  N   UNL     1      -4.690  -4.354  -7.632  1.00  0.00    -0.342 N 
ATOM     48  H   UNL     1      -5.240  -5.071  -8.085  1.00  0.00     0.164 HD
BRANCH  47  49
ATOM     49  C   UNL     1      -3.240  -4.561  -7.583  1.00  0.00     0.192 C 
BRANCH  49  50
ATOM     50  C   UNL     1      -2.579  -3.851  -8.767  1.00  0.00     0.047 C 
BRANCH  50  51
ATOM     51  C   UNL     1      -1.710  -2.665  -8.324  1.00  0.00     0.103 C 
BRANCH  51  52
ATOM     52  C   UNL     1      -2.331  -1.324  -8.708  1.00  0.00     0.226 C 
ATOM     53  O   UNL     1      -3.140  -1.270  -9.636  1.00  0.00    -0.275 OA
BRANCH  52  54
ATOM     54  N   UNL     1      -1.986  -0.221  -7.905  1.00  0.00    -0.311 N 
ATOM     55  C   UNL     1      -2.303  -0.200  -6.471  1.00  0.00     0.153 C 
BRANCH  54  56
ATOM     56  C   UNL     1      -1.323   0.896  -8.442  1.00  0.00     0.102 C 
ATOM     57  C   UNL     1      -1.825   2.141  -8.483  1.00  0.00     0.043 C 
BRANCH  56  58
ATOM     58  C   UNL     1       0.079   0.774  -8.991  1.00  0.00     0.268 C 
ATOM     59  O   UNL     1       0.319   0.498 -10.159  1.00  0.00    -0.268 OA
ATOM     60  N   UNL     1       1.050   1.070  -8.064  1.00  0.00    -0.339 N 
ATOM     61  H   UNL     1       0.769   1.280  -7.114  1.00  0.00     0.164 HD
BRANCH  60  62
ATOM     62  C   UNL     1       2.473   1.075  -8.401  1.00  0.00     0.168 CG0
ATOM     63  C   UNL     1       3.282   0.297  -7.371  1.00  0.00     0.041 C 
ATOM     64  G   UNL     1       2.975   2.530  -8.503  1.00  0.00     0.000 G0
ENDBRANCH  60  62
ENDBRANCH  56  58
ENDBRANCH  54  56
ENDBRANCH  52  54
ENDBRANCH  51  52
ENDBRANCH  50  51
ENDBRANCH  49  50
BRANCH  49  65
ATOM     65  C   UNL     1      -2.879  -6.054  -7.620  1.00  0.00     0.326 C 
ATOM     66  O   UNL     1      -1.765  -6.511  -7.834  1.00  0.00    -0.250 OA
BRANCH  65  67
ATOM     67  O   UNL     1      -3.925  -6.892  -7.449  1.00  0.00    -0.480 OA
ATOM     68  H   UNL     1      -4.521  -6.673  -8.198  1.00  0.00     0.296 HD
ENDBRANCH  65  67
ENDBRANCH  49  65
ENDBRANCH  47  49
ENDBRANCH  43  45
ENDBRANCH   1  43
BRANCH   1  69
ATOM     69  C   UNL     1      -7.985  -2.130  -4.917  1.00  0.00    -0.001 C 
ATOM     70  C   UNL     1      -8.772  -2.000  -3.834  1.00  0.00     0.001 C 
BRANCH  70  71
ATOM     71  C   UNL     1      -9.194  -0.751  -3.198  1.00  0.00    -0.055 C 
ATOM     72  C   UNL     1      -8.441  -0.278  -2.183  1.00  0.00    -0.018 C 
ATOM     73  C   UNL     1     -10.434  -0.078  -3.727  1.00  0.00     0.044 C 
BRANCH  72  74
ATOM     74  C   UNL     1      -8.631   0.980  -1.348  1.00  0.00     0.038 C 
ATOM     75  C   UNL     1      -7.293   1.728  -1.345  1.00  0.00     0.015 C 
BRANCH  74  76
ATOM     76  C   UNL     1      -9.154   0.572   0.061  1.00  0.00     0.128 C 
BRANCH  76  77
ATOM     77  O   UNL     1      -8.291   1.106   1.079  1.00  0.00    -0.381 OA
ATOM     78  C   UNL     1      -8.988   1.698   2.167  1.00  0.00     0.195 C 
ENDBRANCH  76  77
BRANCH  76  79
ATOM     79  C   UNL     1     -10.647   0.913   0.301  1.00  0.00     0.068 C 
BRANCH  79  80
ATOM     80  C   UNL     1     -11.681  -0.104  -0.118  1.00  0.00    -0.045 A 
ATOM     81  C   UNL     1     -11.616  -1.428   0.335  1.00  0.00     0.004 A 
ATOM     82  C   UNL     1     -12.713   0.258  -0.996  1.00  0.00     0.004 A 
ATOM     83  C   UNL     1     -12.568  -2.367  -0.069  1.00  0.00     0.000 A 
ATOM     84  C   UNL     1     -13.665  -0.681  -1.400  1.00  0.00     0.000 A 
ATOM     85  C   UNL     1     -13.593  -1.992  -0.935  1.00  0.00     0.000 A 
ENDBRANCH  79  80
ENDBRANCH  76  79
ENDBRANCH  74  76
ENDBRANCH  72  74
ENDBRANCH  70  71
ENDBRANCH   1  69
TORSDOF 17
ENDMDL
MODEL 11
REMARK VINA RESULT:    -6.826      3.151      8.677
REMARK INTER + INTRA:         -26.888
REMARK INTER:                 -18.150
REMARK INTRA:                  -8.738
REMARK UNBOUND:                -6.494
REMARK SMILES C=C1C(=O)N[C@H](C)C(=O)N[C@@H](CC(C)C)C(=O)N[C@@H](C(=O)O)[C@H](C)C(=O)N[C@@H](CCCN=C(N)N)C(=O)N[C@@H](/C=C/C(C)=C/[C@H](C)[C@H](Cc2ccccc2)OC)[C@H](C)C(=O)N[C@@H](C(=O)O)CCC(=O)N1C
REMARK SMILES IDX 39 1 38 2 37 3 36 4 28 6 27 7 25 8 26 9 23 11 24 12 19 13
REMARK SMILES IDX 18 14 16 15 17 16 11 18 10 19 8 20 9 21 12 24 13 25 14 26
REMARK SMILES IDX 15 27 20 28 21 29 22 30 29 32 30 33 31 34 32 35 33 36 34 37
REMARK SMILES IDX 35 38 57 43 58 44 59 45 60 46 61 47 62 49 66 50 67 51 68 52
REMARK SMILES IDX 69 53 70 54 71 55 2 56 1 57 3 58 4 59 5 60 6 62 7 63 63 65
REMARK SMILES IDX 64 66 65 67 40 69 41 70 42 71 44 72 43 73 45 74 46 75 47 76
REMARK SMILES IDX 55 77 56 78 48 79 49 80 50 81 54 82 51 83 53 84 52 85
REMARK H PARENT 38 5 27 10 18 17 10 22 22 31 34 39 34 40 35 41 35 42 61 48
REMARK H PARENT 5 61 65 68
REMARK Flexibility Score:  369.900
ROOT
ATOM      1  C   UNL     1      -9.274  -3.188  -0.060  1.00  0.00     0.117 C 
ENDROOT
BRANCH   1   2
ATOM      2  N   UNL     1      -8.347  -3.772  -1.030  1.00  0.00    -0.347 N 
ATOM      3  O   UNL     1      -6.428  -2.761  -0.278  1.00  0.00    -0.273 OA
ATOM      4  C   UNL     1      -6.979  -3.582  -1.004  1.00  0.00     0.243 C 
ATOM      5  H   UNL     1      -8.702  -4.394  -1.740  1.00  0.00     0.164 HD
BRANCH   4   6
ATOM      6  C   UNL     1      -6.217  -4.382  -2.092  1.00  0.00     0.171 C 
BRANCH   6   7
ATOM      7  N   UNL     1      -6.229  -3.652  -3.369  1.00  0.00    -0.344 N 
ATOM      8  C   UNL     1      -7.305  -3.749  -4.224  1.00  0.00     0.226 C 
ATOM      9  O   UNL     1      -8.280  -4.451  -3.982  1.00  0.00    -0.275 OA
ATOM     10  H   UNL     1      -5.413  -3.115  -3.635  1.00  0.00     0.164 HD
BRANCH   8  11
ATOM     11  C   UNL     1      -7.190  -2.895  -5.475  1.00  0.00     0.109 C 
ATOM     12  C   UNL     1      -7.376  -1.419  -5.122  1.00  0.00     0.021 C 
BRANCH  11  13
ATOM     13  C   UNL     1      -5.877  -3.225  -6.213  1.00  0.00     0.204 C 
BRANCH  13  14
ATOM     14  N   UNL     1      -5.738  -4.660  -6.475  1.00  0.00    -0.340 N 
ATOM     15  C   UNL     1      -4.637  -5.390  -6.080  1.00  0.00     0.243 C 
ATOM     16  O   UNL     1      -3.720  -4.898  -5.425  1.00  0.00    -0.273 OA
ATOM     17  H   UNL     1      -6.385  -5.092  -7.140  1.00  0.00     0.164 HD
BRANCH  15  18
ATOM     18  C   UNL     1      -4.614  -6.831  -6.646  1.00  0.00     0.171 C 
BRANCH  18  19
ATOM     19  N   UNL     1      -4.938  -6.728  -8.067  1.00  0.00    -0.343 N 
ATOM     20  C   UNL     1      -5.935  -7.490  -8.645  1.00  0.00     0.242 CG0
ATOM     21  O   UNL     1      -6.504  -8.383  -8.023  1.00  0.00    -0.273 OA
ATOM     22  H   UNL     1      -4.415  -6.085  -8.651  1.00  0.00     0.164 HD
ATOM     23  G   UNL     1      -6.184  -7.186 -10.137  1.00  0.00     0.000 G0
ENDBRANCH  18  19
BRANCH  18  24
ATOM     24  C   UNL     1      -3.241  -7.477  -6.427  1.00  0.00     0.038 C 
BRANCH  24  25
ATOM     25  C   UNL     1      -2.288  -7.389  -7.638  1.00  0.00    -0.015 C 
ATOM     26  C   UNL     1      -2.027  -8.753  -8.278  1.00  0.00     0.007 C 
ATOM     27  C   UNL     1      -0.960  -6.762  -7.204  1.00  0.00     0.007 C 
ENDBRANCH  24  25
ENDBRANCH  18  24
ENDBRANCH  15  18
ENDBRANCH  13  14
BRANCH  13  28
ATOM     28  C   UNL     1      -5.742  -2.503  -7.557  1.00  0.00     0.327 C 
ATOM     29  O   UNL     1      -6.124  -2.916  -8.641  1.00  0.00    -0.250 OA
BRANCH  28  30
ATOM     30  O   UNL     1      -5.031  -1.360  -7.474  1.00  0.00    -0.480 OA
ATOM     31  H   UNL     1      -5.176  -0.923  -8.339  1.00  0.00     0.296 HD
ENDBRANCH  28  30
ENDBRANCH  13  28
ENDBRANCH  11  13
ENDBRANCH   8  11
ENDBRANCH   6   7
BRANCH   6  32
ATOM     32  C   UNL     1      -4.782  -4.634  -1.618  1.00  0.00     0.037 C 
BRANCH  32  33
ATOM     33  C   UNL     1      -4.148  -5.849  -2.311  1.00  0.00     0.026 C 
BRANCH  33  34
ATOM     34  C   UNL     1      -5.170  -6.942  -2.625  1.00  0.00     0.146 C 
BRANCH  34  35
ATOM     35  N   UNL     1      -4.939  -8.071  -1.734  1.00  0.00    -0.254 NA
ATOM     36  C   UNL     1      -5.945  -8.615  -1.157  1.00  0.00     0.185 C 
ATOM     37  N   UNL     1      -5.744  -9.659  -0.338  1.00  0.00    -0.370 N 
ATOM     38  N   UNL     1      -7.247  -8.291  -1.247  1.00  0.00    -0.370 N 
ATOM     39  H   UNL     1      -4.788  -9.971  -0.226  1.00  0.00     0.159 HD
ATOM     40  H   UNL     1      -6.484 -10.244   0.010  1.00  0.00     0.159 HD
ATOM     41  H   UNL     1      -7.931  -8.706  -0.635  1.00  0.00     0.159 HD
ATOM     42  H   UNL     1      -7.544  -7.514  -1.816  1.00  0.00     0.159 HD
ENDBRANCH  34  35
ENDBRANCH  33  34
ENDBRANCH  32  33
ENDBRANCH   6  32
ENDBRANCH   4   6
ENDBRANCH   1   2
BRANCH   1  43
ATOM     43  C   UNL     1     -10.315  -4.271   0.344  1.00  0.00     0.102 C 
ATOM     44  C   UNL     1     -11.257  -3.823   1.475  1.00  0.00     0.020 C 
BRANCH  43  45
ATOM     45  C   UNL     1      -9.636  -5.620   0.599  1.00  0.00     0.225 C 
ATOM     46  O   UNL     1      -9.628  -6.533  -0.221  1.00  0.00    -0.275 OA
ATOM     47  N   UNL     1      -9.104  -5.786   1.858  1.00  0.00    -0.342 N 
ATOM     48  H   UNL     1      -8.984  -4.984   2.460  1.00  0.00     0.164 HD
BRANCH  47  49
ATOM     49  C   UNL     1      -8.392  -7.012   2.233  1.00  0.00     0.192 C 
BRANCH  49  50
ATOM     50  C   UNL     1      -8.729  -7.380   3.680  1.00  0.00     0.047 C 
BRANCH  50  51
ATOM     51  C   UNL     1      -9.510  -6.270   4.396  1.00  0.00     0.103 C 
BRANCH  51  52
ATOM     52  C   UNL     1      -8.588  -5.324   5.163  1.00  0.00     0.226 C 
ATOM     53  O   UNL     1      -7.836  -4.569   4.544  1.00  0.00    -0.275 OA
BRANCH  52  54
ATOM     54  N   UNL     1      -8.715  -5.324   6.565  1.00  0.00    -0.311 N 
ATOM     55  C   UNL     1      -7.705  -5.967   7.416  1.00  0.00     0.153 C 
BRANCH  54  56
ATOM     56  C   UNL     1      -9.805  -4.707   7.201  1.00  0.00     0.102 C 
ATOM     57  C   UNL     1     -10.136  -3.411   7.074  1.00  0.00     0.043 C 
BRANCH  56  58
ATOM     58  C   UNL     1     -10.746  -5.504   8.074  1.00  0.00     0.268 C 
ATOM     59  O   UNL     1     -11.253  -6.560   7.722  1.00  0.00    -0.268 OA
ATOM     60  N   UNL     1     -10.920  -4.955   9.322  1.00  0.00    -0.339 N 
ATOM     61  H   UNL     1     -10.473  -4.071   9.533  1.00  0.00     0.164 HD
BRANCH  60  62
ATOM     62  C   UNL     1     -11.741  -5.597  10.348  1.00  0.00     0.168 CG0
ATOM     63  C   UNL     1     -13.146  -5.008  10.372  1.00  0.00     0.041 C 
ATOM     64  G   UNL     1     -11.061  -5.445  11.724  1.00  0.00     0.000 G0
ENDBRANCH  60  62
ENDBRANCH  56  58
ENDBRANCH  54  56
ENDBRANCH  52  54
ENDBRANCH  51  52
ENDBRANCH  50  51
ENDBRANCH  49  50
BRANCH  49  65
ATOM     65  C   UNL     1      -6.871  -6.850   2.089  1.00  0.00     0.326 C 
ATOM     66  O   UNL     1      -6.054  -7.759   2.121  1.00  0.00    -0.250 OA
BRANCH  65  67
ATOM     67  O   UNL     1      -6.448  -5.572   1.976  1.00  0.00    -0.480 OA
ATOM     68  H   UNL     1      -6.965  -5.223   1.218  1.00  0.00     0.296 HD
ENDBRANCH  65  67
ENDBRANCH  49  65
ENDBRANCH  47  49
ENDBRANCH  43  45
ENDBRANCH   1  43
BRANCH   1  69
ATOM     69  C   UNL     1      -9.766  -1.889  -0.672  1.00  0.00    -0.001 C 
ATOM     70  C   UNL     1     -10.567  -1.743  -1.742  1.00  0.00     0.001 C 
BRANCH  70  71
ATOM     71  C   UNL     1     -11.053  -0.484  -2.311  1.00  0.00    -0.055 C 
ATOM     72  C   UNL     1     -10.679  -0.180  -3.572  1.00  0.00    -0.018 C 
ATOM     73  C   UNL     1     -11.942   0.378  -1.453  1.00  0.00     0.044 C 
BRANCH  72  74
ATOM     74  C   UNL     1     -11.027   1.041  -4.412  1.00  0.00     0.038 C 
ATOM     75  C   UNL     1     -12.135   0.619  -5.385  1.00  0.00     0.015 C 
BRANCH  74  76
ATOM     76  C   UNL     1      -9.729   1.570  -5.089  1.00  0.00     0.128 C 
BRANCH  76  77
ATOM     77  O   UNL     1     -10.025   2.042  -6.415  1.00  0.00    -0.381 OA
ATOM     78  C   UNL     1      -8.944   2.730  -7.030  1.00  0.00     0.195 C 
ENDBRANCH  76  77
BRANCH  76  79
ATOM     79  C   UNL     1      -8.956   2.611  -4.241  1.00  0.00     0.068 C 
BRANCH  79  80
ATOM     80  C   UNL     1      -8.591   2.238  -2.824  1.00  0.00    -0.045 A 
ATOM     81  C   UNL     1      -7.619   1.264  -2.562  1.00  0.00     0.004 A 
ATOM     82  C   UNL     1      -9.246   2.846  -1.742  1.00  0.00     0.004 A 
ATOM     83  C   UNL     1      -7.298   0.914  -1.248  1.00  0.00     0.000 A 
ATOM     84  C   UNL     1      -8.925   2.495  -0.429  1.00  0.00     0.000 A 
ATOM     85  C   UNL     1      -7.950   1.531  -0.183  1.00  0.00     0.000 A 
ENDBRANCH  79  80
ENDBRANCH  76  79
ENDBRANCH  74  76
ENDBRANCH  72  74
ENDBRANCH  70  71
ENDBRANCH   1  69
TORSDOF 17
ENDMDL
MODEL 12
REMARK VINA RESULT:    -6.819      4.390     13.656
REMARK INTER + INTRA:         -26.865
REMARK INTER:                 -18.411
REMARK INTRA:                  -8.454
REMARK UNBOUND:                -6.494
REMARK SMILES C=C1C(=O)N[C@H](C)C(=O)N[C@@H](CC(C)C)C(=O)N[C@@H](C(=O)O)[C@H](C)C(=O)N[C@@H](CCCN=C(N)N)C(=O)N[C@@H](/C=C/C(C)=C/[C@H](C)[C@H](Cc2ccccc2)OC)[C@H](C)C(=O)N[C@@H](C(=O)O)CCC(=O)N1C
REMARK SMILES IDX 39 1 38 2 37 3 36 4 28 6 27 7 25 8 26 9 23 11 24 12 19 13
REMARK SMILES IDX 18 14 16 15 17 16 11 18 10 19 8 20 9 21 12 24 13 25 14 26
REMARK SMILES IDX 15 27 20 28 21 29 22 30 29 32 30 33 31 34 32 35 33 36 34 37
REMARK SMILES IDX 35 38 57 43 58 44 59 45 60 46 61 47 62 49 66 50 67 51 68 52
REMARK SMILES IDX 69 53 70 54 71 55 2 56 1 57 3 58 4 59 5 60 6 62 7 63 63 65
REMARK SMILES IDX 64 66 65 67 40 69 41 70 42 71 44 72 43 73 45 74 46 75 47 76
REMARK SMILES IDX 55 77 56 78 48 79 49 80 50 81 54 82 51 83 53 84 52 85
REMARK H PARENT 38 5 27 10 18 17 10 22 22 31 34 39 34 40 35 41 35 42 61 48
REMARK H PARENT 5 61 65 68
REMARK Flexibility Score:  369.900
ROOT
ATOM      1  C   UNL     1      -6.515  -3.272  -5.454  1.00  0.00     0.117 C 
ENDROOT
BRANCH   1   2
ATOM      2  N   UNL     1      -5.721  -3.834  -4.361  1.00  0.00    -0.347 N 
ATOM      3  O   UNL     1      -6.945  -5.748  -4.036  1.00  0.00    -0.273 OA
ATOM      4  C   UNL     1      -5.948  -5.076  -3.799  1.00  0.00     0.243 C 
ATOM      5  H   UNL     1      -4.924  -3.321  -4.014  1.00  0.00     0.164 HD
BRANCH   4   6
ATOM      6  C   UNL     1      -4.910  -5.469  -2.717  1.00  0.00     0.171 C 
BRANCH   6   7
ATOM      7  N   UNL     1      -5.379  -6.638  -1.956  1.00  0.00    -0.344 N 
ATOM      8  C   UNL     1      -5.652  -6.537  -0.609  1.00  0.00     0.226 C 
ATOM      9  O   UNL     1      -5.502  -5.496   0.018  1.00  0.00    -0.275 OA
ATOM     10  H   UNL     1      -5.451  -7.532  -2.425  1.00  0.00     0.164 HD
BRANCH   8  11
ATOM     11  C   UNL     1      -6.178  -7.815   0.020  1.00  0.00     0.109 C 
ATOM     12  C   UNL     1      -5.291  -8.227   1.195  1.00  0.00     0.021 C 
BRANCH  11  13
ATOM     13  C   UNL     1      -7.672  -7.651   0.363  1.00  0.00     0.204 C 
BRANCH  13  14
ATOM     14  N   UNL     1      -7.895  -6.613   1.375  1.00  0.00    -0.340 N 
ATOM     15  C   UNL     1      -8.367  -6.890   2.640  1.00  0.00     0.243 C 
ATOM     16  O   UNL     1      -8.578  -8.037   3.029  1.00  0.00    -0.273 OA
ATOM     17  H   UNL     1      -7.886  -5.636   1.071  1.00  0.00     0.164 HD
BRANCH  15  18
ATOM     18  C   UNL     1      -8.721  -5.625   3.459  1.00  0.00     0.171 C 
BRANCH  18  19
ATOM     19  N   UNL     1      -7.454  -4.989   3.815  1.00  0.00    -0.343 N 
ATOM     20  C   UNL     1      -6.664  -5.464   4.844  1.00  0.00     0.242 CG0
ATOM     21  O   UNL     1      -7.051  -6.358   5.592  1.00  0.00    -0.273 OA
ATOM     22  H   UNL     1      -7.144  -4.173   3.299  1.00  0.00     0.164 HD
ATOM     23  G   UNL     1      -5.328  -4.713   5.020  1.00  0.00     0.000 G0
ENDBRANCH  18  19
BRANCH  18  24
ATOM     24  C   UNL     1      -9.612  -4.682   2.641  1.00  0.00     0.038 C 
BRANCH  24  25
ATOM     25  C   UNL     1     -10.935  -4.287   3.331  1.00  0.00    -0.015 C 
ATOM     26  C   UNL     1     -10.780  -3.068   4.241  1.00  0.00     0.007 C 
ATOM     27  C   UNL     1     -11.467  -5.471   4.142  1.00  0.00     0.007 C 
ENDBRANCH  24  25
ENDBRANCH  18  24
ENDBRANCH  15  18
ENDBRANCH  13  14
BRANCH  13  28
ATOM     28  C   UNL     1      -8.535  -7.294  -0.851  1.00  0.00     0.327 C 
ATOM     29  O   UNL     1      -9.505  -6.551  -0.856  1.00  0.00    -0.250 OA
BRANCH  28  30
ATOM     30  O   UNL     1      -8.199  -7.984  -1.960  1.00  0.00    -0.480 OA
ATOM     31  H   UNL     1      -7.226  -7.883  -2.021  1.00  0.00     0.296 HD
ENDBRANCH  28  30
ENDBRANCH  13  28
ENDBRANCH  11  13
ENDBRANCH   8  11
ENDBRANCH   6   7
BRANCH   6  32
ATOM     32  C   UNL     1      -3.565  -5.758  -3.391  1.00  0.00     0.037 C 
BRANCH  32  33
ATOM     33  C   UNL     1      -3.212  -7.252  -3.364  1.00  0.00     0.026 C 
BRANCH  33  34
ATOM     34  C   UNL     1      -2.744  -7.768  -4.725  1.00  0.00     0.146 C 
BRANCH  34  35
ATOM     35  N   UNL     1      -3.863  -7.719  -5.656  1.00  0.00    -0.254 NA
ATOM     36  C   UNL     1      -3.680  -7.191  -6.809  1.00  0.00     0.185 C 
ATOM     37  N   UNL     1      -4.703  -7.145  -7.676  1.00  0.00    -0.370 N 
ATOM     38  N   UNL     1      -2.563  -6.644  -7.320  1.00  0.00    -0.370 N 
ATOM     39  H   UNL     1      -5.578  -7.548  -7.368  1.00  0.00     0.159 HD
ATOM     40  H   UNL     1      -4.597  -6.910  -8.648  1.00  0.00     0.159 HD
ATOM     41  H   UNL     1      -2.582  -6.135  -8.188  1.00  0.00     0.159 HD
ATOM     42  H   UNL     1      -1.718  -6.595  -6.771  1.00  0.00     0.159 HD
ENDBRANCH  34  35
ENDBRANCH  33  34
ENDBRANCH  32  33
ENDBRANCH   6  32
ENDBRANCH   4   6
ENDBRANCH   1   2
BRANCH   1  43
ATOM     43  C   UNL     1      -5.552  -2.574  -6.457  1.00  0.00     0.102 C 
ATOM     44  C   UNL     1      -5.997  -1.153  -6.844  1.00  0.00     0.020 C 
BRANCH  43  45
ATOM     45  C   UNL     1      -5.254  -3.480  -7.655  1.00  0.00     0.225 C 
ATOM     46  O   UNL     1      -4.177  -4.045  -7.818  1.00  0.00    -0.275 OA
ATOM     47  N   UNL     1      -6.248  -3.552  -8.605  1.00  0.00    -0.342 N 
ATOM     48  H   UNL     1      -7.174  -3.210  -8.387  1.00  0.00     0.164 HD
BRANCH  47  49
ATOM     49  C   UNL     1      -6.117  -4.408  -9.787  1.00  0.00     0.192 C 
BRANCH  49  50
ATOM     50  C   UNL     1      -6.388  -3.586 -11.050  1.00  0.00     0.047 C 
BRANCH  50  51
ATOM     51  C   UNL     1      -6.135  -2.088 -10.834  1.00  0.00     0.103 C 
BRANCH  51  52
ATOM     52  C   UNL     1      -5.042  -1.552 -11.756  1.00  0.00     0.226 C 
ATOM     53  O   UNL     1      -5.334  -1.166 -12.889  1.00  0.00    -0.275 OA
BRANCH  52  54
ATOM     54  N   UNL     1      -3.749  -1.461 -11.208  1.00  0.00    -0.311 N 
ATOM     55  C   UNL     1      -3.539  -0.961  -9.843  1.00  0.00     0.153 C 
BRANCH  54  56
ATOM     56  C   UNL     1      -2.614  -1.850 -11.941  1.00  0.00     0.102 C 
ATOM     57  C   UNL     1      -2.214  -3.119 -12.121  1.00  0.00     0.043 C 
BRANCH  56  58
ATOM     58  C   UNL     1      -1.756  -0.824 -12.643  1.00  0.00     0.268 C 
ATOM     59  O   UNL     1      -0.641  -0.504 -12.254  1.00  0.00    -0.268 OA
ATOM     60  N   UNL     1      -2.328  -0.340 -13.795  1.00  0.00    -0.339 N 
ATOM     61  H   UNL     1      -3.261  -0.648 -14.043  1.00  0.00     0.164 HD
BRANCH  60  62
ATOM     62  C   UNL     1      -1.641   0.616 -14.663  1.00  0.00     0.168 CG0
ATOM     63  C   UNL     1      -2.276   0.652 -16.048  1.00  0.00     0.041 C 
ATOM     64  G   UNL     1      -0.146   0.248 -14.757  1.00  0.00     0.000 G0
ENDBRANCH  60  62
ENDBRANCH  56  58
ENDBRANCH  54  56
ENDBRANCH  52  54
ENDBRANCH  51  52
ENDBRANCH  50  51
ENDBRANCH  49  50
BRANCH  49  65
ATOM     65  C   UNL     1      -7.089  -5.598  -9.737  1.00  0.00     0.326 C 
ATOM     66  O   UNL     1      -6.768  -6.778  -9.740  1.00  0.00    -0.250 OA
BRANCH  65  67
ATOM     67  O   UNL     1      -8.397  -5.258  -9.745  1.00  0.00    -0.480 OA
ATOM     68  H   UNL     1      -8.670  -5.412 -10.675  1.00  0.00     0.296 HD
ENDBRANCH  65  67
ENDBRANCH  49  65
ENDBRANCH  47  49
ENDBRANCH  43  45
ENDBRANCH   1  43
BRANCH   1  69
ATOM     69  C   UNL     1      -7.615  -2.454  -4.802  1.00  0.00    -0.001 C 
ATOM     70  C   UNL     1      -7.538  -1.741  -3.664  1.00  0.00     0.001 C 
BRANCH  70  71
ATOM     71  C   UNL     1      -8.600  -0.938  -3.056  1.00  0.00    -0.055 C 
ATOM     72  C   UNL     1      -8.318  -0.293  -1.904  1.00  0.00    -0.018 C 
ATOM     73  C   UNL     1      -9.929  -0.880  -3.763  1.00  0.00     0.044 C 
BRANCH  72  74
ATOM     74  C   UNL     1      -9.211   0.604  -1.059  1.00  0.00     0.038 C 
ATOM     75  C   UNL     1      -9.174   2.002  -1.689  1.00  0.00     0.015 C 
BRANCH  74  76
ATOM     76  C   UNL     1      -8.729   0.541   0.420  1.00  0.00     0.128 C 
BRANCH  76  77
ATOM     77  O   UNL     1      -9.153   1.720   1.125  1.00  0.00    -0.381 OA
ATOM     78  C   UNL     1      -8.742   1.750   2.485  1.00  0.00     0.195 C 
ENDBRANCH  76  77
BRANCH  76  79
ATOM     79  C   UNL     1      -9.117  -0.768   1.152  1.00  0.00     0.068 C 
BRANCH  79  80
ATOM     80  C   UNL     1     -10.518  -1.297   0.961  1.00  0.00    -0.045 A 
ATOM     81  C   UNL     1     -10.777  -2.348   0.072  1.00  0.00     0.004 A 
ATOM     82  C   UNL     1     -11.592  -0.721   1.656  1.00  0.00     0.004 A 
ATOM     83  C   UNL     1     -12.078  -2.823  -0.110  1.00  0.00     0.000 A 
ATOM     84  C   UNL     1     -12.893  -1.196   1.472  1.00  0.00     0.000 A 
ATOM     85  C   UNL     1     -13.135  -2.247   0.591  1.00  0.00     0.000 A 
ENDBRANCH  79  80
ENDBRANCH  76  79
ENDBRANCH  74  76
ENDBRANCH  72  74
ENDBRANCH  70  71
ENDBRANCH   1  69
TORSDOF 17
ENDMDL
MODEL 13
REMARK VINA RESULT:    -6.804      3.593     12.178
REMARK INTER + INTRA:         -26.822
REMARK INTER:                 -17.772
REMARK INTRA:                  -9.050
REMARK UNBOUND:                -6.494
REMARK SMILES C=C1C(=O)N[C@H](C)C(=O)N[C@@H](CC(C)C)C(=O)N[C@@H](C(=O)O)[C@H](C)C(=O)N[C@@H](CCCN=C(N)N)C(=O)N[C@@H](/C=C/C(C)=C/[C@H](C)[C@H](Cc2ccccc2)OC)[C@H](C)C(=O)N[C@@H](C(=O)O)CCC(=O)N1C
REMARK SMILES IDX 39 1 38 2 37 3 36 4 28 6 27 7 25 8 26 9 23 11 24 12 19 13
REMARK SMILES IDX 18 14 16 15 17 16 11 18 10 19 8 20 9 21 12 24 13 25 14 26
REMARK SMILES IDX 15 27 20 28 21 29 22 30 29 32 30 33 31 34 32 35 33 36 34 37
REMARK SMILES IDX 35 38 57 43 58 44 59 45 60 46 61 47 62 49 66 50 67 51 68 52
REMARK SMILES IDX 69 53 70 54 71 55 2 56 1 57 3 58 4 59 5 60 6 62 7 63 63 65
REMARK SMILES IDX 64 66 65 67 40 69 41 70 42 71 44 72 43 73 45 74 46 75 47 76
REMARK SMILES IDX 55 77 56 78 48 79 49 80 50 81 54 82 51 83 53 84 52 85
REMARK H PARENT 38 5 27 10 18 17 10 22 22 31 34 39 34 40 35 41 35 42 61 48
REMARK H PARENT 5 61 65 68
REMARK Flexibility Score:  369.900
ROOT
ATOM      1  C   UNL     1      -5.461  -5.218  -2.068  1.00  0.00     0.117 C 
ENDROOT
BRANCH   1   2
ATOM      2  N   UNL     1      -6.660  -4.506  -1.623  1.00  0.00    -0.347 N 
ATOM      3  O   UNL     1      -5.718  -2.427  -1.379  1.00  0.00    -0.273 OA
ATOM      4  C   UNL     1      -6.713  -3.144  -1.401  1.00  0.00     0.243 C 
ATOM      5  H   UNL     1      -7.524  -5.015  -1.512  1.00  0.00     0.164 HD
BRANCH   4   6
ATOM      6  C   UNL     1      -8.124  -2.629  -1.020  1.00  0.00     0.171 C 
BRANCH   6   7
ATOM      7  N   UNL     1      -8.326  -2.713   0.436  1.00  0.00    -0.344 N 
ATOM      8  C   UNL     1      -8.756  -3.885   1.019  1.00  0.00     0.226 C 
ATOM      9  O   UNL     1      -9.009  -4.892   0.369  1.00  0.00    -0.275 OA
ATOM     10  H   UNL     1      -8.192  -1.882   0.998  1.00  0.00     0.164 HD
BRANCH   8  11
ATOM     11  C   UNL     1      -8.863  -3.827   2.533  1.00  0.00     0.109 C 
ATOM     12  C   UNL     1      -9.191  -2.404   2.983  1.00  0.00     0.021 C 
BRANCH  11  13
ATOM     13  C   UNL     1      -9.847  -4.907   3.028  1.00  0.00     0.204 C 
BRANCH  13  14
ATOM     14  N   UNL     1      -9.805  -5.064   4.485  1.00  0.00    -0.340 N 
ATOM     15  C   UNL     1     -10.013  -6.274   5.112  1.00  0.00     0.243 C 
ATOM     16  O   UNL     1     -10.188  -7.319   4.490  1.00  0.00    -0.273 OA
ATOM     17  H   UNL     1      -9.817  -4.218   5.060  1.00  0.00     0.164 HD
BRANCH  15  18
ATOM     18  C   UNL     1     -10.129  -6.159   6.652  1.00  0.00     0.171 C 
BRANCH  18  19
ATOM     19  N   UNL     1     -11.525  -6.435   6.988  1.00  0.00    -0.343 N 
ATOM     20  C   UNL     1     -12.507  -5.470   6.869  1.00  0.00     0.242 CG0
ATOM     21  O   UNL     1     -12.233  -4.302   6.604  1.00  0.00    -0.273 OA
ATOM     22  H   UNL     1     -11.783  -7.356   7.324  1.00  0.00     0.164 HD
ATOM     23  G   UNL     1     -13.931  -5.968   7.193  1.00  0.00     0.000 G0
ENDBRANCH  18  19
BRANCH  18  24
ATOM     24  C   UNL     1      -9.180  -7.146   7.342  1.00  0.00     0.038 C 
BRANCH  24  25
ATOM     25  C   UNL     1      -7.716  -6.667   7.445  1.00  0.00    -0.015 C 
ATOM     26  C   UNL     1      -6.713  -7.798   7.213  1.00  0.00     0.007 C 
ATOM     27  C   UNL     1      -7.476  -6.039   8.820  1.00  0.00     0.007 C 
ENDBRANCH  24  25
ENDBRANCH  18  24
ENDBRANCH  15  18
ENDBRANCH  13  14
BRANCH  13  28
ATOM     28  C   UNL     1     -11.301  -4.619   2.643  1.00  0.00     0.327 C 
ATOM     29  O   UNL     1     -12.087  -3.919   3.262  1.00  0.00    -0.250 OA
BRANCH  28  30
ATOM     30  O   UNL     1     -11.713  -5.323   1.570  1.00  0.00    -0.480 OA
ATOM     31  H   UNL     1     -12.092  -6.143   1.950  1.00  0.00     0.296 HD
ENDBRANCH  28  30
ENDBRANCH  13  28
ENDBRANCH  11  13
ENDBRANCH   8  11
ENDBRANCH   6   7
BRANCH   6  32
ATOM     32  C   UNL     1      -8.284  -1.186  -1.512  1.00  0.00     0.037 C 
BRANCH  32  33
ATOM     33  C   UNL     1      -9.473  -0.476  -0.850  1.00  0.00     0.026 C 
BRANCH  33  34
ATOM     34  C   UNL     1     -10.820  -0.991  -1.359  1.00  0.00     0.146 C 
BRANCH  34  35
ATOM     35  N   UNL     1     -11.446  -1.785  -0.312  1.00  0.00    -0.254 NA
ATOM     36  C   UNL     1     -12.702  -2.023  -0.389  1.00  0.00     0.185 C 
ATOM     37  N   UNL     1     -13.289  -2.759   0.568  1.00  0.00    -0.370 N 
ATOM     38  N   UNL     1     -13.580  -1.633  -1.331  1.00  0.00    -0.370 N 
ATOM     39  H   UNL     1     -12.690  -3.099   1.310  1.00  0.00     0.159 HD
ATOM     40  H   UNL     1     -14.219  -3.132   0.491  1.00  0.00     0.159 HD
ATOM     41  H   UNL     1     -14.570  -1.767  -1.207  1.00  0.00     0.159 HD
ATOM     42  H   UNL     1     -13.281  -1.060  -2.104  1.00  0.00     0.159 HD
ENDBRANCH  34  35
ENDBRANCH  33  34
ENDBRANCH  32  33
ENDBRANCH   6  32
ENDBRANCH   4   6
ENDBRANCH   1   2
BRANCH   1  43
ATOM     43  C   UNL     1      -5.661  -5.646  -3.551  1.00  0.00     0.102 C 
ATOM     44  C   UNL     1      -4.343  -5.943  -4.285  1.00  0.00     0.020 C 
BRANCH  43  45
ATOM     45  C   UNL     1      -6.576  -4.663  -4.288  1.00  0.00     0.225 C 
ATOM     46  O   UNL     1      -7.797  -4.784  -4.329  1.00  0.00    -0.275 OA
ATOM     47  N   UNL     1      -5.933  -3.672  -4.993  1.00  0.00    -0.342 N 
ATOM     48  H   UNL     1      -4.952  -3.496  -4.828  1.00  0.00     0.164 HD
BRANCH  47  49
ATOM     49  C   UNL     1      -6.681  -2.639  -5.718  1.00  0.00     0.192 C 
BRANCH  49  50
ATOM     50  C   UNL     1      -6.619  -2.919  -7.222  1.00  0.00     0.047 C 
BRANCH  50  51
ATOM     51  C   UNL     1      -5.482  -3.883  -7.588  1.00  0.00     0.103 C 
BRANCH  51  52
ATOM     52  C   UNL     1      -6.009  -5.220  -8.106  1.00  0.00     0.226 C 
ATOM     53  O   UNL     1      -6.375  -6.083  -7.306  1.00  0.00    -0.275 OA
BRANCH  52  54
ATOM     54  N   UNL     1      -6.114  -5.353  -9.503  1.00  0.00    -0.311 N 
ATOM     55  C   UNL     1      -6.858  -6.469 -10.103  1.00  0.00     0.153 C 
BRANCH  54  56
ATOM     56  C   UNL     1      -5.519  -4.425 -10.374  1.00  0.00     0.102 C 
ATOM     57  C   UNL     1      -4.251  -4.487 -10.812  1.00  0.00     0.043 C 
BRANCH  56  58
ATOM     58  C   UNL     1      -6.313  -3.270 -10.936  1.00  0.00     0.268 C 
ATOM     59  O   UNL     1      -7.485  -3.061 -10.651  1.00  0.00    -0.268 OA
ATOM     60  N   UNL     1      -5.568  -2.444 -11.744  1.00  0.00    -0.339 N 
ATOM     61  H   UNL     1      -4.606  -2.693 -11.939  1.00  0.00     0.164 HD
BRANCH  60  62
ATOM     62  C   UNL     1      -6.124  -1.232 -12.343  1.00  0.00     0.168 CG0
ATOM     63  C   UNL     1      -5.344  -0.830 -13.589  1.00  0.00     0.041 C 
ATOM     64  G   UNL     1      -6.116  -0.092 -11.303  1.00  0.00     0.000 G0
ENDBRANCH  60  62
ENDBRANCH  56  58
ENDBRANCH  54  56
ENDBRANCH  52  54
ENDBRANCH  51  52
ENDBRANCH  50  51
ENDBRANCH  49  50
BRANCH  49  65
ATOM     65  C   UNL     1      -6.125  -1.235  -5.438  1.00  0.00     0.326 C 
ATOM     66  O   UNL     1      -5.820  -0.409  -6.286  1.00  0.00    -0.250 OA
BRANCH  65  67
ATOM     67  O   UNL     1      -5.922  -0.959  -4.131  1.00  0.00    -0.480 OA
ATOM     68  H   UNL     1      -6.751  -0.508  -3.858  1.00  0.00     0.296 HD
ENDBRANCH  65  67
ENDBRANCH  49  65
ENDBRANCH  47  49
ENDBRANCH  43  45
ENDBRANCH   1  43
BRANCH   1  69
ATOM     69  C   UNL     1      -5.191  -6.287  -1.026  1.00  0.00    -0.001 C 
ATOM     70  C   UNL     1      -6.064  -7.182  -0.528  1.00  0.00     0.001 C 
BRANCH  70  71
ATOM     71  C   UNL     1      -5.786  -8.224   0.462  1.00  0.00    -0.055 C 
ATOM     72  C   UNL     1      -6.117  -7.973   1.747  1.00  0.00    -0.018 C 
ATOM     73  C   UNL     1      -5.158  -9.504  -0.023  1.00  0.00     0.044 C 
BRANCH  72  74
ATOM     74  C   UNL     1      -5.952  -8.858   2.974  1.00  0.00     0.038 C 
ATOM     75  C   UNL     1      -7.249  -8.753   3.785  1.00  0.00     0.015 C 
BRANCH  74  76
ATOM     76  C   UNL     1      -4.667  -8.421   3.738  1.00  0.00     0.128 C 
BRANCH  76  77
ATOM     77  O   UNL     1      -3.605  -9.356   3.487  1.00  0.00    -0.381 OA
ATOM     78  C   UNL     1      -2.570  -8.837   2.662  1.00  0.00     0.195 C 
ENDBRANCH  76  77
BRANCH  76  79
ATOM     79  C   UNL     1      -4.248  -6.952   3.475  1.00  0.00     0.068 C 
BRANCH  79  80
ATOM     80  C   UNL     1      -4.689  -5.903   4.466  1.00  0.00    -0.045 A 
ATOM     81  C   UNL     1      -3.938  -5.637   5.619  1.00  0.00     0.004 A 
ATOM     82  C   UNL     1      -5.881  -5.192   4.260  1.00  0.00     0.004 A 
ATOM     83  C   UNL     1      -4.360  -4.675   6.538  1.00  0.00     0.000 A 
ATOM     84  C   UNL     1      -6.303  -4.230   5.180  1.00  0.00     0.000 A 
ATOM     85  C   UNL     1      -5.542  -3.970   6.318  1.00  0.00     0.000 A 
ENDBRANCH  79  80
ENDBRANCH  76  79
ENDBRANCH  74  76
ENDBRANCH  72  74
ENDBRANCH  70  71
ENDBRANCH   1  69
TORSDOF 17
ENDMDL
MODEL 14
REMARK VINA RESULT:    -6.789      5.110     13.567
REMARK INTER + INTRA:         -26.776
REMARK INTER:                 -18.663
REMARK INTRA:                  -8.112
REMARK UNBOUND:                -6.494
REMARK SMILES C=C1C(=O)N[C@H](C)C(=O)N[C@@H](CC(C)C)C(=O)N[C@@H](C(=O)O)[C@H](C)C(=O)N[C@@H](CCCN=C(N)N)C(=O)N[C@@H](/C=C/C(C)=C/[C@H](C)[C@H](Cc2ccccc2)OC)[C@H](C)C(=O)N[C@@H](C(=O)O)CCC(=O)N1C
REMARK SMILES IDX 39 1 38 2 37 3 36 4 28 6 27 7 25 8 26 9 23 11 24 12 19 13
REMARK SMILES IDX 18 14 16 15 17 16 11 18 10 19 8 20 9 21 12 24 13 25 14 26
REMARK SMILES IDX 15 27 20 28 21 29 22 30 29 32 30 33 31 34 32 35 33 36 34 37
REMARK SMILES IDX 35 38 57 43 58 44 59 45 60 46 61 47 62 49 66 50 67 51 68 52
REMARK SMILES IDX 69 53 70 54 71 55 2 56 1 57 3 58 4 59 5 60 6 62 7 63 63 65
REMARK SMILES IDX 64 66 65 67 40 69 41 70 42 71 44 72 43 73 45 74 46 75 47 76
REMARK SMILES IDX 55 77 56 78 48 79 49 80 50 81 54 82 51 83 53 84 52 85
REMARK H PARENT 38 5 27 10 18 17 10 22 22 31 34 39 34 40 35 41 35 42 61 48
REMARK H PARENT 5 61 65 68
REMARK Flexibility Score:  369.900
ROOT
ATOM      1  C   UNL     1      -6.655  -2.982  -5.862  1.00  0.00     0.117 C 
ENDROOT
BRANCH   1   2
ATOM      2  N   UNL     1      -5.746  -3.610  -4.902  1.00  0.00    -0.347 N 
ATOM      3  O   UNL     1      -6.548  -5.754  -5.068  1.00  0.00    -0.273 OA
ATOM      4  C   UNL     1      -5.705  -4.967  -4.650  1.00  0.00     0.243 C 
ATOM      5  H   UNL     1      -5.065  -3.041  -4.421  1.00  0.00     0.164 HD
BRANCH   4   6
ATOM      6  C   UNL     1      -4.592  -5.383  -3.654  1.00  0.00     0.171 C 
BRANCH   6   7
ATOM      7  N   UNL     1      -5.062  -6.471  -2.783  1.00  0.00    -0.344 N 
ATOM      8  C   UNL     1      -5.229  -6.266  -1.430  1.00  0.00     0.226 C 
ATOM      9  O   UNL     1      -4.979  -5.195  -0.889  1.00  0.00    -0.275 OA
ATOM     10  H   UNL     1      -5.214  -7.389  -3.182  1.00  0.00     0.164 HD
BRANCH   8  11
ATOM     11  C   UNL     1      -5.771  -7.468  -0.677  1.00  0.00     0.109 C 
ATOM     12  C   UNL     1      -4.989  -7.673   0.620  1.00  0.00     0.021 C 
BRANCH  11  13
ATOM     13  C   UNL     1      -7.296  -7.328  -0.499  1.00  0.00     0.204 C 
BRANCH  13  14
ATOM     14  N   UNL     1      -7.661  -6.073   0.166  1.00  0.00    -0.340 N 
ATOM     15  C   UNL     1      -8.205  -6.027   1.431  1.00  0.00     0.243 C 
ATOM     16  O   UNL     1      -8.367  -7.035   2.117  1.00  0.00    -0.273 OA
ATOM     17  H   UNL     1      -7.694  -5.221  -0.400  1.00  0.00     0.164 HD
BRANCH  15  18
ATOM     18  C   UNL     1      -8.700  -4.619   1.841  1.00  0.00     0.171 C 
BRANCH  18  19
ATOM     19  N   UNL     1      -8.754  -4.603   3.302  1.00  0.00    -0.343 N 
ATOM     20  C   UNL     1      -9.886  -4.201   3.985  1.00  0.00     0.242 CG0
ATOM     21  O   UNL     1     -10.851  -3.713   3.400  1.00  0.00    -0.273 OA
ATOM     22  H   UNL     1      -7.939  -4.888   3.833  1.00  0.00     0.164 HD
ATOM     23  G   UNL     1      -9.782  -4.327   5.519  1.00  0.00     0.000 G0
ENDBRANCH  18  19
BRANCH  18  24
ATOM     24  C   UNL     1      -7.758  -3.535   1.302  1.00  0.00     0.038 C 
BRANCH  24  25
ATOM     25  C   UNL     1      -8.370  -2.637   0.206  1.00  0.00    -0.015 C 
ATOM     26  C   UNL     1      -9.808  -3.026  -0.134  1.00  0.00     0.007 C 
ATOM     27  C   UNL     1      -7.506  -2.704  -1.056  1.00  0.00     0.007 C 
ENDBRANCH  24  25
ENDBRANCH  18  24
ENDBRANCH  15  18
ENDBRANCH  13  14
BRANCH  13  28
ATOM     28  C   UNL     1      -8.066  -7.380  -1.823  1.00  0.00     0.327 C 
ATOM     29  O   UNL     1      -8.479  -8.386  -2.379  1.00  0.00    -0.250 OA
BRANCH  28  30
ATOM     30  O   UNL     1      -8.164  -6.177  -2.425  1.00  0.00    -0.480 OA
ATOM     31  H   UNL     1      -8.945  -5.760  -2.004  1.00  0.00     0.296 HD
ENDBRANCH  28  30
ENDBRANCH  13  28
ENDBRANCH  11  13
ENDBRANCH   8  11
ENDBRANCH   6   7
BRANCH   6  32
ATOM     32  C   UNL     1      -3.347  -5.810  -4.441  1.00  0.00     0.037 C 
BRANCH  32  33
ATOM     33  C   UNL     1      -2.952  -7.265  -4.154  1.00  0.00     0.026 C 
BRANCH  33  34
ATOM     34  C   UNL     1      -2.664  -8.056  -5.430  1.00  0.00     0.146 C 
BRANCH  34  35
ATOM     35  N   UNL     1      -1.662  -7.341  -6.210  1.00  0.00    -0.254 NA
ATOM     36  C   UNL     1      -0.798  -8.020  -6.868  1.00  0.00     0.185 C 
ATOM     37  N   UNL     1       0.127  -7.372  -7.594  1.00  0.00    -0.370 N 
ATOM     38  N   UNL     1      -0.660  -9.354  -6.956  1.00  0.00    -0.370 N 
ATOM     39  H   UNL     1       0.082  -6.360  -7.587  1.00  0.00     0.159 HD
ATOM     40  H   UNL     1       0.722  -7.823  -8.267  1.00  0.00     0.159 HD
ATOM     41  H   UNL     1       0.147  -9.767  -7.395  1.00  0.00     0.159 HD
ATOM     42  H   UNL     1      -1.277  -9.968  -6.448  1.00  0.00     0.159 HD
ENDBRANCH  34  35
ENDBRANCH  33  34
ENDBRANCH  32  33
ENDBRANCH   6  32
ENDBRANCH   4   6
ENDBRANCH   1   2
BRANCH   1  43
ATOM     43  C   UNL     1      -5.881  -2.735  -7.189  1.00  0.00     0.102 C 
ATOM     44  C   UNL     1      -6.041  -3.873  -8.211  1.00  0.00     0.020 C 
BRANCH  43  45
ATOM     45  C   UNL     1      -4.425  -2.347  -6.913  1.00  0.00     0.225 C 
ATOM     46  O   UNL     1      -4.105  -1.458  -6.129  1.00  0.00    -0.275 OA
ATOM     47  N   UNL     1      -3.484  -3.000  -7.676  1.00  0.00    -0.342 N 
ATOM     48  H   UNL     1      -3.747  -3.824  -8.198  1.00  0.00     0.164 HD
BRANCH  47  49
ATOM     49  C   UNL     1      -2.050  -2.756  -7.496  1.00  0.00     0.192 C 
BRANCH  49  50
ATOM     50  C   UNL     1      -1.572  -1.717  -8.513  1.00  0.00     0.047 C 
BRANCH  50  51
ATOM     51  C   UNL     1      -0.262  -1.042  -8.085  1.00  0.00     0.103 C 
BRANCH  51  52
ATOM     52  C   UNL     1       0.294  -0.126  -9.174  1.00  0.00     0.226 C 
ATOM     53  O   UNL     1      -0.134  -0.219 -10.326  1.00  0.00    -0.275 OA
BRANCH  52  54
ATOM     54  N   UNL     1       1.230   0.841  -8.762  1.00  0.00    -0.311 N 
ATOM     55  C   UNL     1       2.539   0.446  -8.226  1.00  0.00     0.153 C 
BRANCH  54  56
ATOM     56  C   UNL     1       0.951   2.215  -8.852  1.00  0.00     0.102 C 
ATOM     57  C   UNL     1       0.164   2.897  -8.004  1.00  0.00     0.043 C 
BRANCH  56  58
ATOM     58  C   UNL     1       1.582   3.064  -9.931  1.00  0.00     0.268 C 
ATOM     59  O   UNL     1       2.128   4.136  -9.705  1.00  0.00    -0.268 OA
ATOM     60  N   UNL     1       1.537   2.479 -11.174  1.00  0.00    -0.339 N 
ATOM     61  H   UNL     1       1.057   1.594 -11.279  1.00  0.00     0.164 HD
BRANCH  60  62
ATOM     62  C   UNL     1       2.145   3.101 -12.349  1.00  0.00     0.168 CG0
ATOM     63  C   UNL     1       1.177   4.070 -13.017  1.00  0.00     0.041 C 
ATOM     64  G   UNL     1       2.592   2.007 -13.340  1.00  0.00     0.000 G0
ENDBRANCH  60  62
ENDBRANCH  56  58
ENDBRANCH  54  56
ENDBRANCH  52  54
ENDBRANCH  51  52
ENDBRANCH  50  51
ENDBRANCH  49  50
BRANCH  49  65
ATOM     65  C   UNL     1      -1.230  -4.046  -7.663  1.00  0.00     0.326 C 
ATOM     66  O   UNL     1      -0.943  -4.571  -8.728  1.00  0.00    -0.250 OA
BRANCH  65  67
ATOM     67  O   UNL     1      -0.869  -4.639  -6.504  1.00  0.00    -0.480 OA
ATOM     68  H   UNL     1      -1.723  -4.927  -6.115  1.00  0.00     0.296 HD
ENDBRANCH  65  67
ENDBRANCH  49  65
ENDBRANCH  47  49
ENDBRANCH  43  45
ENDBRANCH   1  43
BRANCH   1  69
ATOM     69  C   UNL     1      -7.277  -1.798  -5.144  1.00  0.00    -0.001 C 
ATOM     70  C   UNL     1      -8.586  -1.523  -5.004  1.00  0.00     0.001 C 
BRANCH  70  71
ATOM     71  C   UNL     1      -9.175  -0.388  -4.290  1.00  0.00    -0.055 C 
ATOM     72  C   UNL     1      -9.154   0.816  -4.900  1.00  0.00    -0.018 C 
ATOM     73  C   UNL     1      -9.769  -0.645  -2.930  1.00  0.00     0.044 C 
BRANCH  72  74
ATOM     74  C   UNL     1      -9.687   2.154  -4.409  1.00  0.00     0.038 C 
ATOM     75  C   UNL     1     -10.829   2.560  -5.349  1.00  0.00     0.015 C 
BRANCH  74  76
ATOM     76  C   UNL     1      -8.507   3.168  -4.339  1.00  0.00     0.128 C 
BRANCH  76  77
ATOM     77  O   UNL     1      -8.648   4.157  -5.373  1.00  0.00    -0.381 OA
ATOM     78  C   UNL     1      -7.440   4.431  -6.070  1.00  0.00     0.195 C 
ENDBRANCH  76  77
BRANCH  76  79
ATOM     79  C   UNL     1      -8.295   3.792  -2.937  1.00  0.00     0.068 C 
BRANCH  79  80
ATOM     80  C   UNL     1      -8.309   2.869  -1.743  1.00  0.00    -0.045 A 
ATOM     81  C   UNL     1      -7.353   1.854  -1.603  1.00  0.00     0.004 A 
ATOM     82  C   UNL     1      -9.304   2.996  -0.762  1.00  0.00     0.004 A 
ATOM     83  C   UNL     1      -7.381   0.995  -0.502  1.00  0.00     0.000 A 
ATOM     84  C   UNL     1      -9.332   2.136   0.338  1.00  0.00     0.000 A 
ATOM     85  C   UNL     1      -8.370   1.138   0.469  1.00  0.00     0.000 A 
ENDBRANCH  79  80
ENDBRANCH  76  79
ENDBRANCH  74  76
ENDBRANCH  72  74
ENDBRANCH  70  71
ENDBRANCH   1  69
TORSDOF 17
ENDMDL
MODEL 15
REMARK VINA RESULT:    -6.776      3.375      6.177
REMARK INTER + INTRA:         -26.737
REMARK INTER:                 -19.471
REMARK INTRA:                  -7.266
REMARK UNBOUND:                -6.494
REMARK SMILES C=C1C(=O)N[C@H](C)C(=O)N[C@@H](CC(C)C)C(=O)N[C@@H](C(=O)O)[C@H](C)C(=O)N[C@@H](CCCN=C(N)N)C(=O)N[C@@H](/C=C/C(C)=C/[C@H](C)[C@H](Cc2ccccc2)OC)[C@H](C)C(=O)N[C@@H](C(=O)O)CCC(=O)N1C
REMARK SMILES IDX 39 1 38 2 37 3 36 4 28 6 27 7 25 8 26 9 23 11 24 12 19 13
REMARK SMILES IDX 18 14 16 15 17 16 11 18 10 19 8 20 9 21 12 24 13 25 14 26
REMARK SMILES IDX 15 27 20 28 21 29 22 30 29 32 30 33 31 34 32 35 33 36 34 37
REMARK SMILES IDX 35 38 57 43 58 44 59 45 60 46 61 47 62 49 66 50 67 51 68 52
REMARK SMILES IDX 69 53 70 54 71 55 2 56 1 57 3 58 4 59 5 60 6 62 7 63 63 65
REMARK SMILES IDX 64 66 65 67 40 69 41 70 42 71 44 72 43 73 45 74 46 75 47 76
REMARK SMILES IDX 55 77 56 78 48 79 49 80 50 81 54 82 51 83 53 84 52 85
REMARK H PARENT 38 5 27 10 18 17 10 22 22 31 34 39 34 40 35 41 35 42 61 48
REMARK H PARENT 5 61 65 68
REMARK Flexibility Score:  369.900
ROOT
ATOM      1  C   UNL     1      -6.211  -5.607  -2.401  1.00  0.00     0.117 C 
ENDROOT
BRANCH   1   2
ATOM      2  N   UNL     1      -6.287  -4.305  -3.064  1.00  0.00    -0.347 N 
ATOM      3  O   UNL     1      -8.201  -4.681  -4.274  1.00  0.00    -0.273 OA
ATOM      4  C   UNL     1      -7.330  -3.912  -3.881  1.00  0.00     0.243 C 
ATOM      5  H   UNL     1      -5.569  -3.618  -2.890  1.00  0.00     0.164 HD
BRANCH   4   6
ATOM      6  C   UNL     1      -7.210  -2.453  -4.388  1.00  0.00     0.171 C 
BRANCH   6   7
ATOM      7  N   UNL     1      -6.786  -2.431  -5.797  1.00  0.00    -0.344 N 
ATOM      8  C   UNL     1      -5.588  -2.996  -6.179  1.00  0.00     0.226 C 
ATOM      9  O   UNL     1      -4.819  -3.516  -5.379  1.00  0.00    -0.275 OA
ATOM     10  H   UNL     1      -7.363  -1.952  -6.476  1.00  0.00     0.164 HD
BRANCH   8  11
ATOM     11  C   UNL     1      -5.319  -2.942  -7.672  1.00  0.00     0.109 C 
ATOM     12  C   UNL     1      -6.629  -3.082  -8.448  1.00  0.00     0.021 C 
BRANCH  11  13
ATOM     13  C   UNL     1      -4.499  -1.681  -8.009  1.00  0.00     0.204 C 
BRANCH  13  14
ATOM     14  N   UNL     1      -5.051  -0.953  -9.156  1.00  0.00    -0.340 N 
ATOM     15  C   UNL     1      -4.262  -0.286 -10.069  1.00  0.00     0.243 C 
ATOM     16  O   UNL     1      -3.034  -0.306 -10.019  1.00  0.00    -0.273 OA
ATOM     17  H   UNL     1      -6.058  -0.771  -9.169  1.00  0.00     0.164 HD
BRANCH  15  18
ATOM     18  C   UNL     1      -5.070   0.579 -11.067  1.00  0.00     0.171 C 
BRANCH  18  19
ATOM     19  N   UNL     1      -4.962   1.961 -10.606  1.00  0.00    -0.343 N 
ATOM     20  C   UNL     1      -5.696   2.431  -9.534  1.00  0.00     0.242 CG0
ATOM     21  O   UNL     1      -6.570   1.749  -9.005  1.00  0.00    -0.273 OA
ATOM     22  H   UNL     1      -4.336   2.599 -11.086  1.00  0.00     0.164 HD
ATOM     23  G   UNL     1      -5.390   3.892  -9.145  1.00  0.00     0.000 G0
ENDBRANCH  18  19
BRANCH  18  24
ATOM     24  C   UNL     1      -4.521   0.417 -12.490  1.00  0.00     0.038 C 
BRANCH  24  25
ATOM     25  C   UNL     1      -4.875  -0.924 -13.168  1.00  0.00    -0.015 C 
ATOM     26  C   UNL     1      -4.619  -0.903 -14.676  1.00  0.00     0.007 C 
ATOM     27  C   UNL     1      -6.342  -1.266 -12.900  1.00  0.00     0.007 C 
ENDBRANCH  24  25
ENDBRANCH  18  24
ENDBRANCH  15  18
ENDBRANCH  13  14
BRANCH  13  28
ATOM     28  C   UNL     1      -4.409  -0.691  -6.843  1.00  0.00     0.327 C 
ATOM     29  O   UNL     1      -3.508  -0.622  -6.021  1.00  0.00    -0.250 OA
BRANCH  28  30
ATOM     30  O   UNL     1      -5.512   0.073  -6.713  1.00  0.00    -0.480 OA
ATOM     31  H   UNL     1      -6.207  -0.423  -7.192  1.00  0.00     0.296 HD
ENDBRANCH  28  30
ENDBRANCH  13  28
ENDBRANCH  11  13
ENDBRANCH   8  11
ENDBRANCH   6   7
BRANCH   6  32
ATOM     32  C   UNL     1      -8.558  -1.746  -4.211  1.00  0.00     0.037 C 
BRANCH  32  33
ATOM     33  C   UNL     1      -8.472  -0.246  -4.526  1.00  0.00     0.026 C 
BRANCH  33  34
ATOM     34  C   UNL     1      -8.470   0.618  -3.264  1.00  0.00     0.146 C 
BRANCH  34  35
ATOM     35  N   UNL     1      -7.101   0.742  -2.782  1.00  0.00    -0.254 NA
ATOM     36  C   UNL     1      -6.773   0.138  -1.701  1.00  0.00     0.185 C 
ATOM     37  N   UNL     1      -5.513   0.242  -1.251  1.00  0.00    -0.370 N 
ATOM     38  N   UNL     1      -7.531  -0.630  -0.899  1.00  0.00    -0.370 N 
ATOM     39  H   UNL     1      -4.876   0.797  -1.808  1.00  0.00     0.159 HD
ATOM     40  H   UNL     1      -5.135  -0.334  -0.519  1.00  0.00     0.159 HD
ATOM     41  H   UNL     1      -7.194  -0.936  -0.001  1.00  0.00     0.159 HD
ATOM     42  H   UNL     1      -8.506  -0.782  -1.107  1.00  0.00     0.159 HD
ENDBRANCH  34  35
ENDBRANCH  33  34
ENDBRANCH  32  33
ENDBRANCH   6  32
ENDBRANCH   4   6
ENDBRANCH   1   2
BRANCH   1  43
ATOM     43  C   UNL     1      -5.834  -5.381  -0.908  1.00  0.00     0.102 C 
ATOM     44  C   UNL     1      -5.788  -6.679  -0.085  1.00  0.00     0.020 C 
BRANCH  43  45
ATOM     45  C   UNL     1      -6.696  -4.279  -0.284  1.00  0.00     0.225 C 
ATOM     46  O   UNL     1      -6.304  -3.125  -0.134  1.00  0.00    -0.275 OA
ATOM     47  N   UNL     1      -7.921  -4.685   0.193  1.00  0.00    -0.342 N 
ATOM     48  H   UNL     1      -8.286  -5.589  -0.071  1.00  0.00     0.164 HD
BRANCH  47  49
ATOM     49  C   UNL     1      -8.867  -3.733   0.784  1.00  0.00     0.192 C 
BRANCH  49  50
ATOM     50  C   UNL     1      -9.337  -4.252   2.145  1.00  0.00     0.047 C 
BRANCH  50  51
ATOM     51  C   UNL     1      -8.834  -5.674   2.431  1.00  0.00     0.103 C 
BRANCH  51  52
ATOM     52  C   UNL     1      -7.654  -5.682   3.400  1.00  0.00     0.226 C 
ATOM     53  O   UNL     1      -6.605  -5.115   3.089  1.00  0.00    -0.275 OA
BRANCH  52  54
ATOM     54  N   UNL     1      -7.874  -6.289   4.651  1.00  0.00    -0.311 N 
ATOM     55  C   UNL     1      -8.025  -5.480   5.868  1.00  0.00     0.153 C 
BRANCH  54  56
ATOM     56  C   UNL     1      -7.964  -7.685   4.782  1.00  0.00     0.102 C 
ATOM     57  C   UNL     1      -7.005  -8.553   4.421  1.00  0.00     0.043 C 
BRANCH  56  58
ATOM     58  C   UNL     1      -9.180  -8.328   5.406  1.00  0.00     0.268 C 
ATOM     59  O   UNL     1     -10.228  -8.507   4.800  1.00  0.00    -0.268 OA
ATOM     60  N   UNL     1      -8.965  -8.749   6.697  1.00  0.00    -0.339 N 
ATOM     61  H   UNL     1      -8.072  -8.554   7.131  1.00  0.00     0.164 HD
BRANCH  60  62
ATOM     62  C   UNL     1      -9.990  -9.454   7.466  1.00  0.00     0.168 CG0
ATOM     63  C   UNL     1     -10.242  -8.764   8.801  1.00  0.00     0.041 C 
ATOM     64  G   UNL     1      -9.558 -10.919   7.682  1.00  0.00     0.000 G0
ENDBRANCH  60  62
ENDBRANCH  56  58
ENDBRANCH  54  56
ENDBRANCH  52  54
ENDBRANCH  51  52
ENDBRANCH  50  51
ENDBRANCH  49  50
BRANCH  49  65
ATOM     65  C   UNL     1     -10.086  -3.508  -0.123  1.00  0.00     0.326 C 
ATOM     66  O   UNL     1     -11.212  -3.940   0.078  1.00  0.00    -0.250 OA
BRANCH  65  67
ATOM     67  O   UNL     1      -9.827  -2.814  -1.254  1.00  0.00    -0.480 OA
ATOM     68  H   UNL     1     -10.677  -2.362  -1.447  1.00  0.00     0.296 HD
ENDBRANCH  65  67
ENDBRANCH  49  65
ENDBRANCH  47  49
ENDBRANCH  43  45
ENDBRANCH   1  43
BRANCH   1  69
ATOM     69  C   UNL     1      -5.309  -6.470  -3.263  1.00  0.00    -0.001 C 
ATOM     70  C   UNL     1      -4.001  -6.286  -3.515  1.00  0.00     0.001 C 
BRANCH  70  71
ATOM     71  C   UNL     1      -3.134  -7.138  -4.332  1.00  0.00    -0.055 C 
ATOM     72  C   UNL     1      -2.737  -6.663  -5.531  1.00  0.00    -0.018 C 
ATOM     73  C   UNL     1      -2.741  -8.481  -3.774  1.00  0.00     0.044 C 
BRANCH  72  74
ATOM     74  C   UNL     1      -1.845  -7.316  -6.578  1.00  0.00     0.038 C 
ATOM     75  C   UNL     1      -0.790  -6.279  -6.984  1.00  0.00     0.015 C 
BRANCH  74  76
ATOM     76  C   UNL     1      -2.738  -7.830  -7.746  1.00  0.00     0.128 C 
BRANCH  76  77
ATOM     77  O   UNL     1      -2.492  -9.229  -7.972  1.00  0.00    -0.381 OA
ATOM     78  C   UNL     1      -2.795 -10.050  -6.852  1.00  0.00     0.195 C 
ENDBRANCH  76  77
BRANCH  76  79
ATOM     79  C   UNL     1      -4.244  -7.506  -7.577  1.00  0.00     0.068 C 
BRANCH  79  80
ATOM     80  C   UNL     1      -4.978  -6.923  -8.760  1.00  0.00    -0.045 A 
ATOM     81  C   UNL     1      -6.230  -7.418  -9.148  1.00  0.00     0.004 A 
ATOM     82  C   UNL     1      -4.401  -5.887  -9.510  1.00  0.00     0.004 A 
ATOM     83  C   UNL     1      -6.896  -6.882 -10.253  1.00  0.00     0.000 A 
ATOM     84  C   UNL     1      -5.068  -5.353 -10.615  1.00  0.00     0.000 A 
ATOM     85  C   UNL     1      -6.316  -5.849 -10.985  1.00  0.00     0.000 A 
ENDBRANCH  79  80
ENDBRANCH  76  79
ENDBRANCH  74  76
ENDBRANCH  72  74
ENDBRANCH  70  71
ENDBRANCH   1  69
TORSDOF 17
ENDMDL
MODEL 16
REMARK VINA RESULT:    -6.762      4.142     11.277
REMARK INTER + INTRA:         -26.697
REMARK INTER:                 -19.711
REMARK INTRA:                  -6.986
REMARK UNBOUND:                -6.494
REMARK SMILES C=C1C(=O)N[C@H](C)C(=O)N[C@@H](CC(C)C)C(=O)N[C@@H](C(=O)O)[C@H](C)C(=O)N[C@@H](CCCN=C(N)N)C(=O)N[C@@H](/C=C/C(C)=C/[C@H](C)[C@H](Cc2ccccc2)OC)[C@H](C)C(=O)N[C@@H](C(=O)O)CCC(=O)N1C
REMARK SMILES IDX 39 1 38 2 37 3 36 4 28 6 27 7 25 8 26 9 23 11 24 12 19 13
REMARK SMILES IDX 18 14 16 15 17 16 11 18 10 19 8 20 9 21 12 24 13 25 14 26
REMARK SMILES IDX 15 27 20 28 21 29 22 30 29 32 30 33 31 34 32 35 33 36 34 37
REMARK SMILES IDX 35 38 57 43 58 44 59 45 60 46 61 47 62 49 66 50 67 51 68 52
REMARK SMILES IDX 69 53 70 54 71 55 2 56 1 57 3 58 4 59 5 60 6 62 7 63 63 65
REMARK SMILES IDX 64 66 65 67 40 69 41 70 42 71 44 72 43 73 45 74 46 75 47 76
REMARK SMILES IDX 55 77 56 78 48 79 49 80 50 81 54 82 51 83 53 84 52 85
REMARK H PARENT 38 5 27 10 18 17 10 22 22 31 34 39 34 40 35 41 35 42 61 48
REMARK H PARENT 5 61 65 68
REMARK Flexibility Score:  369.900
ROOT
ATOM      1  C   UNL     1      -7.676  -5.402  -0.127  1.00  0.00     0.117 C 
ENDROOT
BRANCH   1   2
ATOM      2  N   UNL     1      -8.655  -4.319  -0.225  1.00  0.00    -0.347 N 
ATOM      3  O   UNL     1      -7.407  -2.677   0.783  1.00  0.00    -0.273 OA
ATOM      4  C   UNL     1      -8.406  -3.015   0.157  1.00  0.00     0.243 C 
ATOM      5  H   UNL     1      -9.556  -4.503  -0.639  1.00  0.00     0.164 HD
BRANCH   4   6
ATOM      6  C   UNL     1      -9.581  -2.046  -0.132  1.00  0.00     0.171 C 
BRANCH   6   7
ATOM      7  N   UNL     1      -9.207  -0.666   0.217  1.00  0.00    -0.344 N 
ATOM      8  C   UNL     1      -9.216  -0.246   1.529  1.00  0.00     0.226 C 
ATOM      9  O   UNL     1      -9.551  -0.976   2.454  1.00  0.00    -0.275 OA
ATOM     10  H   UNL     1      -8.990  -0.014  -0.527  1.00  0.00     0.164 HD
BRANCH   8  11
ATOM     11  C   UNL     1      -8.754   1.187   1.730  1.00  0.00     0.109 C 
ATOM     12  C   UNL     1      -8.327   1.794   0.394  1.00  0.00     0.021 C 
BRANCH  11  13
ATOM     13  C   UNL     1      -9.835   1.982   2.489  1.00  0.00     0.204 C 
BRANCH  13  14
ATOM     14  N   UNL     1     -11.146   1.330   2.425  1.00  0.00    -0.340 N 
ATOM     15  C   UNL     1     -12.242   1.909   1.823  1.00  0.00     0.243 C 
ATOM     16  O   UNL     1     -12.181   2.992   1.242  1.00  0.00    -0.273 OA
ATOM     17  H   UNL     1     -11.302   0.508   3.014  1.00  0.00     0.164 HD
BRANCH  15  18
ATOM     18  C   UNL     1     -13.561   1.134   2.061  1.00  0.00     0.171 C 
BRANCH  18  19
ATOM     19  N   UNL     1     -14.427   2.011   2.846  1.00  0.00    -0.343 N 
ATOM     20  C   UNL     1     -14.877   1.655   4.103  1.00  0.00     0.242 CG0
ATOM     21  O   UNL     1     -14.680   0.533   4.564  1.00  0.00    -0.273 OA
ATOM     22  H   UNL     1     -14.713   2.903   2.459  1.00  0.00     0.164 HD
ATOM     23  G   UNL     1     -15.714   2.741   4.810  1.00  0.00     0.000 G0
ENDBRANCH  18  19
BRANCH  18  24
ATOM     24  C   UNL     1     -14.211   0.750   0.726  1.00  0.00     0.038 C 
BRANCH  24  25
ATOM     25  C   UNL     1     -14.590  -0.741   0.599  1.00  0.00    -0.015 C 
ATOM     26  C   UNL     1     -15.848  -1.095   1.392  1.00  0.00     0.007 C 
ATOM     27  C   UNL     1     -13.422  -1.611   1.071  1.00  0.00     0.007 C 
ENDBRANCH  24  25
ENDBRANCH  18  24
ENDBRANCH  15  18
ENDBRANCH  13  14
BRANCH  13  28
ATOM     28  C   UNL     1      -9.503   2.191   3.969  1.00  0.00     0.327 C 
ATOM     29  O   UNL     1     -10.092   2.928   4.745  1.00  0.00    -0.250 OA
BRANCH  28  30
ATOM     30  O   UNL     1      -8.379   1.553   4.354  1.00  0.00    -0.480 OA
ATOM     31  H   UNL     1      -8.703   0.737   4.791  1.00  0.00     0.296 HD
ENDBRANCH  28  30
ENDBRANCH  13  28
ENDBRANCH  11  13
ENDBRANCH   8  11
ENDBRANCH   6   7
BRANCH   6  32
ATOM     32  C   UNL     1      -9.968  -2.151  -1.611  1.00  0.00     0.037 C 
BRANCH  32  33
ATOM     33  C   UNL     1      -9.516  -0.926  -2.417  1.00  0.00     0.026 C 
BRANCH  33  34
ATOM     34  C   UNL     1      -8.118  -1.100  -3.012  1.00  0.00     0.146 C 
BRANCH  34  35
ATOM     35  N   UNL     1      -7.224  -0.122  -2.408  1.00  0.00    -0.254 NA
ATOM     36  C   UNL     1      -6.174  -0.539  -1.804  1.00  0.00     0.185 C 
ATOM     37  N   UNL     1      -5.341   0.355  -1.248  1.00  0.00    -0.370 N 
ATOM     38  N   UNL     1      -5.746  -1.801  -1.629  1.00  0.00    -0.370 N 
ATOM     39  H   UNL     1      -5.590   1.331  -1.347  1.00  0.00     0.159 HD
ATOM     40  H   UNL     1      -4.421   0.125  -0.914  1.00  0.00     0.159 HD
ATOM     41  H   UNL     1      -4.975  -2.009  -1.015  1.00  0.00     0.159 HD
ATOM     42  H   UNL     1      -6.283  -2.578  -1.982  1.00  0.00     0.159 HD
ENDBRANCH  34  35
ENDBRANCH  33  34
ENDBRANCH  32  33
ENDBRANCH   6  32
ENDBRANCH   4   6
ENDBRANCH   1   2
BRANCH   1  43
ATOM     43  C   UNL     1      -7.650  -6.170  -1.481  1.00  0.00     0.102 C 
ATOM     44  C   UNL     1      -7.258  -7.650  -1.337  1.00  0.00     0.020 C 
BRANCH  43  45
ATOM     45  C   UNL     1      -6.831  -5.409  -2.528  1.00  0.00     0.225 C 
ATOM     46  O   UNL     1      -5.885  -4.681  -2.241  1.00  0.00    -0.275 OA
ATOM     47  N   UNL     1      -7.281  -5.517  -3.824  1.00  0.00    -0.342 N 
ATOM     48  H   UNL     1      -7.955  -6.230  -4.062  1.00  0.00     0.164 HD
BRANCH  47  49
ATOM     49  C   UNL     1      -6.576  -4.872  -4.936  1.00  0.00     0.192 C 
BRANCH  49  50
ATOM     50  C   UNL     1      -7.407  -4.999  -6.215  1.00  0.00     0.047 C 
BRANCH  50  51
ATOM     51  C   UNL     1      -6.710  -4.367  -7.427  1.00  0.00     0.103 C 
BRANCH  51  52
ATOM     52  C   UNL     1      -7.235  -4.927  -8.748  1.00  0.00     0.226 C 
ATOM     53  O   UNL     1      -8.371  -4.634  -9.126  1.00  0.00    -0.275 OA
BRANCH  52  54
ATOM     54  N   UNL     1      -6.335  -5.703  -9.501  1.00  0.00    -0.311 N 
ATOM     55  C   UNL     1      -5.910  -5.279 -10.842  1.00  0.00     0.153 C 
BRANCH  54  56
ATOM     56  C   UNL     1      -5.807  -6.905  -9.001  1.00  0.00     0.102 C 
ATOM     57  C   UNL     1      -6.523  -8.011  -8.742  1.00  0.00     0.043 C 
BRANCH  56  58
ATOM     58  C   UNL     1      -4.325  -7.055  -8.750  1.00  0.00     0.268 C 
ATOM     59  O   UNL     1      -3.618  -6.141  -8.347  1.00  0.00    -0.268 OA
ATOM     60  N   UNL     1      -3.868  -8.335  -8.957  1.00  0.00    -0.339 N 
ATOM     61  H   UNL     1      -4.516  -9.033  -9.301  1.00  0.00     0.164 HD
BRANCH  60  62
ATOM     62  C   UNL     1      -2.478  -8.715  -8.712  1.00  0.00     0.168 CG0
ATOM     63  C   UNL     1      -2.373  -9.683  -7.540  1.00  0.00     0.041 C 
ATOM     64  G   UNL     1      -1.634  -7.450  -8.453  1.00  0.00     0.000 G0
ENDBRANCH  60  62
ENDBRANCH  56  58
ENDBRANCH  54  56
ENDBRANCH  52  54
ENDBRANCH  51  52
ENDBRANCH  50  51
ENDBRANCH  49  50
BRANCH  49  65
ATOM     65  C   UNL     1      -5.190  -5.496  -5.166  1.00  0.00     0.326 C 
ATOM     66  O   UNL     1      -4.972  -6.677  -5.394  1.00  0.00    -0.250 OA
BRANCH  65  67
ATOM     67  O   UNL     1      -4.156  -4.635  -5.041  1.00  0.00    -0.480 OA
ATOM     68  H   UNL     1      -4.574  -3.754  -5.153  1.00  0.00     0.296 HD
ENDBRANCH  65  67
ENDBRANCH  49  65
ENDBRANCH  47  49
ENDBRANCH  43  45
ENDBRANCH   1  43
BRANCH   1  69
ATOM     69  C   UNL     1      -8.013  -6.164   1.142  1.00  0.00    -0.001 C 
ATOM     70  C   UNL     1      -7.267  -6.266   2.256  1.00  0.00     0.001 C 
BRANCH  70  71
ATOM     71  C   UNL     1      -7.612  -6.987   3.483  1.00  0.00    -0.055 C 
ATOM     72  C   UNL     1      -7.621  -6.290   4.639  1.00  0.00    -0.018 C 
ATOM     73  C   UNL     1      -7.940  -8.452   3.367  1.00  0.00     0.044 C 
BRANCH  72  74
ATOM     74  C   UNL     1      -7.940  -6.767   6.048  1.00  0.00     0.038 C 
ATOM     75  C   UNL     1      -6.821  -7.731   6.464  1.00  0.00     0.015 C 
BRANCH  74  76
ATOM     76  C   UNL     1      -9.369  -7.384   6.057  1.00  0.00     0.128 C 
BRANCH  76  77
ATOM     77  O   UNL     1      -9.347  -8.667   6.704  1.00  0.00    -0.381 OA
ATOM     78  C   UNL     1     -10.217  -8.757   7.824  1.00  0.00     0.195 C 
ENDBRANCH  76  77
BRANCH  76  79
ATOM     79  C   UNL     1     -10.458  -6.442   6.631  1.00  0.00     0.068 C 
BRANCH  79  80
ATOM     80  C   UNL     1     -11.114  -5.462   5.689  1.00  0.00    -0.045 A 
ATOM     81  C   UNL     1     -11.761  -4.318   6.173  1.00  0.00     0.004 A 
ATOM     82  C   UNL     1     -11.108  -5.700   4.306  1.00  0.00     0.004 A 
ATOM     83  C   UNL     1     -12.378  -3.424   5.295  1.00  0.00     0.000 A 
ATOM     84  C   UNL     1     -11.726  -4.805   3.429  1.00  0.00     0.000 A 
ATOM     85  C   UNL     1     -12.359  -3.667   3.923  1.00  0.00     0.000 A 
ENDBRANCH  79  80
ENDBRANCH  76  79
ENDBRANCH  74  76
ENDBRANCH  72  74
ENDBRANCH  70  71
ENDBRANCH   1  69
TORSDOF 17
ENDMDL
MODEL 17
REMARK VINA RESULT:    -6.752      3.789     11.203
REMARK INTER + INTRA:         -26.666
REMARK INTER:                 -17.054
REMARK INTRA:                  -9.612
REMARK UNBOUND:                -6.494
REMARK SMILES C=C1C(=O)N[C@H](C)C(=O)N[C@@H](CC(C)C)C(=O)N[C@@H](C(=O)O)[C@H](C)C(=O)N[C@@H](CCCN=C(N)N)C(=O)N[C@@H](/C=C/C(C)=C/[C@H](C)[C@H](Cc2ccccc2)OC)[C@H](C)C(=O)N[C@@H](C(=O)O)CCC(=O)N1C
REMARK SMILES IDX 39 1 38 2 37 3 36 4 28 6 27 7 25 8 26 9 23 11 24 12 19 13
REMARK SMILES IDX 18 14 16 15 17 16 11 18 10 19 8 20 9 21 12 24 13 25 14 26
REMARK SMILES IDX 15 27 20 28 21 29 22 30 29 32 30 33 31 34 32 35 33 36 34 37
REMARK SMILES IDX 35 38 57 43 58 44 59 45 60 46 61 47 62 49 66 50 67 51 68 52
REMARK SMILES IDX 69 53 70 54 71 55 2 56 1 57 3 58 4 59 5 60 6 62 7 63 63 65
REMARK SMILES IDX 64 66 65 67 40 69 41 70 42 71 44 72 43 73 45 74 46 75 47 76
REMARK SMILES IDX 55 77 56 78 48 79 49 80 50 81 54 82 51 83 53 84 52 85
REMARK H PARENT 38 5 27 10 18 17 10 22 22 31 34 39 34 40 35 41 35 42 61 48
REMARK H PARENT 5 61 65 68
REMARK Flexibility Score:  369.900
ROOT
ATOM      1  C   UNL     1      -6.222  -4.769  -1.550  1.00  0.00     0.117 C 
ENDROOT
BRANCH   1   2
ATOM      2  N   UNL     1      -7.448  -3.991  -1.370  1.00  0.00    -0.347 N 
ATOM      3  O   UNL     1      -6.484  -1.911  -1.249  1.00  0.00    -0.273 OA
ATOM      4  C   UNL     1      -7.488  -2.611  -1.326  1.00  0.00     0.243 C 
ATOM      5  H   UNL     1      -8.335  -4.469  -1.323  1.00  0.00     0.164 HD
BRANCH   4   6
ATOM      6  C   UNL     1      -8.922  -2.032  -1.215  1.00  0.00     0.171 C 
BRANCH   6   7
ATOM      7  N   UNL     1      -8.910  -0.768  -0.462  1.00  0.00    -0.344 N 
ATOM      8  C   UNL     1      -8.797  -0.768   0.911  1.00  0.00     0.226 C 
ATOM      9  O   UNL     1      -8.725  -1.801   1.567  1.00  0.00    -0.275 OA
ATOM     10  H   UNL     1      -9.035   0.103  -0.963  1.00  0.00     0.164 HD
BRANCH   8  11
ATOM     11  C   UNL     1      -8.744   0.615   1.535  1.00  0.00     0.109 C 
ATOM     12  C   UNL     1      -8.528   1.672   0.452  1.00  0.00     0.021 C 
BRANCH  11  13
ATOM     13  C   UNL     1      -9.988   0.837   2.418  1.00  0.00     0.204 C 
BRANCH  13  14
ATOM     14  N   UNL     1     -10.553  -0.427   2.902  1.00  0.00    -0.340 N 
ATOM     15  C   UNL     1     -11.907  -0.681   2.925  1.00  0.00     0.243 C 
ATOM     16  O   UNL     1     -12.736   0.113   2.484  1.00  0.00    -0.273 OA
ATOM     17  H   UNL     1      -9.938  -1.061   3.419  1.00  0.00     0.164 HD
BRANCH  15  18
ATOM     18  C   UNL     1     -12.279  -1.988   3.668  1.00  0.00     0.171 C 
BRANCH  18  19
ATOM     19  N   UNL     1     -13.665  -1.841   4.107  1.00  0.00    -0.343 N 
ATOM     20  C   UNL     1     -14.073  -2.218   5.371  1.00  0.00     0.242 CG0
ATOM     21  O   UNL     1     -13.322  -2.817   6.138  1.00  0.00    -0.273 OA
ATOM     22  H   UNL     1     -14.351  -1.457   3.467  1.00  0.00     0.164 HD
ATOM     23  G   UNL     1     -15.554  -1.914   5.680  1.00  0.00     0.000 G0
ENDBRANCH  18  19
BRANCH  18  24
ATOM     24  C   UNL     1     -12.107  -3.202   2.746  1.00  0.00     0.038 C 
BRANCH  24  25
ATOM     25  C   UNL     1     -11.142  -4.283   3.276  1.00  0.00    -0.015 C 
ATOM     26  C   UNL     1     -10.297  -4.908   2.166  1.00  0.00     0.007 C 
ATOM     27  C   UNL     1     -11.937  -5.375   3.996  1.00  0.00     0.007 C 
ENDBRANCH  24  25
ENDBRANCH  18  24
ENDBRANCH  15  18
ENDBRANCH  13  14
BRANCH  13  28
ATOM     28  C   UNL     1      -9.709   1.709   3.646  1.00  0.00     0.327 C 
ATOM     29  O   UNL     1     -10.517   2.417   4.228  1.00  0.00    -0.250 OA
BRANCH  28  30
ATOM     30  O   UNL     1      -8.407   1.730   3.995  1.00  0.00    -0.480 OA
ATOM     31  H   UNL     1      -8.285   2.604   4.420  1.00  0.00     0.296 HD
ENDBRANCH  28  30
ENDBRANCH  13  28
ENDBRANCH  11  13
ENDBRANCH   8  11
ENDBRANCH   6   7
BRANCH   6  32
ATOM     32  C   UNL     1      -9.492  -1.826  -2.623  1.00  0.00     0.037 C 
BRANCH  32  33
ATOM     33  C   UNL     1      -9.845  -0.357  -2.895  1.00  0.00     0.026 C 
BRANCH  33  34
ATOM     34  C   UNL     1     -11.339  -0.152  -3.149  1.00  0.00     0.146 C 
BRANCH  34  35
ATOM     35  N   UNL     1     -12.091  -1.012  -2.246  1.00  0.00    -0.254 NA
ATOM     36  C   UNL     1     -12.427  -0.554  -1.098  1.00  0.00     0.185 C 
ATOM     37  N   UNL     1     -13.125  -1.336  -0.261  1.00  0.00    -0.370 N 
ATOM     38  N   UNL     1     -12.179   0.656  -0.567  1.00  0.00    -0.370 N 
ATOM     39  H   UNL     1     -13.361  -2.262  -0.594  1.00  0.00     0.159 HD
ATOM     40  H   UNL     1     -13.571  -0.997   0.574  1.00  0.00     0.159 HD
ATOM     41  H   UNL     1     -12.375   0.850   0.402  1.00  0.00     0.159 HD
ATOM     42  H   UNL     1     -11.649   1.343  -1.080  1.00  0.00     0.159 HD
ENDBRANCH  34  35
ENDBRANCH  33  34
ENDBRANCH  32  33
ENDBRANCH   6  32
ENDBRANCH   4   6
ENDBRANCH   1   2
BRANCH   1  43
ATOM     43  C   UNL     1      -6.281  -5.473  -2.936  1.00  0.00     0.102 C 
ATOM     44  C   UNL     1      -4.917  -6.002  -3.413  1.00  0.00     0.020 C 
BRANCH  43  45
ATOM     45  C   UNL     1      -7.004  -4.601  -3.966  1.00  0.00     0.225 C 
ATOM     46  O   UNL     1      -8.190  -4.742  -4.251  1.00  0.00    -0.275 OA
ATOM     47  N   UNL     1      -6.213  -3.694  -4.634  1.00  0.00    -0.342 N 
ATOM     48  H   UNL     1      -5.287  -3.486  -4.286  1.00  0.00     0.164 HD
BRANCH  47  49
ATOM     49  C   UNL     1      -6.775  -2.768  -5.622  1.00  0.00     0.192 C 
BRANCH  49  50
ATOM     50  C   UNL     1      -6.046  -2.936  -6.958  1.00  0.00     0.047 C 
BRANCH  50  51
ATOM     51  C   UNL     1      -6.725  -3.973  -7.864  1.00  0.00     0.103 C 
BRANCH  51  52
ATOM     52  C   UNL     1      -6.085  -5.354  -7.735  1.00  0.00     0.226 C 
ATOM     53  O   UNL     1      -6.496  -6.139  -6.879  1.00  0.00    -0.275 OA
BRANCH  52  54
ATOM     54  N   UNL     1      -5.090  -5.674  -8.677  1.00  0.00    -0.311 N 
ATOM     55  C   UNL     1      -5.385  -5.680 -10.116  1.00  0.00     0.153 C 
BRANCH  54  56
ATOM     56  C   UNL     1      -3.781  -5.993  -8.281  1.00  0.00     0.102 C 
ATOM     57  C   UNL     1      -2.836  -5.096  -7.955  1.00  0.00     0.043 C 
BRANCH  56  58
ATOM     58  C   UNL     1      -3.342  -7.432  -8.143  1.00  0.00     0.268 C 
ATOM     59  O   UNL     1      -4.117  -8.377  -8.200  1.00  0.00    -0.268 OA
ATOM     60  N   UNL     1      -1.980  -7.572  -8.016  1.00  0.00    -0.339 N 
ATOM     61  H   UNL     1      -1.407  -6.738  -7.967  1.00  0.00     0.164 HD
BRANCH  60  62
ATOM     62  C   UNL     1      -1.336  -8.882  -7.932  1.00  0.00     0.168 CG0
ATOM     63  C   UNL     1      -0.898  -9.185  -6.505  1.00  0.00     0.041 C 
ATOM     64  G   UNL     1      -0.131  -8.928  -8.895  1.00  0.00     0.000 G0
ENDBRANCH  60  62
ENDBRANCH  56  58
ENDBRANCH  54  56
ENDBRANCH  52  54
ENDBRANCH  51  52
ENDBRANCH  50  51
ENDBRANCH  49  50
BRANCH  49  65
ATOM     65  C   UNL     1      -6.659  -1.307  -5.159  1.00  0.00     0.326 C 
ATOM     66  O   UNL     1      -5.860  -0.883  -4.337  1.00  0.00    -0.250 OA
BRANCH  65  67
ATOM     67  O   UNL     1      -7.576  -0.472  -5.696  1.00  0.00    -0.480 OA
ATOM     68  H   UNL     1      -7.041   0.292  -6.002  1.00  0.00     0.296 HD
ENDBRANCH  65  67
ENDBRANCH  49  65
ENDBRANCH  47  49
ENDBRANCH  43  45
ENDBRANCH   1  43
BRANCH   1  69
ATOM     69  C   UNL     1      -6.072  -5.618  -0.301  1.00  0.00    -0.001 C 
ATOM     70  C   UNL     1      -6.899  -6.585   0.134  1.00  0.00     0.001 C 
BRANCH  70  71
ATOM     71  C   UNL     1      -6.733  -7.413   1.330  1.00  0.00    -0.055 C 
ATOM     72  C   UNL     1      -7.502  -7.129   2.402  1.00  0.00    -0.018 C 
ATOM     73  C   UNL     1      -5.721  -8.528   1.277  1.00  0.00     0.044 C 
BRANCH  72  74
ATOM     74  C   UNL     1      -7.549  -7.812   3.761  1.00  0.00     0.038 C 
ATOM     75  C   UNL     1      -9.021  -8.113   4.066  1.00  0.00     0.015 C 
BRANCH  74  76
ATOM     76  C   UNL     1      -6.840  -6.899   4.805  1.00  0.00     0.128 C 
BRANCH  76  77
ATOM     77  O   UNL     1      -5.537  -7.422   5.110  1.00  0.00    -0.381 OA
ATOM     78  C   UNL     1      -4.964  -6.876   6.291  1.00  0.00     0.195 C 
ENDBRANCH  76  77
BRANCH  76  79
ATOM     79  C   UNL     1      -6.807  -5.400   4.411  1.00  0.00     0.068 C 
BRANCH  79  80
ATOM     80  C   UNL     1      -7.809  -4.476   5.059  1.00  0.00    -0.045 A 
ATOM     81  C   UNL     1      -7.868  -3.119   4.716  1.00  0.00     0.004 A 
ATOM     82  C   UNL     1      -8.684  -4.961   6.043  1.00  0.00     0.004 A 
ATOM     83  C   UNL     1      -8.788  -2.268   5.331  1.00  0.00     0.000 A 
ATOM     84  C   UNL     1      -9.604  -4.108   6.658  1.00  0.00     0.000 A 
ATOM     85  C   UNL     1      -9.657  -2.763   6.301  1.00  0.00     0.000 A 
ENDBRANCH  79  80
ENDBRANCH  76  79
ENDBRANCH  74  76
ENDBRANCH  72  74
ENDBRANCH  70  71
ENDBRANCH   1  69
TORSDOF 17
ENDMDL
MODEL 18
REMARK VINA RESULT:    -6.744      3.805     12.259
REMARK INTER + INTRA:         -26.641
REMARK INTER:                 -18.369
REMARK INTRA:                  -8.272
REMARK UNBOUND:                -6.494
REMARK SMILES C=C1C(=O)N[C@H](C)C(=O)N[C@@H](CC(C)C)C(=O)N[C@@H](C(=O)O)[C@H](C)C(=O)N[C@@H](CCCN=C(N)N)C(=O)N[C@@H](/C=C/C(C)=C/[C@H](C)[C@H](Cc2ccccc2)OC)[C@H](C)C(=O)N[C@@H](C(=O)O)CCC(=O)N1C
REMARK SMILES IDX 39 1 38 2 37 3 36 4 28 6 27 7 25 8 26 9 23 11 24 12 19 13
REMARK SMILES IDX 18 14 16 15 17 16 11 18 10 19 8 20 9 21 12 24 13 25 14 26
REMARK SMILES IDX 15 27 20 28 21 29 22 30 29 32 30 33 31 34 32 35 33 36 34 37
REMARK SMILES IDX 35 38 57 43 58 44 59 45 60 46 61 47 62 49 66 50 67 51 68 52
REMARK SMILES IDX 69 53 70 54 71 55 2 56 1 57 3 58 4 59 5 60 6 62 7 63 63 65
REMARK SMILES IDX 64 66 65 67 40 69 41 70 42 71 44 72 43 73 45 74 46 75 47 76
REMARK SMILES IDX 55 77 56 78 48 79 49 80 50 81 54 82 51 83 53 84 52 85
REMARK H PARENT 38 5 27 10 18 17 10 22 22 31 34 39 34 40 35 41 35 42 61 48
REMARK H PARENT 5 61 65 68
REMARK Flexibility Score:  369.900
ROOT
ATOM      1  C   UNL     1      -5.526  -6.495   1.361  1.00  0.00     0.117 C 
ENDROOT
BRANCH   1   2
ATOM      2  N   UNL     1      -6.765  -5.762   1.621  1.00  0.00    -0.347 N 
ATOM      3  O   UNL     1      -6.186  -3.793   0.594  1.00  0.00    -0.273 OA
ATOM      4  C   UNL     1      -7.032  -4.497   1.135  1.00  0.00     0.243 C 
ATOM      5  H   UNL     1      -7.504  -6.209   2.143  1.00  0.00     0.164 HD
BRANCH   4   6
ATOM      6  C   UNL     1      -8.452  -3.982   1.483  1.00  0.00     0.171 C 
BRANCH   6   7
ATOM      7  N   UNL     1      -8.379  -2.919   2.499  1.00  0.00    -0.344 N 
ATOM      8  C   UNL     1      -9.152  -2.982   3.638  1.00  0.00     0.226 C 
ATOM      9  O   UNL     1      -9.942  -3.894   3.850  1.00  0.00    -0.275 OA
ATOM     10  H   UNL     1      -7.788  -2.116   2.327  1.00  0.00     0.164 HD
BRANCH   8  11
ATOM     11  C   UNL     1      -8.923  -1.840   4.613  1.00  0.00     0.109 C 
ATOM     12  C   UNL     1     -10.135  -0.909   4.627  1.00  0.00     0.021 C 
BRANCH  11  13
ATOM     13  C   UNL     1      -8.522  -2.404   5.991  1.00  0.00     0.204 C 
BRANCH  13  14
ATOM     14  N   UNL     1      -9.620  -3.138   6.626  1.00  0.00    -0.340 N 
ATOM     15  C   UNL     1      -9.788  -3.199   7.993  1.00  0.00     0.243 C 
ATOM     16  O   UNL     1      -9.062  -2.588   8.775  1.00  0.00    -0.273 OA
ATOM     17  H   UNL     1     -10.163  -3.786   6.048  1.00  0.00     0.164 HD
BRANCH  15  18
ATOM     18  C   UNL     1     -10.885  -4.197   8.438  1.00  0.00     0.171 C 
BRANCH  18  19
ATOM     19  N   UNL     1     -11.000  -4.073   9.890  1.00  0.00    -0.343 N 
ATOM     20  C   UNL     1     -11.125  -5.178  10.709  1.00  0.00     0.242 CG0
ATOM     21  O   UNL     1     -11.279  -6.307  10.247  1.00  0.00    -0.273 OA
ATOM     22  H   UNL     1     -10.995  -3.151  10.312  1.00  0.00     0.164 HD
ATOM     23  G   UNL     1     -11.154  -4.854  12.216  1.00  0.00     0.000 G0
ENDBRANCH  18  19
BRANCH  18  24
ATOM     24  C   UNL     1     -12.215  -3.888   7.740  1.00  0.00     0.038 C 
BRANCH  24  25
ATOM     25  C   UNL     1     -12.762  -5.032   6.860  1.00  0.00    -0.015 C 
ATOM     26  C   UNL     1     -11.741  -6.151   6.654  1.00  0.00     0.007 C 
ATOM     27  C   UNL     1     -13.197  -4.474   5.502  1.00  0.00     0.007 C 
ENDBRANCH  24  25
ENDBRANCH  18  24
ENDBRANCH  15  18
ENDBRANCH  13  14
BRANCH  13  28
ATOM     28  C   UNL     1      -7.319  -3.349   5.930  1.00  0.00     0.327 C 
ATOM     29  O   UNL     1      -6.149  -3.022   5.797  1.00  0.00    -0.250 OA
BRANCH  28  30
ATOM     30  O   UNL     1      -7.669  -4.651   5.920  1.00  0.00    -0.480 OA
ATOM     31  H   UNL     1      -7.085  -5.053   5.244  1.00  0.00     0.296 HD
ENDBRANCH  28  30
ENDBRANCH  13  28
ENDBRANCH  11  13
ENDBRANCH   8  11
ENDBRANCH   6   7
BRANCH   6  32
ATOM     32  C   UNL     1      -9.130  -3.473   0.206  1.00  0.00     0.037 C 
BRANCH  32  33
ATOM     33  C   UNL     1      -9.732  -2.073   0.389  1.00  0.00     0.026 C 
BRANCH  33  34
ATOM     34  C   UNL     1      -9.162  -1.057  -0.603  1.00  0.00     0.146 C 
BRANCH  34  35
ATOM     35  N   UNL     1      -7.708  -1.133  -0.570  1.00  0.00    -0.254 NA
ATOM     36  C   UNL     1      -7.085  -1.437  -1.647  1.00  0.00     0.185 C 
ATOM     37  N   UNL     1      -5.745  -1.505  -1.629  1.00  0.00    -0.370 N 
ATOM     38  N   UNL     1      -7.586  -1.715  -2.863  1.00  0.00    -0.370 N 
ATOM     39  H   UNL     1      -5.291  -1.298  -0.749  1.00  0.00     0.159 HD
ATOM     40  H   UNL     1      -5.180  -1.564  -2.459  1.00  0.00     0.159 HD
ATOM     41  H   UNL     1      -7.000  -2.078  -3.597  1.00  0.00     0.159 HD
ATOM     42  H   UNL     1      -8.582  -1.717  -3.019  1.00  0.00     0.159 HD
ENDBRANCH  34  35
ENDBRANCH  33  34
ENDBRANCH  32  33
ENDBRANCH   6  32
ENDBRANCH   4   6
ENDBRANCH   1   2
BRANCH   1  43
ATOM     43  C   UNL     1      -5.880  -7.826   0.637  1.00  0.00     0.102 C 
ATOM     44  C   UNL     1      -5.178  -9.056   1.238  1.00  0.00     0.020 C 
BRANCH  43  45
ATOM     45  C   UNL     1      -5.707  -7.692  -0.879  1.00  0.00     0.225 C 
ATOM     46  O   UNL     1      -5.584  -8.656  -1.629  1.00  0.00    -0.275 OA
ATOM     47  N   UNL     1      -5.602  -6.403  -1.351  1.00  0.00    -0.342 N 
ATOM     48  H   UNL     1      -5.854  -5.629  -0.753  1.00  0.00     0.164 HD
BRANCH  47  49
ATOM     49  C   UNL     1      -5.468  -6.120  -2.783  1.00  0.00     0.192 C 
BRANCH  49  50
ATOM     50  C   UNL     1      -4.015  -5.758  -3.102  1.00  0.00     0.047 C 
BRANCH  50  51
ATOM     51  C   UNL     1      -3.285  -6.883  -3.848  1.00  0.00     0.103 C 
BRANCH  51  52
ATOM     52  C   UNL     1      -3.548  -6.840  -5.352  1.00  0.00     0.226 C 
ATOM     53  O   UNL     1      -4.619  -7.258  -5.796  1.00  0.00    -0.275 OA
BRANCH  52  54
ATOM     54  N   UNL     1      -2.553  -6.241  -6.145  1.00  0.00    -0.311 N 
ATOM     55  C   UNL     1      -1.366  -6.996  -6.568  1.00  0.00     0.153 C 
BRANCH  54  56
ATOM     56  C   UNL     1      -2.658  -4.905  -6.567  1.00  0.00     0.102 C 
ATOM     57  C   UNL     1      -1.619  -4.114  -6.882  1.00  0.00     0.043 C 
BRANCH  56  58
ATOM     58  C   UNL     1      -4.009  -4.252  -6.744  1.00  0.00     0.268 C 
ATOM     59  O   UNL     1      -4.356  -3.253  -6.128  1.00  0.00    -0.268 OA
ATOM     60  N   UNL     1      -4.777  -4.855  -7.712  1.00  0.00    -0.339 N 
ATOM     61  H   UNL     1      -4.421  -5.686  -8.169  1.00  0.00     0.164 HD
BRANCH  60  62
ATOM     62  C   UNL     1      -6.095  -4.346  -8.088  1.00  0.00     0.168 CG0
ATOM     63  C   UNL     1      -7.195  -5.029  -7.285  1.00  0.00     0.041 C 
ATOM     64  G   UNL     1      -6.316  -4.553  -9.601  1.00  0.00     0.000 G0
ENDBRANCH  60  62
ENDBRANCH  56  58
ENDBRANCH  54  56
ENDBRANCH  52  54
ENDBRANCH  51  52
ENDBRANCH  50  51
ENDBRANCH  49  50
BRANCH  49  65
ATOM     65  C   UNL     1      -6.388  -4.970  -3.222  1.00  0.00     0.326 C 
ATOM     66  O   UNL     1      -7.610  -4.983  -3.184  1.00  0.00    -0.250 OA
BRANCH  65  67
ATOM     67  O   UNL     1      -5.745  -3.898  -3.735  1.00  0.00    -0.480 OA
ATOM     68  H   UNL     1      -4.977  -3.780  -3.135  1.00  0.00     0.296 HD
ENDBRANCH  65  67
ENDBRANCH  49  65
ENDBRANCH  47  49
ENDBRANCH  43  45
ENDBRANCH   1  43
BRANCH   1  69
ATOM     69  C   UNL     1      -4.783  -6.555   2.683  1.00  0.00    -0.001 C 
ATOM     70  C   UNL     1      -5.309  -6.491   3.919  1.00  0.00     0.001 C 
BRANCH  70  71
ATOM     71  C   UNL     1      -4.583  -6.571   5.188  1.00  0.00    -0.055 C 
ATOM     72  C   UNL     1      -4.809  -7.645   5.974  1.00  0.00    -0.018 C 
ATOM     73  C   UNL     1      -3.630  -5.453   5.524  1.00  0.00     0.044 C 
BRANCH  72  74
ATOM     74  C   UNL     1      -4.205  -7.993   7.327  1.00  0.00     0.038 C 
ATOM     75  C   UNL     1      -3.442  -9.312   7.156  1.00  0.00     0.015 C 
BRANCH  74  76
ATOM     76  C   UNL     1      -5.343  -8.029   8.389  1.00  0.00     0.128 C 
BRANCH  76  77
ATOM     77  O   UNL     1      -4.839  -7.596   9.663  1.00  0.00    -0.381 OA
ATOM     78  C   UNL     1      -5.011  -8.552  10.701  1.00  0.00     0.195 C 
ENDBRANCH  76  77
BRANCH  76  79
ATOM     79  C   UNL     1      -6.626  -7.272   7.963  1.00  0.00     0.068 C 
BRANCH  79  80
ATOM     80  C   UNL     1      -7.884  -8.078   7.747  1.00  0.00    -0.045 A 
ATOM     81  C   UNL     1      -8.420  -8.250   6.464  1.00  0.00     0.004 A 
ATOM     82  C   UNL     1      -8.554  -8.649   8.840  1.00  0.00     0.004 A 
ATOM     83  C   UNL     1      -9.592  -8.985   6.274  1.00  0.00     0.000 A 
ATOM     84  C   UNL     1      -9.727  -9.384   8.649  1.00  0.00     0.000 A 
ATOM     85  C   UNL     1     -10.244  -9.553   7.367  1.00  0.00     0.000 A 
ENDBRANCH  79  80
ENDBRANCH  76  79
ENDBRANCH  74  76
ENDBRANCH  72  74
ENDBRANCH  70  71
ENDBRANCH   1  69
TORSDOF 17
ENDMDL
MODEL 19
REMARK VINA RESULT:    -6.740      4.708      9.131
REMARK INTER + INTRA:         -26.630
REMARK INTER:                 -18.795
REMARK INTRA:                  -7.835
REMARK UNBOUND:                -6.494
REMARK SMILES C=C1C(=O)N[C@H](C)C(=O)N[C@@H](CC(C)C)C(=O)N[C@@H](C(=O)O)[C@H](C)C(=O)N[C@@H](CCCN=C(N)N)C(=O)N[C@@H](/C=C/C(C)=C/[C@H](C)[C@H](Cc2ccccc2)OC)[C@H](C)C(=O)N[C@@H](C(=O)O)CCC(=O)N1C
REMARK SMILES IDX 39 1 38 2 37 3 36 4 28 6 27 7 25 8 26 9 23 11 24 12 19 13
REMARK SMILES IDX 18 14 16 15 17 16 11 18 10 19 8 20 9 21 12 24 13 25 14 26
REMARK SMILES IDX 15 27 20 28 21 29 22 30 29 32 30 33 31 34 32 35 33 36 34 37
REMARK SMILES IDX 35 38 57 43 58 44 59 45 60 46 61 47 62 49 66 50 67 51 68 52
REMARK SMILES IDX 69 53 70 54 71 55 2 56 1 57 3 58 4 59 5 60 6 62 7 63 63 65
REMARK SMILES IDX 64 66 65 67 40 69 41 70 42 71 44 72 43 73 45 74 46 75 47 76
REMARK SMILES IDX 55 77 56 78 48 79 49 80 50 81 54 82 51 83 53 84 52 85
REMARK H PARENT 38 5 27 10 18 17 10 22 22 31 34 39 34 40 35 41 35 42 61 48
REMARK H PARENT 5 61 65 68
REMARK Flexibility Score:  369.900
ROOT
ATOM      1  C   UNL     1     -10.170  -5.202   5.063  1.00  0.00     0.117 C 
ENDROOT
BRANCH   1   2
ATOM      2  N   UNL     1     -10.164  -4.225   3.974  1.00  0.00    -0.347 N 
ATOM      3  O   UNL     1     -12.091  -4.908   2.930  1.00  0.00    -0.273 OA
ATOM      4  C   UNL     1     -11.178  -4.098   3.044  1.00  0.00     0.243 C 
ATOM      5  H   UNL     1      -9.407  -3.562   3.909  1.00  0.00     0.164 HD
BRANCH   4   6
ATOM      6  C   UNL     1     -10.967  -2.928   2.049  1.00  0.00     0.171 C 
BRANCH   6   7
ATOM      7  N   UNL     1     -10.021  -3.317   0.991  1.00  0.00    -0.344 N 
ATOM      8  C   UNL     1      -8.663  -3.180   1.178  1.00  0.00     0.226 C 
ATOM      9  O   UNL     1      -8.181  -2.716   2.205  1.00  0.00    -0.275 OA
ATOM     10  H   UNL     1     -10.384  -3.641   0.103  1.00  0.00     0.164 HD
BRANCH   8  11
ATOM     11  C   UNL     1      -7.818  -3.676   0.017  1.00  0.00     0.109 C 
ATOM     12  C   UNL     1      -8.377  -4.995  -0.515  1.00  0.00     0.021 C 
BRANCH  11  13
ATOM     13  C   UNL     1      -7.676  -2.560  -1.037  1.00  0.00     0.204 C 
BRANCH  13  14
ATOM     14  N   UNL     1      -7.683  -1.224  -0.432  1.00  0.00    -0.340 N 
ATOM     15  C   UNL     1      -8.748  -0.357  -0.546  1.00  0.00     0.243 C 
ATOM     16  O   UNL     1      -9.794  -0.666  -1.115  1.00  0.00    -0.273 OA
ATOM     17  H   UNL     1      -6.797  -0.851  -0.081  1.00  0.00     0.164 HD
BRANCH  15  18
ATOM     18  C   UNL     1      -8.449   1.064  -0.008  1.00  0.00     0.171 C 
BRANCH  18  19
ATOM     19  N   UNL     1      -7.962   1.847  -1.142  1.00  0.00    -0.343 N 
ATOM     20  C   UNL     1      -6.650   1.776  -1.567  1.00  0.00     0.242 CG0
ATOM     21  O   UNL     1      -5.800   1.155  -0.932  1.00  0.00    -0.273 OA
ATOM     22  H   UNL     1      -8.600   2.466  -1.630  1.00  0.00     0.164 HD
ATOM     23  G   UNL     1      -6.342   2.613  -2.826  1.00  0.00     0.000 G0
ENDBRANCH  18  19
BRANCH  18  24
ATOM     24  C   UNL     1      -9.709   1.687   0.606  1.00  0.00     0.038 C 
BRANCH  24  25
ATOM     25  C   UNL     1      -9.454   2.559   1.853  1.00  0.00    -0.015 C 
ATOM     26  C   UNL     1      -8.871   1.758   3.018  1.00  0.00     0.007 C 
ATOM     27  C   UNL     1     -10.761   3.226   2.290  1.00  0.00     0.007 C 
ENDBRANCH  24  25
ENDBRANCH  18  24
ENDBRANCH  15  18
ENDBRANCH  13  14
BRANCH  13  28
ATOM     28  C   UNL     1      -6.394  -2.674  -1.868  1.00  0.00     0.327 C 
ATOM     29  O   UNL     1      -6.221  -3.401  -2.834  1.00  0.00    -0.250 OA
BRANCH  28  30
ATOM     30  O   UNL     1      -5.370  -1.957  -1.361  1.00  0.00    -0.480 OA
ATOM     31  H   UNL     1      -4.637  -2.603  -1.287  1.00  0.00     0.296 HD
ENDBRANCH  28  30
ENDBRANCH  13  28
ENDBRANCH  11  13
ENDBRANCH   8  11
ENDBRANCH   6   7
BRANCH   6  32
ATOM     32  C   UNL     1     -12.320  -2.525   1.452  1.00  0.00     0.037 C 
BRANCH  32  33
ATOM     33  C   UNL     1     -12.436  -1.008   1.252  1.00  0.00     0.026 C 
BRANCH  33  34
ATOM     34  C   UNL     1     -13.181  -0.322   2.398  1.00  0.00     0.146 C 
BRANCH  34  35
ATOM     35  N   UNL     1     -12.207   0.277   3.300  1.00  0.00    -0.254 NA
ATOM     36  C   UNL     1     -12.197  -0.092   4.526  1.00  0.00     0.185 C 
ATOM     37  N   UNL     1     -11.300   0.449   5.365  1.00  0.00    -0.370 N 
ATOM     38  N   UNL     1     -12.987  -0.988   5.145  1.00  0.00    -0.370 N 
ATOM     39  H   UNL     1     -10.661   1.127   4.970  1.00  0.00     0.159 HD
ATOM     40  H   UNL     1     -11.114   0.092   6.286  1.00  0.00     0.159 HD
ATOM     41  H   UNL     1     -12.973  -1.089   6.147  1.00  0.00     0.159 HD
ATOM     42  H   UNL     1     -13.718  -1.462   4.640  1.00  0.00     0.159 HD
ENDBRANCH  34  35
ENDBRANCH  33  34
ENDBRANCH  32  33
ENDBRANCH   6  32
ENDBRANCH   4   6
ENDBRANCH   1   2
BRANCH   1  43
ATOM     43  C   UNL     1     -11.082  -4.666   6.204  1.00  0.00     0.102 C 
ATOM     44  C   UNL     1     -10.698  -3.257   6.684  1.00  0.00     0.020 C 
BRANCH  43  45
ATOM     45  C   UNL     1     -11.211  -5.693   7.333  1.00  0.00     0.225 C 
ATOM     46  O   UNL     1     -11.354  -6.896   7.133  1.00  0.00    -0.275 OA
ATOM     47  N   UNL     1     -11.253  -5.172   8.606  1.00  0.00    -0.342 N 
ATOM     48  H   UNL     1     -10.984  -4.210   8.762  1.00  0.00     0.164 HD
BRANCH  47  49
ATOM     49  C   UNL     1     -11.338  -6.037   9.786  1.00  0.00     0.192 C 
BRANCH  49  50
ATOM     50  C   UNL     1     -12.372  -5.473  10.764  1.00  0.00     0.047 C 
BRANCH  50  51
ATOM     51  C   UNL     1     -13.142  -4.284  10.175  1.00  0.00     0.103 C 
BRANCH  51  52
ATOM     52  C   UNL     1     -14.644  -4.391  10.429  1.00  0.00     0.226 C 
ATOM     53  O   UNL     1     -15.116  -3.965  11.485  1.00  0.00    -0.275 OA
BRANCH  52  54
ATOM     54  N   UNL     1     -15.422  -4.915   9.380  1.00  0.00    -0.311 N 
ATOM     55  C   UNL     1     -14.908  -4.954   8.004  1.00  0.00     0.153 C 
BRANCH  54  56
ATOM     56  C   UNL     1     -16.711  -5.424   9.607  1.00  0.00     0.102 C 
ATOM     57  C   UNL     1     -17.853  -4.815   9.247  1.00  0.00     0.043 C 
BRANCH  56  58
ATOM     58  C   UNL     1     -16.908  -6.772  10.261  1.00  0.00     0.268 C 
ATOM     59  O   UNL     1     -16.623  -6.997  11.430  1.00  0.00    -0.268 OA
ATOM     60  N   UNL     1     -17.498  -7.694   9.431  1.00  0.00    -0.339 N 
ATOM     61  H   UNL     1     -17.694  -7.432   8.472  1.00  0.00     0.164 HD
BRANCH  60  62
ATOM     62  C   UNL     1     -17.837  -9.044   9.882  1.00  0.00     0.168 CG0
ATOM     63  C   UNL     1     -17.372 -10.089   8.875  1.00  0.00     0.041 C 
ATOM     64  G   UNL     1     -19.359  -9.145  10.111  1.00  0.00     0.000 G0
ENDBRANCH  60  62
ENDBRANCH  56  58
ENDBRANCH  54  56
ENDBRANCH  52  54
ENDBRANCH  51  52
ENDBRANCH  50  51
ENDBRANCH  49  50
BRANCH  49  65
ATOM     65  C   UNL     1      -9.981  -6.163  10.496  1.00  0.00     0.326 C 
ATOM     66  O   UNL     1      -9.340  -7.195  10.626  1.00  0.00    -0.250 OA
BRANCH  65  67
ATOM     67  O   UNL     1      -9.529  -5.018  11.055  1.00  0.00    -0.480 OA
ATOM     68  H   UNL     1      -8.768  -4.769  10.488  1.00  0.00     0.296 HD
ENDBRANCH  65  67
ENDBRANCH  49  65
ENDBRANCH  47  49
ENDBRANCH  43  45
ENDBRANCH   1  43
BRANCH   1  69
ATOM     69  C   UNL     1      -8.715  -5.506   5.368  1.00  0.00    -0.001 C 
ATOM     70  C   UNL     1      -7.736  -5.783   4.489  1.00  0.00     0.001 C 
BRANCH  70  71
ATOM     71  C   UNL     1      -6.330  -6.053   4.794  1.00  0.00    -0.055 C 
ATOM     72  C   UNL     1      -6.035  -6.534   6.021  1.00  0.00    -0.018 C 
ATOM     73  C   UNL     1      -5.313  -5.783   3.716  1.00  0.00     0.044 C 
BRANCH  72  74
ATOM     74  C   UNL     1      -4.682  -6.905   6.610  1.00  0.00     0.038 C 
ATOM     75  C   UNL     1      -4.721  -8.405   6.926  1.00  0.00     0.015 C 
BRANCH  74  76
ATOM     76  C   UNL     1      -4.400  -5.987   7.835  1.00  0.00     0.128 C 
BRANCH  76  77
ATOM     77  O   UNL     1      -3.361  -6.557   8.648  1.00  0.00    -0.381 OA
ATOM     78  C   UNL     1      -2.264  -5.681   8.871  1.00  0.00     0.195 C 
ENDBRANCH  76  77
BRANCH  76  79
ATOM     79  C   UNL     1      -4.127  -4.507   7.464  1.00  0.00     0.068 C 
BRANCH  79  80
ATOM     80  C   UNL     1      -5.310  -3.576   7.354  1.00  0.00    -0.045 A 
ATOM     81  C   UNL     1      -5.393  -2.635   6.319  1.00  0.00     0.004 A 
ATOM     82  C   UNL     1      -6.337  -3.621   8.309  1.00  0.00     0.004 A 
ATOM     83  C   UNL     1      -6.484  -1.767   6.232  1.00  0.00     0.000 A 
ATOM     84  C   UNL     1      -7.427  -2.752   8.221  1.00  0.00     0.000 A 
ATOM     85  C   UNL     1      -7.501  -1.827   7.183  1.00  0.00     0.000 A 
ENDBRANCH  79  80
ENDBRANCH  76  79
ENDBRANCH  74  76
ENDBRANCH  72  74
ENDBRANCH  70  71
ENDBRANCH   1  69
TORSDOF 17
ENDMDL
MODEL 20
REMARK VINA RESULT:    -6.738      4.218     10.312
REMARK INTER + INTRA:         -26.623
REMARK INTER:                 -20.154
REMARK INTRA:                  -6.470
REMARK UNBOUND:                -6.494
REMARK SMILES C=C1C(=O)N[C@H](C)C(=O)N[C@@H](CC(C)C)C(=O)N[C@@H](C(=O)O)[C@H](C)C(=O)N[C@@H](CCCN=C(N)N)C(=O)N[C@@H](/C=C/C(C)=C/[C@H](C)[C@H](Cc2ccccc2)OC)[C@H](C)C(=O)N[C@@H](C(=O)O)CCC(=O)N1C
REMARK SMILES IDX 39 1 38 2 37 3 36 4 28 6 27 7 25 8 26 9 23 11 24 12 19 13
REMARK SMILES IDX 18 14 16 15 17 16 11 18 10 19 8 20 9 21 12 24 13 25 14 26
REMARK SMILES IDX 15 27 20 28 21 29 22 30 29 32 30 33 31 34 32 35 33 36 34 37
REMARK SMILES IDX 35 38 57 43 58 44 59 45 60 46 61 47 62 49 66 50 67 51 68 52
REMARK SMILES IDX 69 53 70 54 71 55 2 56 1 57 3 58 4 59 5 60 6 62 7 63 63 65
REMARK SMILES IDX 64 66 65 67 40 69 41 70 42 71 44 72 43 73 45 74 46 75 47 76
REMARK SMILES IDX 55 77 56 78 48 79 49 80 50 81 54 82 51 83 53 84 52 85
REMARK H PARENT 38 5 27 10 18 17 10 22 22 31 34 39 34 40 35 41 35 42 61 48
REMARK H PARENT 5 61 65 68
REMARK Flexibility Score:  369.900
ROOT
ATOM      1  C   UNL     1      -6.120  -3.529  -4.005  1.00  0.00     0.117 C 
ENDROOT
BRANCH   1   2
ATOM      2  N   UNL     1      -6.793  -2.757  -2.961  1.00  0.00    -0.347 N 
ATOM      3  O   UNL     1      -5.927  -0.697  -3.486  1.00  0.00    -0.273 OA
ATOM      4  C   UNL     1      -6.714  -1.383  -2.842  1.00  0.00     0.243 C 
ATOM      5  H   UNL     1      -7.397  -3.232  -2.307  1.00  0.00     0.164 HD
BRANCH   4   6
ATOM      6  C   UNL     1      -7.591  -0.805  -1.703  1.00  0.00     0.171 C 
BRANCH   6   7
ATOM      7  N   UNL     1      -7.630  -1.733  -0.561  1.00  0.00    -0.344 N 
ATOM      8  C   UNL     1      -8.812  -1.983   0.101  1.00  0.00     0.226 C 
ATOM      9  O   UNL     1      -9.868  -1.441  -0.204  1.00  0.00    -0.275 OA
ATOM     10  H   UNL     1      -6.766  -2.148  -0.237  1.00  0.00     0.164 HD
BRANCH   8  11
ATOM     11  C   UNL     1      -8.699  -3.004   1.220  1.00  0.00     0.109 C 
ATOM     12  C   UNL     1      -7.386  -3.777   1.095  1.00  0.00     0.021 C 
BRANCH  11  13
ATOM     13  C   UNL     1      -8.916  -2.312   2.581  1.00  0.00     0.204 C 
BRANCH  13  14
ATOM     14  N   UNL     1      -9.290  -0.903   2.430  1.00  0.00    -0.340 N 
ATOM     15  C   UNL     1      -9.145   0.023   3.440  1.00  0.00     0.243 C 
ATOM     16  O   UNL     1      -8.634  -0.257   4.523  1.00  0.00    -0.273 OA
ATOM     17  H   UNL     1      -9.856  -0.640   1.618  1.00  0.00     0.164 HD
BRANCH  15  18
ATOM     18  C   UNL     1      -9.797   1.391   3.125  1.00  0.00     0.171 C 
BRANCH  18  19
ATOM     19  N   UNL     1      -9.791   2.156   4.370  1.00  0.00    -0.343 N 
ATOM     20  C   UNL     1     -10.921   2.800   4.836  1.00  0.00     0.242 CG0
ATOM     21  O   UNL     1     -11.945   2.872   4.160  1.00  0.00    -0.273 OA
ATOM     22  H   UNL     1      -8.935   2.222   4.909  1.00  0.00     0.164 HD
ATOM     23  G   UNL     1     -10.744   3.488   6.205  1.00  0.00     0.000 G0
ENDBRANCH  18  19
BRANCH  18  24
ATOM     24  C   UNL     1      -9.024   2.117   2.017  1.00  0.00     0.038 C 
BRANCH  24  25
ATOM     25  C   UNL     1      -9.910   2.830   0.973  1.00  0.00    -0.015 C 
ATOM     26  C   UNL     1     -10.243   4.267   1.373  1.00  0.00     0.007 C 
ATOM     27  C   UNL     1     -11.204   2.038   0.770  1.00  0.00     0.007 C 
ENDBRANCH  24  25
ENDBRANCH  18  24
ENDBRANCH  15  18
ENDBRANCH  13  14
BRANCH  13  28
ATOM     28  C   UNL     1     -10.000  -2.981   3.432  1.00  0.00     0.327 C 
ATOM     29  O   UNL     1     -11.149  -3.212   3.087  1.00  0.00    -0.250 OA
BRANCH  28  30
ATOM     30  O   UNL     1      -9.609  -3.210   4.702  1.00  0.00    -0.480 OA
ATOM     31  H   UNL     1      -9.148  -4.074   4.660  1.00  0.00     0.296 HD
ENDBRANCH  28  30
ENDBRANCH  13  28
ENDBRANCH  11  13
ENDBRANCH   8  11
ENDBRANCH   6   7
BRANCH   6  32
ATOM     32  C   UNL     1      -7.034   0.559  -1.281  1.00  0.00     0.037 C 
BRANCH  32  33
ATOM     33  C   UNL     1      -8.007   1.705  -1.593  1.00  0.00     0.026 C 
BRANCH  33  34
ATOM     34  C   UNL     1      -7.869   2.214  -3.028  1.00  0.00     0.146 C 
BRANCH  34  35
ATOM     35  N   UNL     1      -6.869   3.272  -3.057  1.00  0.00    -0.254 NA
ATOM     36  C   UNL     1      -7.213   4.433  -3.475  1.00  0.00     0.185 C 
ATOM     37  N   UNL     1      -6.300   5.416  -3.501  1.00  0.00    -0.370 N 
ATOM     38  N   UNL     1      -8.413   4.850  -3.915  1.00  0.00    -0.370 N 
ATOM     39  H   UNL     1      -5.372   5.182  -3.174  1.00  0.00     0.159 HD
ATOM     40  H   UNL     1      -6.530   6.384  -3.646  1.00  0.00     0.159 HD
ATOM     41  H   UNL     1      -8.524   5.752  -4.349  1.00  0.00     0.159 HD
ATOM     42  H   UNL     1      -9.192   4.211  -3.965  1.00  0.00     0.159 HD
ENDBRANCH  34  35
ENDBRANCH  33  34
ENDBRANCH  32  33
ENDBRANCH   6  32
ENDBRANCH   4   6
ENDBRANCH   1   2
BRANCH   1  43
ATOM     43  C   UNL     1      -6.961  -3.436  -5.311  1.00  0.00     0.102 C 
ATOM     44  C   UNL     1      -7.806  -4.691  -5.585  1.00  0.00     0.020 C 
BRANCH  43  45
ATOM     45  C   UNL     1      -6.093  -3.000  -6.495  1.00  0.00     0.225 C 
ATOM     46  O   UNL     1      -6.446  -3.118  -7.665  1.00  0.00    -0.275 OA
ATOM     47  N   UNL     1      -4.834  -2.547  -6.172  1.00  0.00    -0.342 N 
ATOM     48  H   UNL     1      -4.617  -2.315  -5.213  1.00  0.00     0.164 HD
BRANCH  47  49
ATOM     49  C   UNL     1      -3.907  -2.064  -7.199  1.00  0.00     0.192 C 
BRANCH  49  50
ATOM     50  C   UNL     1      -2.716  -3.020  -7.308  1.00  0.00     0.047 C 
BRANCH  50  51
ATOM     51  C   UNL     1      -2.931  -4.096  -8.382  1.00  0.00     0.103 C 
BRANCH  51  52
ATOM     52  C   UNL     1      -3.691  -5.304  -7.839  1.00  0.00     0.226 C 
ATOM     53  O   UNL     1      -3.667  -5.548  -6.631  1.00  0.00    -0.275 OA
BRANCH  52  54
ATOM     54  N   UNL     1      -4.452  -6.036  -8.770  1.00  0.00    -0.311 N 
ATOM     55  C   UNL     1      -4.983  -5.397  -9.982  1.00  0.00     0.153 C 
BRANCH  54  56
ATOM     56  C   UNL     1      -4.728  -7.400  -8.580  1.00  0.00     0.102 C 
ATOM     57  C   UNL     1      -5.945  -7.959  -8.676  1.00  0.00     0.043 C 
BRANCH  56  58
ATOM     58  C   UNL     1      -3.617  -8.381  -8.286  1.00  0.00     0.268 C 
ATOM     59  O   UNL     1      -2.815  -8.757  -9.130  1.00  0.00    -0.268 OA
ATOM     60  N   UNL     1      -3.561  -8.753  -6.964  1.00  0.00    -0.339 N 
ATOM     61  H   UNL     1      -4.270  -8.405  -6.329  1.00  0.00     0.164 HD
BRANCH  60  62
ATOM     62  C   UNL     1      -2.524  -9.647  -6.449  1.00  0.00     0.168 CG0
ATOM     63  C   UNL     1      -1.247  -8.879  -6.133  1.00  0.00     0.041 C 
ATOM     64  G   UNL     1      -2.249 -10.765  -7.477  1.00  0.00     0.000 G0
ENDBRANCH  60  62
ENDBRANCH  56  58
ENDBRANCH  54  56
ENDBRANCH  52  54
ENDBRANCH  51  52
ENDBRANCH  50  51
ENDBRANCH  49  50
BRANCH  49  65
ATOM     65  C   UNL     1      -3.396  -0.650  -6.881  1.00  0.00     0.326 C 
ATOM     66  O   UNL     1      -4.079   0.364  -6.856  1.00  0.00    -0.250 OA
BRANCH  65  67
ATOM     67  O   UNL     1      -2.064  -0.565  -6.673  1.00  0.00    -0.480 OA
ATOM     68  H   UNL     1      -1.973   0.196  -6.059  1.00  0.00     0.296 HD
ENDBRANCH  65  67
ENDBRANCH  49  65
ENDBRANCH  47  49
ENDBRANCH  43  45
ENDBRANCH   1  43
BRANCH   1  69
ATOM     69  C   UNL     1      -5.841  -4.897  -3.409  1.00  0.00    -0.001 C 
ATOM     70  C   UNL     1      -4.707  -5.315  -2.819  1.00  0.00     0.001 C 
BRANCH  70  71
ATOM     71  C   UNL     1      -4.457  -6.631  -2.228  1.00  0.00    -0.055 C 
ATOM     72  C   UNL     1      -5.117  -6.945  -1.093  1.00  0.00    -0.018 C 
ATOM     73  C   UNL     1      -3.487  -7.544  -2.931  1.00  0.00     0.044 C 
BRANCH  72  74
ATOM     74  C   UNL     1      -5.061  -8.223  -0.268  1.00  0.00     0.038 C 
ATOM     75  C   UNL     1      -6.119  -9.176  -0.837  1.00  0.00     0.015 C 
BRANCH  74  76
ATOM     76  C   UNL     1      -5.250  -7.858   1.234  1.00  0.00     0.128 C 
BRANCH  76  77
ATOM     77  O   UNL     1      -6.626  -7.530   1.489  1.00  0.00    -0.381 OA
ATOM     78  C   UNL     1      -6.970  -7.541   2.869  1.00  0.00     0.195 C 
ENDBRANCH  76  77
BRANCH  76  79
ATOM     79  C   UNL     1      -4.695  -8.921   2.215  1.00  0.00     0.068 C 
BRANCH  79  80
ATOM     80  C   UNL     1      -3.232  -8.853   2.577  1.00  0.00    -0.045 A 
ATOM     81  C   UNL     1      -2.241  -9.191   1.646  1.00  0.00     0.004 A 
ATOM     82  C   UNL     1      -2.840  -8.475   3.871  1.00  0.00     0.004 A 
ATOM     83  C   UNL     1      -0.889  -9.139   1.994  1.00  0.00     0.000 A 
ATOM     84  C   UNL     1      -1.489  -8.424   4.218  1.00  0.00     0.000 A 
ATOM     85  C   UNL     1      -0.514  -8.754   3.279  1.00  0.00     0.000 A 
ENDBRANCH  79  80
ENDBRANCH  76  79
ENDBRANCH  74  76
ENDBRANCH  72  74
ENDBRANCH  70  71
ENDBRANCH   1  69
TORSDOF 17
ENDMDL
MODEL 21
REMARK VINA RESULT:    -6.729      3.882      9.602
REMARK INTER + INTRA:         -26.596
REMARK INTER:                 -19.378
REMARK INTRA:                  -7.219
REMARK UNBOUND:                -6.494
REMARK SMILES C=C1C(=O)N[C@H](C)C(=O)N[C@@H](CC(C)C)C(=O)N[C@@H](C(=O)O)[C@H](C)C(=O)N[C@@H](CCCN=C(N)N)C(=O)N[C@@H](/C=C/C(C)=C/[C@H](C)[C@H](Cc2ccccc2)OC)[C@H](C)C(=O)N[C@@H](C(=O)O)CCC(=O)N1C
REMARK SMILES IDX 39 1 38 2 37 3 36 4 28 6 27 7 25 8 26 9 23 11 24 12 19 13
REMARK SMILES IDX 18 14 16 15 17 16 11 18 10 19 8 20 9 21 12 24 13 25 14 26
REMARK SMILES IDX 15 27 20 28 21 29 22 30 29 32 30 33 31 34 32 35 33 36 34 37
REMARK SMILES IDX 35 38 57 43 58 44 59 45 60 46 61 47 62 49 66 50 67 51 68 52
REMARK SMILES IDX 69 53 70 54 71 55 2 56 1 57 3 58 4 59 5 60 6 62 7 63 63 65
REMARK SMILES IDX 64 66 65 67 40 69 41 70 42 71 44 72 43 73 45 74 46 75 47 76
REMARK SMILES IDX 55 77 56 78 48 79 49 80 50 81 54 82 51 83 53 84 52 85
REMARK H PARENT 38 5 27 10 18 17 10 22 22 31 34 39 34 40 35 41 35 42 61 48
REMARK H PARENT 5 61 65 68
REMARK Flexibility Score:  369.900
ROOT
ATOM      1  C   UNL     1      -5.623  -3.940  -0.511  1.00  0.00     0.117 C 
ENDROOT
BRANCH   1   2
ATOM      2  N   UNL     1      -6.722  -2.974  -0.523  1.00  0.00    -0.347 N 
ATOM      3  O   UNL     1      -8.298  -4.280   0.517  1.00  0.00    -0.273 OA
ATOM      4  C   UNL     1      -7.948  -3.190   0.076  1.00  0.00     0.243 C 
ATOM      5  H   UNL     1      -6.581  -2.070  -0.947  1.00  0.00     0.164 HD
BRANCH   4   6
ATOM      6  C   UNL     1      -8.905  -1.974  -0.007  1.00  0.00     0.171 C 
BRANCH   6   7
ATOM      7  N   UNL     1      -8.205  -0.806  -0.565  1.00  0.00    -0.344 N 
ATOM      8  C   UNL     1      -8.347   0.439   0.009  1.00  0.00     0.226 C 
ATOM      9  O   UNL     1      -9.066   0.640   0.981  1.00  0.00    -0.275 OA
ATOM     10  H   UNL     1      -7.656  -0.919  -1.408  1.00  0.00     0.164 HD
BRANCH   8  11
ATOM     11  C   UNL     1      -7.519   1.529  -0.649  1.00  0.00     0.109 C 
ATOM     12  C   UNL     1      -6.249   0.932  -1.254  1.00  0.00     0.021 C 
BRANCH  11  13
ATOM     13  C   UNL     1      -8.396   2.325  -1.636  1.00  0.00     0.204 C 
BRANCH  13  14
ATOM     14  N   UNL     1      -8.902   3.568  -1.046  1.00  0.00    -0.340 N 
ATOM     15  C   UNL     1     -10.158   4.067  -1.317  1.00  0.00     0.243 C 
ATOM     16  O   UNL     1     -10.966   3.472  -2.027  1.00  0.00    -0.273 OA
ATOM     17  H   UNL     1      -8.234   4.183  -0.574  1.00  0.00     0.164 HD
BRANCH  15  18
ATOM     18  C   UNL     1     -10.394   5.489  -0.749  1.00  0.00     0.171 C 
BRANCH  18  19
ATOM     19  N   UNL     1     -11.742   5.883  -1.154  1.00  0.00    -0.343 N 
ATOM     20  C   UNL     1     -12.060   7.194  -1.449  1.00  0.00     0.242 CG0
ATOM     21  O   UNL     1     -11.262   8.109  -1.257  1.00  0.00    -0.273 OA
ATOM     22  H   UNL     1     -12.468   5.178  -1.215  1.00  0.00     0.164 HD
ATOM     23  G   UNL     1     -13.510   7.404  -1.932  1.00  0.00     0.000 G0
ENDBRANCH  18  19
BRANCH  18  24
ATOM     24  C   UNL     1     -10.240   5.496   0.776  1.00  0.00     0.038 C 
BRANCH  24  25
ATOM     25  C   UNL     1     -11.286   4.649   1.533  1.00  0.00    -0.015 C 
ATOM     26  C   UNL     1     -12.158   5.492   2.463  1.00  0.00     0.007 C 
ATOM     27  C   UNL     1     -10.578   3.557   2.339  1.00  0.00     0.007 C 
ENDBRANCH  24  25
ENDBRANCH  18  24
ENDBRANCH  15  18
ENDBRANCH  13  14
BRANCH  13  28
ATOM     28  C   UNL     1      -7.661   2.702  -2.926  1.00  0.00     0.327 C 
ATOM     29  O   UNL     1      -6.869   3.622  -3.065  1.00  0.00    -0.250 OA
BRANCH  28  30
ATOM     30  O   UNL     1      -8.056   1.975  -3.991  1.00  0.00    -0.480 OA
ATOM     31  H   UNL     1      -8.318   1.111  -3.610  1.00  0.00     0.296 HD
ENDBRANCH  28  30
ENDBRANCH  13  28
ENDBRANCH  11  13
ENDBRANCH   8  11
ENDBRANCH   6   7
BRANCH   6  32
ATOM     32  C   UNL     1     -10.119  -2.347  -0.866  1.00  0.00     0.037 C 
BRANCH  32  33
ATOM     33  C   UNL     1     -11.377  -1.566  -0.460  1.00  0.00     0.026 C 
BRANCH  33  34
ATOM     34  C   UNL     1     -12.291  -1.270  -1.649  1.00  0.00     0.146 C 
BRANCH  34  35
ATOM     35  N   UNL     1     -11.958   0.043  -2.182  1.00  0.00    -0.254 NA
ATOM     36  C   UNL     1     -11.372   0.115  -3.319  1.00  0.00     0.185 C 
ATOM     37  N   UNL     1     -11.065   1.320  -3.822  1.00  0.00    -0.370 N 
ATOM     38  N   UNL     1     -10.993  -0.882  -4.138  1.00  0.00    -0.370 N 
ATOM     39  H   UNL     1     -11.328   2.125  -3.267  1.00  0.00     0.159 HD
ATOM     40  H   UNL     1     -10.767   1.468  -4.771  1.00  0.00     0.159 HD
ATOM     41  H   UNL     1     -10.414  -0.704  -4.942  1.00  0.00     0.159 HD
ATOM     42  H   UNL     1     -11.147  -1.845  -3.879  1.00  0.00     0.159 HD
ENDBRANCH  34  35
ENDBRANCH  33  34
ENDBRANCH  32  33
ENDBRANCH   6  32
ENDBRANCH   4   6
ENDBRANCH   1   2
BRANCH   1  43
ATOM     43  C   UNL     1      -5.828  -4.939  -1.687  1.00  0.00     0.102 C 
ATOM     44  C   UNL     1      -4.512  -5.505  -2.246  1.00  0.00     0.020 C 
BRANCH  43  45
ATOM     45  C   UNL     1      -6.754  -4.348  -2.755  1.00  0.00     0.225 C 
ATOM     46  O   UNL     1      -7.933  -4.668  -2.873  1.00  0.00    -0.275 OA
ATOM     47  N   UNL     1      -6.154  -3.492  -3.650  1.00  0.00    -0.342 N 
ATOM     48  H   UNL     1      -5.234  -3.124  -3.452  1.00  0.00     0.164 HD
BRANCH  47  49
ATOM     49  C   UNL     1      -6.924  -2.824  -4.704  1.00  0.00     0.192 C 
BRANCH  49  50
ATOM     50  C   UNL     1      -6.170  -2.924  -6.033  1.00  0.00     0.047 C 
BRANCH  50  51
ATOM     51  C   UNL     1      -5.247  -4.149  -6.088  1.00  0.00     0.103 C 
BRANCH  51  52
ATOM     52  C   UNL     1      -5.929  -5.352  -6.736  1.00  0.00     0.226 C 
ATOM     53  O   UNL     1      -7.006  -5.755  -6.293  1.00  0.00    -0.275 OA
BRANCH  52  54
ATOM     54  N   UNL     1      -5.302  -5.889  -7.876  1.00  0.00    -0.311 N 
ATOM     55  C   UNL     1      -4.646  -5.018  -8.860  1.00  0.00     0.153 C 
BRANCH  54  56
ATOM     56  C   UNL     1      -5.274  -7.274  -8.112  1.00  0.00     0.102 C 
ATOM     57  C   UNL     1      -6.229  -7.963  -8.757  1.00  0.00     0.043 C 
BRANCH  56  58
ATOM     58  C   UNL     1      -4.095  -8.111  -7.675  1.00  0.00     0.268 C 
ATOM     59  O   UNL     1      -3.866  -8.387  -6.505  1.00  0.00    -0.268 OA
ATOM     60  N   UNL     1      -3.348  -8.583  -8.728  1.00  0.00    -0.339 N 
ATOM     61  H   UNL     1      -3.598  -8.300  -9.668  1.00  0.00     0.164 HD
BRANCH  60  62
ATOM     62  C   UNL     1      -2.198  -9.465  -8.534  1.00  0.00     0.168 CG0
ATOM     63  C   UNL     1      -0.900  -8.668  -8.489  1.00  0.00     0.041 C 
ATOM     64  G   UNL     1      -2.155 -10.515  -9.663  1.00  0.00     0.000 G0
ENDBRANCH  60  62
ENDBRANCH  56  58
ENDBRANCH  54  56
ENDBRANCH  52  54
ENDBRANCH  51  52
ENDBRANCH  50  51
ENDBRANCH  49  50
BRANCH  49  65
ATOM     65  C   UNL     1      -7.175  -1.345  -4.372  1.00  0.00     0.326 C 
ATOM     66  O   UNL     1      -8.046  -0.923  -3.625  1.00  0.00    -0.250 OA
BRANCH  65  67
ATOM     67  O   UNL     1      -6.375  -0.475  -5.028  1.00  0.00    -0.480 OA
ATOM     68  H   UNL     1      -6.956   0.300  -5.185  1.00  0.00     0.296 HD
ENDBRANCH  65  67
ENDBRANCH  49  65
ENDBRANCH  47  49
ENDBRANCH  43  45
ENDBRANCH   1  43
BRANCH   1  69
ATOM     69  C   UNL     1      -5.549  -4.480   0.905  1.00  0.00    -0.001 C 
ATOM     70  C   UNL     1      -4.994  -3.888   1.977  1.00  0.00     0.001 C 
BRANCH  70  71
ATOM     71  C   UNL     1      -4.947  -4.410   3.345  1.00  0.00    -0.055 C 
ATOM     72  C   UNL     1      -5.390  -5.668   3.552  1.00  0.00    -0.018 C 
ATOM     73  C   UNL     1      -4.401  -3.509   4.422  1.00  0.00     0.044 C 
BRANCH  72  74
ATOM     74  C   UNL     1      -5.457  -6.464   4.847  1.00  0.00     0.038 C 
ATOM     75  C   UNL     1      -4.079  -7.103   5.058  1.00  0.00     0.015 C 
BRANCH  74  76
ATOM     76  C   UNL     1      -6.638  -7.475   4.752  1.00  0.00     0.128 C 
BRANCH  76  77
ATOM     77  O   UNL     1      -7.501  -7.329   5.893  1.00  0.00    -0.381 OA
ATOM     78  C   UNL     1      -7.376  -8.380   6.842  1.00  0.00     0.195 C 
ENDBRANCH  76  77
BRANCH  76  79
ATOM     79  C   UNL     1      -7.406  -7.422   3.408  1.00  0.00     0.068 C 
BRANCH  79  80
ATOM     80  C   UNL     1      -6.737  -8.008   2.188  1.00  0.00    -0.045 A 
ATOM     81  C   UNL     1      -7.150  -7.651   0.897  1.00  0.00     0.004 A 
ATOM     82  C   UNL     1      -5.704  -8.946   2.330  1.00  0.00     0.004 A 
ATOM     83  C   UNL     1      -6.536  -8.209  -0.226  1.00  0.00     0.000 A 
ATOM     84  C   UNL     1      -5.091  -9.503   1.206  1.00  0.00     0.000 A 
ATOM     85  C   UNL     1      -5.505  -9.134  -0.072  1.00  0.00     0.000 A 
ENDBRANCH  79  80
ENDBRANCH  76  79
ENDBRANCH  74  76
ENDBRANCH  72  74
ENDBRANCH  70  71
ENDBRANCH   1  69
TORSDOF 17
ENDMDL
MODEL 22
REMARK VINA RESULT:    -6.726      3.834     10.110
REMARK INTER + INTRA:         -26.590
REMARK INTER:                 -20.053
REMARK INTRA:                  -6.536
REMARK UNBOUND:                -6.494
REMARK SMILES C=C1C(=O)N[C@H](C)C(=O)N[C@@H](CC(C)C)C(=O)N[C@@H](C(=O)O)[C@H](C)C(=O)N[C@@H](CCCN=C(N)N)C(=O)N[C@@H](/C=C/C(C)=C/[C@H](C)[C@H](Cc2ccccc2)OC)[C@H](C)C(=O)N[C@@H](C(=O)O)CCC(=O)N1C
REMARK SMILES IDX 39 1 38 2 37 3 36 4 28 6 27 7 25 8 26 9 23 11 24 12 19 13
REMARK SMILES IDX 18 14 16 15 17 16 11 18 10 19 8 20 9 21 12 24 13 25 14 26
REMARK SMILES IDX 15 27 20 28 21 29 22 30 29 32 30 33 31 34 32 35 33 36 34 37
REMARK SMILES IDX 35 38 57 43 58 44 59 45 60 46 61 47 62 49 66 50 67 51 68 52
REMARK SMILES IDX 69 53 70 54 71 55 2 56 1 57 3 58 4 59 5 60 6 62 7 63 63 65
REMARK SMILES IDX 64 66 65 67 40 69 41 70 42 71 44 72 43 73 45 74 46 75 47 76
REMARK SMILES IDX 55 77 56 78 48 79 49 80 50 81 54 82 51 83 53 84 52 85
REMARK H PARENT 38 5 27 10 18 17 10 22 22 31 34 39 34 40 35 41 35 42 61 48
REMARK H PARENT 5 61 65 68
REMARK Flexibility Score:  369.900
ROOT
ATOM      1  C   UNL     1      -5.557  -4.157  -0.516  1.00  0.00     0.117 C 
ENDROOT
BRANCH   1   2
ATOM      2  N   UNL     1      -6.613  -3.144  -0.510  1.00  0.00    -0.347 N 
ATOM      3  O   UNL     1      -8.240  -4.395   0.520  1.00  0.00    -0.273 OA
ATOM      4  C   UNL     1      -7.845  -3.315   0.092  1.00  0.00     0.243 C 
ATOM      5  H   UNL     1      -6.435  -2.241  -0.921  1.00  0.00     0.164 HD
BRANCH   4   6
ATOM      6  C   UNL     1      -8.749  -2.058   0.030  1.00  0.00     0.171 C 
BRANCH   6   7
ATOM      7  N   UNL     1      -7.994  -0.906  -0.489  1.00  0.00    -0.344 N 
ATOM      8  C   UNL     1      -8.435   0.381  -0.269  1.00  0.00     0.226 C 
ATOM      9  O   UNL     1      -9.469   0.629   0.339  1.00  0.00    -0.275 OA
ATOM     10  H   UNL     1      -7.171  -1.074  -1.054  1.00  0.00     0.164 HD
BRANCH   8  11
ATOM     11  C   UNL     1      -7.518   1.459  -0.820  1.00  0.00     0.109 C 
ATOM     12  C   UNL     1      -6.236   0.830  -1.366  1.00  0.00     0.021 C 
BRANCH  11  13
ATOM     13  C   UNL     1      -8.290   2.335  -1.827  1.00  0.00     0.204 C 
BRANCH  13  14
ATOM     14  N   UNL     1      -8.795   3.567  -1.212  1.00  0.00    -0.340 N 
ATOM     15  C   UNL     1     -10.037   4.092  -1.498  1.00  0.00     0.243 C 
ATOM     16  O   UNL     1     -10.835   3.530  -2.246  1.00  0.00    -0.273 OA
ATOM     17  H   UNL     1      -8.131   4.158  -0.705  1.00  0.00     0.164 HD
BRANCH  15  18
ATOM     18  C   UNL     1     -10.267   5.499  -0.895  1.00  0.00     0.171 C 
BRANCH  18  19
ATOM     19  N   UNL     1     -11.643   5.872  -1.216  1.00  0.00    -0.343 N 
ATOM     20  C   UNL     1     -11.936   6.964  -2.010  1.00  0.00     0.242 CG0
ATOM     21  O   UNL     1     -11.063   7.749  -2.372  1.00  0.00    -0.273 OA
ATOM     22  H   UNL     1     -12.408   5.320  -0.844  1.00  0.00     0.164 HD
ATOM     23  G   UNL     1     -13.439   7.153  -2.304  1.00  0.00     0.000 G0
ENDBRANCH  18  19
BRANCH  18  24
ATOM     24  C   UNL     1     -10.028   5.484   0.620  1.00  0.00     0.038 C 
BRANCH  24  25
ATOM     25  C   UNL     1     -11.041   4.642   1.424  1.00  0.00    -0.015 C 
ATOM     26  C   UNL     1     -11.814   5.476   2.447  1.00  0.00     0.007 C 
ATOM     27  C   UNL     1     -10.311   3.501   2.136  1.00  0.00     0.007 C 
ENDBRANCH  24  25
ENDBRANCH  18  24
ENDBRANCH  15  18
ENDBRANCH  13  14
BRANCH  13  28
ATOM     28  C   UNL     1      -7.450   2.745  -3.040  1.00  0.00     0.327 C 
ATOM     29  O   UNL     1      -6.744   3.738  -3.128  1.00  0.00    -0.250 OA
BRANCH  28  30
ATOM     30  O   UNL     1      -7.640   1.945  -4.109  1.00  0.00    -0.480 OA
ATOM     31  H   UNL     1      -8.279   2.436  -4.666  1.00  0.00     0.296 HD
ENDBRANCH  28  30
ENDBRANCH  13  28
ENDBRANCH  11  13
ENDBRANCH   8  11
ENDBRANCH   6   7
BRANCH   6  32
ATOM     32  C   UNL     1      -9.967  -2.356  -0.852  1.00  0.00     0.037 C 
BRANCH  32  33
ATOM     33  C   UNL     1     -11.251  -2.526  -0.027  1.00  0.00     0.026 C 
BRANCH  33  34
ATOM     34  C   UNL     1     -12.286  -1.441  -0.326  1.00  0.00     0.146 C 
BRANCH  34  35
ATOM     35  N   UNL     1     -12.256  -1.143  -1.752  1.00  0.00    -0.254 NA
ATOM     36  C   UNL     1     -13.338  -1.258  -2.427  1.00  0.00     0.185 C 
ATOM     37  N   UNL     1     -13.323  -0.981  -3.740  1.00  0.00    -0.370 N 
ATOM     38  N   UNL     1     -14.560  -1.633  -2.007  1.00  0.00    -0.370 N 
ATOM     39  H   UNL     1     -12.439  -0.680  -4.130  1.00  0.00     0.159 HD
ATOM     40  H   UNL     1     -14.154  -0.878  -4.296  1.00  0.00     0.159 HD
ATOM     41  H   UNL     1     -15.301  -1.820  -2.662  1.00  0.00     0.159 HD
ATOM     42  H   UNL     1     -14.715  -1.887  -1.044  1.00  0.00     0.159 HD
ENDBRANCH  34  35
ENDBRANCH  33  34
ENDBRANCH  32  33
ENDBRANCH   6  32
ENDBRANCH   4   6
ENDBRANCH   1   2
BRANCH   1  43
ATOM     43  C   UNL     1      -5.743  -5.058  -1.770  1.00  0.00     0.102 C 
ATOM     44  C   UNL     1      -4.415  -5.523  -2.392  1.00  0.00     0.020 C 
BRANCH  43  45
ATOM     45  C   UNL     1      -6.707  -4.416  -2.772  1.00  0.00     0.225 C 
ATOM     46  O   UNL     1      -7.912  -4.649  -2.788  1.00  0.00    -0.275 OA
ATOM     47  N   UNL     1      -6.122  -3.619  -3.729  1.00  0.00    -0.342 N 
ATOM     48  H   UNL     1      -5.165  -3.318  -3.613  1.00  0.00     0.164 HD
BRANCH  47  49
ATOM     49  C   UNL     1      -6.925  -2.910  -4.731  1.00  0.00     0.192 C 
BRANCH  49  50
ATOM     50  C   UNL     1      -6.352  -3.170  -6.127  1.00  0.00     0.047 C 
BRANCH  50  51
ATOM     51  C   UNL     1      -5.014  -3.921  -6.076  1.00  0.00     0.103 C 
BRANCH  51  52
ATOM     52  C   UNL     1      -5.183  -5.412  -6.363  1.00  0.00     0.226 C 
ATOM     53  O   UNL     1      -5.744  -6.133  -5.535  1.00  0.00    -0.275 OA
BRANCH  52  54
ATOM     54  N   UNL     1      -4.742  -5.862  -7.621  1.00  0.00    -0.311 N 
ATOM     55  C   UNL     1      -4.093  -4.945  -8.568  1.00  0.00     0.153 C 
BRANCH  54  56
ATOM     56  C   UNL     1      -4.900  -7.201  -8.017  1.00  0.00     0.102 C 
ATOM     57  C   UNL     1      -5.894  -7.661  -8.793  1.00  0.00     0.043 C 
BRANCH  56  58
ATOM     58  C   UNL     1      -3.891  -8.251  -7.614  1.00  0.00     0.268 C 
ATOM     59  O   UNL     1      -3.865  -8.764  -6.504  1.00  0.00    -0.268 OA
ATOM     60  N   UNL     1      -3.054  -8.617  -8.641  1.00  0.00    -0.339 N 
ATOM     61  H   UNL     1      -3.133  -8.137  -9.529  1.00  0.00     0.164 HD
BRANCH  60  62
ATOM     62  C   UNL     1      -2.044  -9.663  -8.487  1.00  0.00     0.168 CG0
ATOM     63  C   UNL     1      -0.931  -9.504  -9.515  1.00  0.00     0.041 C 
ATOM     64  G   UNL     1      -2.711 -11.049  -8.614  1.00  0.00     0.000 G0
ENDBRANCH  60  62
ENDBRANCH  56  58
ENDBRANCH  54  56
ENDBRANCH  52  54
ENDBRANCH  51  52
ENDBRANCH  50  51
ENDBRANCH  49  50
BRANCH  49  65
ATOM     65  C   UNL     1      -6.954  -1.397  -4.466  1.00  0.00     0.326 C 
ATOM     66  O   UNL     1      -6.111  -0.594  -4.838  1.00  0.00    -0.250 OA
BRANCH  65  67
ATOM     67  O   UNL     1      -7.991  -0.977  -3.708  1.00  0.00    -0.480 OA
ATOM     68  H   UNL     1      -8.369  -0.233  -4.224  1.00  0.00     0.296 HD
ENDBRANCH  65  67
ENDBRANCH  49  65
ENDBRANCH  47  49
ENDBRANCH  43  45
ENDBRANCH   1  43
BRANCH   1  69
ATOM     69  C   UNL     1      -5.578  -4.800   0.859  1.00  0.00    -0.001 C 
ATOM     70  C   UNL     1      -5.295  -6.078   1.168  1.00  0.00     0.001 C 
BRANCH  70  71
ATOM     71  C   UNL     1      -5.298  -6.681   2.502  1.00  0.00    -0.055 C 
ATOM     72  C   UNL     1      -6.337  -6.400   3.316  1.00  0.00    -0.018 C 
ATOM     73  C   UNL     1      -4.146  -7.581   2.868  1.00  0.00     0.044 C 
BRANCH  72  74
ATOM     74  C   UNL     1      -6.606  -6.879   4.735  1.00  0.00     0.038 C 
ATOM     75  C   UNL     1      -7.452  -8.153   4.630  1.00  0.00     0.015 C 
BRANCH  74  76
ATOM     76  C   UNL     1      -7.267  -5.721   5.539  1.00  0.00     0.128 C 
BRANCH  76  77
ATOM     77  O   UNL     1      -6.291  -5.091   6.386  1.00  0.00    -0.381 OA
ATOM     78  C   UNL     1      -6.741  -3.877   6.972  1.00  0.00     0.195 C 
ENDBRANCH  76  77
BRANCH  76  79
ATOM     79  C   UNL     1      -8.040  -4.706   4.659  1.00  0.00     0.068 C 
BRANCH  79  80
ATOM     80  C   UNL     1      -9.509  -4.957   4.415  1.00  0.00    -0.045 A 
ATOM     81  C   UNL     1     -10.161  -4.408   3.303  1.00  0.00     0.004 A 
ATOM     82  C   UNL     1     -10.255  -5.727   5.321  1.00  0.00     0.004 A 
ATOM     83  C   UNL     1     -11.523  -4.633   3.093  1.00  0.00     0.000 A 
ATOM     84  C   UNL     1     -11.617  -5.951   5.110  1.00  0.00     0.000 A 
ATOM     85  C   UNL     1     -12.250  -5.405   3.996  1.00  0.00     0.000 A 
ENDBRANCH  79  80
ENDBRANCH  76  79
ENDBRANCH  74  76
ENDBRANCH  72  74
ENDBRANCH  70  71
ENDBRANCH   1  69
TORSDOF 17
ENDMDL
MODEL 23
REMARK VINA RESULT:    -6.719      4.493     10.683
REMARK INTER + INTRA:         -26.568
REMARK INTER:                 -18.358
REMARK INTRA:                  -8.210
REMARK UNBOUND:                -6.494
REMARK SMILES C=C1C(=O)N[C@H](C)C(=O)N[C@@H](CC(C)C)C(=O)N[C@@H](C(=O)O)[C@H](C)C(=O)N[C@@H](CCCN=C(N)N)C(=O)N[C@@H](/C=C/C(C)=C/[C@H](C)[C@H](Cc2ccccc2)OC)[C@H](C)C(=O)N[C@@H](C(=O)O)CCC(=O)N1C
REMARK SMILES IDX 39 1 38 2 37 3 36 4 28 6 27 7 25 8 26 9 23 11 24 12 19 13
REMARK SMILES IDX 18 14 16 15 17 16 11 18 10 19 8 20 9 21 12 24 13 25 14 26
REMARK SMILES IDX 15 27 20 28 21 29 22 30 29 32 30 33 31 34 32 35 33 36 34 37
REMARK SMILES IDX 35 38 57 43 58 44 59 45 60 46 61 47 62 49 66 50 67 51 68 52
REMARK SMILES IDX 69 53 70 54 71 55 2 56 1 57 3 58 4 59 5 60 6 62 7 63 63 65
REMARK SMILES IDX 64 66 65 67 40 69 41 70 42 71 44 72 43 73 45 74 46 75 47 76
REMARK SMILES IDX 55 77 56 78 48 79 49 80 50 81 54 82 51 83 53 84 52 85
REMARK H PARENT 38 5 27 10 18 17 10 22 22 31 34 39 34 40 35 41 35 42 61 48
REMARK H PARENT 5 61 65 68
REMARK Flexibility Score:  369.900
ROOT
ATOM      1  C   UNL     1      -6.230  -3.222  -1.536  1.00  0.00     0.117 C 
ENDROOT
BRANCH   1   2
ATOM      2  N   UNL     1      -7.104  -2.049  -1.512  1.00  0.00    -0.347 N 
ATOM      3  O   UNL     1      -5.637  -0.546  -2.438  1.00  0.00    -0.273 OA
ATOM      4  C   UNL     1      -6.767  -0.823  -2.051  1.00  0.00     0.243 C 
ATOM      5  H   UNL     1      -8.033  -2.132  -1.126  1.00  0.00     0.164 HD
BRANCH   4   6
ATOM      6  C   UNL     1      -7.905   0.227  -1.971  1.00  0.00     0.171 C 
BRANCH   6   7
ATOM      7  N   UNL     1      -8.207   0.552  -0.568  1.00  0.00    -0.344 N 
ATOM      8  C   UNL     1      -9.484   0.903  -0.187  1.00  0.00     0.226 C 
ATOM      9  O   UNL     1     -10.411   0.985  -0.984  1.00  0.00    -0.275 OA
ATOM     10  H   UNL     1      -7.453   0.561   0.107  1.00  0.00     0.164 HD
BRANCH   8  11
ATOM     11  C   UNL     1      -9.646   1.155   1.302  1.00  0.00     0.109 C 
ATOM     12  C   UNL     1     -10.020   2.616   1.551  1.00  0.00     0.021 C 
BRANCH  11  13
ATOM     13  C   UNL     1     -10.623   0.124   1.902  1.00  0.00     0.204 C 
BRANCH  13  14
ATOM     14  N   UNL     1     -11.919   0.129   1.216  1.00  0.00    -0.340 N 
ATOM     15  C   UNL     1     -13.121   0.170   1.889  1.00  0.00     0.243 C 
ATOM     16  O   UNL     1     -13.190   0.266   3.113  1.00  0.00    -0.273 OA
ATOM     17  H   UNL     1     -11.936  -0.101   0.219  1.00  0.00     0.164 HD
BRANCH  15  18
ATOM     18  C   UNL     1     -14.351  -0.044   0.973  1.00  0.00     0.171 C 
BRANCH  18  19
ATOM     19  N   UNL     1     -15.503   0.507   1.683  1.00  0.00    -0.343 N 
ATOM     20  C   UNL     1     -16.641  -0.242   1.917  1.00  0.00     0.242 CG0
ATOM     21  O   UNL     1     -16.790  -1.358   1.424  1.00  0.00    -0.273 OA
ATOM     22  H   UNL     1     -15.474   1.466   2.010  1.00  0.00     0.164 HD
ATOM     23  G   UNL     1     -17.719   0.482   2.749  1.00  0.00     0.000 G0
ENDBRANCH  18  19
BRANCH  18  24
ATOM     24  C   UNL     1     -14.143   0.645  -0.382  1.00  0.00     0.038 C 
BRANCH  24  25
ATOM     25  C   UNL     1     -14.709  -0.128  -1.592  1.00  0.00    -0.015 C 
ATOM     26  C   UNL     1     -16.156   0.252  -1.905  1.00  0.00     0.007 C 
ATOM     27  C   UNL     1     -14.617  -1.634  -1.329  1.00  0.00     0.007 C 
ENDBRANCH  24  25
ENDBRANCH  18  24
ENDBRANCH  15  18
ENDBRANCH  13  14
BRANCH  13  28
ATOM     28  C   UNL     1     -10.090  -1.311   1.855  1.00  0.00     0.327 C 
ATOM     29  O   UNL     1     -10.760  -2.332   1.890  1.00  0.00    -0.250 OA
BRANCH  28  30
ATOM     30  O   UNL     1      -8.744  -1.377   1.885  1.00  0.00    -0.480 OA
ATOM     31  H   UNL     1      -8.489  -0.760   2.603  1.00  0.00     0.296 HD
ENDBRANCH  28  30
ENDBRANCH  13  28
ENDBRANCH  11  13
ENDBRANCH   8  11
ENDBRANCH   6   7
BRANCH   6  32
ATOM     32  C   UNL     1      -7.487   1.482  -2.745  1.00  0.00     0.037 C 
BRANCH  32  33
ATOM     33  C   UNL     1      -8.409   1.758  -3.941  1.00  0.00     0.026 C 
BRANCH  33  34
ATOM     34  C   UNL     1      -8.925   0.474  -4.591  1.00  0.00     0.146 C 
BRANCH  34  35
ATOM     35  N   UNL     1     -10.369   0.575  -4.749  1.00  0.00    -0.254 NA
ATOM     36  C   UNL     1     -11.116  -0.255  -4.121  1.00  0.00     0.185 C 
ATOM     37  N   UNL     1     -12.448  -0.168  -4.256  1.00  0.00    -0.370 N 
ATOM     38  N   UNL     1     -10.759  -1.258  -3.299  1.00  0.00    -0.370 N 
ATOM     39  H   UNL     1     -12.797   0.572  -4.852  1.00  0.00     0.159 HD
ATOM     40  H   UNL     1     -13.100  -0.661  -3.669  1.00  0.00     0.159 HD
ATOM     41  H   UNL     1     -11.434  -1.931  -2.975  1.00  0.00     0.159 HD
ATOM     42  H   UNL     1      -9.786  -1.451  -3.118  1.00  0.00     0.159 HD
ENDBRANCH  34  35
ENDBRANCH  33  34
ENDBRANCH  32  33
ENDBRANCH   6  32
ENDBRANCH   4   6
ENDBRANCH   1   2
BRANCH   1  43
ATOM     43  C   UNL     1      -6.683  -4.154  -2.697  1.00  0.00     0.102 C 
ATOM     44  C   UNL     1      -5.622  -5.193  -3.097  1.00  0.00     0.020 C 
BRANCH  43  45
ATOM     45  C   UNL     1      -7.231  -3.340  -3.873  1.00  0.00     0.225 C 
ATOM     46  O   UNL     1      -8.429  -3.139  -4.049  1.00  0.00    -0.275 OA
ATOM     47  N   UNL     1      -6.294  -2.918  -4.789  1.00  0.00    -0.342 N 
ATOM     48  H   UNL     1      -5.312  -2.958  -4.554  1.00  0.00     0.164 HD
BRANCH  47  49
ATOM     49  C   UNL     1      -6.668  -2.100  -5.946  1.00  0.00     0.192 C 
BRANCH  49  50
ATOM     50  C   UNL     1      -6.495  -2.915  -7.230  1.00  0.00     0.047 C 
BRANCH  50  51
ATOM     51  C   UNL     1      -5.329  -3.909  -7.136  1.00  0.00     0.103 C 
BRANCH  51  52
ATOM     52  C   UNL     1      -5.805  -5.359  -7.200  1.00  0.00     0.226 C 
ATOM     53  O   UNL     1      -6.514  -5.808  -6.298  1.00  0.00    -0.275 OA
BRANCH  52  54
ATOM     54  N   UNL     1      -5.454  -6.084  -8.354  1.00  0.00    -0.311 N 
ATOM     55  C   UNL     1      -5.063  -5.394  -9.590  1.00  0.00     0.153 C 
BRANCH  54  56
ATOM     56  C   UNL     1      -5.458  -7.488  -8.366  1.00  0.00     0.102 C 
ATOM     57  C   UNL     1      -6.494  -8.250  -8.754  1.00  0.00     0.043 C 
BRANCH  56  58
ATOM     58  C   UNL     1      -4.229  -8.271  -7.968  1.00  0.00     0.268 C 
ATOM     59  O   UNL     1      -4.097  -8.798  -6.872  1.00  0.00    -0.268 OA
ATOM     60  N   UNL     1      -3.309  -8.384  -8.983  1.00  0.00    -0.339 N 
ATOM     61  H   UNL     1      -3.489  -7.908  -9.859  1.00  0.00     0.164 HD
BRANCH  60  62
ATOM     62  C   UNL     1      -2.074  -9.153  -8.833  1.00  0.00     0.168 CG0
ATOM     63  C   UNL     1      -0.926  -8.261  -8.379  1.00  0.00     0.041 C 
ATOM     64  G   UNL     1      -1.732  -9.846 -10.168  1.00  0.00     0.000 G0
ENDBRANCH  60  62
ENDBRANCH  56  58
ENDBRANCH  54  56
ENDBRANCH  52  54
ENDBRANCH  51  52
ENDBRANCH  50  51
ENDBRANCH  49  50
BRANCH  49  65
ATOM     65  C   UNL     1      -5.818  -0.823  -6.036  1.00  0.00     0.326 C 
ATOM     66  O   UNL     1      -6.105   0.178  -6.676  1.00  0.00    -0.250 OA
BRANCH  65  67
ATOM     67  O   UNL     1      -4.639  -0.883  -5.379  1.00  0.00    -0.480 OA
ATOM     68  H   UNL     1      -4.707  -1.712  -4.857  1.00  0.00     0.296 HD
ENDBRANCH  65  67
ENDBRANCH  49  65
ENDBRANCH  47  49
ENDBRANCH  43  45
ENDBRANCH   1  43
BRANCH   1  69
ATOM     69  C   UNL     1      -6.215  -3.769  -0.120  1.00  0.00    -0.001 C 
ATOM     70  C   UNL     1      -5.262  -4.525   0.454  1.00  0.00     0.001 C 
BRANCH  70  71
ATOM     71  C   UNL     1      -5.249  -5.029   1.829  1.00  0.00    -0.055 C 
ATOM     72  C   UNL     1      -5.809  -4.259   2.785  1.00  0.00    -0.018 C 
ATOM     73  C   UNL     1      -4.619  -6.375   2.077  1.00  0.00     0.044 C 
BRANCH  72  74
ATOM     74  C   UNL     1      -5.942  -4.522   4.278  1.00  0.00     0.038 C 
ATOM     75  C   UNL     1      -4.525  -4.528   4.865  1.00  0.00     0.015 C 
BRANCH  74  76
ATOM     76  C   UNL     1      -6.740  -5.843   4.485  1.00  0.00     0.128 C 
BRANCH  76  77
ATOM     77  O   UNL     1      -6.640  -6.268   5.854  1.00  0.00    -0.381 OA
ATOM     78  C   UNL     1      -6.489  -7.673   6.006  1.00  0.00     0.195 C 
ENDBRANCH  76  77
BRANCH  76  79
ATOM     79  C   UNL     1      -8.205  -5.778   3.983  1.00  0.00     0.068 C 
BRANCH  79  80
ATOM     80  C   UNL     1      -8.473  -6.125   2.539  1.00  0.00    -0.045 A 
ATOM     81  C   UNL     1      -8.008  -7.326   1.986  1.00  0.00     0.004 A 
ATOM     82  C   UNL     1      -9.174  -5.231   1.715  1.00  0.00     0.004 A 
ATOM     83  C   UNL     1      -8.249  -7.632   0.645  1.00  0.00     0.000 A 
ATOM     84  C   UNL     1      -9.413  -5.538   0.374  1.00  0.00     0.000 A 
ATOM     85  C   UNL     1      -8.952  -6.739  -0.160  1.00  0.00     0.000 A 
ENDBRANCH  79  80
ENDBRANCH  76  79
ENDBRANCH  74  76
ENDBRANCH  72  74
ENDBRANCH  70  71
ENDBRANCH   1  69
TORSDOF 17
ENDMDL
MODEL 24
REMARK VINA RESULT:    -6.714      3.853     12.362
REMARK INTER + INTRA:         -26.552
REMARK INTER:                 -17.267
REMARK INTRA:                  -9.285
REMARK UNBOUND:                -6.494
REMARK SMILES C=C1C(=O)N[C@H](C)C(=O)N[C@@H](CC(C)C)C(=O)N[C@@H](C(=O)O)[C@H](C)C(=O)N[C@@H](CCCN=C(N)N)C(=O)N[C@@H](/C=C/C(C)=C/[C@H](C)[C@H](Cc2ccccc2)OC)[C@H](C)C(=O)N[C@@H](C(=O)O)CCC(=O)N1C
REMARK SMILES IDX 39 1 38 2 37 3 36 4 28 6 27 7 25 8 26 9 23 11 24 12 19 13
REMARK SMILES IDX 18 14 16 15 17 16 11 18 10 19 8 20 9 21 12 24 13 25 14 26
REMARK SMILES IDX 15 27 20 28 21 29 22 30 29 32 30 33 31 34 32 35 33 36 34 37
REMARK SMILES IDX 35 38 57 43 58 44 59 45 60 46 61 47 62 49 66 50 67 51 68 52
REMARK SMILES IDX 69 53 70 54 71 55 2 56 1 57 3 58 4 59 5 60 6 62 7 63 63 65
REMARK SMILES IDX 64 66 65 67 40 69 41 70 42 71 44 72 43 73 45 74 46 75 47 76
REMARK SMILES IDX 55 77 56 78 48 79 49 80 50 81 54 82 51 83 53 84 52 85
REMARK H PARENT 38 5 27 10 18 17 10 22 22 31 34 39 34 40 35 41 35 42 61 48
REMARK H PARENT 5 61 65 68
REMARK Flexibility Score:  369.900
ROOT
ATOM      1  C   UNL     1      -8.829  -2.300   0.348  1.00  0.00     0.117 C 
ENDROOT
BRANCH   1   2
ATOM      2  N   UNL     1      -7.815  -2.761   1.297  1.00  0.00    -0.347 N 
ATOM      3  O   UNL     1      -8.740  -4.807   1.774  1.00  0.00    -0.273 OA
ATOM      4  C   UNL     1      -7.804  -4.020   1.867  1.00  0.00     0.243 C 
ATOM      5  H   UNL     1      -7.041  -2.156   1.526  1.00  0.00     0.164 HD
BRANCH   4   6
ATOM      6  C   UNL     1      -6.573  -4.284   2.770  1.00  0.00     0.171 C 
BRANCH   6   7
ATOM      7  N   UNL     1      -6.840  -5.402   3.689  1.00  0.00    -0.344 N 
ATOM      8  C   UNL     1      -7.417  -5.177   4.921  1.00  0.00     0.226 C 
ATOM      9  O   UNL     1      -7.711  -4.055   5.317  1.00  0.00    -0.275 OA
ATOM     10  H   UNL     1      -6.550  -6.335   3.425  1.00  0.00     0.164 HD
BRANCH   8  11
ATOM     11  C   UNL     1      -7.678  -6.436   5.729  1.00  0.00     0.109 C 
ATOM     12  C   UNL     1      -7.341  -6.196   7.200  1.00  0.00     0.021 C 
BRANCH  11  13
ATOM     13  C   UNL     1      -9.113  -6.936   5.466  1.00  0.00     0.204 C 
BRANCH  13  14
ATOM     14  N   UNL     1     -10.035  -5.835   5.168  1.00  0.00    -0.340 N 
ATOM     15  C   UNL     1     -11.113  -5.525   5.968  1.00  0.00     0.243 C 
ATOM     16  O   UNL     1     -11.342  -6.112   7.024  1.00  0.00    -0.273 OA
ATOM     17  H   UNL     1      -9.991  -5.410   4.238  1.00  0.00     0.164 HD
BRANCH  15  18
ATOM     18  C   UNL     1     -12.059  -4.467   5.349  1.00  0.00     0.171 C 
BRANCH  18  19
ATOM     19  N   UNL     1     -12.874  -3.943   6.443  1.00  0.00    -0.343 N 
ATOM     20  C   UNL     1     -14.169  -4.374   6.659  1.00  0.00     0.242 CG0
ATOM     21  O   UNL     1     -14.740  -5.117   5.864  1.00  0.00    -0.273 OA
ATOM     22  H   UNL     1     -12.485  -3.239   7.060  1.00  0.00     0.164 HD
ATOM     23  G   UNL     1     -14.842  -3.766   7.906  1.00  0.00     0.000 G0
ENDBRANCH  18  19
BRANCH  18  24
ATOM     24  C   UNL     1     -11.254  -3.355   4.665  1.00  0.00     0.038 C 
BRANCH  24  25
ATOM     25  C   UNL     1     -11.862  -2.839   3.343  1.00  0.00    -0.015 C 
ATOM     26  C   UNL     1     -13.221  -2.169   3.547  1.00  0.00     0.007 C 
ATOM     27  C   UNL     1     -12.003  -3.999   2.354  1.00  0.00     0.007 C 
ENDBRANCH  24  25
ENDBRANCH  18  24
ENDBRANCH  15  18
ENDBRANCH  13  14
BRANCH  13  28
ATOM     28  C   UNL     1      -9.202  -7.930   4.303  1.00  0.00     0.327 C 
ATOM     29  O   UNL     1      -9.265  -9.146   4.396  1.00  0.00    -0.250 OA
BRANCH  28  30
ATOM     30  O   UNL     1      -9.086  -7.342   3.095  1.00  0.00    -0.480 OA
ATOM     31  H   UNL     1      -9.981  -7.418   2.703  1.00  0.00     0.296 HD
ENDBRANCH  28  30
ENDBRANCH  13  28
ENDBRANCH  11  13
ENDBRANCH   8  11
ENDBRANCH   6   7
BRANCH   6  32
ATOM     32  C   UNL     1      -5.355  -4.581   1.888  1.00  0.00     0.037 C 
BRANCH  32  33
ATOM     33  C   UNL     1      -4.744  -5.957   2.187  1.00  0.00     0.026 C 
BRANCH  33  34
ATOM     34  C   UNL     1      -5.460  -7.088   1.448  1.00  0.00     0.146 C 
BRANCH  34  35
ATOM     35  N   UNL     1      -6.098  -7.958   2.427  1.00  0.00    -0.254 NA
ATOM     36  C   UNL     1      -5.540  -9.075   2.713  1.00  0.00     0.185 C 
ATOM     37  N   UNL     1      -6.117  -9.882   3.617  1.00  0.00    -0.370 N 
ATOM     38  N   UNL     1      -4.402  -9.599   2.226  1.00  0.00    -0.370 N 
ATOM     39  H   UNL     1      -6.976  -9.551   4.038  1.00  0.00     0.159 HD
ATOM     40  H   UNL     1      -5.661 -10.682   4.020  1.00  0.00     0.159 HD
ATOM     41  H   UNL     1      -4.139 -10.550   2.427  1.00  0.00     0.159 HD
ATOM     42  H   UNL     1      -3.869  -9.108   1.525  1.00  0.00     0.159 HD
ENDBRANCH  34  35
ENDBRANCH  33  34
ENDBRANCH  32  33
ENDBRANCH   6  32
ENDBRANCH   4   6
ENDBRANCH   1   2
BRANCH   1  43
ATOM     43  C   UNL     1      -8.165  -2.149  -1.051  1.00  0.00     0.102 C 
ATOM     44  C   UNL     1      -9.173  -2.166  -2.212  1.00  0.00     0.020 C 
BRANCH  43  45
ATOM     45  C   UNL     1      -7.006  -3.136  -1.220  1.00  0.00     0.225 C 
ATOM     46  O   UNL     1      -5.829  -2.822  -1.063  1.00  0.00    -0.275 OA
ATOM     47  N   UNL     1      -7.357  -4.393  -1.655  1.00  0.00    -0.342 N 
ATOM     48  H   UNL     1      -8.327  -4.677  -1.632  1.00  0.00     0.164 HD
BRANCH  47  49
ATOM     49  C   UNL     1      -6.358  -5.452  -1.827  1.00  0.00     0.192 C 
BRANCH  49  50
ATOM     50  C   UNL     1      -5.476  -5.135  -3.037  1.00  0.00     0.047 C 
BRANCH  50  51
ATOM     51  C   UNL     1      -6.275  -5.102  -4.347  1.00  0.00     0.103 C 
BRANCH  51  52
ATOM     52  C   UNL     1      -5.421  -4.649  -5.529  1.00  0.00     0.226 C 
ATOM     53  O   UNL     1      -4.994  -3.493  -5.567  1.00  0.00    -0.275 OA
BRANCH  52  54
ATOM     54  N   UNL     1      -5.106  -5.631  -6.487  1.00  0.00    -0.311 N 
ATOM     55  C   UNL     1      -4.240  -6.768  -6.149  1.00  0.00     0.153 C 
BRANCH  54  56
ATOM     56  C   UNL     1      -5.610  -5.564  -7.797  1.00  0.00     0.102 C 
ATOM     57  C   UNL     1      -6.867  -5.875  -8.153  1.00  0.00     0.043 C 
BRANCH  56  58
ATOM     58  C   UNL     1      -4.747  -5.075  -8.936  1.00  0.00     0.268 C 
ATOM     59  O   UNL     1      -4.758  -5.581 -10.050  1.00  0.00    -0.268 OA
ATOM     60  N   UNL     1      -4.001  -3.967  -8.611  1.00  0.00    -0.339 N 
ATOM     61  H   UNL     1      -4.040  -3.615  -7.662  1.00  0.00     0.164 HD
BRANCH  60  62
ATOM     62  C   UNL     1      -3.143  -3.293  -9.585  1.00  0.00     0.168 CG0
ATOM     63  C   UNL     1      -3.851  -2.091 -10.198  1.00  0.00     0.041 C 
ATOM     64  G   UNL     1      -2.718  -4.293 -10.679  1.00  0.00     0.000 G0
ENDBRANCH  60  62
ENDBRANCH  56  58
ENDBRANCH  54  56
ENDBRANCH  52  54
ENDBRANCH  51  52
ENDBRANCH  50  51
ENDBRANCH  49  50
BRANCH  49  65
ATOM     65  C   UNL     1      -7.016  -6.826  -2.023  1.00  0.00     0.326 C 
ATOM     66  O   UNL     1      -6.435  -7.902  -2.003  1.00  0.00    -0.250 OA
BRANCH  65  67
ATOM     67  O   UNL     1      -8.340  -6.784  -2.290  1.00  0.00    -0.480 OA
ATOM     68  H   UNL     1      -8.555  -7.709  -2.539  1.00  0.00     0.296 HD
ENDBRANCH  65  67
ENDBRANCH  49  65
ENDBRANCH  47  49
ENDBRANCH  43  45
ENDBRANCH   1  43
BRANCH   1  69
ATOM     69  C   UNL     1      -9.485  -1.088   0.984  1.00  0.00    -0.001 C 
ATOM     70  C   UNL     1      -9.127  -0.468   2.122  1.00  0.00     0.001 C 
BRANCH  70  71
ATOM     71  C   UNL     1      -9.755   0.714   2.715  1.00  0.00    -0.055 C 
ATOM     72  C   UNL     1     -11.103   0.745   2.776  1.00  0.00    -0.018 C 
ATOM     73  C   UNL     1      -8.852   1.809   3.222  1.00  0.00     0.044 C 
BRANCH  72  74
ATOM     74  C   UNL     1     -12.017   1.827   3.333  1.00  0.00     0.038 C 
ATOM     75  C   UNL     1     -12.441   1.382   4.738  1.00  0.00     0.015 C 
BRANCH  74  76
ATOM     76  C   UNL     1     -13.193   2.051   2.337  1.00  0.00     0.128 C 
BRANCH  76  77
ATOM     77  O   UNL     1     -13.566   3.439   2.322  1.00  0.00    -0.381 OA
ATOM     78  C   UNL     1     -14.816   3.687   1.693  1.00  0.00     0.195 C 
ENDBRANCH  76  77
BRANCH  76  79
ATOM     79  C   UNL     1     -12.932   1.485   0.918  1.00  0.00     0.068 C 
BRANCH  79  80
ATOM     80  C   UNL     1     -13.590   0.178   0.546  1.00  0.00    -0.045 A 
ATOM     81  C   UNL     1     -14.902  -0.109   0.944  1.00  0.00     0.004 A 
ATOM     82  C   UNL     1     -12.881  -0.787  -0.185  1.00  0.00     0.004 A 
ATOM     83  C   UNL     1     -15.499  -1.326   0.608  1.00  0.00     0.000 A 
ATOM     84  C   UNL     1     -13.478  -2.005  -0.520  1.00  0.00     0.000 A 
ATOM     85  C   UNL     1     -14.787  -2.273  -0.125  1.00  0.00     0.000 A 
ENDBRANCH  79  80
ENDBRANCH  76  79
ENDBRANCH  74  76
ENDBRANCH  72  74
ENDBRANCH  70  71
ENDBRANCH   1  69
TORSDOF 17
ENDMDL
MODEL 25
REMARK VINA RESULT:    -6.709      4.355     11.044
REMARK INTER + INTRA:         -26.539
REMARK INTER:                 -17.714
REMARK INTRA:                  -8.825
REMARK UNBOUND:                -6.494
REMARK SMILES C=C1C(=O)N[C@H](C)C(=O)N[C@@H](CC(C)C)C(=O)N[C@@H](C(=O)O)[C@H](C)C(=O)N[C@@H](CCCN=C(N)N)C(=O)N[C@@H](/C=C/C(C)=C/[C@H](C)[C@H](Cc2ccccc2)OC)[C@H](C)C(=O)N[C@@H](C(=O)O)CCC(=O)N1C
REMARK SMILES IDX 39 1 38 2 37 3 36 4 28 6 27 7 25 8 26 9 23 11 24 12 19 13
REMARK SMILES IDX 18 14 16 15 17 16 11 18 10 19 8 20 9 21 12 24 13 25 14 26
REMARK SMILES IDX 15 27 20 28 21 29 22 30 29 32 30 33 31 34 32 35 33 36 34 37
REMARK SMILES IDX 35 38 57 43 58 44 59 45 60 46 61 47 62 49 66 50 67 51 68 52
REMARK SMILES IDX 69 53 70 54 71 55 2 56 1 57 3 58 4 59 5 60 6 62 7 63 63 65
REMARK SMILES IDX 64 66 65 67 40 69 41 70 42 71 44 72 43 73 45 74 46 75 47 76
REMARK SMILES IDX 55 77 56 78 48 79 49 80 50 81 54 82 51 83 53 84 52 85
REMARK H PARENT 38 5 27 10 18 17 10 22 22 31 34 39 34 40 35 41 35 42 61 48
REMARK H PARENT 5 61 65 68
REMARK Flexibility Score:  369.900
ROOT
ATOM      1  C   UNL     1      -8.171  -1.418  -1.584  1.00  0.00     0.117 C 
ENDROOT
BRANCH   1   2
ATOM      2  N   UNL     1      -8.233  -1.921  -0.211  1.00  0.00    -0.347 N 
ATOM      3  O   UNL     1      -9.559  -3.753  -0.609  1.00  0.00    -0.273 OA
ATOM      4  C   UNL     1      -8.849  -3.104   0.152  1.00  0.00     0.243 C 
ATOM      5  H   UNL     1      -7.762  -1.415   0.523  1.00  0.00     0.164 HD
BRANCH   4   6
ATOM      6  C   UNL     1      -8.696  -3.450   1.655  1.00  0.00     0.171 C 
BRANCH   6   7
ATOM      7  N   UNL     1     -10.011  -3.725   2.255  1.00  0.00    -0.344 N 
ATOM      8  C   UNL     1     -10.380  -3.130   3.442  1.00  0.00     0.226 C 
ATOM      9  O   UNL     1      -9.639  -2.374   4.060  1.00  0.00    -0.275 OA
ATOM     10  H   UNL     1     -10.624  -4.396   1.809  1.00  0.00     0.164 HD
BRANCH   8  11
ATOM     11  C   UNL     1     -11.786  -3.471   3.903  1.00  0.00     0.109 C 
ATOM     12  C   UNL     1     -11.766  -3.923   5.363  1.00  0.00     0.021 C 
BRANCH  11  13
ATOM     13  C   UNL     1     -12.734  -2.293   3.602  1.00  0.00     0.204 C 
BRANCH  13  14
ATOM     14  N   UNL     1     -12.086  -0.995   3.816  1.00  0.00    -0.340 N 
ATOM     15  C   UNL     1     -12.744   0.090   4.352  1.00  0.00     0.243 C 
ATOM     16  O   UNL     1     -13.907   0.029   4.746  1.00  0.00    -0.273 OA
ATOM     17  H   UNL     1     -11.177  -0.834   3.374  1.00  0.00     0.164 HD
BRANCH  15  18
ATOM     18  C   UNL     1     -11.925   1.403   4.290  1.00  0.00     0.171 C 
BRANCH  18  19
ATOM     19  N   UNL     1     -11.466   1.675   5.650  1.00  0.00    -0.343 N 
ATOM     20  C   UNL     1     -11.748   2.867   6.289  1.00  0.00     0.242 CG0
ATOM     21  O   UNL     1     -12.281   3.804   5.698  1.00  0.00    -0.273 OA
ATOM     22  H   UNL     1     -10.921   0.976   6.141  1.00  0.00     0.164 HD
ATOM     23  G   UNL     1     -11.250   2.941   7.747  1.00  0.00     0.000 G0
ENDBRANCH  18  19
BRANCH  18  24
ATOM     24  C   UNL     1     -10.747   1.261   3.318  1.00  0.00     0.038 C 
BRANCH  24  25
ATOM     25  C   UNL     1      -9.718   2.409   3.380  1.00  0.00    -0.015 C 
ATOM     26  C   UNL     1     -10.245   3.702   2.757  1.00  0.00     0.007 C 
ATOM     27  C   UNL     1      -8.429   1.984   2.672  1.00  0.00     0.007 C 
ENDBRANCH  24  25
ENDBRANCH  18  24
ENDBRANCH  15  18
ENDBRANCH  13  14
BRANCH  13  28
ATOM     28  C   UNL     1     -13.270  -2.302   2.167  1.00  0.00     0.327 C 
ATOM     29  O   UNL     1     -12.703  -2.759   1.186  1.00  0.00    -0.250 OA
BRANCH  28  30
ATOM     30  O   UNL     1     -14.432  -1.630   2.033  1.00  0.00    -0.480 OA
ATOM     31  H   UNL     1     -14.775  -1.556   2.947  1.00  0.00     0.296 HD
ENDBRANCH  28  30
ENDBRANCH  13  28
ENDBRANCH  11  13
ENDBRANCH   8  11
ENDBRANCH   6   7
BRANCH   6  32
ATOM     32  C   UNL     1      -7.765  -4.659   1.800  1.00  0.00     0.037 C 
BRANCH  32  33
ATOM     33  C   UNL     1      -8.538  -5.984   1.844  1.00  0.00     0.026 C 
BRANCH  33  34
ATOM     34  C   UNL     1      -7.904  -7.061   0.963  1.00  0.00     0.146 C 
BRANCH  34  35
ATOM     35  N   UNL     1      -6.950  -7.820   1.760  1.00  0.00    -0.254 NA
ATOM     36  C   UNL     1      -6.183  -8.658   1.168  1.00  0.00     0.185 C 
ATOM     37  N   UNL     1      -5.297  -9.358   1.893  1.00  0.00    -0.370 N 
ATOM     38  N   UNL     1      -6.118  -8.966  -0.139  1.00  0.00    -0.370 N 
ATOM     39  H   UNL     1      -5.278  -9.175   2.888  1.00  0.00     0.159 HD
ATOM     40  H   UNL     1      -4.552  -9.898   1.488  1.00  0.00     0.159 HD
ATOM     41  H   UNL     1      -5.569  -9.744  -0.464  1.00  0.00     0.159 HD
ATOM     42  H   UNL     1      -6.739  -8.526  -0.801  1.00  0.00     0.159 HD
ENDBRANCH  34  35
ENDBRANCH  33  34
ENDBRANCH  32  33
ENDBRANCH   6  32
ENDBRANCH   4   6
ENDBRANCH   1   2
BRANCH   1  43
ATOM     43  C   UNL     1      -6.692  -1.469  -2.063  1.00  0.00     0.102 C 
ATOM     44  C   UNL     1      -6.498  -0.966  -3.504  1.00  0.00     0.020 C 
BRANCH  43  45
ATOM     45  C   UNL     1      -6.074  -2.844  -1.797  1.00  0.00     0.225 C 
ATOM     46  O   UNL     1      -5.484  -3.125  -0.757  1.00  0.00    -0.275 OA
ATOM     47  N   UNL     1      -6.138  -3.735  -2.844  1.00  0.00    -0.342 N 
ATOM     48  H   UNL     1      -6.751  -3.547  -3.624  1.00  0.00     0.164 HD
BRANCH  47  49
ATOM     49  C   UNL     1      -5.620  -5.101  -2.720  1.00  0.00     0.192 C 
BRANCH  49  50
ATOM     50  C   UNL     1      -4.882  -5.489  -4.004  1.00  0.00     0.047 C 
BRANCH  50  51
ATOM     51  C   UNL     1      -5.617  -5.014  -5.264  1.00  0.00     0.103 C 
BRANCH  51  52
ATOM     52  C   UNL     1      -4.668  -4.373  -6.275  1.00  0.00     0.226 C 
ATOM     53  O   UNL     1      -4.325  -3.198  -6.131  1.00  0.00    -0.275 OA
BRANCH  52  54
ATOM     54  N   UNL     1      -4.175  -5.213  -7.291  1.00  0.00    -0.311 N 
ATOM     55  C   UNL     1      -4.862  -5.319  -8.585  1.00  0.00     0.153 C 
BRANCH  54  56
ATOM     56  C   UNL     1      -3.008  -5.974  -7.110  1.00  0.00     0.102 C 
ATOM     57  C   UNL     1      -1.756  -5.508  -7.253  1.00  0.00     0.043 C 
BRANCH  56  58
ATOM     58  C   UNL     1      -3.084  -7.420  -6.679  1.00  0.00     0.268 C 
ATOM     59  O   UNL     1      -4.140  -7.999  -6.463  1.00  0.00    -0.268 OA
ATOM     60  N   UNL     1      -1.855  -8.032  -6.621  1.00  0.00    -0.339 N 
ATOM     61  H   UNL     1      -1.026  -7.479  -6.805  1.00  0.00     0.164 HD
BRANCH  60  62
ATOM     62  C   UNL     1      -1.704  -9.447  -6.286  1.00  0.00     0.168 CG0
ATOM     63  C   UNL     1      -0.271  -9.913  -6.509  1.00  0.00     0.041 C 
ATOM     64  G   UNL     1      -2.688 -10.285  -7.128  1.00  0.00     0.000 G0
ENDBRANCH  60  62
ENDBRANCH  56  58
ENDBRANCH  54  56
ENDBRANCH  52  54
ENDBRANCH  51  52
ENDBRANCH  50  51
ENDBRANCH  49  50
BRANCH  49  65
ATOM     65  C   UNL     1      -6.746  -6.113  -2.454  1.00  0.00     0.326 C 
ATOM     66  O   UNL     1      -6.609  -7.325  -2.379  1.00  0.00    -0.250 OA
BRANCH  65  67
ATOM     67  O   UNL     1      -7.980  -5.570  -2.358  1.00  0.00    -0.480 OA
ATOM     68  H   UNL     1      -8.272  -5.819  -1.454  1.00  0.00     0.296 HD
ENDBRANCH  65  67
ENDBRANCH  49  65
ENDBRANCH  47  49
ENDBRANCH  43  45
ENDBRANCH   1  43
BRANCH   1  69
ATOM     69  C   UNL     1      -8.896  -0.084  -1.579  1.00  0.00    -0.001 C 
ATOM     70  C   UNL     1      -9.425   0.555  -0.520  1.00  0.00     0.001 C 
BRANCH  70  71
ATOM     71  C   UNL     1     -10.103   1.852  -0.525  1.00  0.00    -0.055 C 
ATOM     72  C   UNL     1     -11.422   1.872  -0.239  1.00  0.00    -0.018 C 
ATOM     73  C   UNL     1      -9.280   3.074  -0.840  1.00  0.00     0.044 C 
BRANCH  72  74
ATOM     74  C   UNL     1     -12.374   3.058  -0.167  1.00  0.00     0.038 C 
ATOM     75  C   UNL     1     -13.395   2.752   0.935  1.00  0.00     0.015 C 
BRANCH  74  76
ATOM     76  C   UNL     1     -12.988   3.293  -1.579  1.00  0.00     0.128 C 
BRANCH  76  77
ATOM     77  O   UNL     1     -12.454   4.499  -2.152  1.00  0.00    -0.381 OA
ATOM     78  C   UNL     1     -13.350   5.601  -2.100  1.00  0.00     0.195 C 
ENDBRANCH  76  77
BRANCH  76  79
ATOM     79  C   UNL     1     -12.869   2.074  -2.528  1.00  0.00     0.068 C 
BRANCH  79  80
ATOM     80  C   UNL     1     -13.647   0.829  -2.180  1.00  0.00    -0.045 A 
ATOM     81  C   UNL     1     -13.047  -0.436  -2.232  1.00  0.00     0.004 A 
ATOM     82  C   UNL     1     -15.002   0.917  -1.825  1.00  0.00     0.004 A 
ATOM     83  C   UNL     1     -13.777  -1.585  -1.922  1.00  0.00     0.000 A 
ATOM     84  C   UNL     1     -15.732  -0.233  -1.516  1.00  0.00     0.000 A 
ATOM     85  C   UNL     1     -15.119  -1.483  -1.563  1.00  0.00     0.000 A 
ENDBRANCH  79  80
ENDBRANCH  76  79
ENDBRANCH  74  76
ENDBRANCH  72  74
ENDBRANCH  70  71
ENDBRANCH   1  69
TORSDOF 17
ENDMDL
MODEL 26
REMARK VINA RESULT:    -6.708      4.027     10.400
REMARK INTER + INTRA:         -26.536
REMARK INTER:                 -20.252
REMARK INTRA:                  -6.283
REMARK UNBOUND:                -6.494
REMARK SMILES C=C1C(=O)N[C@H](C)C(=O)N[C@@H](CC(C)C)C(=O)N[C@@H](C(=O)O)[C@H](C)C(=O)N[C@@H](CCCN=C(N)N)C(=O)N[C@@H](/C=C/C(C)=C/[C@H](C)[C@H](Cc2ccccc2)OC)[C@H](C)C(=O)N[C@@H](C(=O)O)CCC(=O)N1C
REMARK SMILES IDX 39 1 38 2 37 3 36 4 28 6 27 7 25 8 26 9 23 11 24 12 19 13
REMARK SMILES IDX 18 14 16 15 17 16 11 18 10 19 8 20 9 21 12 24 13 25 14 26
REMARK SMILES IDX 15 27 20 28 21 29 22 30 29 32 30 33 31 34 32 35 33 36 34 37
REMARK SMILES IDX 35 38 57 43 58 44 59 45 60 46 61 47 62 49 66 50 67 51 68 52
REMARK SMILES IDX 69 53 70 54 71 55 2 56 1 57 3 58 4 59 5 60 6 62 7 63 63 65
REMARK SMILES IDX 64 66 65 67 40 69 41 70 42 71 44 72 43 73 45 74 46 75 47 76
REMARK SMILES IDX 55 77 56 78 48 79 49 80 50 81 54 82 51 83 53 84 52 85
REMARK H PARENT 38 5 27 10 18 17 10 22 22 31 34 39 34 40 35 41 35 42 61 48
REMARK H PARENT 5 61 65 68
REMARK Flexibility Score:  369.900
ROOT
ATOM      1  C   UNL     1      -5.658  -4.733  -1.783  1.00  0.00     0.117 C 
ENDROOT
BRANCH   1   2
ATOM      2  N   UNL     1      -6.772  -3.955  -1.240  1.00  0.00    -0.347 N 
ATOM      3  O   UNL     1      -5.755  -1.898  -1.254  1.00  0.00    -0.273 OA
ATOM      4  C   UNL     1      -6.762  -2.581  -1.104  1.00  0.00     0.243 C 
ATOM      5  H   UNL     1      -7.628  -4.427  -0.988  1.00  0.00     0.164 HD
BRANCH   4   6
ATOM      6  C   UNL     1      -8.100  -1.996  -0.584  1.00  0.00     0.171 C 
BRANCH   6   7
ATOM      7  N   UNL     1      -8.083  -0.526  -0.658  1.00  0.00    -0.344 N 
ATOM      8  C   UNL     1      -8.506   0.236   0.409  1.00  0.00     0.226 C 
ATOM      9  O   UNL     1      -8.932  -0.258   1.446  1.00  0.00    -0.275 OA
ATOM     10  H   UNL     1      -7.801  -0.082  -1.523  1.00  0.00     0.164 HD
BRANCH   8  11
ATOM     11  C   UNL     1      -8.376   1.735   0.197  1.00  0.00     0.109 C 
ATOM     12  C   UNL     1      -7.513   2.019  -1.032  1.00  0.00     0.021 C 
BRANCH  11  13
ATOM     13  C   UNL     1      -9.775   2.381   0.171  1.00  0.00     0.204 C 
BRANCH  13  14
ATOM     14  N   UNL     1     -10.120   3.002   1.454  1.00  0.00    -0.340 N 
ATOM     15  C   UNL     1     -11.122   2.523   2.270  1.00  0.00     0.243 C 
ATOM     16  O   UNL     1     -11.757   1.504   2.009  1.00  0.00    -0.273 OA
ATOM     17  H   UNL     1      -9.739   3.930   1.656  1.00  0.00     0.164 HD
BRANCH  15  18
ATOM     18  C   UNL     1     -11.445   3.456   3.464  1.00  0.00     0.171 C 
BRANCH  18  19
ATOM     19  N   UNL     1     -10.750   2.905   4.625  1.00  0.00    -0.343 N 
ATOM     20  C   UNL     1     -11.370   2.778   5.853  1.00  0.00     0.242 CG0
ATOM     21  O   UNL     1     -12.488   3.243   6.060  1.00  0.00    -0.273 OA
ATOM     22  H   UNL     1      -9.784   2.612   4.534  1.00  0.00     0.164 HD
ATOM     23  G   UNL     1     -10.504   2.104   6.938  1.00  0.00     0.000 G0
ENDBRANCH  18  19
BRANCH  18  24
ATOM     24  C   UNL     1     -10.994   4.891   3.167  1.00  0.00     0.038 C 
BRANCH  24  25
ATOM     25  C   UNL     1     -12.143   5.914   3.036  1.00  0.00    -0.015 C 
ATOM     26  C   UNL     1     -12.835   6.191   4.371  1.00  0.00     0.007 C 
ATOM     27  C   UNL     1     -13.169   5.407   2.019  1.00  0.00     0.007 C 
ENDBRANCH  24  25
ENDBRANCH  18  24
ENDBRANCH  15  18
ENDBRANCH  13  14
BRANCH  13  28
ATOM     28  C   UNL     1      -9.922   3.458  -0.908  1.00  0.00     0.327 C 
ATOM     29  O   UNL     1      -9.583   4.628  -0.813  1.00  0.00    -0.250 OA
BRANCH  28  30
ATOM     30  O   UNL     1     -10.593   3.029  -1.996  1.00  0.00    -0.480 OA
ATOM     31  H   UNL     1     -11.322   3.675  -2.101  1.00  0.00     0.296 HD
ENDBRANCH  28  30
ENDBRANCH  13  28
ENDBRANCH  11  13
ENDBRANCH   8  11
ENDBRANCH   6   7
BRANCH   6  32
ATOM     32  C   UNL     1      -9.256  -2.572  -1.409  1.00  0.00     0.037 C 
BRANCH  32  33
ATOM     33  C   UNL     1     -10.520  -2.788  -0.564  1.00  0.00     0.026 C 
BRANCH  33  34
ATOM     34  C   UNL     1     -10.330  -3.861   0.509  1.00  0.00     0.146 C 
BRANCH  34  35
ATOM     35  N   UNL     1     -10.344  -5.170  -0.129  1.00  0.00    -0.254 NA
ATOM     36  C   UNL     1      -9.486  -6.045   0.246  1.00  0.00     0.185 C 
ATOM     37  N   UNL     1      -9.492  -7.256  -0.331  1.00  0.00    -0.370 N 
ATOM     38  N   UNL     1      -8.524  -5.938   1.180  1.00  0.00    -0.370 N 
ATOM     39  H   UNL     1     -10.197  -7.418  -1.040  1.00  0.00     0.159 HD
ATOM     40  H   UNL     1      -8.976  -8.043   0.022  1.00  0.00     0.159 HD
ATOM     41  H   UNL     1      -7.820  -6.651   1.286  1.00  0.00     0.159 HD
ATOM     42  H   UNL     1      -8.392  -5.076   1.684  1.00  0.00     0.159 HD
ENDBRANCH  34  35
ENDBRANCH  33  34
ENDBRANCH  32  33
ENDBRANCH   6  32
ENDBRANCH   4   6
ENDBRANCH   1   2
BRANCH   1  43
ATOM     43  C   UNL     1      -6.129  -5.420  -3.098  1.00  0.00     0.102 C 
ATOM     44  C   UNL     1      -4.994  -6.123  -3.861  1.00  0.00     0.020 C 
BRANCH  43  45
ATOM     45  C   UNL     1      -6.953  -4.458  -3.957  1.00  0.00     0.225 C 
ATOM     46  O   UNL     1      -8.177  -4.515  -4.044  1.00  0.00    -0.275 OA
ATOM     47  N   UNL     1      -6.226  -3.567  -4.713  1.00  0.00    -0.342 N 
ATOM     48  H   UNL     1      -5.244  -3.431  -4.519  1.00  0.00     0.164 HD
BRANCH  47  49
ATOM     49  C   UNL     1      -6.882  -2.563  -5.556  1.00  0.00     0.192 C 
BRANCH  49  50
ATOM     50  C   UNL     1      -6.545  -2.826  -7.026  1.00  0.00     0.047 C 
BRANCH  50  51
ATOM     51  C   UNL     1      -6.674  -4.310  -7.397  1.00  0.00     0.103 C 
BRANCH  51  52
ATOM     52  C   UNL     1      -5.321  -4.939  -7.722  1.00  0.00     0.226 C 
ATOM     53  O   UNL     1      -4.336  -4.657  -7.037  1.00  0.00    -0.275 OA
BRANCH  52  54
ATOM     54  N   UNL     1      -5.303  -5.884  -8.765  1.00  0.00    -0.311 N 
ATOM     55  C   UNL     1      -5.151  -5.463 -10.164  1.00  0.00     0.153 C 
BRANCH  54  56
ATOM     56  C   UNL     1      -5.425  -7.260  -8.509  1.00  0.00     0.102 C 
ATOM     57  C   UNL     1      -6.491  -8.010  -8.832  1.00  0.00     0.043 C 
BRANCH  56  58
ATOM     58  C   UNL     1      -4.298  -8.031  -7.864  1.00  0.00     0.268 C 
ATOM     59  O   UNL     1      -4.225  -8.230  -6.659  1.00  0.00    -0.268 OA
ATOM     60  N   UNL     1      -3.402  -8.540  -8.774  1.00  0.00    -0.339 N 
ATOM     61  H   UNL     1      -3.527  -8.321  -9.755  1.00  0.00     0.164 HD
BRANCH  60  62
ATOM     62  C   UNL     1      -2.269  -9.371  -8.370  1.00  0.00     0.168 CG0
ATOM     63  C   UNL     1      -1.258  -9.505  -9.503  1.00  0.00     0.041 C 
ATOM     64  G   UNL     1      -2.777 -10.758  -7.925  1.00  0.00     0.000 G0
ENDBRANCH  60  62
ENDBRANCH  56  58
ENDBRANCH  54  56
ENDBRANCH  52  54
ENDBRANCH  51  52
ENDBRANCH  50  51
ENDBRANCH  49  50
BRANCH  49  65
ATOM     65  C   UNL     1      -6.447  -1.137  -5.182  1.00  0.00     0.326 C 
ATOM     66  O   UNL     1      -6.340  -0.200  -5.959  1.00  0.00    -0.250 OA
BRANCH  65  67
ATOM     67  O   UNL     1      -6.115  -0.973  -3.882  1.00  0.00    -0.480 OA
ATOM     68  H   UNL     1      -5.362  -0.344  -3.914  1.00  0.00     0.296 HD
ENDBRANCH  65  67
ENDBRANCH  49  65
ENDBRANCH  47  49
ENDBRANCH  43  45
ENDBRANCH   1  43
BRANCH   1  69
ATOM     69  C   UNL     1      -5.149  -5.598  -0.645  1.00  0.00    -0.001 C 
ATOM     70  C   UNL     1      -5.449  -6.886  -0.400  1.00  0.00     0.001 C 
BRANCH  70  71
ATOM     71  C   UNL     1      -4.934  -7.717   0.690  1.00  0.00    -0.055 C 
ATOM     72  C   UNL     1      -5.376  -7.458   1.939  1.00  0.00    -0.018 C 
ATOM     73  C   UNL     1      -3.956  -8.807   0.340  1.00  0.00     0.044 C 
BRANCH  72  74
ATOM     74  C   UNL     1      -5.023  -8.149   3.248  1.00  0.00     0.038 C 
ATOM     75  C   UNL     1      -5.741  -9.504   3.252  1.00  0.00     0.015 C 
BRANCH  74  76
ATOM     76  C   UNL     1      -5.400  -7.207   4.429  1.00  0.00     0.128 C 
BRANCH  76  77
ATOM     77  O   UNL     1      -4.278  -6.376   4.771  1.00  0.00    -0.381 OA
ATOM     78  C   UNL     1      -4.585  -4.988   4.809  1.00  0.00     0.195 C 
ENDBRANCH  76  77
BRANCH  76  79
ATOM     79  C   UNL     1      -6.699  -6.395   4.197  1.00  0.00     0.068 C 
BRANCH  79  80
ATOM     80  C   UNL     1      -7.944  -6.827   4.933  1.00  0.00    -0.045 A 
ATOM     81  C   UNL     1      -9.111  -6.053   4.894  1.00  0.00     0.004 A 
ATOM     82  C   UNL     1      -7.942  -8.005   5.695  1.00  0.00     0.004 A 
ATOM     83  C   UNL     1     -10.255  -6.453   5.589  1.00  0.00     0.000 A 
ATOM     84  C   UNL     1      -9.086  -8.404   6.390  1.00  0.00     0.000 A 
ATOM     85  C   UNL     1     -10.242  -7.629   6.335  1.00  0.00     0.000 A 
ENDBRANCH  79  80
ENDBRANCH  76  79
ENDBRANCH  74  76
ENDBRANCH  72  74
ENDBRANCH  70  71
ENDBRANCH   1  69
TORSDOF 17
ENDMDL
MODEL 27
REMARK VINA RESULT:    -6.702      4.035     13.249
REMARK INTER + INTRA:         -26.516
REMARK INTER:                 -18.958
REMARK INTRA:                  -7.558
REMARK UNBOUND:                -6.494
REMARK SMILES C=C1C(=O)N[C@H](C)C(=O)N[C@@H](CC(C)C)C(=O)N[C@@H](C(=O)O)[C@H](C)C(=O)N[C@@H](CCCN=C(N)N)C(=O)N[C@@H](/C=C/C(C)=C/[C@H](C)[C@H](Cc2ccccc2)OC)[C@H](C)C(=O)N[C@@H](C(=O)O)CCC(=O)N1C
REMARK SMILES IDX 39 1 38 2 37 3 36 4 28 6 27 7 25 8 26 9 23 11 24 12 19 13
REMARK SMILES IDX 18 14 16 15 17 16 11 18 10 19 8 20 9 21 12 24 13 25 14 26
REMARK SMILES IDX 15 27 20 28 21 29 22 30 29 32 30 33 31 34 32 35 33 36 34 37
REMARK SMILES IDX 35 38 57 43 58 44 59 45 60 46 61 47 62 49 66 50 67 51 68 52
REMARK SMILES IDX 69 53 70 54 71 55 2 56 1 57 3 58 4 59 5 60 6 62 7 63 63 65
REMARK SMILES IDX 64 66 65 67 40 69 41 70 42 71 44 72 43 73 45 74 46 75 47 76
REMARK SMILES IDX 55 77 56 78 48 79 49 80 50 81 54 82 51 83 53 84 52 85
REMARK H PARENT 38 5 27 10 18 17 10 22 22 31 34 39 34 40 35 41 35 42 61 48
REMARK H PARENT 5 61 65 68
REMARK Flexibility Score:  369.900
ROOT
ATOM      1  C   UNL     1      -6.670  -3.435  -5.441  1.00  0.00     0.117 C 
ENDROOT
BRANCH   1   2
ATOM      2  N   UNL     1      -6.119  -3.968  -4.194  1.00  0.00    -0.347 N 
ATOM      3  O   UNL     1      -5.827  -6.138  -4.883  1.00  0.00    -0.273 OA
ATOM      4  C   UNL     1      -5.655  -5.260  -4.044  1.00  0.00     0.243 C 
ATOM      5  H   UNL     1      -6.018  -3.357  -3.398  1.00  0.00     0.164 HD
BRANCH   4   6
ATOM      6  C   UNL     1      -5.042  -5.544  -2.649  1.00  0.00     0.171 C 
BRANCH   6   7
ATOM      7  N   UNL     1      -5.681  -6.720  -2.036  1.00  0.00    -0.344 N 
ATOM      8  C   UNL     1      -5.883  -6.780  -0.674  1.00  0.00     0.226 C 
ATOM      9  O   UNL     1      -5.529  -5.887   0.086  1.00  0.00    -0.275 OA
ATOM     10  H   UNL     1      -5.926  -7.507  -2.623  1.00  0.00     0.164 HD
BRANCH   8  11
ATOM     11  C   UNL     1      -6.602  -8.032  -0.203  1.00  0.00     0.109 C 
ATOM     12  C   UNL     1      -5.716  -8.814   0.766  1.00  0.00     0.021 C 
BRANCH  11  13
ATOM     13  C   UNL     1      -7.993  -7.659   0.347  1.00  0.00     0.204 C 
BRANCH  13  14
ATOM     14  N   UNL     1      -7.906  -6.753   1.497  1.00  0.00    -0.340 N 
ATOM     15  C   UNL     1      -8.229  -7.140   2.780  1.00  0.00     0.243 C 
ATOM     16  O   UNL     1      -8.555  -8.292   3.060  1.00  0.00    -0.273 OA
ATOM     17  H   UNL     1      -7.790  -5.753   1.314  1.00  0.00     0.164 HD
BRANCH  15  18
ATOM     18  C   UNL     1      -8.262  -5.967   3.790  1.00  0.00     0.171 C 
BRANCH  18  19
ATOM     19  N   UNL     1      -8.721  -6.522   5.062  1.00  0.00    -0.343 N 
ATOM     20  C   UNL     1      -9.550  -5.813   5.910  1.00  0.00     0.242 CG0
ATOM     21  O   UNL     1      -9.832  -4.636   5.698  1.00  0.00    -0.273 OA
ATOM     22  H   UNL     1      -8.421  -7.450   5.337  1.00  0.00     0.164 HD
ATOM     23  G   UNL     1      -9.992  -6.592   7.166  1.00  0.00     0.000 G0
ENDBRANCH  18  19
BRANCH  18  24
ATOM     24  C   UNL     1      -6.875  -5.328   3.924  1.00  0.00     0.038 C 
BRANCH  24  25
ATOM     25  C   UNL     1      -6.848  -3.798   3.724  1.00  0.00    -0.015 C 
ATOM     26  C   UNL     1      -6.787  -3.035   5.047  1.00  0.00     0.007 C 
ATOM     27  C   UNL     1      -8.084  -3.360   2.933  1.00  0.00     0.007 C 
ENDBRANCH  24  25
ENDBRANCH  18  24
ENDBRANCH  15  18
ENDBRANCH  13  14
BRANCH  13  28
ATOM     28  C   UNL     1      -8.893  -6.986  -0.693  1.00  0.00     0.327 C 
ATOM     29  O   UNL     1      -8.680  -5.921  -1.253  1.00  0.00    -0.250 OA
BRANCH  28  30
ATOM     30  O   UNL     1     -10.062  -7.632  -0.879  1.00  0.00    -0.480 OA
ATOM     31  H   UNL     1     -10.730  -7.045  -0.468  1.00  0.00     0.296 HD
ENDBRANCH  28  30
ENDBRANCH  13  28
ENDBRANCH  11  13
ENDBRANCH   8  11
ENDBRANCH   6   7
BRANCH   6  32
ATOM     32  C   UNL     1      -3.532  -5.757  -2.796  1.00  0.00     0.037 C 
BRANCH  32  33
ATOM     33  C   UNL     1      -3.163  -7.243  -2.895  1.00  0.00     0.026 C 
BRANCH  33  34
ATOM     34  C   UNL     1      -2.765  -7.654  -4.313  1.00  0.00     0.146 C 
BRANCH  34  35
ATOM     35  N   UNL     1      -2.369  -6.464  -5.054  1.00  0.00    -0.254 NA
ATOM     36  C   UNL     1      -1.682  -6.607  -6.125  1.00  0.00     0.185 C 
ATOM     37  N   UNL     1      -1.316  -5.518  -6.818  1.00  0.00    -0.370 N 
ATOM     38  N   UNL     1      -1.243  -7.740  -6.702  1.00  0.00    -0.370 N 
ATOM     39  H   UNL     1      -1.619  -4.624  -6.452  1.00  0.00     0.159 HD
ATOM     40  H   UNL     1      -0.933  -5.552  -7.747  1.00  0.00     0.159 HD
ATOM     41  H   UNL     1      -0.592  -7.715  -7.470  1.00  0.00     0.159 HD
ATOM     42  H   UNL     1      -1.431  -8.636  -6.281  1.00  0.00     0.159 HD
ENDBRANCH  34  35
ENDBRANCH  33  34
ENDBRANCH  32  33
ENDBRANCH   6  32
ENDBRANCH   4   6
ENDBRANCH   1   2
BRANCH   1  43
ATOM     43  C   UNL     1      -5.517  -2.773  -6.249  1.00  0.00     0.102 C 
ATOM     44  C   UNL     1      -5.953  -1.518  -7.023  1.00  0.00     0.020 C 
BRANCH  43  45
ATOM     45  C   UNL     1      -4.782  -3.808  -7.107  1.00  0.00     0.225 C 
ATOM     46  O   UNL     1      -3.570  -3.781  -7.299  1.00  0.00    -0.275 OA
ATOM     47  N   UNL     1      -5.584  -4.731  -7.738  1.00  0.00    -0.342 N 
ATOM     48  H   UNL     1      -6.548  -4.834  -7.453  1.00  0.00     0.164 HD
BRANCH  47  49
ATOM     49  C   UNL     1      -5.017  -5.802  -8.562  1.00  0.00     0.192 C 
BRANCH  49  50
ATOM     50  C   UNL     1      -5.539  -5.679  -9.996  1.00  0.00     0.047 C 
BRANCH  50  51
ATOM     51  C   UNL     1      -5.169  -4.335 -10.637  1.00  0.00     0.103 C 
BRANCH  51  52
ATOM     52  C   UNL     1      -6.375  -3.406 -10.757  1.00  0.00     0.226 C 
ATOM     53  O   UNL     1      -7.417  -3.677 -10.158  1.00  0.00    -0.275 OA
BRANCH  52  54
ATOM     54  N   UNL     1      -6.187  -2.229 -11.506  1.00  0.00    -0.311 N 
ATOM     55  C   UNL     1      -7.228  -1.740 -12.420  1.00  0.00     0.153 C 
BRANCH  54  56
ATOM     56  C   UNL     1      -5.005  -1.476 -11.403  1.00  0.00     0.102 C 
ATOM     57  C   UNL     1      -4.609  -0.813 -10.305  1.00  0.00     0.043 C 
BRANCH  56  58
ATOM     58  C   UNL     1      -4.035  -1.396 -12.559  1.00  0.00     0.268 C 
ATOM     59  O   UNL     1      -3.494  -2.378 -13.049  1.00  0.00    -0.268 OA
ATOM     60  N   UNL     1      -3.875  -0.119 -13.042  1.00  0.00    -0.339 N 
ATOM     61  H   UNL     1      -4.351   0.642 -12.573  1.00  0.00     0.164 HD
BRANCH  60  62
ATOM     62  C   UNL     1      -3.029   0.176 -14.197  1.00  0.00     0.168 CG0
ATOM     63  C   UNL     1      -3.210   1.619 -14.653  1.00  0.00     0.041 C 
ATOM     64  G   UNL     1      -3.358  -0.803 -15.343  1.00  0.00     0.000 G0
ENDBRANCH  60  62
ENDBRANCH  56  58
ENDBRANCH  54  56
ENDBRANCH  52  54
ENDBRANCH  51  52
ENDBRANCH  50  51
ENDBRANCH  49  50
BRANCH  49  65
ATOM     65  C   UNL     1      -5.371  -7.192  -8.009  1.00  0.00     0.326 C 
ATOM     66  O   UNL     1      -6.486  -7.691  -8.004  1.00  0.00    -0.250 OA
BRANCH  65  67
ATOM     67  O   UNL     1      -4.338  -7.853  -7.442  1.00  0.00    -0.480 OA
ATOM     68  H   UNL     1      -4.591  -8.797  -7.530  1.00  0.00     0.296 HD
ENDBRANCH  65  67
ENDBRANCH  49  65
ENDBRANCH  47  49
ENDBRANCH  43  45
ENDBRANCH   1  43
BRANCH   1  69
ATOM     69  C   UNL     1      -7.869  -2.591  -5.048  1.00  0.00    -0.001 C 
ATOM     70  C   UNL     1      -7.865  -1.437  -4.360  1.00  0.00     0.001 C 
BRANCH  70  71
ATOM     71  C   UNL     1      -9.027  -0.620  -4.005  1.00  0.00    -0.055 C 
ATOM     72  C   UNL     1      -9.600  -0.832  -2.802  1.00  0.00    -0.018 C 
ATOM     73  C   UNL     1      -9.496   0.406  -5.004  1.00  0.00     0.044 C 
BRANCH  72  74
ATOM     74  C   UNL     1     -10.801  -0.142  -2.171  1.00  0.00     0.038 C 
ATOM     75  C   UNL     1     -10.270   1.069  -1.394  1.00  0.00     0.015 C 
BRANCH  74  76
ATOM     76  C   UNL     1     -11.581  -1.179  -1.311  1.00  0.00     0.128 C 
BRANCH  76  77
ATOM     77  O   UNL     1     -12.778  -1.584  -1.997  1.00  0.00    -0.381 OA
ATOM     78  C   UNL     1     -13.539  -0.497  -2.507  1.00  0.00     0.195 C 
ENDBRANCH  76  77
BRANCH  76  79
ATOM     79  C   UNL     1     -10.723  -2.382  -0.844  1.00  0.00     0.068 C 
BRANCH  79  80
ATOM     80  C   UNL     1     -11.069  -3.027   0.476  1.00  0.00    -0.045 A 
ATOM     81  C   UNL     1     -11.033  -4.419   0.631  1.00  0.00     0.004 A 
ATOM     82  C   UNL     1     -11.462  -2.237   1.568  1.00  0.00     0.004 A 
ATOM     83  C   UNL     1     -11.369  -5.008   1.852  1.00  0.00     0.000 A 
ATOM     84  C   UNL     1     -11.798  -2.828   2.788  1.00  0.00     0.000 A 
ATOM     85  C   UNL     1     -11.750  -4.212   2.930  1.00  0.00     0.000 A 
ENDBRANCH  79  80
ENDBRANCH  76  79
ENDBRANCH  74  76
ENDBRANCH  72  74
ENDBRANCH  70  71
ENDBRANCH   1  69
TORSDOF 17
ENDMDL
MODEL 28
REMARK VINA RESULT:    -6.674      2.955      4.940
REMARK INTER + INTRA:         -26.433
REMARK INTER:                 -18.389
REMARK INTRA:                  -8.045
REMARK UNBOUND:                -6.494
REMARK SMILES C=C1C(=O)N[C@H](C)C(=O)N[C@@H](CC(C)C)C(=O)N[C@@H](C(=O)O)[C@H](C)C(=O)N[C@@H](CCCN=C(N)N)C(=O)N[C@@H](/C=C/C(C)=C/[C@H](C)[C@H](Cc2ccccc2)OC)[C@H](C)C(=O)N[C@@H](C(=O)O)CCC(=O)N1C
REMARK SMILES IDX 39 1 38 2 37 3 36 4 28 6 27 7 25 8 26 9 23 11 24 12 19 13
REMARK SMILES IDX 18 14 16 15 17 16 11 18 10 19 8 20 9 21 12 24 13 25 14 26
REMARK SMILES IDX 15 27 20 28 21 29 22 30 29 32 30 33 31 34 32 35 33 36 34 37
REMARK SMILES IDX 35 38 57 43 58 44 59 45 60 46 61 47 62 49 66 50 67 51 68 52
REMARK SMILES IDX 69 53 70 54 71 55 2 56 1 57 3 58 4 59 5 60 6 62 7 63 63 65
REMARK SMILES IDX 64 66 65 67 40 69 41 70 42 71 44 72 43 73 45 74 46 75 47 76
REMARK SMILES IDX 55 77 56 78 48 79 49 80 50 81 54 82 51 83 53 84 52 85
REMARK H PARENT 38 5 27 10 18 17 10 22 22 31 34 39 34 40 35 41 35 42 61 48
REMARK H PARENT 5 61 65 68
REMARK Flexibility Score:  369.900
ROOT
ATOM      1  C   UNL     1      -6.066  -5.262  -2.853  1.00  0.00     0.117 C 
ENDROOT
BRANCH   1   2
ATOM      2  N   UNL     1      -6.272  -3.956  -3.479  1.00  0.00    -0.347 N 
ATOM      3  O   UNL     1      -8.368  -4.345  -4.331  1.00  0.00    -0.273 OA
ATOM      4  C   UNL     1      -7.448  -3.569  -4.092  1.00  0.00     0.243 C 
ATOM      5  H   UNL     1      -5.541  -3.262  -3.429  1.00  0.00     0.164 HD
BRANCH   4   6
ATOM      6  C   UNL     1      -7.435  -2.105  -4.598  1.00  0.00     0.171 C 
BRANCH   6   7
ATOM      7  N   UNL     1      -6.817  -2.027  -5.932  1.00  0.00    -0.344 N 
ATOM      8  C   UNL     1      -5.598  -1.409  -6.106  1.00  0.00     0.226 C 
ATOM      9  O   UNL     1      -4.987  -0.882  -5.183  1.00  0.00    -0.275 OA
ATOM     10  H   UNL     1      -7.323  -2.391  -6.729  1.00  0.00     0.164 HD
BRANCH   8  11
ATOM     11  C   UNL     1      -5.068  -1.459  -7.528  1.00  0.00     0.109 C 
ATOM     12  C   UNL     1      -6.006  -2.284  -8.409  1.00  0.00     0.021 C 
BRANCH  11  13
ATOM     13  C   UNL     1      -4.794  -0.029  -8.034  1.00  0.00     0.204 C 
BRANCH  13  14
ATOM     14  N   UNL     1      -5.625   0.967  -7.349  1.00  0.00    -0.340 N 
ATOM     15  C   UNL     1      -6.493   1.803  -8.017  1.00  0.00     0.243 C 
ATOM     16  O   UNL     1      -6.677   1.732  -9.230  1.00  0.00    -0.273 OA
ATOM     17  H   UNL     1      -5.411   1.180  -6.371  1.00  0.00     0.164 HD
BRANCH  15  18
ATOM     18  C   UNL     1      -7.105   2.906  -7.117  1.00  0.00     0.171 C 
BRANCH  18  19
ATOM     19  N   UNL     1      -6.624   4.184  -7.638  1.00  0.00    -0.343 N 
ATOM     20  C   UNL     1      -5.353   4.652  -7.363  1.00  0.00     0.242 CG0
ATOM     21  O   UNL     1      -4.617   4.080  -6.563  1.00  0.00    -0.273 OA
ATOM     22  H   UNL     1      -7.239   4.750  -8.211  1.00  0.00     0.164 HD
ATOM     23  G   UNL     1      -4.999   5.980  -8.063  1.00  0.00     0.000 G0
ENDBRANCH  18  19
BRANCH  18  24
ATOM     24  C   UNL     1      -8.636   2.831  -7.135  1.00  0.00     0.038 C 
BRANCH  24  25
ATOM     25  C   UNL     1      -9.324   3.405  -5.877  1.00  0.00    -0.015 C 
ATOM     26  C   UNL     1      -9.954   4.775  -6.128  1.00  0.00     0.007 C 
ATOM     27  C   UNL     1      -8.308   3.506  -4.737  1.00  0.00     0.007 C 
ENDBRANCH  24  25
ENDBRANCH  18  24
ENDBRANCH  15  18
ENDBRANCH  13  14
BRANCH  13  28
ATOM     28  C   UNL     1      -3.335   0.403  -7.862  1.00  0.00     0.327 C 
ATOM     29  O   UNL     1      -2.347  -0.264  -8.130  1.00  0.00    -0.250 OA
BRANCH  28  30
ATOM     30  O   UNL     1      -3.205   1.600  -7.254  1.00  0.00    -0.480 OA
ATOM     31  H   UNL     1      -4.060   1.730  -6.793  1.00  0.00     0.296 HD
ENDBRANCH  28  30
ENDBRANCH  13  28
ENDBRANCH  11  13
ENDBRANCH   8  11
ENDBRANCH   6   7
BRANCH   6  32
ATOM     32  C   UNL     1      -8.871  -1.570  -4.629  1.00  0.00     0.037 C 
BRANCH  32  33
ATOM     33  C   UNL     1      -8.959  -0.118  -4.140  1.00  0.00     0.026 C 
BRANCH  33  34
ATOM     34  C   UNL     1      -7.915   0.204  -3.070  1.00  0.00     0.146 C 
BRANCH  34  35
ATOM     35  N   UNL     1      -8.470  -0.111  -1.761  1.00  0.00    -0.254 NA
ATOM     36  C   UNL     1      -7.863   0.317  -0.717  1.00  0.00     0.185 C 
ATOM     37  N   UNL     1      -8.370   0.037   0.494  1.00  0.00    -0.370 N 
ATOM     38  N   UNL     1      -6.735   1.044  -0.634  1.00  0.00    -0.370 N 
ATOM     39  H   UNL     1      -9.227  -0.500   0.515  1.00  0.00     0.159 HD
ATOM     40  H   UNL     1      -8.056   0.476   1.343  1.00  0.00     0.159 HD
ATOM     41  H   UNL     1      -6.280   1.200   0.250  1.00  0.00     0.159 HD
ATOM     42  H   UNL     1      -6.237   1.313  -1.468  1.00  0.00     0.159 HD
ENDBRANCH  34  35
ENDBRANCH  33  34
ENDBRANCH  32  33
ENDBRANCH   6  32
ENDBRANCH   4   6
ENDBRANCH   1   2
BRANCH   1  43
ATOM     43  C   UNL     1      -5.572  -5.039  -1.394  1.00  0.00     0.102 C 
ATOM     44  C   UNL     1      -5.361  -6.347  -0.612  1.00  0.00     0.020 C 
BRANCH  43  45
ATOM     45  C   UNL     1      -6.450  -4.016  -0.667  1.00  0.00     0.225 C 
ATOM     46  O   UNL     1      -6.159  -2.826  -0.576  1.00  0.00    -0.275 OA
ATOM     47  N   UNL     1      -7.557  -4.530  -0.030  1.00  0.00    -0.342 N 
ATOM     48  H   UNL     1      -7.862  -5.470  -0.239  1.00  0.00     0.164 HD
BRANCH  47  49
ATOM     49  C   UNL     1      -8.506  -3.665   0.675  1.00  0.00     0.192 C 
BRANCH  49  50
ATOM     50  C   UNL     1      -8.807  -4.250   2.057  1.00  0.00     0.047 C 
BRANCH  50  51
ATOM     51  C   UNL     1      -8.313  -5.696   2.197  1.00  0.00     0.103 C 
BRANCH  51  52
ATOM     52  C   UNL     1      -7.095  -5.800   3.112  1.00  0.00     0.226 C 
ATOM     53  O   UNL     1      -5.996  -5.412   2.712  1.00  0.00    -0.275 OA
BRANCH  52  54
ATOM     54  N   UNL     1      -7.329  -6.277   4.416  1.00  0.00    -0.311 N 
ATOM     55  C   UNL     1      -7.173  -5.397   5.582  1.00  0.00     0.153 C 
BRANCH  54  56
ATOM     56  C   UNL     1      -7.723  -7.605   4.650  1.00  0.00     0.102 C 
ATOM     57  C   UNL     1      -7.003  -8.690   4.323  1.00  0.00     0.043 C 
BRANCH  56  58
ATOM     58  C   UNL     1      -9.022  -7.914   5.357  1.00  0.00     0.268 C 
ATOM     59  O   UNL     1     -10.121  -7.683   4.871  1.00  0.00    -0.268 OA
ATOM     60  N   UNL     1      -8.842  -8.538   6.568  1.00  0.00    -0.339 N 
ATOM     61  H   UNL     1      -7.898  -8.684   6.906  1.00  0.00     0.164 HD
BRANCH  60  62
ATOM     62  C   UNL     1      -9.967  -8.982   7.391  1.00  0.00     0.168 CG0
ATOM     63  C   UNL     1      -9.493  -9.883   8.524  1.00  0.00     0.041 C 
ATOM     64  G   UNL     1     -10.997  -9.713   6.506  1.00  0.00     0.000 G0
ENDBRANCH  60  62
ENDBRANCH  56  58
ENDBRANCH  54  56
ENDBRANCH  52  54
ENDBRANCH  51  52
ENDBRANCH  50  51
ENDBRANCH  49  50
BRANCH  49  65
ATOM     65  C   UNL     1      -9.819  -3.508  -0.108  1.00  0.00     0.326 C 
ATOM     66  O   UNL     1     -10.777  -4.266  -0.049  1.00  0.00    -0.250 OA
BRANCH  65  67
ATOM     67  O   UNL     1      -9.846  -2.459  -0.959  1.00  0.00    -0.480 OA
ATOM     68  H   UNL     1     -10.796  -2.214  -0.995  1.00  0.00     0.296 HD
ENDBRANCH  65  67
ENDBRANCH  49  65
ENDBRANCH  47  49
ENDBRANCH  43  45
ENDBRANCH   1  43
BRANCH   1  69
ATOM     69  C   UNL     1      -5.194  -6.057  -3.808  1.00  0.00    -0.001 C 
ATOM     70  C   UNL     1      -3.860  -6.219  -3.755  1.00  0.00     0.001 C 
BRANCH  70  71
ATOM     71  C   UNL     1      -3.033  -7.007  -4.670  1.00  0.00    -0.055 C 
ATOM     72  C   UNL     1      -2.655  -6.429  -5.830  1.00  0.00    -0.018 C 
ATOM     73  C   UNL     1      -2.655  -8.403  -4.250  1.00  0.00     0.044 C 
BRANCH  72  74
ATOM     74  C   UNL     1      -1.804  -6.997  -6.957  1.00  0.00     0.038 C 
ATOM     75  C   UNL     1      -1.008  -5.831  -7.555  1.00  0.00     0.015 C 
BRANCH  74  76
ATOM     76  C   UNL     1      -2.734  -7.737  -7.963  1.00  0.00     0.128 C 
BRANCH  76  77
ATOM     77  O   UNL     1      -2.420  -9.140  -7.981  1.00  0.00    -0.381 OA
ATOM     78  C   UNL     1      -1.055  -9.423  -7.703  1.00  0.00     0.195 C 
ENDBRANCH  76  77
BRANCH  76  79
ATOM     79  C   UNL     1      -4.243  -7.464  -7.743  1.00  0.00     0.068 C 
BRANCH  79  80
ATOM     80  C   UNL     1      -4.983  -6.684  -8.803  1.00  0.00    -0.045 A 
ATOM     81  C   UNL     1      -6.336  -6.931  -9.069  1.00  0.00     0.004 A 
ATOM     82  C   UNL     1      -4.313  -5.713  -9.562  1.00  0.00     0.004 A 
ATOM     83  C   UNL     1      -7.009  -6.215 -10.061  1.00  0.00     0.000 A 
ATOM     84  C   UNL     1      -4.987  -4.998 -10.555  1.00  0.00     0.000 A 
ATOM     85  C   UNL     1      -6.334  -5.247 -10.803  1.00  0.00     0.000 A 
ENDBRANCH  79  80
ENDBRANCH  76  79
ENDBRANCH  74  76
ENDBRANCH  72  74
ENDBRANCH  70  71
ENDBRANCH   1  69
TORSDOF 17
ENDMDL
MODEL 29
REMARK VINA RESULT:    -6.655      3.934     12.797
REMARK INTER + INTRA:         -26.375
REMARK INTER:                 -18.378
REMARK INTRA:                  -7.997
REMARK UNBOUND:                -6.494
REMARK SMILES C=C1C(=O)N[C@H](C)C(=O)N[C@@H](CC(C)C)C(=O)N[C@@H](C(=O)O)[C@H](C)C(=O)N[C@@H](CCCN=C(N)N)C(=O)N[C@@H](/C=C/C(C)=C/[C@H](C)[C@H](Cc2ccccc2)OC)[C@H](C)C(=O)N[C@@H](C(=O)O)CCC(=O)N1C
REMARK SMILES IDX 39 1 38 2 37 3 36 4 28 6 27 7 25 8 26 9 23 11 24 12 19 13
REMARK SMILES IDX 18 14 16 15 17 16 11 18 10 19 8 20 9 21 12 24 13 25 14 26
REMARK SMILES IDX 15 27 20 28 21 29 22 30 29 32 30 33 31 34 32 35 33 36 34 37
REMARK SMILES IDX 35 38 57 43 58 44 59 45 60 46 61 47 62 49 66 50 67 51 68 52
REMARK SMILES IDX 69 53 70 54 71 55 2 56 1 57 3 58 4 59 5 60 6 62 7 63 63 65
REMARK SMILES IDX 64 66 65 67 40 69 41 70 42 71 44 72 43 73 45 74 46 75 47 76
REMARK SMILES IDX 55 77 56 78 48 79 49 80 50 81 54 82 51 83 53 84 52 85
REMARK H PARENT 38 5 27 10 18 17 10 22 22 31 34 39 34 40 35 41 35 42 61 48
REMARK H PARENT 5 61 65 68
REMARK Flexibility Score:  369.900
ROOT
ATOM      1  C   UNL     1      -5.340  -6.688   1.317  1.00  0.00     0.117 C 
ENDROOT
BRANCH   1   2
ATOM      2  N   UNL     1      -6.621  -6.004   1.500  1.00  0.00    -0.347 N 
ATOM      3  O   UNL     1      -6.162  -4.137   0.246  1.00  0.00    -0.273 OA
ATOM      4  C   UNL     1      -6.963  -4.822   0.873  1.00  0.00     0.243 C 
ATOM      5  H   UNL     1      -7.330  -6.430   2.077  1.00  0.00     0.164 HD
BRANCH   4   6
ATOM      6  C   UNL     1      -8.411  -4.355   1.170  1.00  0.00     0.171 C 
BRANCH   6   7
ATOM      7  N   UNL     1      -8.854  -4.859   2.480  1.00  0.00    -0.344 N 
ATOM      8  C   UNL     1     -10.197  -4.969   2.772  1.00  0.00     0.226 C 
ATOM      9  O   UNL     1     -11.074  -4.639   1.983  1.00  0.00    -0.275 OA
ATOM     10  H   UNL     1      -8.160  -5.078   3.183  1.00  0.00     0.164 HD
BRANCH   8  11
ATOM     11  C   UNL     1     -10.493  -5.556   4.142  1.00  0.00     0.109 C 
ATOM     12  C   UNL     1      -9.427  -6.588   4.513  1.00  0.00     0.021 C 
BRANCH  11  13
ATOM     13  C   UNL     1     -10.680  -4.419   5.166  1.00  0.00     0.204 C 
BRANCH  13  14
ATOM     14  N   UNL     1     -11.206  -4.910   6.444  1.00  0.00    -0.340 N 
ATOM     15  C   UNL     1     -12.115  -4.201   7.200  1.00  0.00     0.243 C 
ATOM     16  O   UNL     1     -12.596  -3.133   6.825  1.00  0.00    -0.273 OA
ATOM     17  H   UNL     1     -10.739  -5.708   6.881  1.00  0.00     0.164 HD
BRANCH  15  18
ATOM     18  C   UNL     1     -12.366  -4.814   8.600  1.00  0.00     0.171 C 
BRANCH  18  19
ATOM     19  N   UNL     1     -13.809  -5.012   8.717  1.00  0.00    -0.343 N 
ATOM     20  C   UNL     1     -14.539  -4.459   9.752  1.00  0.00     0.242 CG0
ATOM     21  O   UNL     1     -13.992  -3.888  10.692  1.00  0.00    -0.273 OA
ATOM     22  H   UNL     1     -14.292  -5.576   8.026  1.00  0.00     0.164 HD
ATOM     23  G   UNL     1     -16.058  -4.711   9.665  1.00  0.00     0.000 G0
ENDBRANCH  18  19
BRANCH  18  24
ATOM     24  C   UNL     1     -11.602  -6.135   8.758  1.00  0.00     0.038 C 
BRANCH  24  25
ATOM     25  C   UNL     1     -10.640  -6.182   9.963  1.00  0.00    -0.015 C 
ATOM     26  C   UNL     1     -11.375  -6.128  11.302  1.00  0.00     0.007 C 
ATOM     27  C   UNL     1      -9.645  -5.022   9.874  1.00  0.00     0.007 C 
ENDBRANCH  24  25
ENDBRANCH  18  24
ENDBRANCH  15  18
ENDBRANCH  13  14
BRANCH  13  28
ATOM     28  C   UNL     1      -9.384  -3.661   5.470  1.00  0.00     0.327 C 
ATOM     29  O   UNL     1      -8.859  -2.814   4.764  1.00  0.00    -0.250 OA
BRANCH  28  30
ATOM     30  O   UNL     1      -8.764  -4.099   6.585  1.00  0.00    -0.480 OA
ATOM     31  H   UNL     1      -8.178  -4.818   6.269  1.00  0.00     0.296 HD
ENDBRANCH  28  30
ENDBRANCH  13  28
ENDBRANCH  11  13
ENDBRANCH   8  11
ENDBRANCH   6   7
BRANCH   6  32
ATOM     32  C   UNL     1      -8.465  -2.824   1.126  1.00  0.00     0.037 C 
BRANCH  32  33
ATOM     33  C   UNL     1      -9.346  -2.309  -0.020  1.00  0.00     0.026 C 
BRANCH  33  34
ATOM     34  C   UNL     1      -8.558  -2.092  -1.313  1.00  0.00     0.146 C 
BRANCH  34  35
ATOM     35  N   UNL     1      -7.356  -1.328  -1.008  1.00  0.00    -0.254 NA
ATOM     36  C   UNL     1      -6.479  -1.168  -1.928  1.00  0.00     0.185 C 
ATOM     37  N   UNL     1      -5.371  -0.461  -1.659  1.00  0.00    -0.370 N 
ATOM     38  N   UNL     1      -6.492  -1.620  -3.194  1.00  0.00    -0.370 N 
ATOM     39  H   UNL     1      -5.292  -0.077  -0.726  1.00  0.00     0.159 HD
ATOM     40  H   UNL     1      -4.727  -0.146  -2.364  1.00  0.00     0.159 HD
ATOM     41  H   UNL     1      -5.678  -1.546  -3.781  1.00  0.00     0.159 HD
ATOM     42  H   UNL     1      -7.259  -2.181  -3.531  1.00  0.00     0.159 HD
ENDBRANCH  34  35
ENDBRANCH  33  34
ENDBRANCH  32  33
ENDBRANCH   6  32
ENDBRANCH   4   6
ENDBRANCH   1   2
BRANCH   1  43
ATOM     43  C   UNL     1      -5.606  -8.068   0.649  1.00  0.00     0.102 C 
ATOM     44  C   UNL     1      -4.613  -9.159   1.081  1.00  0.00     0.020 C 
BRANCH  43  45
ATOM     45  C   UNL     1      -5.750  -7.925  -0.870  1.00  0.00     0.225 C 
ATOM     46  O   UNL     1      -6.473  -8.651  -1.546  1.00  0.00    -0.275 OA
ATOM     47  N   UNL     1      -4.938  -6.981  -1.455  1.00  0.00    -0.342 N 
ATOM     48  H   UNL     1      -4.469  -6.297  -0.878  1.00  0.00     0.164 HD
BRANCH  47  49
ATOM     49  C   UNL     1      -4.993  -6.710  -2.895  1.00  0.00     0.192 C 
BRANCH  49  50
ATOM     50  C   UNL     1      -3.573  -6.543  -3.442  1.00  0.00     0.047 C 
BRANCH  50  51
ATOM     51  C   UNL     1      -3.559  -6.277  -4.954  1.00  0.00     0.103 C 
BRANCH  51  52
ATOM     52  C   UNL     1      -2.649  -7.252  -5.699  1.00  0.00     0.226 C 
ATOM     53  O   UNL     1      -2.168  -8.216  -5.101  1.00  0.00    -0.275 OA
BRANCH  52  54
ATOM     54  N   UNL     1      -2.477  -7.019  -7.076  1.00  0.00    -0.311 N 
ATOM     55  C   UNL     1      -1.478  -6.057  -7.562  1.00  0.00     0.153 C 
BRANCH  54  56
ATOM     56  C   UNL     1      -3.245  -7.700  -8.035  1.00  0.00     0.102 C 
ATOM     57  C   UNL     1      -2.823  -8.756  -8.749  1.00  0.00     0.043 C 
BRANCH  56  58
ATOM     58  C   UNL     1      -4.676  -7.299  -8.309  1.00  0.00     0.268 C 
ATOM     59  O   UNL     1      -5.614  -7.644  -7.603  1.00  0.00    -0.268 OA
ATOM     60  N   UNL     1      -4.804  -6.458  -9.388  1.00  0.00    -0.339 N 
ATOM     61  H   UNL     1      -3.979  -6.228  -9.928  1.00  0.00     0.164 HD
BRANCH  60  62
ATOM     62  C   UNL     1      -6.094  -5.899  -9.791  1.00  0.00     0.168 CG0
ATOM     63  C   UNL     1      -6.869  -6.883 -10.659  1.00  0.00     0.041 C 
ATOM     64  G   UNL     1      -5.871  -4.569 -10.538  1.00  0.00     0.000 G0
ENDBRANCH  60  62
ENDBRANCH  56  58
ENDBRANCH  54  56
ENDBRANCH  52  54
ENDBRANCH  51  52
ENDBRANCH  50  51
ENDBRANCH  49  50
BRANCH  49  65
ATOM     65  C   UNL     1      -5.809  -5.444  -3.203  1.00  0.00     0.326 C 
ATOM     66  O   UNL     1      -6.764  -5.381  -3.963  1.00  0.00    -0.250 OA
BRANCH  65  67
ATOM     67  O   UNL     1      -5.358  -4.322  -2.599  1.00  0.00    -0.480 OA
ATOM     68  H   UNL     1      -4.419  -4.527  -2.401  1.00  0.00     0.296 HD
ENDBRANCH  65  67
ENDBRANCH  49  65
ENDBRANCH  47  49
ENDBRANCH  43  45
ENDBRANCH   1  43
BRANCH   1  69
ATOM     69  C   UNL     1      -4.641  -6.648   2.664  1.00  0.00    -0.001 C 
ATOM     70  C   UNL     1      -5.209  -6.512   3.875  1.00  0.00     0.001 C 
BRANCH  70  71
ATOM     71  C   UNL     1      -4.526  -6.496   5.170  1.00  0.00    -0.055 C 
ATOM     72  C   UNL     1      -4.890  -7.421   6.083  1.00  0.00    -0.018 C 
ATOM     73  C   UNL     1      -3.460  -5.454   5.389  1.00  0.00     0.044 C 
BRANCH  72  74
ATOM     74  C   UNL     1      -4.360  -7.645   7.492  1.00  0.00     0.038 C 
ATOM     75  C   UNL     1      -4.256  -9.160   7.701  1.00  0.00     0.015 C 
BRANCH  74  76
ATOM     76  C   UNL     1      -5.290  -6.909   8.500  1.00  0.00     0.128 C 
BRANCH  76  77
ATOM     77  O   UNL     1      -4.734  -5.626   8.835  1.00  0.00    -0.381 OA
ATOM     78  C   UNL     1      -5.598  -4.817   9.622  1.00  0.00     0.195 C 
ENDBRANCH  76  77
BRANCH  76  79
ATOM     79  C   UNL     1      -6.768  -6.821   8.043  1.00  0.00     0.068 C 
BRANCH  79  80
ATOM     80  C   UNL     1      -7.724  -7.882   8.533  1.00  0.00    -0.045 A 
ATOM     81  C   UNL     1      -7.658  -8.363   9.847  1.00  0.00     0.004 A 
ATOM     82  C   UNL     1      -8.681  -8.427   7.663  1.00  0.00     0.004 A 
ATOM     83  C   UNL     1      -8.536  -9.355  10.288  1.00  0.00     0.000 A 
ATOM     84  C   UNL     1      -9.559  -9.419   8.105  1.00  0.00     0.000 A 
ATOM     85  C   UNL     1      -9.487  -9.882   9.417  1.00  0.00     0.000 A 
ENDBRANCH  79  80
ENDBRANCH  76  79
ENDBRANCH  74  76
ENDBRANCH  72  74
ENDBRANCH  70  71
ENDBRANCH   1  69
TORSDOF 17
ENDMDL
MODEL 30
REMARK VINA RESULT:    -6.631      7.754     14.751
REMARK INTER + INTRA:         -26.305
REMARK INTER:                 -16.748
REMARK INTRA:                  -9.557
REMARK UNBOUND:                -6.494
REMARK SMILES C=C1C(=O)N[C@H](C)C(=O)N[C@@H](CC(C)C)C(=O)N[C@@H](C(=O)O)[C@H](C)C(=O)N[C@@H](CCCN=C(N)N)C(=O)N[C@@H](/C=C/C(C)=C/[C@H](C)[C@H](Cc2ccccc2)OC)[C@H](C)C(=O)N[C@@H](C(=O)O)CCC(=O)N1C
REMARK SMILES IDX 39 1 38 2 37 3 36 4 28 6 27 7 25 8 26 9 23 11 24 12 19 13
REMARK SMILES IDX 18 14 16 15 17 16 11 18 10 19 8 20 9 21 12 24 13 25 14 26
REMARK SMILES IDX 15 27 20 28 21 29 22 30 29 32 30 33 31 34 32 35 33 36 34 37
REMARK SMILES IDX 35 38 57 43 58 44 59 45 60 46 61 47 62 49 66 50 67 51 68 52
REMARK SMILES IDX 69 53 70 54 71 55 2 56 1 57 3 58 4 59 5 60 6 62 7 63 63 65
REMARK SMILES IDX 64 66 65 67 40 69 41 70 42 71 44 72 43 73 45 74 46 75 47 76
REMARK SMILES IDX 55 77 56 78 48 79 49 80 50 81 54 82 51 83 53 84 52 85
REMARK H PARENT 38 5 27 10 18 17 10 22 22 31 34 39 34 40 35 41 35 42 61 48
REMARK H PARENT 5 61 65 68
REMARK Flexibility Score:  369.900
ROOT
ATOM      1  C   UNL     1      -3.117  -0.056  -8.376  1.00  0.00     0.117 C 
ENDROOT
BRANCH   1   2
ATOM      2  N   UNL     1      -3.976   0.996  -8.920  1.00  0.00    -0.347 N 
ATOM      3  O   UNL     1      -3.668   2.544  -7.253  1.00  0.00    -0.273 OA
ATOM      4  C   UNL     1      -4.111   2.251  -8.358  1.00  0.00     0.243 C 
ATOM      5  H   UNL     1      -4.471   0.833  -9.784  1.00  0.00     0.164 HD
BRANCH   4   6
ATOM      6  C   UNL     1      -5.015   3.207  -9.179  1.00  0.00     0.171 C 
BRANCH   6   7
ATOM      7  N   UNL     1      -5.005   4.556  -8.590  1.00  0.00    -0.344 N 
ATOM      8  C   UNL     1      -6.159   5.107  -8.077  1.00  0.00     0.226 C 
ATOM      9  O   UNL     1      -7.237   4.525  -8.104  1.00  0.00    -0.275 OA
ATOM     10  H   UNL     1      -4.148   5.094  -8.611  1.00  0.00     0.164 HD
BRANCH   8  11
ATOM     11  C   UNL     1      -5.975   6.480  -7.456  1.00  0.00     0.109 C 
ATOM     12  C   UNL     1      -7.086   7.421  -7.921  1.00  0.00     0.021 C 
BRANCH  11  13
ATOM     13  C   UNL     1      -5.835   6.347  -5.927  1.00  0.00     0.204 C 
BRANCH  13  14
ATOM     14  N   UNL     1      -6.545   5.174  -5.408  1.00  0.00    -0.340 N 
ATOM     15  C   UNL     1      -7.649   5.269  -4.589  1.00  0.00     0.243 C 
ATOM     16  O   UNL     1      -8.153   6.348  -4.283  1.00  0.00    -0.273 OA
ATOM     17  H   UNL     1      -6.093   4.260  -5.498  1.00  0.00     0.164 HD
BRANCH  15  18
ATOM     18  C   UNL     1      -8.101   3.910  -4.000  1.00  0.00     0.171 C 
BRANCH  18  19
ATOM     19  N   UNL     1      -9.116   4.208  -2.991  1.00  0.00    -0.343 N 
ATOM     20  C   UNL     1      -9.131   3.575  -1.763  1.00  0.00     0.242 CG0
ATOM     21  O   UNL     1      -8.375   2.639  -1.513  1.00  0.00    -0.273 OA
ATOM     22  H   UNL     1      -9.835   4.894  -3.195  1.00  0.00     0.164 HD
ATOM     23  G   UNL     1     -10.228   4.077  -0.801  1.00  0.00     0.000 G0
ENDBRANCH  18  19
BRANCH  18  24
ATOM     24  C   UNL     1      -8.656   3.000  -5.102  1.00  0.00     0.038 C 
BRANCH  24  25
ATOM     25  C   UNL     1      -7.992   1.609  -5.184  1.00  0.00    -0.015 C 
ATOM     26  C   UNL     1      -7.282   1.376  -6.518  1.00  0.00     0.007 C 
ATOM     27  C   UNL     1      -9.047   0.522  -4.965  1.00  0.00     0.007 C 
ENDBRANCH  24  25
ENDBRANCH  18  24
ENDBRANCH  15  18
ENDBRANCH  13  14
BRANCH  13  28
ATOM     28  C   UNL     1      -4.380   6.239  -5.461  1.00  0.00     0.327 C 
ATOM     29  O   UNL     1      -3.489   5.612  -6.013  1.00  0.00    -0.250 OA
BRANCH  28  30
ATOM     30  O   UNL     1      -4.162   6.828  -4.267  1.00  0.00    -0.480 OA
ATOM     31  H   UNL     1      -4.962   7.373  -4.117  1.00  0.00     0.296 HD
ENDBRANCH  28  30
ENDBRANCH  13  28
ENDBRANCH  11  13
ENDBRANCH   8  11
ENDBRANCH   6   7
BRANCH   6  32
ATOM     32  C   UNL     1      -4.525   3.240 -10.631  1.00  0.00     0.037 C 
BRANCH  32  33
ATOM     33  C   UNL     1      -4.460   4.669 -11.188  1.00  0.00     0.026 C 
BRANCH  33  34
ATOM     34  C   UNL     1      -3.649   4.757 -12.481  1.00  0.00     0.146 C 
BRANCH  34  35
ATOM     35  N   UNL     1      -2.406   5.467 -12.208  1.00  0.00    -0.254 NA
ATOM     36  C   UNL     1      -1.296   4.852 -12.383  1.00  0.00     0.185 C 
ATOM     37  N   UNL     1      -0.146   5.498 -12.140  1.00  0.00    -0.370 N 
ATOM     38  N   UNL     1      -1.086   3.589 -12.797  1.00  0.00    -0.370 N 
ATOM     39  H   UNL     1      -0.221   6.460 -11.834  1.00  0.00     0.159 HD
ATOM     40  H   UNL     1       0.757   5.150 -12.416  1.00  0.00     0.159 HD
ATOM     41  H   UNL     1      -0.169   3.176 -12.761  1.00  0.00     0.159 HD
ATOM     42  H   UNL     1      -1.863   2.981 -13.001  1.00  0.00     0.159 HD
ENDBRANCH  34  35
ENDBRANCH  33  34
ENDBRANCH  32  33
ENDBRANCH   6  32
ENDBRANCH   4   6
ENDBRANCH   1   2
BRANCH   1  43
ATOM     43  C   UNL     1      -1.917  -0.265  -9.344  1.00  0.00     0.102 C 
ATOM     44  C   UNL     1      -0.850  -1.229  -8.798  1.00  0.00     0.020 C 
BRANCH  43  45
ATOM     45  C   UNL     1      -1.354   1.078  -9.820  1.00  0.00     0.225 C 
ATOM     46  O   UNL     1      -1.281   1.393 -11.005  1.00  0.00    -0.275 OA
ATOM     47  N   UNL     1      -0.840   1.888  -8.834  1.00  0.00    -0.342 N 
ATOM     48  H   UNL     1      -1.043   1.687  -7.865  1.00  0.00     0.164 HD
BRANCH  47  49
ATOM     49  C   UNL     1      -0.301   3.217  -9.138  1.00  0.00     0.192 C 
BRANCH  49  50
ATOM     50  C   UNL     1       1.180   3.272  -8.752  1.00  0.00     0.047 C 
BRANCH  50  51
ATOM     51  C   UNL     1       2.014   4.074  -9.760  1.00  0.00     0.103 C 
BRANCH  51  52
ATOM     52  C   UNL     1       2.475   3.215 -10.936  1.00  0.00     0.226 C 
ATOM     53  O   UNL     1       1.647   2.798 -11.748  1.00  0.00    -0.275 OA
BRANCH  52  54
ATOM     54  N   UNL     1       3.862   3.014 -11.060  1.00  0.00    -0.311 N 
ATOM     55  C   UNL     1       4.567   2.055 -10.199  1.00  0.00     0.153 C 
BRANCH  54  56
ATOM     56  C   UNL     1       4.622   3.715 -12.011  1.00  0.00     0.102 C 
ATOM     57  C   UNL     1       5.767   4.367 -11.751  1.00  0.00     0.043 C 
BRANCH  56  58
ATOM     58  C   UNL     1       4.207   3.746 -13.463  1.00  0.00     0.268 C 
ATOM     59  O   UNL     1       4.099   4.782 -14.106  1.00  0.00    -0.268 OA
ATOM     60  N   UNL     1       4.031   2.494 -14.002  1.00  0.00    -0.339 N 
ATOM     61  H   UNL     1       4.129   1.686 -13.399  1.00  0.00     0.164 HD
BRANCH  60  62
ATOM     62  C   UNL     1       3.689   2.293 -15.409  1.00  0.00     0.168 CG0
ATOM     63  C   UNL     1       2.748   1.107 -15.580  1.00  0.00     0.041 C 
ATOM     64  G   UNL     1       4.979   2.089 -16.230  1.00  0.00     0.000 G0
ENDBRANCH  60  62
ENDBRANCH  56  58
ENDBRANCH  54  56
ENDBRANCH  52  54
ENDBRANCH  51  52
ENDBRANCH  50  51
ENDBRANCH  49  50
BRANCH  49  65
ATOM     65  C   UNL     1      -1.063   4.322  -8.389  1.00  0.00     0.326 C 
ATOM     66  O   UNL     1      -1.840   5.118  -8.897  1.00  0.00    -0.250 OA
BRANCH  65  67
ATOM     67  O   UNL     1      -0.771   4.416  -7.073  1.00  0.00    -0.480 OA
ATOM     68  H   UNL     1      -1.633   4.641  -6.661  1.00  0.00     0.296 HD
ENDBRANCH  65  67
ENDBRANCH  49  65
ENDBRANCH  47  49
ENDBRANCH  43  45
ENDBRANCH   1  43
BRANCH   1  69
ATOM     69  C   UNL     1      -4.027  -1.232  -8.072  1.00  0.00    -0.001 C 
ATOM     70  C   UNL     1      -4.658  -1.499  -6.915  1.00  0.00     0.001 C 
BRANCH  70  71
ATOM     71  C   UNL     1      -5.552  -2.626  -6.640  1.00  0.00    -0.055 C 
ATOM     72  C   UNL     1      -5.062  -3.871  -6.812  1.00  0.00    -0.018 C 
ATOM     73  C   UNL     1      -6.952  -2.316  -6.178  1.00  0.00     0.044 C 
BRANCH  72  74
ATOM     74  C   UNL     1      -5.748  -5.214  -6.603  1.00  0.00     0.038 C 
ATOM     75  C   UNL     1      -4.934  -5.979  -5.552  1.00  0.00     0.015 C 
BRANCH  74  76
ATOM     76  C   UNL     1      -5.876  -5.931  -7.979  1.00  0.00     0.128 C 
BRANCH  76  77
ATOM     77  O   UNL     1      -6.366  -7.269  -7.792  1.00  0.00    -0.381 OA
ATOM     78  C   UNL     1      -6.490  -8.006  -9.001  1.00  0.00     0.195 C 
ENDBRANCH  76  77
BRANCH  76  79
ATOM     79  C   UNL     1      -6.692  -5.135  -9.030  1.00  0.00     0.068 C 
BRANCH  79  80
ATOM     80  C   UNL     1      -5.948  -4.163  -9.914  1.00  0.00    -0.045 A 
ATOM     81  C   UNL     1      -4.614  -4.390 -10.274  1.00  0.00     0.004 A 
ATOM     82  C   UNL     1      -6.580  -2.995 -10.368  1.00  0.00     0.004 A 
ATOM     83  C   UNL     1      -3.929  -3.479 -11.081  1.00  0.00     0.000 A 
ATOM     84  C   UNL     1      -5.894  -2.084 -11.174  1.00  0.00     0.000 A 
ATOM     85  C   UNL     1      -4.569  -2.327 -11.531  1.00  0.00     0.000 A 
ENDBRANCH  79  80
ENDBRANCH  76  79
ENDBRANCH  74  76
ENDBRANCH  72  74
ENDBRANCH  70  71
ENDBRANCH   1  69
TORSDOF 17
ENDMDL
MODEL 31
REMARK VINA RESULT:    -6.608      4.795     13.773
REMARK INTER + INTRA:         -26.237
REMARK INTER:                 -18.578
REMARK INTRA:                  -7.659
REMARK UNBOUND:                -6.494
REMARK SMILES C=C1C(=O)N[C@H](C)C(=O)N[C@@H](CC(C)C)C(=O)N[C@@H](C(=O)O)[C@H](C)C(=O)N[C@@H](CCCN=C(N)N)C(=O)N[C@@H](/C=C/C(C)=C/[C@H](C)[C@H](Cc2ccccc2)OC)[C@H](C)C(=O)N[C@@H](C(=O)O)CCC(=O)N1C
REMARK SMILES IDX 39 1 38 2 37 3 36 4 28 6 27 7 25 8 26 9 23 11 24 12 19 13
REMARK SMILES IDX 18 14 16 15 17 16 11 18 10 19 8 20 9 21 12 24 13 25 14 26
REMARK SMILES IDX 15 27 20 28 21 29 22 30 29 32 30 33 31 34 32 35 33 36 34 37
REMARK SMILES IDX 35 38 57 43 58 44 59 45 60 46 61 47 62 49 66 50 67 51 68 52
REMARK SMILES IDX 69 53 70 54 71 55 2 56 1 57 3 58 4 59 5 60 6 62 7 63 63 65
REMARK SMILES IDX 64 66 65 67 40 69 41 70 42 71 44 72 43 73 45 74 46 75 47 76
REMARK SMILES IDX 55 77 56 78 48 79 49 80 50 81 54 82 51 83 53 84 52 85
REMARK H PARENT 38 5 27 10 18 17 10 22 22 31 34 39 34 40 35 41 35 42 61 48
REMARK H PARENT 5 61 65 68
REMARK Flexibility Score:  369.900
ROOT
ATOM      1  C   UNL     1      -6.674  -3.185  -5.699  1.00  0.00     0.117 C 
ENDROOT
BRANCH   1   2
ATOM      2  N   UNL     1      -5.694  -3.816  -4.815  1.00  0.00    -0.347 N 
ATOM      3  O   UNL     1      -6.847  -5.758  -4.405  1.00  0.00    -0.273 OA
ATOM      4  C   UNL     1      -5.819  -5.096  -4.311  1.00  0.00     0.243 C 
ATOM      5  H   UNL     1      -4.844  -3.323  -4.588  1.00  0.00     0.164 HD
BRANCH   4   6
ATOM      6  C   UNL     1      -4.600  -5.557  -3.471  1.00  0.00     0.171 C 
BRANCH   6   7
ATOM      7  N   UNL     1      -4.962  -6.707  -2.627  1.00  0.00    -0.344 N 
ATOM      8  C   UNL     1      -5.227  -6.538  -1.285  1.00  0.00     0.226 C 
ATOM      9  O   UNL     1      -5.155  -5.448  -0.730  1.00  0.00    -0.275 OA
ATOM     10  H   UNL     1      -4.967  -7.633  -3.035  1.00  0.00     0.164 HD
BRANCH   8  11
ATOM     11  C   UNL     1      -5.639  -7.809  -0.564  1.00  0.00     0.109 C 
ATOM     12  C   UNL     1      -4.733  -8.045   0.645  1.00  0.00     0.021 C 
BRANCH  11  13
ATOM     13  C   UNL     1      -7.147  -7.762  -0.245  1.00  0.00     0.204 C 
BRANCH  13  14
ATOM     14  N   UNL     1      -7.454  -6.818   0.834  1.00  0.00    -0.340 N 
ATOM     15  C   UNL     1      -8.018  -7.206   2.030  1.00  0.00     0.243 C 
ATOM     16  O   UNL     1      -8.249  -8.384   2.300  1.00  0.00    -0.273 OA
ATOM     17  H   UNL     1      -7.429  -5.818   0.618  1.00  0.00     0.164 HD
BRANCH  15  18
ATOM     18  C   UNL     1      -8.443  -6.018   2.928  1.00  0.00     0.171 C 
BRANCH  18  19
ATOM     19  N   UNL     1      -9.488  -6.519   3.818  1.00  0.00    -0.343 N 
ATOM     20  C   UNL     1     -10.579  -5.746   4.168  1.00  0.00     0.242 CG0
ATOM     21  O   UNL     1     -10.653  -4.560   3.856  1.00  0.00    -0.273 OA
ATOM     22  H   UNL     1      -9.413  -7.456   4.196  1.00  0.00     0.164 HD
ATOM     23  G   UNL     1     -11.616  -6.471   5.050  1.00  0.00     0.000 G0
ENDBRANCH  18  19
BRANCH  18  24
ATOM     24  C   UNL     1      -7.243  -5.481   3.717  1.00  0.00     0.038 C 
BRANCH  24  25
ATOM     25  C   UNL     1      -6.708  -4.118   3.229  1.00  0.00    -0.015 C 
ATOM     26  C   UNL     1      -7.620  -3.471   2.186  1.00  0.00     0.007 C 
ATOM     27  C   UNL     1      -5.304  -4.294   2.647  1.00  0.00     0.007 C 
ENDBRANCH  24  25
ENDBRANCH  18  24
ENDBRANCH  15  18
ENDBRANCH  13  14
BRANCH  13  28
ATOM     28  C   UNL     1      -8.007  -7.370  -1.450  1.00  0.00     0.327 C 
ATOM     29  O   UNL     1      -8.579  -6.303  -1.613  1.00  0.00    -0.250 OA
BRANCH  28  30
ATOM     30  O   UNL     1      -8.192  -8.383  -2.320  1.00  0.00    -0.480 OA
ATOM     31  H   UNL     1      -8.524  -9.119  -1.766  1.00  0.00     0.296 HD
ENDBRANCH  28  30
ENDBRANCH  13  28
ENDBRANCH  11  13
ENDBRANCH   8  11
ENDBRANCH   6   7
BRANCH   6  32
ATOM     32  C   UNL     1      -3.445  -5.912  -4.414  1.00  0.00     0.037 C 
BRANCH  32  33
ATOM     33  C   UNL     1      -3.884  -6.865  -5.535  1.00  0.00     0.026 C 
BRANCH  33  34
ATOM     34  C   UNL     1      -2.820  -7.912  -5.863  1.00  0.00     0.146 C 
BRANCH  34  35
ATOM     35  N   UNL     1      -1.591  -7.229  -6.243  1.00  0.00    -0.254 NA
ATOM     36  C   UNL     1      -0.906  -7.695  -7.221  1.00  0.00     0.185 C 
ATOM     37  N   UNL     1       0.225  -7.070  -7.583  1.00  0.00    -0.370 N 
ATOM     38  N   UNL     1      -1.154  -8.771  -7.989  1.00  0.00    -0.370 N 
ATOM     39  H   UNL     1       0.475  -6.243  -7.057  1.00  0.00     0.159 HD
ATOM     40  H   UNL     1       0.720  -7.266  -8.436  1.00  0.00     0.159 HD
ATOM     41  H   UNL     1      -0.466  -9.116  -8.638  1.00  0.00     0.159 HD
ATOM     42  H   UNL     1      -1.964  -9.346  -7.819  1.00  0.00     0.159 HD
ENDBRANCH  34  35
ENDBRANCH  33  34
ENDBRANCH  32  33
ENDBRANCH   6  32
ENDBRANCH   4   6
ENDBRANCH   1   2
BRANCH   1  43
ATOM     43  C   UNL     1      -6.021  -2.978  -7.096  1.00  0.00     0.102 C 
ATOM     44  C   UNL     1      -6.191  -4.184  -8.036  1.00  0.00     0.020 C 
BRANCH  43  45
ATOM     45  C   UNL     1      -4.574  -2.495  -6.961  1.00  0.00     0.225 C 
ATOM     46  O   UNL     1      -4.220  -1.663  -6.130  1.00  0.00    -0.275 OA
ATOM     47  N   UNL     1      -3.696  -2.985  -7.900  1.00  0.00    -0.342 N 
ATOM     48  H   UNL     1      -3.963  -3.774  -8.472  1.00  0.00     0.164 HD
BRANCH  47  49
ATOM     49  C   UNL     1      -2.272  -2.637  -7.872  1.00  0.00     0.192 C 
BRANCH  49  50
ATOM     50  C   UNL     1      -1.897  -1.899  -9.159  1.00  0.00     0.047 C 
BRANCH  50  51
ATOM     51  C   UNL     1      -2.730  -2.365 -10.361  1.00  0.00     0.103 C 
BRANCH  51  52
ATOM     52  C   UNL     1      -3.826  -1.364 -10.723  1.00  0.00     0.226 C 
ATOM     53  O   UNL     1      -4.961  -1.513 -10.268  1.00  0.00    -0.275 OA
BRANCH  52  54
ATOM     54  N   UNL     1      -3.436  -0.267 -11.514  1.00  0.00    -0.311 N 
ATOM     55  C   UNL     1      -3.393   1.090 -10.954  1.00  0.00     0.153 C 
BRANCH  54  56
ATOM     56  C   UNL     1      -3.071  -0.429 -12.860  1.00  0.00     0.102 C 
ATOM     57  C   UNL     1      -3.872  -0.918 -13.821  1.00  0.00     0.043 C 
BRANCH  56  58
ATOM     58  C   UNL     1      -1.707  -0.002 -13.350  1.00  0.00     0.268 C 
ATOM     59  O   UNL     1      -0.663  -0.365 -12.823  1.00  0.00    -0.268 OA
ATOM     60  N   UNL     1      -1.757   0.776 -14.481  1.00  0.00    -0.339 N 
ATOM     61  H   UNL     1      -2.663   1.041 -14.850  1.00  0.00     0.164 HD
BRANCH  60  62
ATOM     62  C   UNL     1      -0.550   1.247 -15.158  1.00  0.00     0.168 CG0
ATOM     63  C   UNL     1      -0.629   0.992 -16.658  1.00  0.00     0.041 C 
ATOM     64  G   UNL     1       0.687   0.552 -14.551  1.00  0.00     0.000 G0
ENDBRANCH  60  62
ENDBRANCH  56  58
ENDBRANCH  54  56
ENDBRANCH  52  54
ENDBRANCH  51  52
ENDBRANCH  50  51
ENDBRANCH  49  50
BRANCH  49  65
ATOM     65  C   UNL     1      -1.386  -3.885  -7.725  1.00  0.00     0.326 C 
ATOM     66  O   UNL     1      -0.869  -4.502  -8.645  1.00  0.00    -0.250 OA
BRANCH  65  67
ATOM     67  O   UNL     1      -1.244  -4.329  -6.457  1.00  0.00    -0.480 OA
ATOM     68  H   UNL     1      -2.151  -4.269  -6.087  1.00  0.00     0.296 HD
ENDBRANCH  65  67
ENDBRANCH  49  65
ENDBRANCH  47  49
ENDBRANCH  43  45
ENDBRANCH   1  43
BRANCH   1  69
ATOM     69  C   UNL     1      -7.203  -1.975  -4.950  1.00  0.00    -0.001 C 
ATOM     70  C   UNL     1      -7.617  -0.807  -5.473  1.00  0.00     0.001 C 
BRANCH  70  71
ATOM     71  C   UNL     1      -8.145   0.346  -4.742  1.00  0.00    -0.055 C 
ATOM     72  C   UNL     1      -8.396   0.192  -3.425  1.00  0.00    -0.018 C 
ATOM     73  C   UNL     1      -8.363   1.624  -5.508  1.00  0.00     0.044 C 
BRANCH  72  74
ATOM     74  C   UNL     1      -8.938   1.202  -2.423  1.00  0.00     0.038 C 
ATOM     75  C   UNL     1      -8.192   0.975  -1.102  1.00  0.00     0.015 C 
BRANCH  74  76
ATOM     76  C   UNL     1     -10.484   1.041  -2.336  1.00  0.00     0.128 C 
BRANCH  76  77
ATOM     77  O   UNL     1     -11.130   2.087  -3.082  1.00  0.00    -0.381 OA
ATOM     78  C   UNL     1     -12.062   1.611  -4.043  1.00  0.00     0.195 C 
ENDBRANCH  76  77
BRANCH  76  79
ATOM     79  C   UNL     1     -10.993  -0.371  -2.721  1.00  0.00     0.068 C 
BRANCH  79  80
ATOM     80  C   UNL     1     -11.247  -1.359  -1.607  1.00  0.00    -0.045 A 
ATOM     81  C   UNL     1     -10.230  -2.206  -1.149  1.00  0.00     0.004 A 
ATOM     82  C   UNL     1     -12.522  -1.462  -1.031  1.00  0.00     0.004 A 
ATOM     83  C   UNL     1     -10.477  -3.127  -0.128  1.00  0.00     0.000 A 
ATOM     84  C   UNL     1     -12.768  -2.384  -0.011  1.00  0.00     0.000 A 
ATOM     85  C   UNL     1     -11.745  -3.214   0.441  1.00  0.00     0.000 A 
ENDBRANCH  79  80
ENDBRANCH  76  79
ENDBRANCH  74  76
ENDBRANCH  72  74
ENDBRANCH  70  71
ENDBRANCH   1  69
TORSDOF 17
ENDMDL
MODEL 32
REMARK VINA RESULT:    -6.603      3.550     11.824
REMARK INTER + INTRA:         -26.221
REMARK INTER:                 -17.873
REMARK INTRA:                  -8.348
REMARK UNBOUND:                -6.494
REMARK SMILES C=C1C(=O)N[C@H](C)C(=O)N[C@@H](CC(C)C)C(=O)N[C@@H](C(=O)O)[C@H](C)C(=O)N[C@@H](CCCN=C(N)N)C(=O)N[C@@H](/C=C/C(C)=C/[C@H](C)[C@H](Cc2ccccc2)OC)[C@H](C)C(=O)N[C@@H](C(=O)O)CCC(=O)N1C
REMARK SMILES IDX 39 1 38 2 37 3 36 4 28 6 27 7 25 8 26 9 23 11 24 12 19 13
REMARK SMILES IDX 18 14 16 15 17 16 11 18 10 19 8 20 9 21 12 24 13 25 14 26
REMARK SMILES IDX 15 27 20 28 21 29 22 30 29 32 30 33 31 34 32 35 33 36 34 37
REMARK SMILES IDX 35 38 57 43 58 44 59 45 60 46 61 47 62 49 66 50 67 51 68 52
REMARK SMILES IDX 69 53 70 54 71 55 2 56 1 57 3 58 4 59 5 60 6 62 7 63 63 65
REMARK SMILES IDX 64 66 65 67 40 69 41 70 42 71 44 72 43 73 45 74 46 75 47 76
REMARK SMILES IDX 55 77 56 78 48 79 49 80 50 81 54 82 51 83 53 84 52 85
REMARK H PARENT 38 5 27 10 18 17 10 22 22 31 34 39 34 40 35 41 35 42 61 48
REMARK H PARENT 5 61 65 68
REMARK Flexibility Score:  369.900
ROOT
ATOM      1  C   UNL     1      -5.909  -6.185  -0.246  1.00  0.00     0.117 C 
ENDROOT
BRANCH   1   2
ATOM      2  N   UNL     1      -7.216  -5.532  -0.335  1.00  0.00    -0.347 N 
ATOM      3  O   UNL     1      -6.490  -3.359  -0.182  1.00  0.00    -0.273 OA
ATOM      4  C   UNL     1      -7.393  -4.163  -0.388  1.00  0.00     0.243 C 
ATOM      5  H   UNL     1      -8.047  -6.097  -0.413  1.00  0.00     0.164 HD
BRANCH   4   6
ATOM      6  C   UNL     1      -8.872  -3.733  -0.568  1.00  0.00     0.171 C 
BRANCH   6   7
ATOM      7  N   UNL     1      -9.440  -3.295   0.717  1.00  0.00    -0.344 N 
ATOM      8  C   UNL     1     -10.697  -3.707   1.106  1.00  0.00     0.226 C 
ATOM      9  O   UNL     1     -11.402  -4.426   0.408  1.00  0.00    -0.275 OA
ATOM     10  H   UNL     1      -8.915  -2.647   1.291  1.00  0.00     0.164 HD
BRANCH   8  11
ATOM     11  C   UNL     1     -11.118  -3.216   2.480  1.00  0.00     0.109 C 
ATOM     12  C   UNL     1     -12.539  -2.654   2.424  1.00  0.00     0.021 C 
BRANCH  11  13
ATOM     13  C   UNL     1     -10.903  -4.332   3.522  1.00  0.00     0.204 C 
BRANCH  13  14
ATOM     14  N   UNL     1     -10.105  -3.874   4.663  1.00  0.00    -0.340 N 
ATOM     15  C   UNL     1      -8.727  -3.852   4.653  1.00  0.00     0.243 C 
ATOM     16  O   UNL     1      -8.070  -4.159   3.660  1.00  0.00    -0.273 OA
ATOM     17  H   UNL     1     -10.579  -3.752   5.562  1.00  0.00     0.164 HD
BRANCH  15  18
ATOM     18  C   UNL     1      -8.103  -3.532   6.033  1.00  0.00     0.171 C 
BRANCH  18  19
ATOM     19  N   UNL     1      -8.992  -4.110   7.039  1.00  0.00    -0.343 N 
ATOM     20  C   UNL     1      -9.310  -3.438   8.203  1.00  0.00     0.242 CG0
ATOM     21  O   UNL     1      -8.758  -2.383   8.508  1.00  0.00    -0.273 OA
ATOM     22  H   UNL     1      -9.383  -5.032   6.885  1.00  0.00     0.164 HD
ATOM     23  G   UNL     1     -10.324  -4.172   9.105  1.00  0.00     0.000 G0
ENDBRANCH  18  19
BRANCH  18  24
ATOM     24  C   UNL     1      -6.687  -4.112   6.134  1.00  0.00     0.038 C 
BRANCH  24  25
ATOM     25  C   UNL     1      -5.559  -3.058   6.152  1.00  0.00    -0.015 C 
ATOM     26  C   UNL     1      -6.091  -1.633   6.307  1.00  0.00     0.007 C 
ATOM     27  C   UNL     1      -4.736  -3.164   4.865  1.00  0.00     0.007 C 
ENDBRANCH  24  25
ENDBRANCH  18  24
ENDBRANCH  15  18
ENDBRANCH  13  14
BRANCH  13  28
ATOM     28  C   UNL     1     -12.213  -4.897   4.080  1.00  0.00     0.327 C 
ATOM     29  O   UNL     1     -12.918  -4.379   4.933  1.00  0.00    -0.250 OA
BRANCH  28  30
ATOM     30  O   UNL     1     -12.494  -6.133   3.621  1.00  0.00    -0.480 OA
ATOM     31  H   UNL     1     -12.834  -6.610   4.406  1.00  0.00     0.296 HD
ENDBRANCH  28  30
ENDBRANCH  13  28
ENDBRANCH  11  13
ENDBRANCH   8  11
ENDBRANCH   6   7
BRANCH   6  32
ATOM     32  C   UNL     1      -8.946  -2.611  -1.609  1.00  0.00     0.037 C 
BRANCH  32  33
ATOM     33  C   UNL     1      -8.960  -1.219  -0.962  1.00  0.00     0.026 C 
BRANCH  33  34
ATOM     34  C   UNL     1      -8.416  -0.135  -1.893  1.00  0.00     0.146 C 
BRANCH  34  35
ATOM     35  N   UNL     1      -7.276   0.506  -1.251  1.00  0.00    -0.254 NA
ATOM     36  C   UNL     1      -6.105   0.031  -1.461  1.00  0.00     0.185 C 
ATOM     37  N   UNL     1      -5.048   0.617  -0.879  1.00  0.00    -0.370 N 
ATOM     38  N   UNL     1      -5.744  -1.022  -2.215  1.00  0.00    -0.370 N 
ATOM     39  H   UNL     1      -5.238   1.426  -0.301  1.00  0.00     0.159 HD
ATOM     40  H   UNL     1      -4.094   0.417  -1.128  1.00  0.00     0.159 HD
ATOM     41  H   UNL     1      -4.804  -1.383  -2.190  1.00  0.00     0.159 HD
ATOM     42  H   UNL     1      -6.439  -1.568  -2.700  1.00  0.00     0.159 HD
ENDBRANCH  34  35
ENDBRANCH  33  34
ENDBRANCH  32  33
ENDBRANCH   6  32
ENDBRANCH   4   6
ENDBRANCH   1   2
BRANCH   1  43
ATOM     43  C   UNL     1      -5.601  -6.865  -1.611  1.00  0.00     0.102 C 
ATOM     44  C   UNL     1      -5.290  -8.366  -1.491  1.00  0.00     0.020 C 
BRANCH  43  45
ATOM     45  C   UNL     1      -4.550  -6.073  -2.395  1.00  0.00     0.225 C 
ATOM     46  O   UNL     1      -4.084  -5.007  -2.004  1.00  0.00    -0.275 OA
ATOM     47  N   UNL     1      -4.220  -6.586  -3.628  1.00  0.00    -0.342 N 
ATOM     48  H   UNL     1      -4.493  -7.530  -3.867  1.00  0.00     0.164 HD
BRANCH  47  49
ATOM     49  C   UNL     1      -3.203  -5.954  -4.474  1.00  0.00     0.192 C 
BRANCH  49  50
ATOM     50  C   UNL     1      -3.878  -5.008  -5.470  1.00  0.00     0.047 C 
BRANCH  50  51
ATOM     51  C   UNL     1      -4.884  -5.735  -6.373  1.00  0.00     0.103 C 
BRANCH  51  52
ATOM     52  C   UNL     1      -6.295  -5.166  -6.233  1.00  0.00     0.226 C 
ATOM     53  O   UNL     1      -6.941  -5.383  -5.207  1.00  0.00    -0.275 OA
BRANCH  52  54
ATOM     54  N   UNL     1      -6.748  -4.347  -7.284  1.00  0.00    -0.311 N 
ATOM     55  C   UNL     1      -7.994  -4.654  -8.000  1.00  0.00     0.153 C 
BRANCH  54  56
ATOM     56  C   UNL     1      -6.032  -3.206  -7.684  1.00  0.00     0.102 C 
ATOM     57  C   UNL     1      -5.782  -2.143  -6.903  1.00  0.00     0.043 C 
BRANCH  56  58
ATOM     58  C   UNL     1      -5.430  -3.115  -9.067  1.00  0.00     0.268 C 
ATOM     59  O   UNL     1      -4.563  -3.878  -9.472  1.00  0.00    -0.268 OA
ATOM     60  N   UNL     1      -6.001  -2.132  -9.840  1.00  0.00    -0.339 N 
ATOM     61  H   UNL     1      -6.707  -1.535  -9.427  1.00  0.00     0.164 HD
BRANCH  60  62
ATOM     62  C   UNL     1      -5.611  -1.912 -11.233  1.00  0.00     0.168 CG0
ATOM     63  C   UNL     1      -6.836  -1.777 -12.129  1.00  0.00     0.041 C 
ATOM     64  G   UNL     1      -4.712  -3.072 -11.707  1.00  0.00     0.000 G0
ENDBRANCH  60  62
ENDBRANCH  56  58
ENDBRANCH  54  56
ENDBRANCH  52  54
ENDBRANCH  51  52
ENDBRANCH  50  51
ENDBRANCH  49  50
BRANCH  49  65
ATOM     65  C   UNL     1      -2.377  -6.998  -5.243  1.00  0.00     0.326 C 
ATOM     66  O   UNL     1      -2.427  -8.207  -5.074  1.00  0.00    -0.250 OA
BRANCH  65  67
ATOM     67  O   UNL     1      -1.498  -6.480  -6.129  1.00  0.00    -0.480 OA
ATOM     68  H   UNL     1      -0.779  -6.126  -5.562  1.00  0.00     0.296 HD
ENDBRANCH  65  67
ENDBRANCH  49  65
ENDBRANCH  47  49
ENDBRANCH  43  45
ENDBRANCH   1  43
BRANCH   1  69
ATOM     69  C   UNL     1      -5.948  -7.041   1.007  1.00  0.00    -0.001 C 
ATOM     70  C   UNL     1      -6.959  -7.158   1.886  1.00  0.00     0.001 C 
BRANCH  70  71
ATOM     71  C   UNL     1      -6.993  -8.004   3.081  1.00  0.00    -0.055 C 
ATOM     72  C   UNL     1      -7.883  -7.692   4.046  1.00  0.00    -0.018 C 
ATOM     73  C   UNL     1      -6.037  -9.167   3.145  1.00  0.00     0.044 C 
BRANCH  72  74
ATOM     74  C   UNL     1      -8.143  -8.383   5.377  1.00  0.00     0.038 C 
ATOM     75  C   UNL     1      -9.641  -8.708   5.433  1.00  0.00     0.015 C 
BRANCH  74  76
ATOM     76  C   UNL     1      -7.630  -7.466   6.526  1.00  0.00     0.128 C 
BRANCH  76  77
ATOM     77  O   UNL     1      -8.693  -7.205   7.457  1.00  0.00    -0.381 OA
ATOM     78  C   UNL     1      -8.261  -7.123   8.809  1.00  0.00     0.195 C 
ENDBRANCH  76  77
BRANCH  76  79
ATOM     79  C   UNL     1      -6.342  -7.983   7.216  1.00  0.00     0.068 C 
BRANCH  79  80
ATOM     80  C   UNL     1      -5.062  -7.983   6.415  1.00  0.00    -0.045 A 
ATOM     81  C   UNL     1      -4.668  -6.855   5.684  1.00  0.00     0.004 A 
ATOM     82  C   UNL     1      -4.258  -9.132   6.368  1.00  0.00     0.004 A 
ATOM     83  C   UNL     1      -3.490  -6.868   4.934  1.00  0.00     0.000 A 
ATOM     84  C   UNL     1      -3.080  -9.144   5.617  1.00  0.00     0.000 A 
ATOM     85  C   UNL     1      -2.696  -8.013   4.902  1.00  0.00     0.000 A 
ENDBRANCH  79  80
ENDBRANCH  76  79
ENDBRANCH  74  76
ENDBRANCH  72  74
ENDBRANCH  70  71
ENDBRANCH   1  69
TORSDOF 17
ENDMDL
MODEL 33
REMARK VINA RESULT:    -6.596      4.004     12.676
REMARK INTER + INTRA:         -26.199
REMARK INTER:                 -18.801
REMARK INTRA:                  -7.397
REMARK UNBOUND:                -6.494
REMARK SMILES C=C1C(=O)N[C@H](C)C(=O)N[C@@H](CC(C)C)C(=O)N[C@@H](C(=O)O)[C@H](C)C(=O)N[C@@H](CCCN=C(N)N)C(=O)N[C@@H](/C=C/C(C)=C/[C@H](C)[C@H](Cc2ccccc2)OC)[C@H](C)C(=O)N[C@@H](C(=O)O)CCC(=O)N1C
REMARK SMILES IDX 39 1 38 2 37 3 36 4 28 6 27 7 25 8 26 9 23 11 24 12 19 13
REMARK SMILES IDX 18 14 16 15 17 16 11 18 10 19 8 20 9 21 12 24 13 25 14 26
REMARK SMILES IDX 15 27 20 28 21 29 22 30 29 32 30 33 31 34 32 35 33 36 34 37
REMARK SMILES IDX 35 38 57 43 58 44 59 45 60 46 61 47 62 49 66 50 67 51 68 52
REMARK SMILES IDX 69 53 70 54 71 55 2 56 1 57 3 58 4 59 5 60 6 62 7 63 63 65
REMARK SMILES IDX 64 66 65 67 40 69 41 70 42 71 44 72 43 73 45 74 46 75 47 76
REMARK SMILES IDX 55 77 56 78 48 79 49 80 50 81 54 82 51 83 53 84 52 85
REMARK H PARENT 38 5 27 10 18 17 10 22 22 31 34 39 34 40 35 41 35 42 61 48
REMARK H PARENT 5 61 65 68
REMARK Flexibility Score:  369.900
ROOT
ATOM      1  C   UNL     1      -5.393  -7.228   1.254  1.00  0.00     0.117 C 
ENDROOT
BRANCH   1   2
ATOM      2  N   UNL     1      -6.629  -6.477   1.478  1.00  0.00    -0.347 N 
ATOM      3  O   UNL     1      -5.975  -4.501   0.509  1.00  0.00    -0.273 OA
ATOM      4  C   UNL     1      -6.854  -5.199   1.005  1.00  0.00     0.243 C 
ATOM      5  H   UNL     1      -7.394  -6.919   1.964  1.00  0.00     0.164 HD
BRANCH   4   6
ATOM      6  C   UNL     1      -8.277  -4.664   1.306  1.00  0.00     0.171 C 
BRANCH   6   7
ATOM      7  N   UNL     1      -8.735  -5.136   2.622  1.00  0.00    -0.344 N 
ATOM      8  C   UNL     1     -10.079  -5.183   2.923  1.00  0.00     0.226 C 
ATOM      9  O   UNL     1     -10.945  -4.821   2.135  1.00  0.00    -0.275 OA
ATOM     10  H   UNL     1      -8.047  -5.380   3.323  1.00  0.00     0.164 HD
BRANCH   8  11
ATOM     11  C   UNL     1     -10.394  -5.744   4.299  1.00  0.00     0.109 C 
ATOM     12  C   UNL     1      -9.481  -6.932   4.604  1.00  0.00     0.021 C 
BRANCH  11  13
ATOM     13  C   UNL     1     -10.355  -4.612   5.345  1.00  0.00     0.204 C 
BRANCH  13  14
ATOM     14  N   UNL     1     -10.952  -5.019   6.621  1.00  0.00    -0.340 N 
ATOM     15  C   UNL     1     -11.825  -4.221   7.327  1.00  0.00     0.243 C 
ATOM     16  O   UNL     1     -12.214  -3.133   6.905  1.00  0.00    -0.273 OA
ATOM     17  H   UNL     1     -10.558  -5.835   7.096  1.00  0.00     0.164 HD
BRANCH  15  18
ATOM     18  C   UNL     1     -12.159  -4.766   8.737  1.00  0.00     0.171 C 
BRANCH  18  19
ATOM     19  N   UNL     1     -13.600  -5.008   8.762  1.00  0.00    -0.343 N 
ATOM     20  C   UNL     1     -14.407  -4.501   9.762  1.00  0.00     0.242 CG0
ATOM     21  O   UNL     1     -13.935  -3.936  10.746  1.00  0.00    -0.273 OA
ATOM     22  H   UNL     1     -14.023  -5.568   8.031  1.00  0.00     0.164 HD
ATOM     23  G   UNL     1     -15.911  -4.793   9.577  1.00  0.00     0.000 G0
ENDBRANCH  18  19
BRANCH  18  24
ATOM     24  C   UNL     1     -11.369  -6.049   9.023  1.00  0.00     0.038 C 
BRANCH  24  25
ATOM     25  C   UNL     1     -10.480  -5.991  10.283  1.00  0.00    -0.015 C 
ATOM     26  C   UNL     1      -9.136  -5.312  10.020  1.00  0.00     0.007 C 
ATOM     27  C   UNL     1     -10.245  -7.408  10.813  1.00  0.00     0.007 C 
ENDBRANCH  24  25
ENDBRANCH  18  24
ENDBRANCH  15  18
ENDBRANCH  13  14
BRANCH  13  28
ATOM     28  C   UNL     1      -8.938  -4.114   5.644  1.00  0.00     0.327 C 
ATOM     29  O   UNL     1      -8.272  -3.364   4.946  1.00  0.00    -0.250 OA
BRANCH  28  30
ATOM     30  O   UNL     1      -8.399  -4.683   6.741  1.00  0.00    -0.480 OA
ATOM     31  H   UNL     1      -8.887  -4.277   7.488  1.00  0.00     0.296 HD
ENDBRANCH  28  30
ENDBRANCH  13  28
ENDBRANCH  11  13
ENDBRANCH   8  11
ENDBRANCH   6   7
BRANCH   6  32
ATOM     32  C   UNL     1      -8.262  -3.133   1.248  1.00  0.00     0.037 C 
BRANCH  32  33
ATOM     33  C   UNL     1      -9.176  -2.585   0.143  1.00  0.00     0.026 C 
BRANCH  33  34
ATOM     34  C   UNL     1      -8.429  -2.350  -1.171  1.00  0.00     0.146 C 
BRANCH  34  35
ATOM     35  N   UNL     1      -7.269  -1.510  -0.908  1.00  0.00    -0.254 NA
ATOM     36  C   UNL     1      -6.439  -1.293  -1.859  1.00  0.00     0.185 C 
ATOM     37  N   UNL     1      -5.369  -0.516  -1.629  1.00  0.00    -0.370 N 
ATOM     38  N   UNL     1      -6.469  -1.744  -3.126  1.00  0.00    -0.370 N 
ATOM     39  H   UNL     1      -5.281  -0.128  -0.698  1.00  0.00     0.159 HD
ATOM     40  H   UNL     1      -4.774  -0.159  -2.357  1.00  0.00     0.159 HD
ATOM     41  H   UNL     1      -5.683  -1.617  -3.742  1.00  0.00     0.159 HD
ATOM     42  H   UNL     1      -7.210  -2.353  -3.435  1.00  0.00     0.159 HD
ENDBRANCH  34  35
ENDBRANCH  33  34
ENDBRANCH  32  33
ENDBRANCH   6  32
ENDBRANCH   4   6
ENDBRANCH   1   2
BRANCH   1  43
ATOM     43  C   UNL     1      -5.672  -8.337   0.200  1.00  0.00     0.102 C 
ATOM     44  C   UNL     1      -4.767  -9.572   0.356  1.00  0.00     0.020 C 
BRANCH  43  45
ATOM     45  C   UNL     1      -5.692  -7.757  -1.218  1.00  0.00     0.225 C 
ATOM     46  O   UNL     1      -6.617  -7.940  -2.004  1.00  0.00    -0.275 OA
ATOM     47  N   UNL     1      -4.553  -7.086  -1.599  1.00  0.00    -0.342 N 
ATOM     48  H   UNL     1      -3.875  -6.815  -0.901  1.00  0.00     0.164 HD
BRANCH  47  49
ATOM     49  C   UNL     1      -4.445  -6.447  -2.914  1.00  0.00     0.192 C 
BRANCH  49  50
ATOM     50  C   UNL     1      -2.971  -6.340  -3.314  1.00  0.00     0.047 C 
BRANCH  50  51
ATOM     51  C   UNL     1      -2.790  -6.155  -4.827  1.00  0.00     0.103 C 
BRANCH  51  52
ATOM     52  C   UNL     1      -2.557  -7.483  -5.544  1.00  0.00     0.226 C 
ATOM     53  O   UNL     1      -2.744  -8.542  -4.942  1.00  0.00    -0.275 OA
BRANCH  52  54
ATOM     54  N   UNL     1      -2.206  -7.408  -6.904  1.00  0.00    -0.311 N 
ATOM     55  C   UNL     1      -0.931  -6.811  -7.325  1.00  0.00     0.153 C 
BRANCH  54  56
ATOM     56  C   UNL     1      -3.054  -7.903  -7.908  1.00  0.00     0.102 C 
ATOM     57  C   UNL     1      -2.744  -8.899  -8.754  1.00  0.00     0.043 C 
BRANCH  56  58
ATOM     58  C   UNL     1      -4.451  -7.356  -8.082  1.00  0.00     0.268 C 
ATOM     59  O   UNL     1      -5.325  -7.467  -7.233  1.00  0.00    -0.268 OA
ATOM     60  N   UNL     1      -4.618  -6.666  -9.259  1.00  0.00    -0.339 N 
ATOM     61  H   UNL     1      -3.848  -6.628  -9.916  1.00  0.00     0.164 HD
BRANCH  60  62
ATOM     62  C   UNL     1      -5.875  -6.001  -9.601  1.00  0.00     0.168 CG0
ATOM     63  C   UNL     1      -6.735  -6.883 -10.497  1.00  0.00     0.041 C 
ATOM     64  G   UNL     1      -5.576  -4.652 -10.287  1.00  0.00     0.000 G0
ENDBRANCH  60  62
ENDBRANCH  56  58
ENDBRANCH  54  56
ENDBRANCH  52  54
ENDBRANCH  51  52
ENDBRANCH  50  51
ENDBRANCH  49  50
BRANCH  49  65
ATOM     65  C   UNL     1      -5.076  -5.046  -2.918  1.00  0.00     0.326 C 
ATOM     66  O   UNL     1      -5.817  -4.602  -3.783  1.00  0.00    -0.250 OA
BRANCH  65  67
ATOM     67  O   UNL     1      -4.705  -4.258  -1.884  1.00  0.00    -0.480 OA
ATOM     68  H   UNL     1      -3.776  -4.023  -2.094  1.00  0.00     0.296 HD
ENDBRANCH  65  67
ENDBRANCH  49  65
ENDBRANCH  47  49
ENDBRANCH  43  45
ENDBRANCH   1  43
BRANCH   1  69
ATOM     69  C   UNL     1      -4.886  -7.631   2.627  1.00  0.00    -0.001 C 
ATOM     70  C   UNL     1      -5.594  -7.711   3.767  1.00  0.00     0.001 C 
BRANCH  70  71
ATOM     71  C   UNL     1      -5.099  -8.123   5.083  1.00  0.00    -0.055 C 
ATOM     72  C   UNL     1      -5.656  -7.549   6.170  1.00  0.00    -0.018 C 
ATOM     73  C   UNL     1      -4.010  -9.162   5.129  1.00  0.00     0.044 C 
BRANCH  72  74
ATOM     74  C   UNL     1      -5.349  -7.779   7.643  1.00  0.00     0.038 C 
ATOM     75  C   UNL     1      -6.685  -7.736   8.395  1.00  0.00     0.015 C 
BRANCH  74  76
ATOM     76  C   UNL     1      -4.304  -6.724   8.108  1.00  0.00     0.128 C 
BRANCH  76  77
ATOM     77  O   UNL     1      -3.037  -7.360   8.346  1.00  0.00    -0.381 OA
ATOM     78  C   UNL     1      -2.011  -6.940   7.457  1.00  0.00     0.195 C 
ENDBRANCH  76  77
BRANCH  76  79
ATOM     79  C   UNL     1      -4.191  -5.495   7.172  1.00  0.00     0.068 C 
BRANCH  79  80
ATOM     80  C   UNL     1      -4.937  -4.241   7.557  1.00  0.00    -0.045 A 
ATOM     81  C   UNL     1      -5.560  -4.127   8.807  1.00  0.00     0.004 A 
ATOM     82  C   UNL     1      -5.043  -3.174   6.652  1.00  0.00     0.004 A 
ATOM     83  C   UNL     1      -6.261  -2.969   9.151  1.00  0.00     0.000 A 
ATOM     84  C   UNL     1      -5.744  -2.016   6.997  1.00  0.00     0.000 A 
ATOM     85  C   UNL     1      -6.352  -1.914   8.246  1.00  0.00     0.000 A 
ENDBRANCH  79  80
ENDBRANCH  76  79
ENDBRANCH  74  76
ENDBRANCH  72  74
ENDBRANCH  70  71
ENDBRANCH   1  69
TORSDOF 17
ENDMDL
MODEL 34
REMARK VINA RESULT:    -6.595      3.675     12.521
REMARK INTER + INTRA:         -26.197
REMARK INTER:                 -19.488
REMARK INTRA:                  -6.709
REMARK UNBOUND:                -6.494
REMARK SMILES C=C1C(=O)N[C@H](C)C(=O)N[C@@H](CC(C)C)C(=O)N[C@@H](C(=O)O)[C@H](C)C(=O)N[C@@H](CCCN=C(N)N)C(=O)N[C@@H](/C=C/C(C)=C/[C@H](C)[C@H](Cc2ccccc2)OC)[C@H](C)C(=O)N[C@@H](C(=O)O)CCC(=O)N1C
REMARK SMILES IDX 39 1 38 2 37 3 36 4 28 6 27 7 25 8 26 9 23 11 24 12 19 13
REMARK SMILES IDX 18 14 16 15 17 16 11 18 10 19 8 20 9 21 12 24 13 25 14 26
REMARK SMILES IDX 15 27 20 28 21 29 22 30 29 32 30 33 31 34 32 35 33 36 34 37
REMARK SMILES IDX 35 38 57 43 58 44 59 45 60 46 61 47 62 49 66 50 67 51 68 52
REMARK SMILES IDX 69 53 70 54 71 55 2 56 1 57 3 58 4 59 5 60 6 62 7 63 63 65
REMARK SMILES IDX 64 66 65 67 40 69 41 70 42 71 44 72 43 73 45 74 46 75 47 76
REMARK SMILES IDX 55 77 56 78 48 79 49 80 50 81 54 82 51 83 53 84 52 85
REMARK H PARENT 38 5 27 10 18 17 10 22 22 31 34 39 34 40 35 41 35 42 61 48
REMARK H PARENT 5 61 65 68
REMARK Flexibility Score:  369.900
ROOT
ATOM      1  C   UNL     1      -9.190  -0.275   1.133  1.00  0.00     0.117 C 
ENDROOT
BRANCH   1   2
ATOM      2  N   UNL     1      -8.445  -1.000   0.103  1.00  0.00    -0.347 N 
ATOM      3  O   UNL     1     -10.235  -1.995  -0.935  1.00  0.00    -0.273 OA
ATOM      4  C   UNL     1      -9.037  -1.732  -0.908  1.00  0.00     0.243 C 
ATOM      5  H   UNL     1      -7.439  -0.936   0.082  1.00  0.00     0.164 HD
BRANCH   4   6
ATOM      6  C   UNL     1      -8.026  -2.330  -1.919  1.00  0.00     0.171 C 
BRANCH   6   7
ATOM      7  N   UNL     1      -7.582  -3.661  -1.476  1.00  0.00    -0.344 N 
ATOM      8  C   UNL     1      -6.240  -3.950  -1.353  1.00  0.00     0.226 C 
ATOM      9  O   UNL     1      -5.363  -3.138  -1.622  1.00  0.00    -0.275 OA
ATOM     10  H   UNL     1      -8.276  -4.380  -1.309  1.00  0.00     0.164 HD
BRANCH   8  11
ATOM     11  C   UNL     1      -5.945  -5.346  -0.833  1.00  0.00     0.109 C 
ATOM     12  C   UNL     1      -6.977  -5.742   0.223  1.00  0.00     0.021 C 
BRANCH  11  13
ATOM     13  C   UNL     1      -5.819  -6.326  -2.016  1.00  0.00     0.204 C 
BRANCH  13  14
ATOM     14  N   UNL     1      -4.481  -6.300  -2.615  1.00  0.00    -0.340 N 
ATOM     15  C   UNL     1      -4.265  -6.422  -3.970  1.00  0.00     0.243 C 
ATOM     16  O   UNL     1      -5.185  -6.501  -4.781  1.00  0.00    -0.273 OA
ATOM     17  H   UNL     1      -3.674  -6.389  -1.991  1.00  0.00     0.164 HD
BRANCH  15  18
ATOM     18  C   UNL     1      -2.770  -6.576  -4.347  1.00  0.00     0.171 C 
BRANCH  18  19
ATOM     19  N   UNL     1      -2.606  -7.935  -4.860  1.00  0.00    -0.343 N 
ATOM     20  C   UNL     1      -2.746  -9.043  -4.047  1.00  0.00     0.242 CG0
ATOM     21  O   UNL     1      -2.884  -8.935  -2.831  1.00  0.00    -0.273 OA
ATOM     22  H   UNL     1      -2.376  -8.072  -5.838  1.00  0.00     0.164 HD
ATOM     23  G   UNL     1      -2.615 -10.393  -4.782  1.00  0.00     0.000 G0
ENDBRANCH  18  19
BRANCH  18  24
ATOM     24  C   UNL     1      -2.364  -5.528  -5.390  1.00  0.00     0.038 C 
BRANCH  24  25
ATOM     25  C   UNL     1      -2.142  -6.086  -6.812  1.00  0.00    -0.015 C 
ATOM     26  C   UNL     1      -0.871  -5.540  -7.463  1.00  0.00     0.007 C 
ATOM     27  C   UNL     1      -3.352  -5.757  -7.689  1.00  0.00     0.007 C 
ENDBRANCH  24  25
ENDBRANCH  18  24
ENDBRANCH  15  18
ENDBRANCH  13  14
BRANCH  13  28
ATOM     28  C   UNL     1      -6.115  -7.779  -1.630  1.00  0.00     0.327 C 
ATOM     29  O   UNL     1      -7.148  -8.391  -1.856  1.00  0.00    -0.250 OA
BRANCH  28  30
ATOM     30  O   UNL     1      -5.142  -8.336  -0.881  1.00  0.00    -0.480 OA
ATOM     31  H   UNL     1      -4.645  -7.570  -0.524  1.00  0.00     0.296 HD
ENDBRANCH  28  30
ENDBRANCH  13  28
ENDBRANCH  11  13
ENDBRANCH   8  11
ENDBRANCH   6   7
BRANCH   6  32
ATOM     32  C   UNL     1      -8.681  -2.404  -3.303  1.00  0.00     0.037 C 
BRANCH  32  33
ATOM     33  C   UNL     1      -8.330  -3.703  -4.041  1.00  0.00     0.026 C 
BRANCH  33  34
ATOM     34  C   UNL     1      -7.722  -3.446  -5.421  1.00  0.00     0.146 C 
BRANCH  34  35
ATOM     35  N   UNL     1      -7.997  -4.593  -6.276  1.00  0.00    -0.254 NA
ATOM     36  C   UNL     1      -7.357  -4.702  -7.380  1.00  0.00     0.185 C 
ATOM     37  N   UNL     1      -7.598  -5.758  -8.174  1.00  0.00    -0.370 N 
ATOM     38  N   UNL     1      -6.427  -3.883  -7.903  1.00  0.00    -0.370 N 
ATOM     39  H   UNL     1      -8.281  -6.428  -7.843  1.00  0.00     0.159 HD
ATOM     40  H   UNL     1      -7.022  -6.005  -8.960  1.00  0.00     0.159 HD
ATOM     41  H   UNL     1      -6.098  -4.004  -8.847  1.00  0.00     0.159 HD
ATOM     42  H   UNL     1      -6.158  -3.040  -7.421  1.00  0.00     0.159 HD
ENDBRANCH  34  35
ENDBRANCH  33  34
ENDBRANCH  32  33
ENDBRANCH   6  32
ENDBRANCH   4   6
ENDBRANCH   1   2
BRANCH   1  43
ATOM     43  C   UNL     1      -8.689   1.198   1.161  1.00  0.00     0.102 C 
ATOM     44  C   UNL     1      -9.787   2.210   1.529  1.00  0.00     0.020 C 
BRANCH  43  45
ATOM     45  C   UNL     1      -7.929   1.545  -0.123  1.00  0.00     0.225 C 
ATOM     46  O   UNL     1      -6.723   1.359  -0.259  1.00  0.00    -0.275 OA
ATOM     47  N   UNL     1      -8.669   2.174  -1.098  1.00  0.00    -0.342 N 
ATOM     48  H   UNL     1      -9.677   2.182  -1.034  1.00  0.00     0.164 HD
BRANCH  47  49
ATOM     49  C   UNL     1      -8.083   2.533  -2.392  1.00  0.00     0.192 C 
BRANCH  49  50
ATOM     50  C   UNL     1      -8.914   3.642  -3.044  1.00  0.00     0.047 C 
BRANCH  50  51
ATOM     51  C   UNL     1      -8.342   5.038  -2.764  1.00  0.00     0.103 C 
BRANCH  51  52
ATOM     52  C   UNL     1      -9.429   6.111  -2.753  1.00  0.00     0.226 C 
ATOM     53  O   UNL     1      -9.581   6.836  -3.738  1.00  0.00    -0.275 OA
BRANCH  52  54
ATOM     54  N   UNL     1     -10.257   6.153  -1.616  1.00  0.00    -0.311 N 
ATOM     55  C   UNL     1      -9.720   5.869  -0.279  1.00  0.00     0.153 C 
BRANCH  54  56
ATOM     56  C   UNL     1     -11.622   6.471  -1.715  1.00  0.00     0.102 C 
ATOM     57  C   UNL     1     -12.544   5.718  -2.337  1.00  0.00     0.043 C 
BRANCH  56  58
ATOM     58  C   UNL     1     -12.177   7.715  -1.062  1.00  0.00     0.268 C 
ATOM     59  O   UNL     1     -11.737   8.837  -1.275  1.00  0.00    -0.268 OA
ATOM     60  N   UNL     1     -13.263   7.464  -0.258  1.00  0.00    -0.339 N 
ATOM     61  H   UNL     1     -13.559   6.505  -0.125  1.00  0.00     0.164 HD
BRANCH  60  62
ATOM     62  C   UNL     1     -13.993   8.534   0.422  1.00  0.00     0.168 CG0
ATOM     63  C   UNL     1     -14.368   8.124   1.841  1.00  0.00     0.041 C 
ATOM     64  G   UNL     1     -15.251   8.899  -0.392  1.00  0.00     0.000 G0
ENDBRANCH  60  62
ENDBRANCH  56  58
ENDBRANCH  54  56
ENDBRANCH  52  54
ENDBRANCH  51  52
ENDBRANCH  50  51
ENDBRANCH  49  50
BRANCH  49  65
ATOM     65  C   UNL     1      -8.016   1.324  -3.339  1.00  0.00     0.326 C 
ATOM     66  O   UNL     1      -8.903   0.968  -4.101  1.00  0.00    -0.250 OA
BRANCH  65  67
ATOM     67  O   UNL     1      -6.882   0.595  -3.243  1.00  0.00    -0.480 OA
ATOM     68  H   UNL     1      -6.292   0.996  -3.917  1.00  0.00     0.296 HD
ENDBRANCH  65  67
ENDBRANCH  49  65
ENDBRANCH  47  49
ENDBRANCH  43  45
ENDBRANCH   1  43
BRANCH   1  69
ATOM     69  C   UNL     1      -9.086  -1.109   2.397  1.00  0.00    -0.001 C 
ATOM     70  C   UNL     1      -9.419  -2.402   2.553  1.00  0.00     0.001 C 
BRANCH  70  71
ATOM     71  C   UNL     1      -9.294  -3.202   3.773  1.00  0.00    -0.055 C 
ATOM     72  C   UNL     1      -8.483  -4.280   3.736  1.00  0.00    -0.018 C 
ATOM     73  C   UNL     1     -10.074  -2.762   4.984  1.00  0.00     0.044 C 
BRANCH  72  74
ATOM     74  C   UNL     1      -8.160  -5.281   4.837  1.00  0.00     0.038 C 
ATOM     75  C   UNL     1      -6.658  -5.168   5.125  1.00  0.00     0.015 C 
BRANCH  74  76
ATOM     76  C   UNL     1      -8.634  -6.693   4.384  1.00  0.00     0.128 C 
BRANCH  76  77
ATOM     77  O   UNL     1      -7.501  -7.565   4.230  1.00  0.00    -0.381 OA
ATOM     78  C   UNL     1      -7.405  -8.153   2.939  1.00  0.00     0.195 C 
ENDBRANCH  76  77
BRANCH  76  79
ATOM     79  C   UNL     1      -9.741  -7.303   5.280  1.00  0.00     0.068 C 
BRANCH  79  80
ATOM     80  C   UNL     1     -10.975  -6.473   5.542  1.00  0.00    -0.045 A 
ATOM     81  C   UNL     1     -11.740  -5.963   4.485  1.00  0.00     0.004 A 
ATOM     82  C   UNL     1     -11.361  -6.176   6.858  1.00  0.00     0.004 A 
ATOM     83  C   UNL     1     -12.872  -5.184   4.736  1.00  0.00     0.000 A 
ATOM     84  C   UNL     1     -12.493  -5.397   7.107  1.00  0.00     0.000 A 
ATOM     85  C   UNL     1     -13.248  -4.903   6.047  1.00  0.00     0.000 A 
ENDBRANCH  79  80
ENDBRANCH  76  79
ENDBRANCH  74  76
ENDBRANCH  72  74
ENDBRANCH  70  71
ENDBRANCH   1  69
TORSDOF 17
ENDMDL
MODEL 35
REMARK VINA RESULT:    -6.592      7.620     14.003
REMARK INTER + INTRA:         -26.187
REMARK INTER:                 -21.058
REMARK INTRA:                  -5.130
REMARK UNBOUND:                -6.494
REMARK SMILES C=C1C(=O)N[C@H](C)C(=O)N[C@@H](CC(C)C)C(=O)N[C@@H](C(=O)O)[C@H](C)C(=O)N[C@@H](CCCN=C(N)N)C(=O)N[C@@H](/C=C/C(C)=C/[C@H](C)[C@H](Cc2ccccc2)OC)[C@H](C)C(=O)N[C@@H](C(=O)O)CCC(=O)N1C
REMARK SMILES IDX 39 1 38 2 37 3 36 4 28 6 27 7 25 8 26 9 23 11 24 12 19 13
REMARK SMILES IDX 18 14 16 15 17 16 11 18 10 19 8 20 9 21 12 24 13 25 14 26
REMARK SMILES IDX 15 27 20 28 21 29 22 30 29 32 30 33 31 34 32 35 33 36 34 37
REMARK SMILES IDX 35 38 57 43 58 44 59 45 60 46 61 47 62 49 66 50 67 51 68 52
REMARK SMILES IDX 69 53 70 54 71 55 2 56 1 57 3 58 4 59 5 60 6 62 7 63 63 65
REMARK SMILES IDX 64 66 65 67 40 69 41 70 42 71 44 72 43 73 45 74 46 75 47 76
REMARK SMILES IDX 55 77 56 78 48 79 49 80 50 81 54 82 51 83 53 84 52 85
REMARK H PARENT 38 5 27 10 18 17 10 22 22 31 34 39 34 40 35 41 35 42 61 48
REMARK H PARENT 5 61 65 68
REMARK Flexibility Score:  369.900
ROOT
ATOM      1  C   UNL     1      -1.362  -0.734  -7.986  1.00  0.00     0.117 C 
ENDROOT
BRANCH   1   2
ATOM      2  N   UNL     1      -2.690  -0.135  -7.842  1.00  0.00    -0.347 N 
ATOM      3  O   UNL     1      -2.017   2.021  -7.434  1.00  0.00    -0.273 OA
ATOM      4  C   UNL     1      -2.913   1.217  -7.667  1.00  0.00     0.243 C 
ATOM      5  H   UNL     1      -3.507  -0.721  -7.920  1.00  0.00     0.164 HD
BRANCH   4   6
ATOM      6  C   UNL     1      -4.414   1.600  -7.629  1.00  0.00     0.171 C 
BRANCH   6   7
ATOM      7  N   UNL     1      -4.576   3.058  -7.745  1.00  0.00    -0.344 N 
ATOM      8  C   UNL     1      -5.635   3.698  -7.139  1.00  0.00     0.226 C 
ATOM      9  O   UNL     1      -6.494   3.097  -6.504  1.00  0.00    -0.275 OA
ATOM     10  H   UNL     1      -3.924   3.580  -8.317  1.00  0.00     0.164 HD
BRANCH   8  11
ATOM     11  C   UNL     1      -5.632   5.208  -7.305  1.00  0.00     0.109 C 
ATOM     12  C   UNL     1      -6.883   5.657  -8.059  1.00  0.00     0.021 C 
BRANCH  11  13
ATOM     13  C   UNL     1      -5.424   5.882  -5.934  1.00  0.00     0.204 C 
BRANCH  13  14
ATOM     14  N   UNL     1      -6.223   5.249  -4.880  1.00  0.00    -0.340 N 
ATOM     15  C   UNL     1      -7.302   5.866  -4.286  1.00  0.00     0.243 C 
ATOM     16  O   UNL     1      -7.710   6.970  -4.641  1.00  0.00    -0.273 OA
ATOM     17  H   UNL     1      -5.851   4.404  -4.438  1.00  0.00     0.164 HD
BRANCH  15  18
ATOM     18  C   UNL     1      -7.859   5.096  -3.063  1.00  0.00     0.171 C 
BRANCH  18  19
ATOM     19  N   UNL     1      -9.278   5.431  -2.968  1.00  0.00    -0.343 N 
ATOM     20  C   UNL     1      -9.847   5.867  -1.787  1.00  0.00     0.242 CG0
ATOM     21  O   UNL     1      -9.217   5.867  -0.731  1.00  0.00    -0.273 OA
ATOM     22  H   UNL     1      -9.868   5.336  -3.787  1.00  0.00     0.164 HD
ATOM     23  G   UNL     1     -11.337   6.247  -1.900  1.00  0.00     0.000 G0
ENDBRANCH  18  19
BRANCH  18  24
ATOM     24  C   UNL     1      -7.647   3.586  -3.232  1.00  0.00     0.038 C 
BRANCH  24  25
ATOM     25  C   UNL     1      -7.985   2.745  -1.982  1.00  0.00    -0.015 C 
ATOM     26  C   UNL     1      -6.869   1.765  -1.618  1.00  0.00     0.007 C 
ATOM     27  C   UNL     1      -9.289   1.977  -2.216  1.00  0.00     0.007 C 
ENDBRANCH  24  25
ENDBRANCH  18  24
ENDBRANCH  15  18
ENDBRANCH  13  14
BRANCH  13  28
ATOM     28  C   UNL     1      -3.965   5.867  -5.469  1.00  0.00     0.327 C 
ATOM     29  O   UNL     1      -3.548   6.243  -4.384  1.00  0.00    -0.250 OA
BRANCH  28  30
ATOM     30  O   UNL     1      -3.105   5.492  -6.437  1.00  0.00    -0.480 OA
ATOM     31  H   UNL     1      -2.982   4.531  -6.292  1.00  0.00     0.296 HD
ENDBRANCH  28  30
ENDBRANCH  13  28
ENDBRANCH  11  13
ENDBRANCH   8  11
ENDBRANCH   6   7
BRANCH   6  32
ATOM     32  C   UNL     1      -5.148   0.877  -8.764  1.00  0.00     0.037 C 
BRANCH  32  33
ATOM     33  C   UNL     1      -4.828   1.480 -10.138  1.00  0.00     0.026 C 
BRANCH  33  34
ATOM     34  C   UNL     1      -5.428   0.670 -11.288  1.00  0.00     0.146 C 
BRANCH  34  35
ATOM     35  N   UNL     1      -4.406  -0.224 -11.816  1.00  0.00    -0.254 NA
ATOM     36  C   UNL     1      -4.774  -1.240 -12.504  1.00  0.00     0.185 C 
ATOM     37  N   UNL     1      -3.841  -2.067 -13.000  1.00  0.00    -0.370 N 
ATOM     38  N   UNL     1      -6.019  -1.633 -12.830  1.00  0.00    -0.370 N 
ATOM     39  H   UNL     1      -2.876  -1.832 -12.806  1.00  0.00     0.159 HD
ATOM     40  H   UNL     1      -4.035  -2.776 -13.686  1.00  0.00     0.159 HD
ATOM     41  H   UNL     1      -6.186  -2.528 -13.259  1.00  0.00     0.159 HD
ATOM     42  H   UNL     1      -6.821  -1.113 -12.511  1.00  0.00     0.159 HD
ENDBRANCH  34  35
ENDBRANCH  33  34
ENDBRANCH  32  33
ENDBRANCH   6  32
ENDBRANCH   4   6
ENDBRANCH   1   2
BRANCH   1  43
ATOM     43  C   UNL     1      -0.861  -0.483  -9.438  1.00  0.00     0.102 C 
ATOM     44  C   UNL     1      -0.871  -1.745 -10.316  1.00  0.00     0.020 C 
BRANCH  43  45
ATOM     45  C   UNL     1       0.478   0.262  -9.436  1.00  0.00     0.225 C 
ATOM     46  O   UNL     1       1.258   0.242 -10.384  1.00  0.00    -0.275 OA
ATOM     47  N   UNL     1       0.804   0.890  -8.256  1.00  0.00    -0.342 N 
ATOM     48  H   UNL     1       0.096   1.026  -7.549  1.00  0.00     0.164 HD
BRANCH  47  49
ATOM     49  C   UNL     1       2.038   1.671  -8.120  1.00  0.00     0.192 C 
BRANCH  49  50
ATOM     50  C   UNL     1       2.234   2.544  -9.363  1.00  0.00     0.047 C 
BRANCH  50  51
ATOM     51  C   UNL     1       1.564   3.917  -9.221  1.00  0.00     0.103 C 
BRANCH  51  52
ATOM     52  C   UNL     1       2.108   4.927 -10.229  1.00  0.00     0.226 C 
ATOM     53  O   UNL     1       2.308   6.092  -9.879  1.00  0.00    -0.275 OA
BRANCH  52  54
ATOM     54  N   UNL     1       2.425   4.429 -11.506  1.00  0.00    -0.311 N 
ATOM     55  C   UNL     1       1.393   4.293 -12.542  1.00  0.00     0.153 C 
BRANCH  54  56
ATOM     56  C   UNL     1       3.736   4.051 -11.840  1.00  0.00     0.102 C 
ATOM     57  C   UNL     1       4.841   4.742 -11.517  1.00  0.00     0.043 C 
BRANCH  56  58
ATOM     58  C   UNL     1       4.006   2.761 -12.579  1.00  0.00     0.268 C 
ATOM     59  O   UNL     1       4.016   1.666 -12.032  1.00  0.00    -0.268 OA
ATOM     60  N   UNL     1       4.172   2.937 -13.932  1.00  0.00    -0.339 N 
ATOM     61  H   UNL     1       4.160   3.879 -14.305  1.00  0.00     0.164 HD
BRANCH  60  62
ATOM     62  C   UNL     1       4.382   1.814 -14.844  1.00  0.00     0.168 CG0
ATOM     63  C   UNL     1       3.067   1.363 -15.467  1.00  0.00     0.041 C 
ATOM     64  G   UNL     1       5.054   0.651 -14.085  1.00  0.00     0.000 G0
ENDBRANCH  60  62
ENDBRANCH  56  58
ENDBRANCH  54  56
ENDBRANCH  52  54
ENDBRANCH  51  52
ENDBRANCH  50  51
ENDBRANCH  49  50
BRANCH  49  65
ATOM     65  C   UNL     1       3.265   0.765  -7.936  1.00  0.00     0.326 C 
ATOM     66  O   UNL     1       3.631   0.271  -6.879  1.00  0.00    -0.250 OA
BRANCH  65  67
ATOM     67  O   UNL     1       3.998   0.574  -9.054  1.00  0.00    -0.480 OA
ATOM     68  H   UNL     1       3.532   1.112  -9.731  1.00  0.00     0.296 HD
ENDBRANCH  65  67
ENDBRANCH  49  65
ENDBRANCH  47  49
ENDBRANCH  43  45
ENDBRANCH   1  43
BRANCH   1  69
ATOM     69  C   UNL     1      -1.485  -2.163  -7.490  1.00  0.00    -0.001 C 
ATOM     70  C   UNL     1      -2.616  -2.855  -7.266  1.00  0.00     0.001 C 
BRANCH  70  71
ATOM     71  C   UNL     1      -2.722  -4.242  -6.807  1.00  0.00    -0.055 C 
ATOM     72  C   UNL     1      -3.871  -4.618  -6.205  1.00  0.00    -0.018 C 
ATOM     73  C   UNL     1      -1.547  -5.153  -7.047  1.00  0.00     0.044 C 
BRANCH  72  74
ATOM     74  C   UNL     1      -4.261  -5.975  -5.638  1.00  0.00     0.038 C 
ATOM     75  C   UNL     1      -3.551  -6.122  -4.286  1.00  0.00     0.015 C 
BRANCH  74  76
ATOM     76  C   UNL     1      -3.910  -7.075  -6.683  1.00  0.00     0.128 C 
BRANCH  76  77
ATOM     77  O   UNL     1      -3.402  -8.242  -6.015  1.00  0.00    -0.381 OA
ATOM     78  C   UNL     1      -3.119  -9.324  -6.892  1.00  0.00     0.195 C 
ENDBRANCH  76  77
BRANCH  76  79
ATOM     79  C   UNL     1      -5.062  -7.400  -7.666  1.00  0.00     0.068 C 
BRANCH  79  80
ATOM     80  C   UNL     1      -5.560  -6.292  -8.563  1.00  0.00    -0.045 A 
ATOM     81  C   UNL     1      -4.747  -5.761  -9.573  1.00  0.00     0.004 A 
ATOM     82  C   UNL     1      -6.843  -5.756  -8.378  1.00  0.00     0.004 A 
ATOM     83  C   UNL     1      -5.210  -4.727 -10.389  1.00  0.00     0.000 A 
ATOM     84  C   UNL     1      -7.305  -4.721  -9.195  1.00  0.00     0.000 A 
ATOM     85  C   UNL     1      -6.489  -4.208 -10.201  1.00  0.00     0.000 A 
ENDBRANCH  79  80
ENDBRANCH  76  79
ENDBRANCH  74  76
ENDBRANCH  72  74
ENDBRANCH  70  71
ENDBRANCH   1  69
TORSDOF 17
ENDMDL
MODEL 36
REMARK VINA RESULT:    -6.573      4.238     12.117
REMARK INTER + INTRA:         -26.131
REMARK INTER:                 -17.464
REMARK INTRA:                  -8.667
REMARK UNBOUND:                -6.494
REMARK SMILES C=C1C(=O)N[C@H](C)C(=O)N[C@@H](CC(C)C)C(=O)N[C@@H](C(=O)O)[C@H](C)C(=O)N[C@@H](CCCN=C(N)N)C(=O)N[C@@H](/C=C/C(C)=C/[C@H](C)[C@H](Cc2ccccc2)OC)[C@H](C)C(=O)N[C@@H](C(=O)O)CCC(=O)N1C
REMARK SMILES IDX 39 1 38 2 37 3 36 4 28 6 27 7 25 8 26 9 23 11 24 12 19 13
REMARK SMILES IDX 18 14 16 15 17 16 11 18 10 19 8 20 9 21 12 24 13 25 14 26
REMARK SMILES IDX 15 27 20 28 21 29 22 30 29 32 30 33 31 34 32 35 33 36 34 37
REMARK SMILES IDX 35 38 57 43 58 44 59 45 60 46 61 47 62 49 66 50 67 51 68 52
REMARK SMILES IDX 69 53 70 54 71 55 2 56 1 57 3 58 4 59 5 60 6 62 7 63 63 65
REMARK SMILES IDX 64 66 65 67 40 69 41 70 42 71 44 72 43 73 45 74 46 75 47 76
REMARK SMILES IDX 55 77 56 78 48 79 49 80 50 81 54 82 51 83 53 84 52 85
REMARK H PARENT 38 5 27 10 18 17 10 22 22 31 34 39 34 40 35 41 35 42 61 48
REMARK H PARENT 5 61 65 68
REMARK Flexibility Score:  369.900
ROOT
ATOM      1  C   UNL     1      -4.735  -7.707   1.478  1.00  0.00     0.117 C 
ENDROOT
BRANCH   1   2
ATOM      2  N   UNL     1      -6.161  -7.383   1.528  1.00  0.00    -0.347 N 
ATOM      3  O   UNL     1      -6.045  -5.310   0.548  1.00  0.00    -0.273 OA
ATOM      4  C   UNL     1      -6.715  -6.245   0.974  1.00  0.00     0.243 C 
ATOM      5  H   UNL     1      -6.803  -8.040   1.944  1.00  0.00     0.164 HD
BRANCH   4   6
ATOM      6  C   UNL     1      -8.259  -6.184   1.090  1.00  0.00     0.171 C 
BRANCH   6   7
ATOM      7  N   UNL     1      -8.717  -6.933   2.271  1.00  0.00    -0.344 N 
ATOM      8  C   UNL     1      -8.364  -6.527   3.540  1.00  0.00     0.226 C 
ATOM      9  O   UNL     1      -7.647  -5.555   3.747  1.00  0.00    -0.275 OA
ATOM     10  H   UNL     1      -9.254  -7.780   2.138  1.00  0.00     0.164 HD
BRANCH   8  11
ATOM     11  C   UNL     1      -8.958  -7.370   4.655  1.00  0.00     0.109 C 
ATOM     12  C   UNL     1      -8.086  -8.600   4.906  1.00  0.00     0.021 C 
BRANCH  11  13
ATOM     13  C   UNL     1      -9.212  -6.491   5.895  1.00  0.00     0.204 C 
BRANCH  13  14
ATOM     14  N   UNL     1      -9.911  -5.247   5.556  1.00  0.00    -0.340 N 
ATOM     15  C   UNL     1      -9.689  -4.060   6.219  1.00  0.00     0.243 C 
ATOM     16  O   UNL     1      -8.842  -3.945   7.104  1.00  0.00    -0.273 OA
ATOM     17  H   UNL     1     -10.727  -5.307   4.941  1.00  0.00     0.164 HD
BRANCH  15  18
ATOM     18  C   UNL     1     -10.685  -2.939   5.831  1.00  0.00     0.171 C 
BRANCH  18  19
ATOM     19  N   UNL     1     -11.578  -2.759   6.974  1.00  0.00    -0.343 N 
ATOM     20  C   UNL     1     -12.610  -3.638   7.238  1.00  0.00     0.242 CG0
ATOM     21  O   UNL     1     -12.908  -4.535   6.452  1.00  0.00    -0.273 OA
ATOM     22  H   UNL     1     -11.444  -1.965   7.590  1.00  0.00     0.164 HD
ATOM     23  G   UNL     1     -13.395  -3.330   8.530  1.00  0.00     0.000 G0
ENDBRANCH  18  19
BRANCH  18  24
ATOM     24  C   UNL     1      -9.937  -1.644   5.493  1.00  0.00     0.038 C 
BRANCH  24  25
ATOM     25  C   UNL     1      -9.442  -1.548   4.034  1.00  0.00    -0.015 C 
ATOM     26  C   UNL     1      -9.116  -0.112   3.620  1.00  0.00     0.007 C 
ATOM     27  C   UNL     1     -10.501  -2.127   3.092  1.00  0.00     0.007 C 
ENDBRANCH  24  25
ENDBRANCH  18  24
ENDBRANCH  15  18
ENDBRANCH  13  14
BRANCH  13  28
ATOM     28  C   UNL     1     -10.038  -7.195   6.976  1.00  0.00     0.327 C 
ATOM     29  O   UNL     1      -9.605  -7.918   7.860  1.00  0.00    -0.250 OA
BRANCH  28  30
ATOM     30  O   UNL     1     -11.367  -7.044   6.808  1.00  0.00    -0.480 OA
ATOM     31  H   UNL     1     -11.449  -6.551   5.965  1.00  0.00     0.296 HD
ENDBRANCH  28  30
ENDBRANCH  13  28
ENDBRANCH  11  13
ENDBRANCH   8  11
ENDBRANCH   6   7
BRANCH   6  32
ATOM     32  C   UNL     1      -8.701  -4.719   1.166  1.00  0.00     0.037 C 
BRANCH  32  33
ATOM     33  C   UNL     1      -9.694  -4.354   0.053  1.00  0.00     0.026 C 
BRANCH  33  34
ATOM     34  C   UNL     1      -9.286  -3.090  -0.704  1.00  0.00     0.146 C 
BRANCH  34  35
ATOM     35  N   UNL     1      -8.400  -3.463  -1.799  1.00  0.00    -0.254 NA
ATOM     36  C   UNL     1      -8.574  -2.916  -2.944  1.00  0.00     0.185 C 
ATOM     37  N   UNL     1      -7.761  -3.249  -3.958  1.00  0.00    -0.370 N 
ATOM     38  N   UNL     1      -9.494  -2.008  -3.315  1.00  0.00    -0.370 N 
ATOM     39  H   UNL     1      -7.033  -3.922  -3.754  1.00  0.00     0.159 HD
ATOM     40  H   UNL     1      -7.720  -2.744  -4.827  1.00  0.00     0.159 HD
ATOM     41  H   UNL     1      -9.617  -1.757  -4.282  1.00  0.00     0.159 HD
ATOM     42  H   UNL     1     -10.183  -1.677  -2.657  1.00  0.00     0.159 HD
ENDBRANCH  34  35
ENDBRANCH  33  34
ENDBRANCH  32  33
ENDBRANCH   6  32
ENDBRANCH   4   6
ENDBRANCH   1   2
BRANCH   1  43
ATOM     43  C   UNL     1      -4.535  -8.911   0.513  1.00  0.00     0.102 C 
ATOM     44  C   UNL     1      -3.153  -9.575   0.641  1.00  0.00     0.020 C 
BRANCH  43  45
ATOM     45  C   UNL     1      -4.912  -8.535  -0.923  1.00  0.00     0.225 C 
ATOM     46  O   UNL     1      -5.641  -9.226  -1.629  1.00  0.00    -0.275 OA
ATOM     47  N   UNL     1      -4.303  -7.404  -1.418  1.00  0.00    -0.342 N 
ATOM     48  H   UNL     1      -3.834  -6.771  -0.786  1.00  0.00     0.164 HD
BRANCH  47  49
ATOM     49  C   UNL     1      -4.596  -6.903  -2.765  1.00  0.00     0.192 C 
BRANCH  49  50
ATOM     50  C   UNL     1      -3.351  -6.228  -3.345  1.00  0.00     0.047 C 
BRANCH  50  51
ATOM     51  C   UNL     1      -2.841  -6.934  -4.608  1.00  0.00     0.103 C 
BRANCH  51  52
ATOM     52  C   UNL     1      -3.657  -6.561  -5.843  1.00  0.00     0.226 C 
ATOM     53  O   UNL     1      -4.618  -7.258  -6.173  1.00  0.00    -0.275 OA
BRANCH  52  54
ATOM     54  N   UNL     1      -3.293  -5.369  -6.499  1.00  0.00    -0.311 N 
ATOM     55  C   UNL     1      -1.881  -5.006  -6.677  1.00  0.00     0.153 C 
BRANCH  54  56
ATOM     56  C   UNL     1      -4.262  -4.489  -7.010  1.00  0.00     0.102 C 
ATOM     57  C   UNL     1      -4.928  -3.575  -6.286  1.00  0.00     0.043 C 
BRANCH  56  58
ATOM     58  C   UNL     1      -4.602  -4.481  -8.482  1.00  0.00     0.268 C 
ATOM     59  O   UNL     1      -4.157  -3.655  -9.267  1.00  0.00    -0.268 OA
ATOM     60  N   UNL     1      -5.405  -5.532  -8.856  1.00  0.00    -0.339 N 
ATOM     61  H   UNL     1      -5.740  -6.168  -8.142  1.00  0.00     0.164 HD
BRANCH  60  62
ATOM     62  C   UNL     1      -5.804  -5.751 -10.246  1.00  0.00     0.168 CG0
ATOM     63  C   UNL     1      -6.867  -6.837 -10.346  1.00  0.00     0.041 C 
ATOM     64  G   UNL     1      -4.565  -6.120 -11.087  1.00  0.00     0.000 G0
ENDBRANCH  60  62
ENDBRANCH  56  58
ENDBRANCH  54  56
ENDBRANCH  52  54
ENDBRANCH  51  52
ENDBRANCH  50  51
ENDBRANCH  49  50
BRANCH  49  65
ATOM     65  C   UNL     1      -5.761  -5.901  -2.755  1.00  0.00     0.326 C 
ATOM     66  O   UNL     1      -6.902  -6.134  -3.127  1.00  0.00    -0.250 OA
BRANCH  65  67
ATOM     67  O   UNL     1      -5.432  -4.657  -2.344  1.00  0.00    -0.480 OA
ATOM     68  H   UNL     1      -6.257  -4.143  -2.478  1.00  0.00     0.296 HD
ENDBRANCH  65  67
ENDBRANCH  49  65
ENDBRANCH  47  49
ENDBRANCH  43  45
ENDBRANCH   1  43
BRANCH   1  69
ATOM     69  C   UNL     1      -4.279  -7.839   2.919  1.00  0.00    -0.001 C 
ATOM     70  C   UNL     1      -4.625  -7.061   3.960  1.00  0.00     0.001 C 
BRANCH  70  71
ATOM     71  C   UNL     1      -4.195  -7.210   5.352  1.00  0.00    -0.055 C 
ATOM     72  C   UNL     1      -4.953  -6.634   6.308  1.00  0.00    -0.018 C 
ATOM     73  C   UNL     1      -2.942  -8.004   5.618  1.00  0.00     0.044 C 
BRANCH  72  74
ATOM     74  C   UNL     1      -4.757  -6.626   7.817  1.00  0.00     0.038 C 
ATOM     75  C   UNL     1      -6.142  -6.451   8.453  1.00  0.00     0.015 C 
BRANCH  74  76
ATOM     76  C   UNL     1      -3.726  -5.518   8.183  1.00  0.00     0.128 C 
BRANCH  76  77
ATOM     77  O   UNL     1      -2.447  -6.111   8.466  1.00  0.00    -0.381 OA
ATOM     78  C   UNL     1      -2.519  -7.237   9.329  1.00  0.00     0.195 C 
ENDBRANCH  76  77
BRANCH  76  79
ATOM     79  C   UNL     1      -3.639  -4.372   7.143  1.00  0.00     0.068 C 
BRANCH  79  80
ATOM     80  C   UNL     1      -4.626  -3.236   7.259  1.00  0.00    -0.045 A 
ATOM     81  C   UNL     1      -4.837  -2.584   8.481  1.00  0.00     0.004 A 
ATOM     82  C   UNL     1      -5.373  -2.831   6.142  1.00  0.00     0.004 A 
ATOM     83  C   UNL     1      -5.762  -1.543   8.583  1.00  0.00     0.000 A 
ATOM     84  C   UNL     1      -6.299  -1.791   6.245  1.00  0.00     0.000 A 
ATOM     85  C   UNL     1      -6.492  -1.146   7.465  1.00  0.00     0.000 A 
ENDBRANCH  79  80
ENDBRANCH  76  79
ENDBRANCH  74  76
ENDBRANCH  72  74
ENDBRANCH  70  71
ENDBRANCH   1  69
TORSDOF 17
ENDMDL
MODEL 37
REMARK VINA RESULT:    -6.539      3.504      5.935
REMARK INTER + INTRA:         -26.028
REMARK INTER:                 -18.705
REMARK INTRA:                  -7.323
REMARK UNBOUND:                -6.494
REMARK SMILES C=C1C(=O)N[C@H](C)C(=O)N[C@@H](CC(C)C)C(=O)N[C@@H](C(=O)O)[C@H](C)C(=O)N[C@@H](CCCN=C(N)N)C(=O)N[C@@H](/C=C/C(C)=C/[C@H](C)[C@H](Cc2ccccc2)OC)[C@H](C)C(=O)N[C@@H](C(=O)O)CCC(=O)N1C
REMARK SMILES IDX 39 1 38 2 37 3 36 4 28 6 27 7 25 8 26 9 23 11 24 12 19 13
REMARK SMILES IDX 18 14 16 15 17 16 11 18 10 19 8 20 9 21 12 24 13 25 14 26
REMARK SMILES IDX 15 27 20 28 21 29 22 30 29 32 30 33 31 34 32 35 33 36 34 37
REMARK SMILES IDX 35 38 57 43 58 44 59 45 60 46 61 47 62 49 66 50 67 51 68 52
REMARK SMILES IDX 69 53 70 54 71 55 2 56 1 57 3 58 4 59 5 60 6 62 7 63 63 65
REMARK SMILES IDX 64 66 65 67 40 69 41 70 42 71 44 72 43 73 45 74 46 75 47 76
REMARK SMILES IDX 55 77 56 78 48 79 49 80 50 81 54 82 51 83 53 84 52 85
REMARK H PARENT 38 5 27 10 18 17 10 22 22 31 34 39 34 40 35 41 35 42 61 48
REMARK H PARENT 5 61 65 68
REMARK Flexibility Score:  369.900
ROOT
ATOM      1  C   UNL     1      -4.477  -8.489  -0.966  1.00  0.00     0.117 C 
ENDROOT
BRANCH   1   2
ATOM      2  N   UNL     1      -5.122  -7.210  -1.265  1.00  0.00    -0.347 N 
ATOM      3  O   UNL     1      -7.130  -8.038  -2.006  1.00  0.00    -0.273 OA
ATOM      4  C   UNL     1      -6.434  -7.083  -1.676  1.00  0.00     0.243 C 
ATOM      5  H   UNL     1      -4.610  -6.353  -1.121  1.00  0.00     0.164 HD
BRANCH   4   6
ATOM      6  C   UNL     1      -6.897  -5.613  -1.841  1.00  0.00     0.171 C 
BRANCH   6   7
ATOM      7  N   UNL     1      -6.935  -5.242  -3.264  1.00  0.00    -0.344 N 
ATOM      8  C   UNL     1      -5.771  -4.974  -3.952  1.00  0.00     0.226 C 
ATOM      9  O   UNL     1      -4.667  -5.007  -3.420  1.00  0.00    -0.275 OA
ATOM     10  H   UNL     1      -7.832  -5.139  -3.721  1.00  0.00     0.164 HD
BRANCH   8  11
ATOM     11  C   UNL     1      -5.972  -4.660  -5.424  1.00  0.00     0.109 C 
ATOM     12  C   UNL     1      -7.450  -4.791  -5.792  1.00  0.00     0.021 C 
BRANCH  11  13
ATOM     13  C   UNL     1      -5.340  -3.294  -5.757  1.00  0.00     0.204 C 
BRANCH  13  14
ATOM     14  N   UNL     1      -4.822  -3.246  -7.128  1.00  0.00    -0.340 N 
ATOM     15  C   UNL     1      -3.639  -2.622  -7.459  1.00  0.00     0.243 C 
ATOM     16  O   UNL     1      -2.902  -2.113  -6.617  1.00  0.00    -0.273 OA
ATOM     17  H   UNL     1      -5.452  -3.513  -7.889  1.00  0.00     0.164 HD
BRANCH  15  18
ATOM     18  C   UNL     1      -3.401  -2.517  -8.986  1.00  0.00     0.171 C 
BRANCH  18  19
ATOM     19  N   UNL     1      -4.058  -1.289  -9.428  1.00  0.00    -0.343 N 
ATOM     20  C   UNL     1      -5.379  -1.274  -9.834  1.00  0.00     0.242 CG0
ATOM     21  O   UNL     1      -6.022  -2.312  -9.969  1.00  0.00    -0.273 OA
ATOM     22  H   UNL     1      -3.533  -0.422  -9.445  1.00  0.00     0.164 HD
ATOM     23  G   UNL     1      -5.920   0.126 -10.190  1.00  0.00     0.000 G0
ENDBRANCH  18  19
BRANCH  18  24
ATOM     24  C   UNL     1      -1.900  -2.496  -9.300  1.00  0.00     0.038 C 
BRANCH  24  25
ATOM     25  C   UNL     1      -1.306  -1.088  -9.516  1.00  0.00    -0.015 C 
ATOM     26  C   UNL     1      -0.862  -0.856 -10.961  1.00  0.00     0.007 C 
ATOM     27  C   UNL     1      -0.120  -0.880  -8.572  1.00  0.00     0.007 C 
ENDBRANCH  24  25
ENDBRANCH  18  24
ENDBRANCH  15  18
ENDBRANCH  13  14
BRANCH  13  28
ATOM     28  C   UNL     1      -6.314  -2.123  -5.598  1.00  0.00     0.327 C 
ATOM     29  O   UNL     1      -6.858  -1.507  -6.502  1.00  0.00    -0.250 OA
BRANCH  28  30
ATOM     30  O   UNL     1      -6.452  -1.720  -4.319  1.00  0.00    -0.480 OA
ATOM     31  H   UNL     1      -7.321  -1.268  -4.301  1.00  0.00     0.296 HD
ENDBRANCH  28  30
ENDBRANCH  13  28
ENDBRANCH  11  13
ENDBRANCH   8  11
ENDBRANCH   6   7
BRANCH   6  32
ATOM     32  C   UNL     1      -8.276  -5.444  -1.194  1.00  0.00     0.037 C 
BRANCH  32  33
ATOM     33  C   UNL     1      -8.371  -4.159  -0.360  1.00  0.00     0.026 C 
BRANCH  33  34
ATOM     34  C   UNL     1      -8.779  -2.946  -1.198  1.00  0.00     0.146 C 
BRANCH  34  35
ATOM     35  N   UNL     1      -7.575  -2.269  -1.660  1.00  0.00    -0.254 NA
ATOM     36  C   UNL     1      -7.310  -1.104  -1.197  1.00  0.00     0.185 C 
ATOM     37  N   UNL     1      -6.201  -0.473  -1.612  1.00  0.00    -0.370 N 
ATOM     38  N   UNL     1      -8.003  -0.370  -0.309  1.00  0.00    -0.370 N 
ATOM     39  H   UNL     1      -5.618  -0.967  -2.276  1.00  0.00     0.159 HD
ATOM     40  H   UNL     1      -5.834   0.354  -1.173  1.00  0.00     0.159 HD
ATOM     41  H   UNL     1      -7.765   0.592  -0.129  1.00  0.00     0.159 HD
ATOM     42  H   UNL     1      -8.869  -0.714   0.076  1.00  0.00     0.159 HD
ENDBRANCH  34  35
ENDBRANCH  33  34
ENDBRANCH  32  33
ENDBRANCH   6  32
ENDBRANCH   4   6
ENDBRANCH   1   2
BRANCH   1  43
ATOM     43  C   UNL     1      -3.768  -8.376   0.415  1.00  0.00     0.102 C 
ATOM     44  C   UNL     1      -2.756  -9.504   0.677  1.00  0.00     0.020 C 
BRANCH  43  45
ATOM     45  C   UNL     1      -4.787  -8.181   1.541  1.00  0.00     0.225 C 
ATOM     46  O   UNL     1      -5.590  -9.047   1.878  1.00  0.00    -0.275 OA
ATOM     47  N   UNL     1      -4.815  -6.925   2.104  1.00  0.00    -0.342 N 
ATOM     48  H   UNL     1      -4.058  -6.281   1.926  1.00  0.00     0.164 HD
BRANCH  47  49
ATOM     49  C   UNL     1      -5.714  -6.604   3.216  1.00  0.00     0.192 C 
BRANCH  49  50
ATOM     50  C   UNL     1      -6.926  -5.830   2.691  1.00  0.00     0.047 C 
BRANCH  50  51
ATOM     51  C   UNL     1      -8.193  -6.694   2.643  1.00  0.00     0.103 C 
BRANCH  51  52
ATOM     52  C   UNL     1      -9.137  -6.393   3.806  1.00  0.00     0.226 C 
ATOM     53  O   UNL     1     -10.154  -5.726   3.609  1.00  0.00    -0.275 OA
BRANCH  52  54
ATOM     54  N   UNL     1      -8.812  -6.977   5.044  1.00  0.00    -0.311 N 
ATOM     55  C   UNL     1      -8.367  -8.375   5.128  1.00  0.00     0.153 C 
BRANCH  54  56
ATOM     56  C   UNL     1      -8.894  -6.247   6.242  1.00  0.00     0.102 C 
ATOM     57  C   UNL     1      -8.105  -5.210   6.565  1.00  0.00     0.043 C 
BRANCH  56  58
ATOM     58  C   UNL     1      -9.951  -6.566   7.273  1.00  0.00     0.268 C 
ATOM     59  O   UNL     1     -10.923  -7.272   7.039  1.00  0.00    -0.268 OA
ATOM     60  N   UNL     1      -9.674  -6.039   8.512  1.00  0.00    -0.339 N 
ATOM     61  H   UNL     1      -8.852  -5.457   8.621  1.00  0.00     0.164 HD
BRANCH  60  62
ATOM     62  C   UNL     1     -10.533  -6.279   9.670  1.00  0.00     0.168 CG0
ATOM     63  C   UNL     1     -10.236  -7.633  10.301  1.00  0.00     0.041 C 
ATOM     64  G   UNL     1     -12.013  -6.189   9.243  1.00  0.00     0.000 G0
ENDBRANCH  60  62
ENDBRANCH  56  58
ENDBRANCH  54  56
ENDBRANCH  52  54
ENDBRANCH  51  52
ENDBRANCH  50  51
ENDBRANCH  49  50
BRANCH  49  65
ATOM     65  C   UNL     1      -5.006  -5.770   4.295  1.00  0.00     0.326 C 
ATOM     66  O   UNL     1      -4.927  -6.060   5.479  1.00  0.00    -0.250 OA
BRANCH  65  67
ATOM     67  O   UNL     1      -4.492  -4.600   3.855  1.00  0.00    -0.480 OA
ATOM     68  H   UNL     1      -3.621  -4.546   4.306  1.00  0.00     0.296 HD
ENDBRANCH  65  67
ENDBRANCH  49  65
ENDBRANCH  47  49
ENDBRANCH  43  45
ENDBRANCH   1  43
BRANCH   1  69
ATOM     69  C   UNL     1      -3.649  -8.842  -2.188  1.00  0.00    -0.001 C 
ATOM     70  C   UNL     1      -3.531  -8.136  -3.327  1.00  0.00     0.001 C 
BRANCH  70  71
ATOM     71  C   UNL     1      -2.712  -8.477  -4.492  1.00  0.00    -0.055 C 
ATOM     72  C   UNL     1      -2.421  -7.489  -5.365  1.00  0.00    -0.018 C 
ATOM     73  C   UNL     1      -2.245  -9.902  -4.630  1.00  0.00     0.044 C 
BRANCH  72  74
ATOM     74  C   UNL     1      -1.600  -7.546  -6.645  1.00  0.00     0.038 C 
ATOM     75  C   UNL     1      -1.061  -6.133  -6.900  1.00  0.00     0.015 C 
BRANCH  74  76
ATOM     76  C   UNL     1      -2.490  -8.122  -7.786  1.00  0.00     0.128 C 
BRANCH  76  77
ATOM     77  O   UNL     1      -2.097  -9.473  -8.080  1.00  0.00    -0.381 OA
ATOM     78  C   UNL     1      -1.244  -9.586  -9.211  1.00  0.00     0.195 C 
ENDBRANCH  76  77
BRANCH  76  79
ATOM     79  C   UNL     1      -4.011  -7.982  -7.528  1.00  0.00     0.068 C 
BRANCH  79  80
ATOM     80  C   UNL     1      -4.850  -7.317  -8.593  1.00  0.00    -0.045 A 
ATOM     81  C   UNL     1      -4.435  -6.125  -9.200  1.00  0.00     0.004 A 
ATOM     82  C   UNL     1      -6.081  -7.874  -8.973  1.00  0.00     0.004 A 
ATOM     83  C   UNL     1      -5.224  -5.509 -10.174  1.00  0.00     0.000 A 
ATOM     84  C   UNL     1      -6.870  -7.256  -9.947  1.00  0.00     0.000 A 
ATOM     85  C   UNL     1      -6.440  -6.075 -10.548  1.00  0.00     0.000 A 
ENDBRANCH  79  80
ENDBRANCH  76  79
ENDBRANCH  74  76
ENDBRANCH  72  74
ENDBRANCH  70  71
ENDBRANCH   1  69
TORSDOF 17
ENDMDL
MODEL 38
REMARK VINA RESULT:    -6.533      3.502     12.316
REMARK INTER + INTRA:         -26.011
REMARK INTER:                 -18.736
REMARK INTRA:                  -7.274
REMARK UNBOUND:                -6.494
REMARK SMILES C=C1C(=O)N[C@H](C)C(=O)N[C@@H](CC(C)C)C(=O)N[C@@H](C(=O)O)[C@H](C)C(=O)N[C@@H](CCCN=C(N)N)C(=O)N[C@@H](/C=C/C(C)=C/[C@H](C)[C@H](Cc2ccccc2)OC)[C@H](C)C(=O)N[C@@H](C(=O)O)CCC(=O)N1C
REMARK SMILES IDX 39 1 38 2 37 3 36 4 28 6 27 7 25 8 26 9 23 11 24 12 19 13
REMARK SMILES IDX 18 14 16 15 17 16 11 18 10 19 8 20 9 21 12 24 13 25 14 26
REMARK SMILES IDX 15 27 20 28 21 29 22 30 29 32 30 33 31 34 32 35 33 36 34 37
REMARK SMILES IDX 35 38 57 43 58 44 59 45 60 46 61 47 62 49 66 50 67 51 68 52
REMARK SMILES IDX 69 53 70 54 71 55 2 56 1 57 3 58 4 59 5 60 6 62 7 63 63 65
REMARK SMILES IDX 64 66 65 67 40 69 41 70 42 71 44 72 43 73 45 74 46 75 47 76
REMARK SMILES IDX 55 77 56 78 48 79 49 80 50 81 54 82 51 83 53 84 52 85
REMARK H PARENT 38 5 27 10 18 17 10 22 22 31 34 39 34 40 35 41 35 42 61 48
REMARK H PARENT 5 61 65 68
REMARK Flexibility Score:  369.900
ROOT
ATOM      1  C   UNL     1      -8.964  -3.001  -1.539  1.00  0.00     0.117 C 
ENDROOT
BRANCH   1   2
ATOM      2  N   UNL     1      -8.387  -3.714  -0.400  1.00  0.00    -0.347 N 
ATOM      3  O   UNL     1     -10.053  -5.270  -0.128  1.00  0.00    -0.273 OA
ATOM      4  C   UNL     1      -8.936  -4.852   0.158  1.00  0.00     0.243 C 
ATOM      5  H   UNL     1      -7.509  -3.401  -0.014  1.00  0.00     0.164 HD
BRANCH   4   6
ATOM      6  C   UNL     1      -8.082  -5.461   1.299  1.00  0.00     0.171 C 
BRANCH   6   7
ATOM      7  N   UNL     1      -8.726  -5.233   2.602  1.00  0.00    -0.344 N 
ATOM      8  C   UNL     1      -8.739  -3.977   3.169  1.00  0.00     0.226 C 
ATOM      9  O   UNL     1      -8.206  -3.008   2.641  1.00  0.00    -0.275 OA
ATOM     10  H   UNL     1      -9.118  -6.022   3.101  1.00  0.00     0.164 HD
BRANCH   8  11
ATOM     11  C   UNL     1      -9.488  -3.893   4.487  1.00  0.00     0.109 C 
ATOM     12  C   UNL     1      -9.534  -2.445   4.975  1.00  0.00     0.021 C 
BRANCH  11  13
ATOM     13  C   UNL     1     -10.865  -4.573   4.348  1.00  0.00     0.204 C 
BRANCH  13  14
ATOM     14  N   UNL     1     -11.765  -4.228   5.453  1.00  0.00    -0.340 N 
ATOM     15  C   UNL     1     -11.882  -4.995   6.591  1.00  0.00     0.243 C 
ATOM     16  O   UNL     1     -11.192  -5.994   6.788  1.00  0.00    -0.273 OA
ATOM     17  H   UNL     1     -12.469  -3.503   5.290  1.00  0.00     0.164 HD
BRANCH  15  18
ATOM     18  C   UNL     1     -13.038  -4.552   7.521  1.00  0.00     0.171 C 
BRANCH  18  19
ATOM     19  N   UNL     1     -12.420  -4.030   8.738  1.00  0.00    -0.343 N 
ATOM     20  C   UNL     1     -12.889  -4.365   9.994  1.00  0.00     0.242 CG0
ATOM     21  O   UNL     1     -13.926  -5.007  10.144  1.00  0.00    -0.273 OA
ATOM     22  H   UNL     1     -11.629  -3.401   8.664  1.00  0.00     0.164 HD
ATOM     23  G   UNL     1     -12.062  -3.782  11.158  1.00  0.00     0.000 G0
ENDBRANCH  18  19
BRANCH  18  24
ATOM     24  C   UNL     1     -13.909  -3.492   6.834  1.00  0.00     0.038 C 
BRANCH  24  25
ATOM     25  C   UNL     1     -15.365  -3.928   6.568  1.00  0.00    -0.015 C 
ATOM     26  C   UNL     1     -16.382  -3.045   7.290  1.00  0.00     0.007 C 
ATOM     27  C   UNL     1     -15.552  -5.386   6.997  1.00  0.00     0.007 C 
ENDBRANCH  24  25
ENDBRANCH  18  24
ENDBRANCH  15  18
ENDBRANCH  13  14
BRANCH  13  28
ATOM     28  C   UNL     1     -11.587  -4.215   3.046  1.00  0.00     0.327 C 
ATOM     29  O   UNL     1     -12.076  -3.132   2.765  1.00  0.00    -0.250 OA
BRANCH  28  30
ATOM     30  O   UNL     1     -11.753  -5.273   2.226  1.00  0.00    -0.480 OA
ATOM     31  H   UNL     1     -12.338  -5.877   2.727  1.00  0.00     0.296 HD
ENDBRANCH  28  30
ENDBRANCH  13  28
ENDBRANCH  11  13
ENDBRANCH   8  11
ENDBRANCH   6   7
BRANCH   6  32
ATOM     32  C   UNL     1      -7.889  -6.960   1.039  1.00  0.00     0.037 C 
BRANCH  32  33
ATOM     33  C   UNL     1      -6.629  -7.509   1.721  1.00  0.00     0.026 C 
BRANCH  33  34
ATOM     34  C   UNL     1      -5.385  -6.675   1.411  1.00  0.00     0.146 C 
BRANCH  34  35
ATOM     35  N   UNL     1      -5.049  -5.877   2.582  1.00  0.00    -0.254 NA
ATOM     36  C   UNL     1      -4.894  -4.614   2.440  1.00  0.00     0.185 C 
ATOM     37  N   UNL     1      -4.590  -3.868   3.514  1.00  0.00    -0.370 N 
ATOM     38  N   UNL     1      -4.994  -3.870   1.324  1.00  0.00    -0.370 N 
ATOM     39  H   UNL     1      -4.507  -4.356   4.397  1.00  0.00     0.159 HD
ATOM     40  H   UNL     1      -4.623  -2.863   3.521  1.00  0.00     0.159 HD
ATOM     41  H   UNL     1      -4.711  -2.903   1.316  1.00  0.00     0.159 HD
ATOM     42  H   UNL     1      -5.202  -4.302   0.438  1.00  0.00     0.159 HD
ENDBRANCH  34  35
ENDBRANCH  33  34
ENDBRANCH  32  33
ENDBRANCH   6  32
ENDBRANCH   4   6
ENDBRANCH   1   2
BRANCH   1  43
ATOM     43  C   UNL     1      -7.865  -2.837  -2.629  1.00  0.00     0.102 C 
ATOM     44  C   UNL     1      -8.369  -3.125  -4.054  1.00  0.00     0.020 C 
BRANCH  43  45
ATOM     45  C   UNL     1      -6.597  -3.607  -2.251  1.00  0.00     0.225 C 
ATOM     46  O   UNL     1      -5.712  -3.136  -1.542  1.00  0.00    -0.275 OA
ATOM     47  N   UNL     1      -6.458  -4.845  -2.836  1.00  0.00    -0.342 N 
ATOM     48  H   UNL     1      -7.252  -5.276  -3.287  1.00  0.00     0.164 HD
BRANCH  47  49
ATOM     49  C   UNL     1      -5.312  -5.709  -2.539  1.00  0.00     0.192 C 
BRANCH  49  50
ATOM     50  C   UNL     1      -4.376  -5.756  -3.749  1.00  0.00     0.047 C 
BRANCH  50  51
ATOM     51  C   UNL     1      -5.107  -5.451  -5.063  1.00  0.00     0.103 C 
BRANCH  51  52
ATOM     52  C   UNL     1      -4.492  -6.193  -6.248  1.00  0.00     0.226 C 
ATOM     53  O   UNL     1      -4.994  -7.251  -6.632  1.00  0.00    -0.275 OA
BRANCH  52  54
ATOM     54  N   UNL     1      -3.408  -5.564  -6.887  1.00  0.00    -0.311 N 
ATOM     55  C   UNL     1      -2.054  -6.131  -6.813  1.00  0.00     0.153 C 
BRANCH  54  56
ATOM     56  C   UNL     1      -3.578  -4.380  -7.622  1.00  0.00     0.102 C 
ATOM     57  C   UNL     1      -3.292  -3.147  -7.171  1.00  0.00     0.043 C 
BRANCH  56  58
ATOM     58  C   UNL     1      -4.074  -4.417  -9.049  1.00  0.00     0.268 C 
ATOM     59  O   UNL     1      -3.736  -3.602  -9.897  1.00  0.00    -0.268 OA
ATOM     60  N   UNL     1      -4.887  -5.494  -9.310  1.00  0.00    -0.339 N 
ATOM     61  H   UNL     1      -5.128  -6.118  -8.549  1.00  0.00     0.164 HD
BRANCH  60  62
ATOM     62  C   UNL     1      -5.427  -5.757 -10.643  1.00  0.00     0.168 CG0
ATOM     63  C   UNL     1      -6.868  -6.245 -10.563  1.00  0.00     0.041 C 
ATOM     64  G   UNL     1      -4.540  -6.792 -11.365  1.00  0.00     0.000 G0
ENDBRANCH  60  62
ENDBRANCH  56  58
ENDBRANCH  54  56
ENDBRANCH  52  54
ENDBRANCH  51  52
ENDBRANCH  50  51
ENDBRANCH  49  50
BRANCH  49  65
ATOM     65  C   UNL     1      -5.756  -7.137  -2.183  1.00  0.00     0.326 C 
ATOM     66  O   UNL     1      -5.021  -8.035  -1.800  1.00  0.00    -0.250 OA
BRANCH  65  67
ATOM     67  O   UNL     1      -7.070  -7.384  -2.379  1.00  0.00    -0.480 OA
ATOM     68  H   UNL     1      -7.081  -7.956  -3.177  1.00  0.00     0.296 HD
ENDBRANCH  65  67
ENDBRANCH  49  65
ENDBRANCH  47  49
ENDBRANCH  43  45
ENDBRANCH   1  43
BRANCH   1  69
ATOM     69  C   UNL     1      -9.624  -1.758  -0.971  1.00  0.00    -0.001 C 
ATOM     70  C   UNL     1     -10.269  -0.792  -1.650  1.00  0.00     0.001 C 
BRANCH  70  71
ATOM     71  C   UNL     1     -10.922   0.392  -1.088  1.00  0.00    -0.055 C 
ATOM     72  C   UNL     1     -10.688   1.580  -1.686  1.00  0.00    -0.018 C 
ATOM     73  C   UNL     1     -11.813   0.201   0.111  1.00  0.00     0.044 C 
BRANCH  72  74
ATOM     74  C   UNL     1     -11.224   2.959  -1.329  1.00  0.00     0.038 C 
ATOM     75  C   UNL     1     -11.855   3.542  -2.600  1.00  0.00     0.015 C 
BRANCH  74  76
ATOM     76  C   UNL     1     -10.064   3.807  -0.729  1.00  0.00     0.128 C 
BRANCH  76  77
ATOM     77  O   UNL     1      -9.851   4.983  -1.528  1.00  0.00    -0.381 OA
ATOM     78  C   UNL     1      -9.868   6.192  -0.781  1.00  0.00     0.195 C 
ENDBRANCH  76  77
BRANCH  76  79
ATOM     79  C   UNL     1     -10.234   4.128   0.778  1.00  0.00     0.068 C 
BRANCH  79  80
ATOM     80  C   UNL     1     -10.005   3.013   1.769  1.00  0.00    -0.045 A 
ATOM     81  C   UNL     1     -10.795   2.897   2.920  1.00  0.00     0.004 A 
ATOM     82  C   UNL     1      -8.972   2.086   1.564  1.00  0.00     0.004 A 
ATOM     83  C   UNL     1     -10.567   1.871   3.839  1.00  0.00     0.000 A 
ATOM     84  C   UNL     1      -8.745   1.061   2.484  1.00  0.00     0.000 A 
ATOM     85  C   UNL     1      -9.543   0.952   3.621  1.00  0.00     0.000 A 
ENDBRANCH  79  80
ENDBRANCH  76  79
ENDBRANCH  74  76
ENDBRANCH  72  74
ENDBRANCH  70  71
ENDBRANCH   1  69
TORSDOF 17
ENDMDL
MODEL 39
REMARK VINA RESULT:    -6.528      4.184     11.734
REMARK INTER + INTRA:         -25.998
REMARK INTER:                 -17.681
REMARK INTRA:                  -8.316
REMARK UNBOUND:                -6.494
REMARK SMILES C=C1C(=O)N[C@H](C)C(=O)N[C@@H](CC(C)C)C(=O)N[C@@H](C(=O)O)[C@H](C)C(=O)N[C@@H](CCCN=C(N)N)C(=O)N[C@@H](/C=C/C(C)=C/[C@H](C)[C@H](Cc2ccccc2)OC)[C@H](C)C(=O)N[C@@H](C(=O)O)CCC(=O)N1C
REMARK SMILES IDX 39 1 38 2 37 3 36 4 28 6 27 7 25 8 26 9 23 11 24 12 19 13
REMARK SMILES IDX 18 14 16 15 17 16 11 18 10 19 8 20 9 21 12 24 13 25 14 26
REMARK SMILES IDX 15 27 20 28 21 29 22 30 29 32 30 33 31 34 32 35 33 36 34 37
REMARK SMILES IDX 35 38 57 43 58 44 59 45 60 46 61 47 62 49 66 50 67 51 68 52
REMARK SMILES IDX 69 53 70 54 71 55 2 56 1 57 3 58 4 59 5 60 6 62 7 63 63 65
REMARK SMILES IDX 64 66 65 67 40 69 41 70 42 71 44 72 43 73 45 74 46 75 47 76
REMARK SMILES IDX 55 77 56 78 48 79 49 80 50 81 54 82 51 83 53 84 52 85
REMARK H PARENT 38 5 27 10 18 17 10 22 22 31 34 39 34 40 35 41 35 42 61 48
REMARK H PARENT 5 61 65 68
REMARK Flexibility Score:  369.900
ROOT
ATOM      1  C   UNL     1      -9.712  -0.349   2.587  1.00  0.00     0.117 C 
ENDROOT
BRANCH   1   2
ATOM      2  N   UNL     1      -9.212  -1.028   1.391  1.00  0.00    -0.347 N 
ATOM      3  O   UNL     1     -11.142  -0.943   0.151  1.00  0.00    -0.273 OA
ATOM      4  C   UNL     1      -9.943  -1.190   0.230  1.00  0.00     0.243 C 
ATOM      5  H   UNL     1      -8.260  -1.363   1.375  1.00  0.00     0.164 HD
BRANCH   4   6
ATOM      6  C   UNL     1      -9.150  -1.867  -0.916  1.00  0.00     0.171 C 
BRANCH   6   7
ATOM      7  N   UNL     1      -8.976  -3.303  -0.644  1.00  0.00    -0.344 N 
ATOM      8  C   UNL     1      -7.751  -3.801  -0.255  1.00  0.00     0.226 C 
ATOM      9  O   UNL     1      -6.757  -3.094  -0.140  1.00  0.00    -0.275 OA
ATOM     10  H   UNL     1      -9.757  -3.929  -0.793  1.00  0.00     0.164 HD
BRANCH   8  11
ATOM     11  C   UNL     1      -7.747  -5.290   0.041  1.00  0.00     0.109 C 
ATOM     12  C   UNL     1      -8.939  -5.654   0.926  1.00  0.00     0.021 C 
BRANCH  11  13
ATOM     13  C   UNL     1      -7.653  -6.084  -1.277  1.00  0.00     0.204 C 
BRANCH  13  14
ATOM     14  N   UNL     1      -6.773  -5.432  -2.252  1.00  0.00    -0.340 N 
ATOM     15  C   UNL     1      -7.076  -5.346  -3.594  1.00  0.00     0.243 C 
ATOM     16  O   UNL     1      -8.138  -5.758  -4.059  1.00  0.00    -0.273 OA
ATOM     17  H   UNL     1      -5.818  -5.207  -1.962  1.00  0.00     0.164 HD
BRANCH  15  18
ATOM     18  C   UNL     1      -5.911  -4.804  -4.458  1.00  0.00     0.171 C 
BRANCH  18  19
ATOM     19  N   UNL     1      -4.990  -5.920  -4.665  1.00  0.00    -0.343 N 
ATOM     20  C   UNL     1      -3.939  -6.167  -3.803  1.00  0.00     0.242 CG0
ATOM     21  O   UNL     1      -3.650  -5.385  -2.900  1.00  0.00    -0.273 OA
ATOM     22  H   UNL     1      -5.118  -6.528  -5.466  1.00  0.00     0.164 HD
ATOM     23  G   UNL     1      -3.124  -7.433  -4.139  1.00  0.00     0.000 G0
ENDBRANCH  18  19
BRANCH  18  24
ATOM     24  C   UNL     1      -6.435  -4.253  -5.789  1.00  0.00     0.038 C 
BRANCH  24  25
ATOM     25  C   UNL     1      -5.393  -3.474  -6.620  1.00  0.00    -0.015 C 
ATOM     26  C   UNL     1      -5.705  -1.980  -6.698  1.00  0.00     0.007 C 
ATOM     27  C   UNL     1      -5.318  -4.060  -8.032  1.00  0.00     0.007 C 
ENDBRANCH  24  25
ENDBRANCH  18  24
ENDBRANCH  15  18
ENDBRANCH  13  14
BRANCH  13  28
ATOM     28  C   UNL     1      -7.138  -7.514  -1.086  1.00  0.00     0.327 C 
ATOM     29  O   UNL     1      -6.300  -7.877  -0.274  1.00  0.00    -0.250 OA
BRANCH  28  30
ATOM     30  O   UNL     1      -7.618  -8.376  -2.004  1.00  0.00    -0.480 OA
ATOM     31  H   UNL     1      -8.258  -8.926  -1.507  1.00  0.00     0.296 HD
ENDBRANCH  28  30
ENDBRANCH  13  28
ENDBRANCH  11  13
ENDBRANCH   8  11
ENDBRANCH   6   7
BRANCH   6  32
ATOM     32  C   UNL     1      -9.892  -1.647  -2.239  1.00  0.00     0.037 C 
BRANCH  32  33
ATOM     33  C   UNL     1      -9.087  -2.151  -3.446  1.00  0.00     0.026 C 
BRANCH  33  34
ATOM     34  C   UNL     1      -8.060  -1.129  -3.932  1.00  0.00     0.146 C 
BRANCH  34  35
ATOM     35  N   UNL     1      -6.833  -1.292  -3.164  1.00  0.00    -0.254 NA
ATOM     36  C   UNL     1      -6.493  -0.367  -2.346  1.00  0.00     0.185 C 
ATOM     37  N   UNL     1      -5.367  -0.509  -1.629  1.00  0.00    -0.370 N 
ATOM     38  N   UNL     1      -7.118   0.793  -2.074  1.00  0.00    -0.370 N 
ATOM     39  H   UNL     1      -4.844  -1.364  -1.771  1.00  0.00     0.159 HD
ATOM     40  H   UNL     1      -5.125   0.080  -0.851  1.00  0.00     0.159 HD
ATOM     41  H   UNL     1      -6.677   1.503  -1.514  1.00  0.00     0.159 HD
ATOM     42  H   UNL     1      -7.970   1.040  -2.553  1.00  0.00     0.159 HD
ENDBRANCH  34  35
ENDBRANCH  33  34
ENDBRANCH  32  33
ENDBRANCH   6  32
ENDBRANCH   4   6
ENDBRANCH   1   2
BRANCH   1  43
ATOM     43  C   UNL     1      -8.886   0.953   2.799  1.00  0.00     0.102 C 
ATOM     44  C   UNL     1      -9.386   1.809   3.975  1.00  0.00     0.020 C 
BRANCH  43  45
ATOM     45  C   UNL     1      -8.734   1.728   1.487  1.00  0.00     0.225 C 
ATOM     46  O   UNL     1      -7.790   1.566   0.718  1.00  0.00    -0.275 OA
ATOM     47  N   UNL     1      -9.682   2.699   1.258  1.00  0.00    -0.342 N 
ATOM     48  H   UNL     1     -10.525   2.716   1.815  1.00  0.00     0.164 HD
BRANCH  47  49
ATOM     49  C   UNL     1      -9.682   3.495   0.027  1.00  0.00     0.192 C 
BRANCH  49  50
ATOM     50  C   UNL     1     -10.241   4.890   0.317  1.00  0.00     0.047 C 
BRANCH  50  51
ATOM     51  C   UNL     1     -10.454   5.132   1.817  1.00  0.00     0.103 C 
BRANCH  51  52
ATOM     52  C   UNL     1     -11.935   5.202   2.183  1.00  0.00     0.226 C 
ATOM     53  O   UNL     1     -12.786   5.177   1.291  1.00  0.00    -0.275 OA
BRANCH  52  54
ATOM     54  N   UNL     1     -12.242   5.216   3.556  1.00  0.00    -0.311 N 
ATOM     55  C   UNL     1     -11.186   5.081   4.568  1.00  0.00     0.153 C 
BRANCH  54  56
ATOM     56  C   UNL     1     -13.563   5.365   4.010  1.00  0.00     0.102 C 
ATOM     57  C   UNL     1     -14.369   4.354   4.375  1.00  0.00     0.043 C 
BRANCH  56  58
ATOM     58  C   UNL     1     -14.178   6.736   4.168  1.00  0.00     0.268 C 
ATOM     59  O   UNL     1     -13.619   7.658   4.746  1.00  0.00    -0.268 OA
ATOM     60  N   UNL     1     -15.396   6.857   3.543  1.00  0.00    -0.339 N 
ATOM     61  H   UNL     1     -15.797   6.041   3.095  1.00  0.00     0.164 HD
BRANCH  60  62
ATOM     62  C   UNL     1     -16.137   8.117   3.518  1.00  0.00     0.168 CG0
ATOM     63  C   UNL     1     -17.069   8.227   4.718  1.00  0.00     0.041 C 
ATOM     64  G   UNL     1     -16.931   8.224   2.199  1.00  0.00     0.000 G0
ENDBRANCH  60  62
ENDBRANCH  56  58
ENDBRANCH  54  56
ENDBRANCH  52  54
ENDBRANCH  51  52
ENDBRANCH  50  51
ENDBRANCH  49  50
BRANCH  49  65
ATOM     65  C   UNL     1     -10.518   2.830  -1.077  1.00  0.00     0.326 C 
ATOM     66  O   UNL     1     -11.591   3.238  -1.499  1.00  0.00    -0.250 OA
BRANCH  65  67
ATOM     67  O   UNL     1     -10.009   1.671  -1.550  1.00  0.00    -0.480 OA
ATOM     68  H   UNL     1     -10.788   1.076  -1.591  1.00  0.00     0.296 HD
ENDBRANCH  65  67
ENDBRANCH  49  65
ENDBRANCH  47  49
ENDBRANCH  43  45
ENDBRANCH   1  43
BRANCH   1  69
ATOM     69  C   UNL     1      -9.734  -1.392   3.689  1.00  0.00    -0.001 C 
ATOM     70  C   UNL     1      -8.745  -1.692   4.549  1.00  0.00     0.001 C 
BRANCH  70  71
ATOM     71  C   UNL     1      -8.785  -2.686   5.624  1.00  0.00    -0.055 C 
ATOM     72  C   UNL     1      -9.012  -3.972   5.281  1.00  0.00    -0.018 C 
ATOM     73  C   UNL     1      -8.563  -2.206   7.034  1.00  0.00     0.044 C 
BRANCH  72  74
ATOM     74  C   UNL     1      -9.104  -5.204   6.170  1.00  0.00     0.038 C 
ATOM     75  C   UNL     1      -7.685  -5.769   6.308  1.00  0.00     0.015 C 
BRANCH  74  76
ATOM     76  C   UNL     1     -10.142  -6.189   5.556  1.00  0.00     0.128 C 
BRANCH  76  77
ATOM     77  O   UNL     1      -9.986  -7.493   6.139  1.00  0.00    -0.381 OA
ATOM     78  C   UNL     1      -9.868  -8.537   5.182  1.00  0.00     0.195 C 
ENDBRANCH  76  77
BRANCH  76  79
ATOM     79  C   UNL     1     -11.604  -5.677   5.611  1.00  0.00     0.068 C 
BRANCH  79  80
ATOM     80  C   UNL     1     -12.032  -4.646   4.595  1.00  0.00    -0.045 A 
ATOM     81  C   UNL     1     -12.774  -3.521   4.976  1.00  0.00     0.004 A 
ATOM     82  C   UNL     1     -11.714  -4.816   3.239  1.00  0.00     0.004 A 
ATOM     83  C   UNL     1     -13.178  -2.579   4.027  1.00  0.00     0.000 A 
ATOM     84  C   UNL     1     -12.119  -3.874   2.291  1.00  0.00     0.000 A 
ATOM     85  C   UNL     1     -12.849  -2.755   2.685  1.00  0.00     0.000 A 
ENDBRANCH  79  80
ENDBRANCH  76  79
ENDBRANCH  74  76
ENDBRANCH  72  74
ENDBRANCH  70  71
ENDBRANCH   1  69
TORSDOF 17
ENDMDL
MODEL 40
REMARK VINA RESULT:    -6.521      2.835     10.771
REMARK INTER + INTRA:         -25.975
REMARK INTER:                 -18.682
REMARK INTRA:                  -7.293
REMARK UNBOUND:                -6.494
REMARK SMILES C=C1C(=O)N[C@H](C)C(=O)N[C@@H](CC(C)C)C(=O)N[C@@H](C(=O)O)[C@H](C)C(=O)N[C@@H](CCCN=C(N)N)C(=O)N[C@@H](/C=C/C(C)=C/[C@H](C)[C@H](Cc2ccccc2)OC)[C@H](C)C(=O)N[C@@H](C(=O)O)CCC(=O)N1C
REMARK SMILES IDX 39 1 38 2 37 3 36 4 28 6 27 7 25 8 26 9 23 11 24 12 19 13
REMARK SMILES IDX 18 14 16 15 17 16 11 18 10 19 8 20 9 21 12 24 13 25 14 26
REMARK SMILES IDX 15 27 20 28 21 29 22 30 29 32 30 33 31 34 32 35 33 36 34 37
REMARK SMILES IDX 35 38 57 43 58 44 59 45 60 46 61 47 62 49 66 50 67 51 68 52
REMARK SMILES IDX 69 53 70 54 71 55 2 56 1 57 3 58 4 59 5 60 6 62 7 63 63 65
REMARK SMILES IDX 64 66 65 67 40 69 41 70 42 71 44 72 43 73 45 74 46 75 47 76
REMARK SMILES IDX 55 77 56 78 48 79 49 80 50 81 54 82 51 83 53 84 52 85
REMARK H PARENT 38 5 27 10 18 17 10 22 22 31 34 39 34 40 35 41 35 42 61 48
REMARK H PARENT 5 61 65 68
REMARK Flexibility Score:  369.900
ROOT
ATOM      1  C   UNL     1      -6.904  -1.187  -4.919  1.00  0.00     0.117 C 
ENDROOT
BRANCH   1   2
ATOM      2  N   UNL     1      -7.374  -2.115  -3.890  1.00  0.00    -0.347 N 
ATOM      3  O   UNL     1      -6.025  -1.394  -2.178  1.00  0.00    -0.273 OA
ATOM      4  C   UNL     1      -6.960  -2.083  -2.572  1.00  0.00     0.243 C 
ATOM      5  H   UNL     1      -8.081  -2.796  -4.124  1.00  0.00     0.164 HD
BRANCH   4   6
ATOM      6  C   UNL     1      -7.677  -3.119  -1.669  1.00  0.00     0.171 C 
BRANCH   6   7
ATOM      7  N   UNL     1      -6.933  -4.388  -1.652  1.00  0.00    -0.344 N 
ATOM      8  C   UNL     1      -7.024  -5.270  -2.707  1.00  0.00     0.226 C 
ATOM      9  O   UNL     1      -7.732  -5.060  -3.684  1.00  0.00    -0.275 OA
ATOM     10  H   UNL     1      -6.390  -4.628  -0.832  1.00  0.00     0.164 HD
BRANCH   8  11
ATOM     11  C   UNL     1      -6.155  -6.508  -2.565  1.00  0.00     0.109 C 
ATOM     12  C   UNL     1      -4.739  -6.111  -2.149  1.00  0.00     0.021 C 
BRANCH  11  13
ATOM     13  C   UNL     1      -6.844  -7.524  -1.632  1.00  0.00     0.204 C 
BRANCH  13  14
ATOM     14  N   UNL     1      -6.405  -7.382  -0.241  1.00  0.00    -0.340 N 
ATOM     15  C   UNL     1      -5.869  -8.423   0.485  1.00  0.00     0.243 C 
ATOM     16  O   UNL     1      -5.665  -9.533  -0.004  1.00  0.00    -0.273 OA
ATOM     17  H   UNL     1      -6.684  -6.538   0.267  1.00  0.00     0.164 HD
BRANCH  15  18
ATOM     18  C   UNL     1      -5.674  -8.095   1.986  1.00  0.00     0.171 C 
BRANCH  18  19
ATOM     19  N   UNL     1      -5.045  -9.267   2.592  1.00  0.00    -0.343 N 
ATOM     20  C   UNL     1      -5.571  -9.878   3.714  1.00  0.00     0.242 CG0
ATOM     21  O   UNL     1      -6.513  -9.389   4.331  1.00  0.00    -0.273 OA
ATOM     22  H   UNL     1      -4.195  -9.641   2.185  1.00  0.00     0.164 HD
ATOM     23  G   UNL     1      -4.814 -11.146   4.162  1.00  0.00     0.000 G0
ENDBRANCH  18  19
BRANCH  18  24
ATOM     24  C   UNL     1      -4.810  -6.840   2.158  1.00  0.00     0.038 C 
BRANCH  24  25
ATOM     25  C   UNL     1      -5.465  -5.715   2.987  1.00  0.00    -0.015 C 
ATOM     26  C   UNL     1      -4.948  -4.329   2.603  1.00  0.00     0.007 C 
ATOM     27  C   UNL     1      -5.218  -5.963   4.477  1.00  0.00     0.007 C 
ENDBRANCH  24  25
ENDBRANCH  18  24
ENDBRANCH  15  18
ENDBRANCH  13  14
BRANCH  13  28
ATOM     28  C   UNL     1      -8.372  -7.412  -1.640  1.00  0.00     0.327 C 
ATOM     29  O   UNL     1      -9.118  -7.762  -2.542  1.00  0.00    -0.250 OA
BRANCH  28  30
ATOM     30  O   UNL     1      -8.859  -6.757  -0.566  1.00  0.00    -0.480 OA
ATOM     31  H   UNL     1      -8.308  -7.074   0.179  1.00  0.00     0.296 HD
ENDBRANCH  28  30
ENDBRANCH  13  28
ENDBRANCH  11  13
ENDBRANCH   8  11
ENDBRANCH   6   7
BRANCH   6  32
ATOM     32  C   UNL     1      -7.811  -2.545  -0.254  1.00  0.00     0.037 C 
BRANCH  32  33
ATOM     33  C   UNL     1      -7.891  -3.646   0.813  1.00  0.00     0.026 C 
BRANCH  33  34
ATOM     34  C   UNL     1      -8.678  -3.208   2.048  1.00  0.00     0.146 C 
BRANCH  34  35
ATOM     35  N   UNL     1      -9.989  -3.841   2.019  1.00  0.00    -0.254 NA
ATOM     36  C   UNL     1     -10.251  -4.753   2.879  1.00  0.00     0.185 C 
ATOM     37  N   UNL     1     -11.458  -5.339   2.864  1.00  0.00    -0.370 N 
ATOM     38  N   UNL     1      -9.465  -5.246   3.853  1.00  0.00    -0.370 N 
ATOM     39  H   UNL     1     -12.112  -5.014   2.164  1.00  0.00     0.159 HD
ATOM     40  H   UNL     1     -11.798  -5.930   3.604  1.00  0.00     0.159 HD
ATOM     41  H   UNL     1      -9.735  -6.062   4.378  1.00  0.00     0.159 HD
ATOM     42  H   UNL     1      -8.522  -4.908   3.971  1.00  0.00     0.159 HD
ENDBRANCH  34  35
ENDBRANCH  33  34
ENDBRANCH  32  33
ENDBRANCH   6  32
ENDBRANCH   4   6
ENDBRANCH   1   2
BRANCH   1  43
ATOM     43  C   UNL     1      -8.031  -0.154  -5.207  1.00  0.00     0.102 C 
ATOM     44  C   UNL     1      -7.606   0.961  -6.178  1.00  0.00     0.020 C 
BRANCH  43  45
ATOM     45  C   UNL     1      -8.652   0.360  -3.905  1.00  0.00     0.225 C 
ATOM     46  O   UNL     1      -9.805   0.111  -3.567  1.00  0.00    -0.275 OA
ATOM     47  N   UNL     1      -7.860   1.210  -3.166  1.00  0.00    -0.342 N 
ATOM     48  H   UNL     1      -6.874   1.282  -3.374  1.00  0.00     0.164 HD
BRANCH  47  49
ATOM     49  C   UNL     1      -8.309   1.751  -1.879  1.00  0.00     0.192 C 
BRANCH  49  50
ATOM     50  C   UNL     1      -8.470   3.269  -1.988  1.00  0.00     0.047 C 
BRANCH  50  51
ATOM     51  C   UNL     1      -7.720   3.849  -3.195  1.00  0.00     0.103 C 
BRANCH  51  52
ATOM     52  C   UNL     1      -8.671   4.279  -4.309  1.00  0.00     0.226 C 
ATOM     53  O   UNL     1      -9.533   3.495  -4.713  1.00  0.00    -0.275 OA
BRANCH  52  54
ATOM     54  N   UNL     1      -8.547   5.606  -4.763  1.00  0.00    -0.311 N 
ATOM     55  C   UNL     1      -7.286   6.342  -4.608  1.00  0.00     0.153 C 
BRANCH  54  56
ATOM     56  C   UNL     1      -9.617   6.271  -5.384  1.00  0.00     0.102 C 
ATOM     57  C   UNL     1      -9.658   6.617  -6.681  1.00  0.00     0.043 C 
BRANCH  56  58
ATOM     58  C   UNL     1     -10.868   6.617  -4.611  1.00  0.00     0.268 C 
ATOM     59  O   UNL     1     -11.980   6.211  -4.920  1.00  0.00    -0.268 OA
ATOM     60  N   UNL     1     -10.619   7.376  -3.492  1.00  0.00    -0.339 N 
ATOM     61  H   UNL     1      -9.670   7.680  -3.311  1.00  0.00     0.164 HD
BRANCH  60  62
ATOM     62  C   UNL     1     -11.680   7.771  -2.567  1.00  0.00     0.168 CG0
ATOM     63  C   UNL     1     -11.564   7.017  -1.248  1.00  0.00     0.041 C 
ATOM     64  G   UNL     1     -13.055   7.521  -3.220  1.00  0.00     0.000 G0
ENDBRANCH  60  62
ENDBRANCH  56  58
ENDBRANCH  54  56
ENDBRANCH  52  54
ENDBRANCH  51  52
ENDBRANCH  50  51
ENDBRANCH  49  50
BRANCH  49  65
ATOM     65  C   UNL     1      -7.319   1.424  -0.750  1.00  0.00     0.326 C 
ATOM     66  O   UNL     1      -7.615   1.226   0.419  1.00  0.00    -0.250 OA
BRANCH  65  67
ATOM     67  O   UNL     1      -6.020   1.419  -1.123  1.00  0.00    -0.480 OA
ATOM     68  H   UNL     1      -5.536   1.522  -0.275  1.00  0.00     0.296 HD
ENDBRANCH  65  67
ENDBRANCH  49  65
ENDBRANCH  47  49
ENDBRANCH  43  45
ENDBRANCH   1  43
BRANCH   1  69
ATOM     69  C   UNL     1      -6.387  -2.045  -6.059  1.00  0.00    -0.001 C 
ATOM     70  C   UNL     1      -6.927  -3.180  -6.538  1.00  0.00     0.001 C 
BRANCH  70  71
ATOM     71  C   UNL     1      -6.430  -3.988  -7.653  1.00  0.00    -0.055 C 
ATOM     72  C   UNL     1      -5.949  -5.218  -7.372  1.00  0.00    -0.018 C 
ATOM     73  C   UNL     1      -6.498  -3.394  -9.036  1.00  0.00     0.044 C 
BRANCH  72  74
ATOM     74  C   UNL     1      -5.378  -6.267  -8.315  1.00  0.00     0.038 C 
ATOM     75  C   UNL     1      -6.489  -7.291  -8.578  1.00  0.00     0.015 C 
BRANCH  74  76
ATOM     76  C   UNL     1      -4.083  -6.856  -7.683  1.00  0.00     0.128 C 
BRANCH  76  77
ATOM     77  O   UNL     1      -4.022  -8.273  -7.919  1.00  0.00    -0.381 OA
ATOM     78  C   UNL     1      -2.835  -8.691  -8.580  1.00  0.00     0.195 C 
ENDBRANCH  76  77
BRANCH  76  79
ATOM     79  C   UNL     1      -2.786  -6.122  -8.105  1.00  0.00     0.068 C 
BRANCH  79  80
ATOM     80  C   UNL     1      -2.791  -4.612  -8.091  1.00  0.00    -0.045 A 
ATOM     81  C   UNL     1      -2.731  -3.901  -6.885  1.00  0.00     0.004 A 
ATOM     82  C   UNL     1      -2.887  -3.894  -9.293  1.00  0.00     0.004 A 
ATOM     83  C   UNL     1      -2.751  -2.505  -6.880  1.00  0.00     0.000 A 
ATOM     84  C   UNL     1      -2.908  -2.498  -9.286  1.00  0.00     0.000 A 
ATOM     85  C   UNL     1      -2.838  -1.804  -8.081  1.00  0.00     0.000 A 
ENDBRANCH  79  80
ENDBRANCH  76  79
ENDBRANCH  74  76
ENDBRANCH  72  74
ENDBRANCH  70  71
ENDBRANCH   1  69
TORSDOF 17
ENDMDL
MODEL 41
REMARK VINA RESULT:    -6.517      3.794     12.614
REMARK INTER + INTRA:         -25.964
REMARK INTER:                 -16.722
REMARK INTRA:                  -9.242
REMARK UNBOUND:                -6.494
REMARK SMILES C=C1C(=O)N[C@H](C)C(=O)N[C@@H](CC(C)C)C(=O)N[C@@H](C(=O)O)[C@H](C)C(=O)N[C@@H](CCCN=C(N)N)C(=O)N[C@@H](/C=C/C(C)=C/[C@H](C)[C@H](Cc2ccccc2)OC)[C@H](C)C(=O)N[C@@H](C(=O)O)CCC(=O)N1C
REMARK SMILES IDX 39 1 38 2 37 3 36 4 28 6 27 7 25 8 26 9 23 11 24 12 19 13
REMARK SMILES IDX 18 14 16 15 17 16 11 18 10 19 8 20 9 21 12 24 13 25 14 26
REMARK SMILES IDX 15 27 20 28 21 29 22 30 29 32 30 33 31 34 32 35 33 36 34 37
REMARK SMILES IDX 35 38 57 43 58 44 59 45 60 46 61 47 62 49 66 50 67 51 68 52
REMARK SMILES IDX 69 53 70 54 71 55 2 56 1 57 3 58 4 59 5 60 6 62 7 63 63 65
REMARK SMILES IDX 64 66 65 67 40 69 41 70 42 71 44 72 43 73 45 74 46 75 47 76
REMARK SMILES IDX 55 77 56 78 48 79 49 80 50 81 54 82 51 83 53 84 52 85
REMARK H PARENT 38 5 27 10 18 17 10 22 22 31 34 39 34 40 35 41 35 42 61 48
REMARK H PARENT 5 61 65 68
REMARK Flexibility Score:  369.900
ROOT
ATOM      1  C   UNL     1      -7.995  -3.008  -0.203  1.00  0.00     0.117 C 
ENDROOT
BRANCH   1   2
ATOM      2  N   UNL     1      -7.322  -3.509   0.995  1.00  0.00    -0.347 N 
ATOM      3  O   UNL     1      -8.402  -5.530   1.139  1.00  0.00    -0.273 OA
ATOM      4  C   UNL     1      -7.515  -4.773   1.519  1.00  0.00     0.243 C 
ATOM      5  H   UNL     1      -6.634  -2.931   1.455  1.00  0.00     0.164 HD
BRANCH   4   6
ATOM      6  C   UNL     1      -6.616  -5.085   2.742  1.00  0.00     0.171 C 
BRANCH   6   7
ATOM      7  N   UNL     1      -7.308  -5.991   3.672  1.00  0.00    -0.344 N 
ATOM      8  C   UNL     1      -7.407  -5.682   5.011  1.00  0.00     0.226 C 
ATOM      9  O   UNL     1      -6.914  -4.669   5.493  1.00  0.00    -0.275 OA
ATOM     10  H   UNL     1      -7.670  -6.870   3.323  1.00  0.00     0.164 HD
BRANCH   8  11
ATOM     11  C   UNL     1      -8.197  -6.688   5.829  1.00  0.00     0.109 C 
ATOM     12  C   UNL     1      -7.247  -7.665   6.523  1.00  0.00     0.021 C 
BRANCH  11  13
ATOM     13  C   UNL     1      -9.167  -5.948   6.771  1.00  0.00     0.204 C 
BRANCH  13  14
ATOM     14  N   UNL     1     -10.015  -4.993   6.051  1.00  0.00    -0.340 N 
ATOM     15  C   UNL     1     -10.481  -3.828   6.620  1.00  0.00     0.243 C 
ATOM     16  O   UNL     1     -10.168  -3.476   7.756  1.00  0.00    -0.273 OA
ATOM     17  H   UNL     1     -10.433  -5.294   5.166  1.00  0.00     0.164 HD
BRANCH  15  18
ATOM     18  C   UNL     1     -11.523  -3.086   5.747  1.00  0.00     0.171 C 
BRANCH  18  19
ATOM     19  N   UNL     1     -12.646  -2.758   6.622  1.00  0.00    -0.343 N 
ATOM     20  C   UNL     1     -13.767  -3.561   6.701  1.00  0.00     0.242 CG0
ATOM     21  O   UNL     1     -13.930  -4.515   5.943  1.00  0.00    -0.273 OA
ATOM     22  H   UNL     1     -12.609  -1.915   7.185  1.00  0.00     0.164 HD
ATOM     23  G   UNL     1     -14.812  -3.096   7.737  1.00  0.00     0.000 G0
ENDBRANCH  18  19
BRANCH  18  24
ATOM     24  C   UNL     1     -10.908  -1.826   5.125  1.00  0.00     0.038 C 
BRANCH  24  25
ATOM     25  C   UNL     1     -10.228  -2.048   3.757  1.00  0.00    -0.015 C 
ATOM     26  C   UNL     1     -10.742  -3.299   3.044  1.00  0.00     0.007 C 
ATOM     27  C   UNL     1      -8.712  -2.149   3.947  1.00  0.00     0.007 C 
ENDBRANCH  24  25
ENDBRANCH  18  24
ENDBRANCH  15  18
ENDBRANCH  13  14
BRANCH  13  28
ATOM     28  C   UNL     1     -10.097  -6.889   7.542  1.00  0.00     0.327 C 
ATOM     29  O   UNL     1     -10.994  -7.569   7.066  1.00  0.00    -0.250 OA
BRANCH  28  30
ATOM     30  O   UNL     1      -9.922  -6.830   8.878  1.00  0.00    -0.480 OA
ATOM     31  H   UNL     1      -9.065  -6.367   8.988  1.00  0.00     0.296 HD
ENDBRANCH  28  30
ENDBRANCH  13  28
ENDBRANCH  11  13
ENDBRANCH   8  11
ENDBRANCH   6   7
BRANCH   6  32
ATOM     32  C   UNL     1      -5.300  -5.702   2.254  1.00  0.00     0.037 C 
BRANCH  32  33
ATOM     33  C   UNL     1      -5.216  -7.204   2.561  1.00  0.00     0.026 C 
BRANCH  33  34
ATOM     34  C   UNL     1      -5.871  -8.060   1.477  1.00  0.00     0.146 C 
BRANCH  34  35
ATOM     35  N   UNL     1      -5.366  -7.640   0.177  1.00  0.00    -0.254 NA
ATOM     36  C   UNL     1      -6.188  -7.549  -0.801  1.00  0.00     0.185 C 
ATOM     37  N   UNL     1      -5.735  -7.158  -2.002  1.00  0.00    -0.370 N 
ATOM     38  N   UNL     1      -7.510  -7.798  -0.820  1.00  0.00    -0.370 N 
ATOM     39  H   UNL     1      -4.748  -6.942  -2.067  1.00  0.00     0.159 HD
ATOM     40  H   UNL     1      -6.335  -6.897  -2.765  1.00  0.00     0.159 HD
ATOM     41  H   UNL     1      -8.022  -7.825  -1.686  1.00  0.00     0.159 HD
ATOM     42  H   UNL     1      -7.983  -8.116   0.011  1.00  0.00     0.159 HD
ENDBRANCH  34  35
ENDBRANCH  33  34
ENDBRANCH  32  33
ENDBRANCH   6  32
ENDBRANCH   4   6
ENDBRANCH   1   2
BRANCH   1  43
ATOM     43  C   UNL     1      -6.952  -2.912  -1.354  1.00  0.00     0.102 C 
ATOM     44  C   UNL     1      -6.803  -1.493  -1.928  1.00  0.00     0.020 C 
BRANCH  43  45
ATOM     45  C   UNL     1      -7.203  -3.988  -2.414  1.00  0.00     0.225 C 
ATOM     46  O   UNL     1      -7.993  -4.915  -2.256  1.00  0.00    -0.275 OA
ATOM     47  N   UNL     1      -6.410  -3.910  -3.536  1.00  0.00    -0.342 N 
ATOM     48  H   UNL     1      -5.882  -3.068  -3.718  1.00  0.00     0.164 HD
BRANCH  47  49
ATOM     49  C   UNL     1      -6.564  -4.852  -4.650  1.00  0.00     0.192 C 
BRANCH  49  50
ATOM     50  C   UNL     1      -5.256  -4.929  -5.442  1.00  0.00     0.047 C 
BRANCH  50  51
ATOM     51  C   UNL     1      -5.221  -6.133  -6.392  1.00  0.00     0.103 C 
BRANCH  51  52
ATOM     52  C   UNL     1      -3.969  -6.986  -6.192  1.00  0.00     0.226 C 
ATOM     53  O   UNL     1      -3.830  -7.630  -5.151  1.00  0.00    -0.275 OA
BRANCH  52  54
ATOM     54  N   UNL     1      -3.068  -7.039  -7.272  1.00  0.00    -0.311 N 
ATOM     55  C   UNL     1      -3.268  -7.985  -8.378  1.00  0.00     0.153 C 
BRANCH  54  56
ATOM     56  C   UNL     1      -1.952  -6.189  -7.336  1.00  0.00     0.102 C 
ATOM     57  C   UNL     1      -0.673  -6.592  -7.255  1.00  0.00     0.043 C 
BRANCH  56  58
ATOM     58  C   UNL     1      -2.120  -4.703  -7.556  1.00  0.00     0.268 C 
ATOM     59  O   UNL     1      -1.451  -3.860  -6.973  1.00  0.00    -0.268 OA
ATOM     60  N   UNL     1      -3.050  -4.402  -8.521  1.00  0.00    -0.339 N 
ATOM     61  H   UNL     1      -3.570  -5.159  -8.950  1.00  0.00     0.164 HD
BRANCH  60  62
ATOM     62  C   UNL     1      -3.326  -3.027  -8.936  1.00  0.00     0.168 CG0
ATOM     63  C   UNL     1      -4.739  -2.611  -8.548  1.00  0.00     0.041 C 
ATOM     64  G   UNL     1      -3.116  -2.895 -10.458  1.00  0.00     0.000 G0
ENDBRANCH  60  62
ENDBRANCH  56  58
ENDBRANCH  54  56
ENDBRANCH  52  54
ENDBRANCH  51  52
ENDBRANCH  50  51
ENDBRANCH  49  50
BRANCH  49  65
ATOM     65  C   UNL     1      -7.705  -4.436  -5.591  1.00  0.00     0.326 C 
ATOM     66  O   UNL     1      -7.617  -3.620  -6.497  1.00  0.00    -0.250 OA
BRANCH  65  67
ATOM     67  O   UNL     1      -8.898  -5.008  -5.317  1.00  0.00    -0.480 OA
ATOM     68  H   UNL     1      -8.949  -5.754  -5.953  1.00  0.00     0.296 HD
ENDBRANCH  65  67
ENDBRANCH  49  65
ENDBRANCH  47  49
ENDBRANCH  43  45
ENDBRANCH   1  43
BRANCH   1  69
ATOM     69  C   UNL     1      -8.737  -1.753   0.221  1.00  0.00    -0.001 C 
ATOM     70  C   UNL     1      -9.992  -1.396  -0.104  1.00  0.00     0.001 C 
BRANCH  70  71
ATOM     71  C   UNL     1     -10.704  -0.193   0.329  1.00  0.00    -0.055 C 
ATOM     72  C   UNL     1     -10.225   0.468   1.404  1.00  0.00    -0.018 C 
ATOM     73  C   UNL     1     -11.917   0.228  -0.460  1.00  0.00     0.044 C 
BRANCH  72  74
ATOM     74  C   UNL     1     -10.748   1.733   2.070  1.00  0.00     0.038 C 
ATOM     75  C   UNL     1      -9.624   2.774   2.012  1.00  0.00     0.015 C 
BRANCH  74  76
ATOM     76  C   UNL     1     -11.237   1.377   3.505  1.00  0.00     0.128 C 
BRANCH  76  77
ATOM     77  O   UNL     1     -10.523   2.163   4.475  1.00  0.00    -0.381 OA
ATOM     78  C   UNL     1     -11.370   2.858   5.381  1.00  0.00     0.195 C 
ENDBRANCH  76  77
BRANCH  76  79
ATOM     79  C   UNL     1     -12.774   1.455   3.684  1.00  0.00     0.068 C 
BRANCH  79  80
ATOM     80  C   UNL     1     -13.633   0.577   2.807  1.00  0.00    -0.045 A 
ATOM     81  C   UNL     1     -13.462  -0.814   2.789  1.00  0.00     0.004 A 
ATOM     82  C   UNL     1     -14.604   1.148   1.970  1.00  0.00     0.004 A 
ATOM     83  C   UNL     1     -14.252  -1.618   1.964  1.00  0.00     0.000 A 
ATOM     84  C   UNL     1     -15.392   0.343   1.145  1.00  0.00     0.000 A 
ATOM     85  C   UNL     1     -15.217  -1.039   1.144  1.00  0.00     0.000 A 
ENDBRANCH  79  80
ENDBRANCH  76  79
ENDBRANCH  74  76
ENDBRANCH  72  74
ENDBRANCH  70  71
ENDBRANCH   1  69
TORSDOF 17
ENDMDL
MODEL 42
REMARK VINA RESULT:    -6.511      4.152     11.041
REMARK INTER + INTRA:         -25.946
REMARK INTER:                 -18.868
REMARK INTRA:                  -7.078
REMARK UNBOUND:                -6.494
REMARK SMILES C=C1C(=O)N[C@H](C)C(=O)N[C@@H](CC(C)C)C(=O)N[C@@H](C(=O)O)[C@H](C)C(=O)N[C@@H](CCCN=C(N)N)C(=O)N[C@@H](/C=C/C(C)=C/[C@H](C)[C@H](Cc2ccccc2)OC)[C@H](C)C(=O)N[C@@H](C(=O)O)CCC(=O)N1C
REMARK SMILES IDX 39 1 38 2 37 3 36 4 28 6 27 7 25 8 26 9 23 11 24 12 19 13
REMARK SMILES IDX 18 14 16 15 17 16 11 18 10 19 8 20 9 21 12 24 13 25 14 26
REMARK SMILES IDX 15 27 20 28 21 29 22 30 29 32 30 33 31 34 32 35 33 36 34 37
REMARK SMILES IDX 35 38 57 43 58 44 59 45 60 46 61 47 62 49 66 50 67 51 68 52
REMARK SMILES IDX 69 53 70 54 71 55 2 56 1 57 3 58 4 59 5 60 6 62 7 63 63 65
REMARK SMILES IDX 64 66 65 67 40 69 41 70 42 71 44 72 43 73 45 74 46 75 47 76
REMARK SMILES IDX 55 77 56 78 48 79 49 80 50 81 54 82 51 83 53 84 52 85
REMARK H PARENT 38 5 27 10 18 17 10 22 22 31 34 39 34 40 35 41 35 42 61 48
REMARK H PARENT 5 61 65 68
REMARK Flexibility Score:  369.900
ROOT
ATOM      1  C   UNL     1      -5.875  -4.099  -1.187  1.00  0.00     0.117 C 
ENDROOT
BRANCH   1   2
ATOM      2  N   UNL     1      -7.149  -3.392  -1.052  1.00  0.00    -0.347 N 
ATOM      3  O   UNL     1      -6.369  -1.265  -1.423  1.00  0.00    -0.273 OA
ATOM      4  C   UNL     1      -7.310  -2.038  -1.272  1.00  0.00     0.243 C 
ATOM      5  H   UNL     1      -7.984  -3.915  -0.834  1.00  0.00     0.164 HD
BRANCH   4   6
ATOM      6  C   UNL     1      -8.777  -1.556  -1.148  1.00  0.00     0.171 C 
BRANCH   6   7
ATOM      7  N   UNL     1      -8.826  -0.191  -0.600  1.00  0.00    -0.344 N 
ATOM      8  C   UNL     1      -8.789   0.021   0.762  1.00  0.00     0.226 C 
ATOM      9  O   UNL     1      -8.738  -0.897   1.572  1.00  0.00    -0.275 OA
ATOM     10  H   UNL     1      -8.936   0.589  -1.235  1.00  0.00     0.164 HD
BRANCH   8  11
ATOM     11  C   UNL     1      -8.792   1.485   1.167  1.00  0.00     0.109 C 
ATOM     12  C   UNL     1      -8.829   2.374  -0.076  1.00  0.00     0.021 C 
BRANCH  11  13
ATOM     13  C   UNL     1      -9.922   1.743   2.183  1.00  0.00     0.204 C 
BRANCH  13  14
ATOM     14  N   UNL     1     -10.916   0.665   2.187  1.00  0.00    -0.340 N 
ATOM     15  C   UNL     1     -12.251   0.879   2.454  1.00  0.00     0.243 C 
ATOM     16  O   UNL     1     -12.714   2.002   2.648  1.00  0.00    -0.273 OA
ATOM     17  H   UNL     1     -10.577  -0.301   2.185  1.00  0.00     0.164 HD
BRANCH  15  18
ATOM     18  C   UNL     1     -13.068  -0.427   2.609  1.00  0.00     0.171 C 
BRANCH  18  19
ATOM     19  N   UNL     1     -13.821  -0.305   3.855  1.00  0.00    -0.343 N 
ATOM     20  C   UNL     1     -13.956  -1.364   4.732  1.00  0.00     0.242 CG0
ATOM     21  O   UNL     1     -13.565  -2.493   4.443  1.00  0.00    -0.273 OA
ATOM     22  H   UNL     1     -14.263   0.578   4.085  1.00  0.00     0.164 HD
ATOM     23  G   UNL     1     -14.717  -1.023   6.030  1.00  0.00     0.000 G0
ENDBRANCH  18  19
BRANCH  18  24
ATOM     24  C   UNL     1     -14.000  -0.628   1.407  1.00  0.00     0.038 C 
BRANCH  24  25
ATOM     25  C   UNL     1     -13.748  -1.923   0.606  1.00  0.00    -0.015 C 
ATOM     26  C   UNL     1     -12.317  -2.014   0.076  1.00  0.00     0.007 C 
ATOM     27  C   UNL     1     -14.736  -2.007  -0.561  1.00  0.00     0.007 C 
ENDBRANCH  24  25
ENDBRANCH  18  24
ENDBRANCH  15  18
ENDBRANCH  13  14
BRANCH  13  28
ATOM     28  C   UNL     1      -9.417   1.900   3.620  1.00  0.00     0.327 C 
ATOM     29  O   UNL     1      -9.783   2.742   4.426  1.00  0.00    -0.250 OA
BRANCH  28  30
ATOM     30  O   UNL     1      -8.400   1.067   3.918  1.00  0.00    -0.480 OA
ATOM     31  H   UNL     1      -8.821   0.185   3.981  1.00  0.00     0.296 HD
ENDBRANCH  28  30
ENDBRANCH  13  28
ENDBRANCH  11  13
ENDBRANCH   8  11
ENDBRANCH   6   7
BRANCH   6  32
ATOM     32  C   UNL     1      -9.446  -1.616  -2.526  1.00  0.00     0.037 C 
BRANCH  32  33
ATOM     33  C   UNL     1     -10.155  -0.303  -2.884  1.00  0.00     0.026 C 
BRANCH  33  34
ATOM     34  C   UNL     1     -11.246  -0.495  -3.938  1.00  0.00     0.146 C 
BRANCH  34  35
ATOM     35  N   UNL     1     -12.544  -0.267  -3.318  1.00  0.00    -0.254 NA
ATOM     36  C   UNL     1     -13.541   0.023  -4.069  1.00  0.00     0.185 C 
ATOM     37  N   UNL     1     -14.743   0.231  -3.509  1.00  0.00    -0.370 N 
ATOM     38  N   UNL     1     -13.580   0.159  -5.406  1.00  0.00    -0.370 N 
ATOM     39  H   UNL     1     -14.797   0.136  -2.503  1.00  0.00     0.159 HD
ATOM     40  H   UNL     1     -15.598   0.289  -4.034  1.00  0.00     0.159 HD
ATOM     41  H   UNL     1     -14.395   0.527  -5.869  1.00  0.00     0.159 HD
ATOM     42  H   UNL     1     -12.743   0.046  -5.958  1.00  0.00     0.159 HD
ENDBRANCH  34  35
ENDBRANCH  33  34
ENDBRANCH  32  33
ENDBRANCH   6  32
ENDBRANCH   4   6
ENDBRANCH   1   2
BRANCH   1  43
ATOM     43  C   UNL     1      -6.067  -5.283  -2.177  1.00  0.00     0.102 C 
ATOM     44  C   UNL     1      -4.843  -6.210  -2.267  1.00  0.00     0.020 C 
BRANCH  43  45
ATOM     45  C   UNL     1      -6.572  -4.788  -3.536  1.00  0.00     0.225 C 
ATOM     46  O   UNL     1      -7.464  -5.350  -4.165  1.00  0.00    -0.275 OA
ATOM     47  N   UNL     1      -5.896  -3.712  -4.063  1.00  0.00    -0.342 N 
ATOM     48  H   UNL     1      -5.276  -3.173  -3.474  1.00  0.00     0.164 HD
BRANCH  47  49
ATOM     49  C   UNL     1      -6.291  -3.108  -5.339  1.00  0.00     0.192 C 
BRANCH  49  50
ATOM     50  C   UNL     1      -5.100  -3.111  -6.301  1.00  0.00     0.047 C 
BRANCH  50  51
ATOM     51  C   UNL     1      -4.512  -4.515  -6.495  1.00  0.00     0.103 C 
BRANCH  51  52
ATOM     52  C   UNL     1      -4.723  -5.033  -7.916  1.00  0.00     0.226 C 
ATOM     53  O   UNL     1      -3.909  -4.748  -8.796  1.00  0.00    -0.275 OA
BRANCH  52  54
ATOM     54  N   UNL     1      -5.824  -5.887  -8.115  1.00  0.00    -0.311 N 
ATOM     55  C   UNL     1      -7.199  -5.376  -8.052  1.00  0.00     0.153 C 
BRANCH  54  56
ATOM     56  C   UNL     1      -5.650  -7.255  -8.385  1.00  0.00     0.102 C 
ATOM     57  C   UNL     1      -6.490  -8.007  -9.115  1.00  0.00     0.043 C 
BRANCH  56  58
ATOM     58  C   UNL     1      -4.429  -7.994  -7.890  1.00  0.00     0.268 C 
ATOM     59  O   UNL     1      -4.254  -8.285  -6.714  1.00  0.00    -0.268 OA
ATOM     60  N   UNL     1      -3.572  -8.361  -8.900  1.00  0.00    -0.339 N 
ATOM     61  H   UNL     1      -3.784  -8.072  -9.847  1.00  0.00     0.164 HD
BRANCH  60  62
ATOM     62  C   UNL     1      -2.360  -9.139  -8.649  1.00  0.00     0.168 CG0
ATOM     63  C   UNL     1      -1.184  -8.228  -8.319  1.00  0.00     0.041 C 
ATOM     64  G   UNL     1      -2.044 -10.015  -9.879  1.00  0.00     0.000 G0
ENDBRANCH  60  62
ENDBRANCH  56  58
ENDBRANCH  54  56
ENDBRANCH  52  54
ENDBRANCH  51  52
ENDBRANCH  50  51
ENDBRANCH  49  50
BRANCH  49  65
ATOM     65  C   UNL     1      -6.792  -1.667  -5.153  1.00  0.00     0.326 C 
ATOM     66  O   UNL     1      -7.796  -1.192  -5.665  1.00  0.00    -0.250 OA
BRANCH  65  67
ATOM     67  O   UNL     1      -5.992  -0.885  -4.395  1.00  0.00    -0.480 OA
ATOM     68  H   UNL     1      -5.980  -1.341  -3.526  1.00  0.00     0.296 HD
ENDBRANCH  65  67
ENDBRANCH  49  65
ENDBRANCH  47  49
ENDBRANCH  43  45
ENDBRANCH   1  43
BRANCH   1  69
ATOM     69  C   UNL     1      -5.402  -4.393   0.225  1.00  0.00    -0.001 C 
ATOM     70  C   UNL     1      -6.162  -4.589   1.317  1.00  0.00     0.001 C 
BRANCH  70  71
ATOM     71  C   UNL     1      -5.694  -4.893   2.671  1.00  0.00    -0.055 C 
ATOM     72  C   UNL     1      -5.776  -3.915   3.598  1.00  0.00    -0.018 C 
ATOM     73  C   UNL     1      -5.163  -6.278   2.936  1.00  0.00     0.044 C 
BRANCH  72  74
ATOM     74  C   UNL     1      -5.375  -3.944   5.066  1.00  0.00     0.038 C 
ATOM     75  C   UNL     1      -3.842  -3.969   5.116  1.00  0.00     0.015 C 
BRANCH  74  76
ATOM     76  C   UNL     1      -6.071  -5.156   5.752  1.00  0.00     0.128 C 
BRANCH  76  77
ATOM     77  O   UNL     1      -5.227  -5.683   6.790  1.00  0.00    -0.381 OA
ATOM     78  C   UNL     1      -5.245  -7.102   6.875  1.00  0.00     0.195 C 
ENDBRANCH  76  77
BRANCH  76  79
ATOM     79  C   UNL     1      -7.511  -4.861   6.241  1.00  0.00     0.068 C 
BRANCH  79  80
ATOM     80  C   UNL     1      -8.556  -4.528   5.203  1.00  0.00    -0.045 A 
ATOM     81  C   UNL     1      -8.992  -5.490   4.283  1.00  0.00     0.004 A 
ATOM     82  C   UNL     1      -9.088  -3.232   5.127  1.00  0.00     0.004 A 
ATOM     83  C   UNL     1      -9.948  -5.170   3.317  1.00  0.00     0.000 A 
ATOM     84  C   UNL     1     -10.044  -2.912   4.160  1.00  0.00     0.000 A 
ATOM     85  C   UNL     1     -10.475  -3.881   3.257  1.00  0.00     0.000 A 
ENDBRANCH  79  80
ENDBRANCH  76  79
ENDBRANCH  74  76
ENDBRANCH  72  74
ENDBRANCH  70  71
ENDBRANCH   1  69
TORSDOF 17
ENDMDL
MODEL 43
REMARK VINA RESULT:    -6.497      3.329      9.524
REMARK INTER + INTRA:         -25.903
REMARK INTER:                 -17.613
REMARK INTRA:                  -8.290
REMARK UNBOUND:                -6.494
REMARK SMILES C=C1C(=O)N[C@H](C)C(=O)N[C@@H](CC(C)C)C(=O)N[C@@H](C(=O)O)[C@H](C)C(=O)N[C@@H](CCCN=C(N)N)C(=O)N[C@@H](/C=C/C(C)=C/[C@H](C)[C@H](Cc2ccccc2)OC)[C@H](C)C(=O)N[C@@H](C(=O)O)CCC(=O)N1C
REMARK SMILES IDX 39 1 38 2 37 3 36 4 28 6 27 7 25 8 26 9 23 11 24 12 19 13
REMARK SMILES IDX 18 14 16 15 17 16 11 18 10 19 8 20 9 21 12 24 13 25 14 26
REMARK SMILES IDX 15 27 20 28 21 29 22 30 29 32 30 33 31 34 32 35 33 36 34 37
REMARK SMILES IDX 35 38 57 43 58 44 59 45 60 46 61 47 62 49 66 50 67 51 68 52
REMARK SMILES IDX 69 53 70 54 71 55 2 56 1 57 3 58 4 59 5 60 6 62 7 63 63 65
REMARK SMILES IDX 64 66 65 67 40 69 41 70 42 71 44 72 43 73 45 74 46 75 47 76
REMARK SMILES IDX 55 77 56 78 48 79 49 80 50 81 54 82 51 83 53 84 52 85
REMARK H PARENT 38 5 27 10 18 17 10 22 22 31 34 39 34 40 35 41 35 42 61 48
REMARK H PARENT 5 61 65 68
REMARK Flexibility Score:  369.900
ROOT
ATOM      1  C   UNL     1      -9.089  -3.385  -0.139  1.00  0.00     0.117 C 
ENDROOT
BRANCH   1   2
ATOM      2  N   UNL     1      -8.174  -3.981  -1.113  1.00  0.00    -0.347 N 
ATOM      3  O   UNL     1      -6.212  -3.558   0.001  1.00  0.00    -0.273 OA
ATOM      4  C   UNL     1      -6.811  -4.101  -0.921  1.00  0.00     0.243 C 
ATOM      5  H   UNL     1      -8.546  -4.380  -1.962  1.00  0.00     0.164 HD
BRANCH   4   6
ATOM      6  C   UNL     1      -6.083  -4.849  -2.068  1.00  0.00     0.171 C 
BRANCH   6   7
ATOM      7  N   UNL     1      -6.222  -4.109  -3.332  1.00  0.00    -0.344 N 
ATOM      8  C   UNL     1      -7.193  -4.456  -4.246  1.00  0.00     0.226 C 
ATOM      9  O   UNL     1      -7.963  -5.392  -4.068  1.00  0.00    -0.275 OA
ATOM     10  H   UNL     1      -5.561  -3.372  -3.545  1.00  0.00     0.164 HD
BRANCH   8  11
ATOM     11  C   UNL     1      -7.243  -3.564  -5.475  1.00  0.00     0.109 C 
ATOM     12  C   UNL     1      -7.418  -2.104  -5.058  1.00  0.00     0.021 C 
BRANCH  11  13
ATOM     13  C   UNL     1      -6.018  -3.841  -6.369  1.00  0.00     0.204 C 
BRANCH  13  14
ATOM     14  N   UNL     1      -5.813  -5.274  -6.596  1.00  0.00    -0.340 N 
ATOM     15  C   UNL     1      -4.564  -5.856  -6.628  1.00  0.00     0.243 C 
ATOM     16  O   UNL     1      -3.534  -5.221  -6.408  1.00  0.00    -0.273 OA
ATOM     17  H   UNL     1      -6.606  -5.826  -6.934  1.00  0.00     0.164 HD
BRANCH  15  18
ATOM     18  C   UNL     1      -4.581  -7.334  -7.088  1.00  0.00     0.171 C 
BRANCH  18  19
ATOM     19  N   UNL     1      -4.872  -7.324  -8.520  1.00  0.00    -0.343 N 
ATOM     20  C   UNL     1      -6.059  -7.818  -9.026  1.00  0.00     0.242 CG0
ATOM     21  O   UNL     1      -6.866  -8.409  -8.313  1.00  0.00    -0.273 OA
ATOM     22  H   UNL     1      -4.185  -6.950  -9.165  1.00  0.00     0.164 HD
ATOM     23  G   UNL     1      -6.219  -7.650 -10.551  1.00  0.00     0.000 G0
ENDBRANCH  18  19
BRANCH  18  24
ATOM     24  C   UNL     1      -3.236  -8.009  -6.792  1.00  0.00     0.038 C 
BRANCH  24  25
ATOM     25  C   UNL     1      -3.019  -9.356  -7.513  1.00  0.00    -0.015 C 
ATOM     26  C   UNL     1      -2.743 -10.503  -6.540  1.00  0.00     0.007 C 
ATOM     27  C   UNL     1      -1.857  -9.229  -8.502  1.00  0.00     0.007 C 
ENDBRANCH  24  25
ENDBRANCH  18  24
ENDBRANCH  15  18
ENDBRANCH  13  14
BRANCH  13  28
ATOM     28  C   UNL     1      -6.113  -3.173  -7.745  1.00  0.00     0.327 C 
ATOM     29  O   UNL     1      -5.659  -2.080  -8.050  1.00  0.00    -0.250 OA
BRANCH  28  30
ATOM     30  O   UNL     1      -6.873  -3.865  -8.618  1.00  0.00    -0.480 OA
ATOM     31  H   UNL     1      -6.295  -4.601  -8.909  1.00  0.00     0.296 HD
ENDBRANCH  28  30
ENDBRANCH  13  28
ENDBRANCH  11  13
ENDBRANCH   8  11
ENDBRANCH   6   7
BRANCH   6  32
ATOM     32  C   UNL     1      -4.607  -5.026  -1.696  1.00  0.00     0.037 C 
BRANCH  32  33
ATOM     33  C   UNL     1      -3.818  -5.759  -2.789  1.00  0.00     0.026 C 
BRANCH  33  34
ATOM     34  C   UNL     1      -4.148  -7.251  -2.848  1.00  0.00     0.146 C 
BRANCH  34  35
ATOM     35  N   UNL     1      -3.314  -7.955  -1.885  1.00  0.00    -0.254 NA
ATOM     36  C   UNL     1      -3.879  -8.722  -1.027  1.00  0.00     0.185 C 
ATOM     37  N   UNL     1      -3.119  -9.380  -0.138  1.00  0.00    -0.370 N 
ATOM     38  N   UNL     1      -5.187  -8.990  -0.866  1.00  0.00    -0.370 N 
ATOM     39  H   UNL     1      -2.119  -9.238  -0.202  1.00  0.00     0.159 HD
ATOM     40  H   UNL     1      -3.463 -10.123   0.445  1.00  0.00     0.159 HD
ATOM     41  H   UNL     1      -5.519  -9.502  -0.065  1.00  0.00     0.159 HD
ATOM     42  H   UNL     1      -5.876  -8.551  -1.456  1.00  0.00     0.159 HD
ENDBRANCH  34  35
ENDBRANCH  33  34
ENDBRANCH  32  33
ENDBRANCH   6  32
ENDBRANCH   4   6
ENDBRANCH   1   2
BRANCH   1  43
ATOM     43  C   UNL     1     -10.153  -4.449   0.256  1.00  0.00     0.102 C 
ATOM     44  C   UNL     1     -11.035  -4.022   1.442  1.00  0.00     0.020 C 
BRANCH  43  45
ATOM     45  C   UNL     1      -9.514  -5.831   0.423  1.00  0.00     0.225 C 
ATOM     46  O   UNL     1      -9.497  -6.675  -0.469  1.00  0.00    -0.275 OA
ATOM     47  N   UNL     1      -9.033  -6.113   1.681  1.00  0.00    -0.342 N 
ATOM     48  H   UNL     1      -8.916  -5.366   2.351  1.00  0.00     0.164 HD
BRANCH  47  49
ATOM     49  C   UNL     1      -8.363  -7.383   1.978  1.00  0.00     0.192 C 
BRANCH  49  50
ATOM     50  C   UNL     1      -8.747  -7.850   3.385  1.00  0.00     0.047 C 
BRANCH  50  51
ATOM     51  C   UNL     1      -9.415  -6.738   4.205  1.00  0.00     0.103 C 
BRANCH  51  52
ATOM     52  C   UNL     1      -8.405  -5.959   5.045  1.00  0.00     0.226 C 
ATOM     53  O   UNL     1      -7.803  -5.006   4.548  1.00  0.00    -0.275 OA
BRANCH  52  54
ATOM     54  N   UNL     1      -8.279  -6.347   6.392  1.00  0.00    -0.311 N 
ATOM     55  C   UNL     1      -7.535  -7.558   6.764  1.00  0.00     0.153 C 
BRANCH  54  56
ATOM     56  C   UNL     1      -8.852  -5.591   7.428  1.00  0.00     0.102 C 
ATOM     57  C   UNL     1      -8.320  -4.472   7.947  1.00  0.00     0.043 C 
BRANCH  56  58
ATOM     58  C   UNL     1     -10.185  -5.978   8.024  1.00  0.00     0.268 C 
ATOM     59  O   UNL     1     -10.974  -6.730   7.468  1.00  0.00    -0.268 OA
ATOM     60  N   UNL     1     -10.389  -5.453   9.278  1.00  0.00    -0.339 N 
ATOM     61  H   UNL     1      -9.690  -4.829   9.665  1.00  0.00     0.164 HD
BRANCH  60  62
ATOM     62  C   UNL     1     -11.586  -5.751  10.062  1.00  0.00     0.168 CG0
ATOM     63  C   UNL     1     -12.632  -4.655   9.902  1.00  0.00     0.041 C 
ATOM     64  G   UNL     1     -11.202  -5.927  11.546  1.00  0.00     0.000 G0
ENDBRANCH  60  62
ENDBRANCH  56  58
ENDBRANCH  54  56
ENDBRANCH  52  54
ENDBRANCH  51  52
ENDBRANCH  50  51
ENDBRANCH  49  50
BRANCH  49  65
ATOM     65  C   UNL     1      -6.835  -7.253   1.884  1.00  0.00     0.326 C 
ATOM     66  O   UNL     1      -6.048  -8.182   1.770  1.00  0.00    -0.250 OA
BRANCH  65  67
ATOM     67  O   UNL     1      -6.368  -5.990   1.999  1.00  0.00    -0.480 OA
ATOM     68  H   UNL     1      -7.155  -5.435   1.812  1.00  0.00     0.296 HD
ENDBRANCH  65  67
ENDBRANCH  49  65
ENDBRANCH  47  49
ENDBRANCH  43  45
ENDBRANCH   1  43
BRANCH   1  69
ATOM     69  C   UNL     1      -9.553  -2.072  -0.742  1.00  0.00    -0.001 C 
ATOM     70  C   UNL     1      -9.575  -1.733  -2.043  1.00  0.00     0.001 C 
BRANCH  70  71
ATOM     71  C   UNL     1     -10.046  -0.470  -2.615  1.00  0.00    -0.055 C 
ATOM     72  C   UNL     1      -9.898   0.648  -1.874  1.00  0.00    -0.018 C 
ATOM     73  C   UNL     1     -10.654  -0.506  -3.993  1.00  0.00     0.044 C 
BRANCH  72  74
ATOM     74  C   UNL     1     -10.286   2.082  -2.206  1.00  0.00     0.038 C 
ATOM     75  C   UNL     1      -8.993   2.906  -2.231  1.00  0.00     0.015 C 
BRANCH  74  76
ATOM     76  C   UNL     1     -11.349   2.565  -1.176  1.00  0.00     0.128 C 
BRANCH  76  77
ATOM     77  O   UNL     1     -11.256   3.990  -1.007  1.00  0.00    -0.381 OA
ATOM     78  C   UNL     1     -12.354   4.703  -1.561  1.00  0.00     0.195 C 
ENDBRANCH  76  77
BRANCH  76  79
ATOM     79  C   UNL     1     -12.790   2.091  -1.489  1.00  0.00     0.068 C 
BRANCH  79  80
ATOM     80  C   UNL     1     -13.144   0.655  -1.184  1.00  0.00    -0.045 A 
ATOM     81  C   UNL     1     -13.797  -0.144  -2.131  1.00  0.00     0.004 A 
ATOM     82  C   UNL     1     -12.847   0.106   0.072  1.00  0.00     0.004 A 
ATOM     83  C   UNL     1     -14.134  -1.467  -1.836  1.00  0.00     0.000 A 
ATOM     84  C   UNL     1     -13.185  -1.217   0.367  1.00  0.00     0.000 A 
ATOM     85  C   UNL     1     -13.827  -2.003  -0.587  1.00  0.00     0.000 A 
ENDBRANCH  79  80
ENDBRANCH  76  79
ENDBRANCH  74  76
ENDBRANCH  72  74
ENDBRANCH  70  71
ENDBRANCH   1  69
TORSDOF 17
ENDMDL
MODEL 44
REMARK VINA RESULT:    -6.489      3.628     12.801
REMARK INTER + INTRA:         -25.879
REMARK INTER:                 -18.609
REMARK INTRA:                  -7.270
REMARK UNBOUND:                -6.494
REMARK SMILES C=C1C(=O)N[C@H](C)C(=O)N[C@@H](CC(C)C)C(=O)N[C@@H](C(=O)O)[C@H](C)C(=O)N[C@@H](CCCN=C(N)N)C(=O)N[C@@H](/C=C/C(C)=C/[C@H](C)[C@H](Cc2ccccc2)OC)[C@H](C)C(=O)N[C@@H](C(=O)O)CCC(=O)N1C
REMARK SMILES IDX 39 1 38 2 37 3 36 4 28 6 27 7 25 8 26 9 23 11 24 12 19 13
REMARK SMILES IDX 18 14 16 15 17 16 11 18 10 19 8 20 9 21 12 24 13 25 14 26
REMARK SMILES IDX 15 27 20 28 21 29 22 30 29 32 30 33 31 34 32 35 33 36 34 37
REMARK SMILES IDX 35 38 57 43 58 44 59 45 60 46 61 47 62 49 66 50 67 51 68 52
REMARK SMILES IDX 69 53 70 54 71 55 2 56 1 57 3 58 4 59 5 60 6 62 7 63 63 65
REMARK SMILES IDX 64 66 65 67 40 69 41 70 42 71 44 72 43 73 45 74 46 75 47 76
REMARK SMILES IDX 55 77 56 78 48 79 49 80 50 81 54 82 51 83 53 84 52 85
REMARK H PARENT 38 5 27 10 18 17 10 22 22 31 34 39 34 40 35 41 35 42 61 48
REMARK H PARENT 5 61 65 68
REMARK Flexibility Score:  369.900
ROOT
ATOM      1  C   UNL     1      -7.493  -3.914  -4.665  1.00  0.00     0.117 C 
ENDROOT
BRANCH   1   2
ATOM      2  N   UNL     1      -7.322  -4.246  -3.250  1.00  0.00    -0.347 N 
ATOM      3  O   UNL     1      -8.230  -6.353  -3.311  1.00  0.00    -0.273 OA
ATOM      4  C   UNL     1      -7.622  -5.479  -2.703  1.00  0.00     0.243 C 
ATOM      5  H   UNL     1      -6.915  -3.564  -2.628  1.00  0.00     0.164 HD
BRANCH   4   6
ATOM      6  C   UNL     1      -7.266  -5.597  -1.199  1.00  0.00     0.171 C 
BRANCH   6   7
ATOM      7  N   UNL     1      -6.069  -6.434  -1.018  1.00  0.00    -0.344 N 
ATOM      8  C   UNL     1      -6.187  -7.760  -0.661  1.00  0.00     0.226 C 
ATOM      9  O   UNL     1      -7.269  -8.295  -0.457  1.00  0.00    -0.275 OA
ATOM     10  H   UNL     1      -5.155  -6.010  -1.112  1.00  0.00     0.164 HD
BRANCH   8  11
ATOM     11  C   UNL     1      -4.865  -8.501  -0.567  1.00  0.00     0.109 C 
ATOM     12  C   UNL     1      -3.875  -7.945  -1.590  1.00  0.00     0.021 C 
BRANCH  11  13
ATOM     13  C   UNL     1      -4.364  -8.491   0.891  1.00  0.00     0.204 C 
BRANCH  13  14
ATOM     14  N   UNL     1      -5.435  -8.174   1.841  1.00  0.00    -0.340 N 
ATOM     15  C   UNL     1      -5.461  -7.010   2.578  1.00  0.00     0.243 C 
ATOM     16  O   UNL     1      -4.617  -6.125   2.446  1.00  0.00    -0.273 OA
ATOM     17  H   UNL     1      -6.078  -8.924   2.108  1.00  0.00     0.164 HD
BRANCH  15  18
ATOM     18  C   UNL     1      -6.569  -6.988   3.660  1.00  0.00     0.171 C 
BRANCH  18  19
ATOM     19  N   UNL     1      -7.262  -8.272   3.576  1.00  0.00    -0.343 N 
ATOM     20  C   UNL     1      -8.608  -8.393   3.861  1.00  0.00     0.242 CG0
ATOM     21  O   UNL     1      -9.254  -7.457   4.326  1.00  0.00    -0.273 OA
ATOM     22  H   UNL     1      -6.743  -9.100   3.307  1.00  0.00     0.164 HD
ATOM     23  G   UNL     1      -9.180  -9.809   3.641  1.00  0.00     0.000 G0
ENDBRANCH  18  19
BRANCH  18  24
ATOM     24  C   UNL     1      -5.962  -6.766   5.051  1.00  0.00     0.038 C 
BRANCH  24  25
ATOM     25  C   UNL     1      -6.505  -5.531   5.801  1.00  0.00    -0.015 C 
ATOM     26  C   UNL     1      -7.468  -5.908   6.928  1.00  0.00     0.007 C 
ATOM     27  C   UNL     1      -7.209  -4.597   4.813  1.00  0.00     0.007 C 
ENDBRANCH  24  25
ENDBRANCH  18  24
ENDBRANCH  15  18
ENDBRANCH  13  14
BRANCH  13  28
ATOM     28  C   UNL     1      -3.750  -9.825   1.328  1.00  0.00     0.327 C 
ATOM     29  O   UNL     1      -3.118 -10.596   0.622  1.00  0.00    -0.250 OA
BRANCH  28  30
ATOM     30  O   UNL     1      -4.071 -10.165   2.593  1.00  0.00    -0.480 OA
ATOM     31  H   UNL     1      -4.192  -9.307   3.050  1.00  0.00     0.296 HD
ENDBRANCH  28  30
ENDBRANCH  13  28
ENDBRANCH  11  13
ENDBRANCH   8  11
ENDBRANCH   6   7
BRANCH   6  32
ATOM     32  C   UNL     1      -7.045  -4.194  -0.623  1.00  0.00     0.037 C 
BRANCH  32  33
ATOM     33  C   UNL     1      -7.155  -4.173   0.908  1.00  0.00     0.026 C 
BRANCH  33  34
ATOM     34  C   UNL     1      -8.422  -3.470   1.395  1.00  0.00     0.146 C 
BRANCH  34  35
ATOM     35  N   UNL     1      -9.567  -4.015   0.679  1.00  0.00    -0.254 NA
ATOM     36  C   UNL     1     -10.308  -4.877   1.270  1.00  0.00     0.185 C 
ATOM     37  N   UNL     1     -11.369  -5.382   0.621  1.00  0.00    -0.370 N 
ATOM     38  N   UNL     1     -10.189  -5.385   2.509  1.00  0.00    -0.370 N 
ATOM     39  H   UNL     1     -11.532  -5.040  -0.317  1.00  0.00     0.159 HD
ATOM     40  H   UNL     1     -12.089  -5.922   1.069  1.00  0.00     0.159 HD
ATOM     41  H   UNL     1     -10.755  -6.161   2.811  1.00  0.00     0.159 HD
ATOM     42  H   UNL     1      -9.426  -5.106   3.106  1.00  0.00     0.159 HD
ENDBRANCH  34  35
ENDBRANCH  33  34
ENDBRANCH  32  33
ENDBRANCH   6  32
ENDBRANCH   4   6
ENDBRANCH   1   2
BRANCH   1  43
ATOM     43  C   UNL     1      -6.094  -3.910  -5.345  1.00  0.00     0.102 C 
ATOM     44  C   UNL     1      -5.960  -2.860  -6.461  1.00  0.00     0.020 C 
BRANCH  43  45
ATOM     45  C   UNL     1      -5.684  -5.323  -5.770  1.00  0.00     0.225 C 
ATOM     46  O   UNL     1      -5.292  -6.174  -4.977  1.00  0.00    -0.275 OA
ATOM     47  N   UNL     1      -5.693  -5.561  -7.125  1.00  0.00    -0.342 N 
ATOM     48  H   UNL     1      -6.157  -4.911  -7.744  1.00  0.00     0.164 HD
BRANCH  47  49
ATOM     49  C   UNL     1      -5.358  -6.878  -7.674  1.00  0.00     0.192 C 
BRANCH  49  50
ATOM     50  C   UNL     1      -4.177  -6.748  -8.639  1.00  0.00     0.047 C 
BRANCH  50  51
ATOM     51  C   UNL     1      -3.892  -5.289  -9.017  1.00  0.00     0.103 C 
BRANCH  51  52
ATOM     52  C   UNL     1      -4.715  -4.837 -10.223  1.00  0.00     0.226 C 
ATOM     53  O   UNL     1      -5.047  -5.660 -11.077  1.00  0.00    -0.275 OA
BRANCH  52  54
ATOM     54  N   UNL     1      -5.113  -3.487 -10.239  1.00  0.00    -0.311 N 
ATOM     55  C   UNL     1      -6.528  -3.115 -10.105  1.00  0.00     0.153 C 
BRANCH  54  56
ATOM     56  C   UNL     1      -4.178  -2.449 -10.378  1.00  0.00     0.102 C 
ATOM     57  C   UNL     1      -3.761  -1.651  -9.381  1.00  0.00     0.043 C 
BRANCH  56  58
ATOM     58  C   UNL     1      -3.514  -2.177 -11.707  1.00  0.00     0.268 C 
ATOM     59  O   UNL     1      -2.521  -2.777 -12.095  1.00  0.00    -0.268 OA
ATOM     60  N   UNL     1      -4.177  -1.237 -12.460  1.00  0.00    -0.339 N 
ATOM     61  H   UNL     1      -4.987  -0.777 -12.062  1.00  0.00     0.164 HD
BRANCH  60  62
ATOM     62  C   UNL     1      -3.741  -0.868 -13.806  1.00  0.00     0.168 CG0
ATOM     63  C   UNL     1      -4.619   0.237 -14.381  1.00  0.00     0.041 C 
ATOM     64  G   UNL     1      -3.764  -2.113 -14.716  1.00  0.00     0.000 G0
ENDBRANCH  60  62
ENDBRANCH  56  58
ENDBRANCH  54  56
ENDBRANCH  52  54
ENDBRANCH  51  52
ENDBRANCH  50  51
ENDBRANCH  49  50
BRANCH  49  65
ATOM     65  C   UNL     1      -6.552  -7.504  -8.412  1.00  0.00     0.326 C 
ATOM     66  O   UNL     1      -6.869  -8.685  -8.378  1.00  0.00    -0.250 OA
BRANCH  65  67
ATOM     67  O   UNL     1      -7.244  -6.647  -9.194  1.00  0.00    -0.480 OA
ATOM     68  H   UNL     1      -7.654  -6.028  -8.552  1.00  0.00     0.296 HD
ENDBRANCH  65  67
ENDBRANCH  49  65
ENDBRANCH  47  49
ENDBRANCH  43  45
ENDBRANCH   1  43
BRANCH   1  69
ATOM     69  C   UNL     1      -8.332  -2.650  -4.705  1.00  0.00    -0.001 C 
ATOM     70  C   UNL     1      -8.150  -1.526  -3.989  1.00  0.00     0.001 C 
BRANCH  70  71
ATOM     71  C   UNL     1      -8.955  -0.304  -4.052  1.00  0.00    -0.055 C 
ATOM     72  C   UNL     1      -8.549   0.672  -4.893  1.00  0.00    -0.018 C 
ATOM     73  C   UNL     1     -10.181  -0.224  -3.182  1.00  0.00     0.044 C 
BRANCH  72  74
ATOM     74  C   UNL     1      -9.178   2.030  -5.166  1.00  0.00     0.038 C 
ATOM     75  C   UNL     1      -9.500   2.087  -6.664  1.00  0.00     0.015 C 
BRANCH  74  76
ATOM     76  C   UNL     1      -8.210   3.141  -4.664  1.00  0.00     0.128 C 
BRANCH  76  77
ATOM     77  O   UNL     1      -8.030   4.135  -5.687  1.00  0.00    -0.381 OA
ATOM     78  C   UNL     1      -8.188   5.469  -5.222  1.00  0.00     0.195 C 
ENDBRANCH  76  77
BRANCH  76  79
ATOM     79  C   UNL     1      -8.607   3.753  -3.297  1.00  0.00     0.068 C 
BRANCH  79  80
ATOM     80  C   UNL     1      -8.405   2.911  -2.060  1.00  0.00    -0.045 A 
ATOM     81  C   UNL     1      -9.350   2.909  -1.026  1.00  0.00     0.004 A 
ATOM     82  C   UNL     1      -7.245   2.135  -1.915  1.00  0.00     0.004 A 
ATOM     83  C   UNL     1      -9.148   2.139   0.121  1.00  0.00     0.000 A 
ATOM     84  C   UNL     1      -7.044   1.366  -0.767  1.00  0.00     0.000 A 
ATOM     85  C   UNL     1      -7.996   1.367   0.250  1.00  0.00     0.000 A 
ENDBRANCH  79  80
ENDBRANCH  76  79
ENDBRANCH  74  76
ENDBRANCH  72  74
ENDBRANCH  70  71
ENDBRANCH   1  69
TORSDOF 17
ENDMDL
MODEL 45
REMARK VINA RESULT:    -6.461      4.387     10.394
REMARK INTER + INTRA:         -25.797
REMARK INTER:                 -19.070
REMARK INTRA:                  -6.727
REMARK UNBOUND:                -6.494
REMARK SMILES C=C1C(=O)N[C@H](C)C(=O)N[C@@H](CC(C)C)C(=O)N[C@@H](C(=O)O)[C@H](C)C(=O)N[C@@H](CCCN=C(N)N)C(=O)N[C@@H](/C=C/C(C)=C/[C@H](C)[C@H](Cc2ccccc2)OC)[C@H](C)C(=O)N[C@@H](C(=O)O)CCC(=O)N1C
REMARK SMILES IDX 39 1 38 2 37 3 36 4 28 6 27 7 25 8 26 9 23 11 24 12 19 13
REMARK SMILES IDX 18 14 16 15 17 16 11 18 10 19 8 20 9 21 12 24 13 25 14 26
REMARK SMILES IDX 15 27 20 28 21 29 22 30 29 32 30 33 31 34 32 35 33 36 34 37
REMARK SMILES IDX 35 38 57 43 58 44 59 45 60 46 61 47 62 49 66 50 67 51 68 52
REMARK SMILES IDX 69 53 70 54 71 55 2 56 1 57 3 58 4 59 5 60 6 62 7 63 63 65
REMARK SMILES IDX 64 66 65 67 40 69 41 70 42 71 44 72 43 73 45 74 46 75 47 76
REMARK SMILES IDX 55 77 56 78 48 79 49 80 50 81 54 82 51 83 53 84 52 85
REMARK H PARENT 38 5 27 10 18 17 10 22 22 31 34 39 34 40 35 41 35 42 61 48
REMARK H PARENT 5 61 65 68
REMARK Flexibility Score:  369.900
ROOT
ATOM      1  C   UNL     1      -7.215  -0.367  -2.767  1.00  0.00     0.117 C 
ENDROOT
BRANCH   1   2
ATOM      2  N   UNL     1      -8.166   0.592  -2.202  1.00  0.00    -0.347 N 
ATOM      3  O   UNL     1      -6.727   2.366  -1.978  1.00  0.00    -0.273 OA
ATOM      4  C   UNL     1      -7.866   1.914  -1.937  1.00  0.00     0.243 C 
ATOM      5  H   UNL     1      -9.118   0.303  -2.033  1.00  0.00     0.164 HD
BRANCH   4   6
ATOM      6  C   UNL     1      -9.075   2.737  -1.423  1.00  0.00     0.171 C 
BRANCH   6   7
ATOM      7  N   UNL     1      -9.406   2.355  -0.041  1.00  0.00    -0.344 N 
ATOM      8  C   UNL     1     -10.371   1.404   0.213  1.00  0.00     0.226 C 
ATOM      9  O   UNL     1     -11.006   0.854  -0.677  1.00  0.00    -0.275 OA
ATOM     10  H   UNL     1      -8.950   2.837   0.724  1.00  0.00     0.164 HD
BRANCH   8  11
ATOM     11  C   UNL     1     -10.558   1.082   1.686  1.00  0.00     0.109 C 
ATOM     12  C   UNL     1      -9.666  -0.093   2.084  1.00  0.00     0.021 C 
BRANCH  11  13
ATOM     13  C   UNL     1     -10.364   2.359   2.528  1.00  0.00     0.204 C 
BRANCH  13  14
ATOM     14  N   UNL     1     -11.594   3.150   2.622  1.00  0.00    -0.340 N 
ATOM     15  C   UNL     1     -11.623   4.515   2.433  1.00  0.00     0.243 C 
ATOM     16  O   UNL     1     -10.625   5.158   2.111  1.00  0.00    -0.273 OA
ATOM     17  H   UNL     1     -12.421   2.707   3.032  1.00  0.00     0.164 HD
BRANCH  15  18
ATOM     18  C   UNL     1     -12.985   5.160   2.786  1.00  0.00     0.171 C 
BRANCH  18  19
ATOM     19  N   UNL     1     -13.928   4.062   2.991  1.00  0.00    -0.343 N 
ATOM     20  C   UNL     1     -15.105   3.969   2.274  1.00  0.00     0.242 CG0
ATOM     21  O   UNL     1     -15.477   4.872   1.529  1.00  0.00    -0.273 OA
ATOM     22  H   UNL     1     -13.719   3.350   3.682  1.00  0.00     0.164 HD
ATOM     23  G   UNL     1     -15.933   2.702   2.571  1.00  0.00     0.000 G0
ENDBRANCH  18  19
BRANCH  18  24
ATOM     24  C   UNL     1     -12.861   6.036   4.039  1.00  0.00     0.038 C 
BRANCH  24  25
ATOM     25  C   UNL     1     -13.782   7.274   4.054  1.00  0.00    -0.015 C 
ATOM     26  C   UNL     1     -15.117   7.002   4.747  1.00  0.00     0.007 C 
ATOM     27  C   UNL     1     -14.032   7.747   2.620  1.00  0.00     0.007 C 
ENDBRANCH  24  25
ENDBRANCH  18  24
ENDBRANCH  15  18
ENDBRANCH  13  14
BRANCH  13  28
ATOM     28  C   UNL     1      -9.897   2.073   3.959  1.00  0.00     0.327 C 
ATOM     29  O   UNL     1      -8.746   2.117   4.366  1.00  0.00    -0.250 OA
BRANCH  28  30
ATOM     30  O   UNL     1     -10.889   1.634   4.760  1.00  0.00    -0.480 OA
ATOM     31  H   UNL     1     -10.441   1.031   5.389  1.00  0.00     0.296 HD
ENDBRANCH  28  30
ENDBRANCH  13  28
ENDBRANCH  11  13
ENDBRANCH   8  11
ENDBRANCH   6   7
BRANCH   6  32
ATOM     32  C   UNL     1      -8.743   4.230  -1.514  1.00  0.00     0.037 C 
BRANCH  32  33
ATOM     33  C   UNL     1      -9.333   4.879  -2.774  1.00  0.00     0.026 C 
BRANCH  33  34
ATOM     34  C   UNL     1      -8.482   4.623  -4.018  1.00  0.00     0.146 C 
BRANCH  34  35
ATOM     35  N   UNL     1      -7.121   5.073  -3.758  1.00  0.00    -0.254 NA
ATOM     36  C   UNL     1      -6.738   6.190  -4.254  1.00  0.00     0.185 C 
ATOM     37  N   UNL     1      -5.489   6.617  -4.016  1.00  0.00    -0.370 N 
ATOM     38  N   UNL     1      -7.428   7.056  -5.018  1.00  0.00    -0.370 N 
ATOM     39  H   UNL     1      -4.908   6.023  -3.437  1.00  0.00     0.159 HD
ATOM     40  H   UNL     1      -5.171   7.550  -4.218  1.00  0.00     0.159 HD
ATOM     41  H   UNL     1      -6.972   7.835  -5.463  1.00  0.00     0.159 HD
ATOM     42  H   UNL     1      -8.378   6.855  -5.290  1.00  0.00     0.159 HD
ENDBRANCH  34  35
ENDBRANCH  33  34
ENDBRANCH  32  33
ENDBRANCH   6  32
ENDBRANCH   4   6
ENDBRANCH   1   2
BRANCH   1  43
ATOM     43  C   UNL     1      -7.570  -0.592  -4.265  1.00  0.00     0.102 C 
ATOM     44  C   UNL     1      -9.017  -1.066  -4.486  1.00  0.00     0.020 C 
BRANCH  43  45
ATOM     45  C   UNL     1      -6.518  -1.465  -4.954  1.00  0.00     0.225 C 
ATOM     46  O   UNL     1      -5.351  -1.115  -5.106  1.00  0.00    -0.275 OA
ATOM     47  N   UNL     1      -6.983  -2.645  -5.487  1.00  0.00    -0.342 N 
ATOM     48  H   UNL     1      -7.898  -2.986  -5.225  1.00  0.00     0.164 HD
BRANCH  47  49
ATOM     49  C   UNL     1      -6.083  -3.597  -6.144  1.00  0.00     0.192 C 
BRANCH  49  50
ATOM     50  C   UNL     1      -6.188  -3.440  -7.663  1.00  0.00     0.047 C 
BRANCH  50  51
ATOM     51  C   UNL     1      -4.873  -2.959  -8.291  1.00  0.00     0.103 C 
BRANCH  51  52
ATOM     52  C   UNL     1      -4.082  -4.107  -8.915  1.00  0.00     0.226 C 
ATOM     53  O   UNL     1      -4.602  -4.801  -9.792  1.00  0.00    -0.275 OA
BRANCH  52  54
ATOM     54  N   UNL     1      -2.749  -4.254  -8.490  1.00  0.00    -0.311 N 
ATOM     55  C   UNL     1      -1.663  -3.504  -9.134  1.00  0.00     0.153 C 
BRANCH  54  56
ATOM     56  C   UNL     1      -2.408  -5.115  -7.434  1.00  0.00     0.102 C 
ATOM     57  C   UNL     1      -2.119  -4.720  -6.183  1.00  0.00     0.043 C 
BRANCH  56  58
ATOM     58  C   UNL     1      -2.386  -6.613  -7.631  1.00  0.00     0.268 C 
ATOM     59  O   UNL     1      -3.397  -7.280  -7.808  1.00  0.00    -0.268 OA
ATOM     60  N   UNL     1      -1.116  -7.136  -7.657  1.00  0.00    -0.339 N 
ATOM     61  H   UNL     1      -0.331  -6.518  -7.492  1.00  0.00     0.164 HD
BRANCH  60  62
ATOM     62  C   UNL     1      -0.863  -8.556  -7.899  1.00  0.00     0.168 CG0
ATOM     63  C   UNL     1      -0.705  -9.314  -6.587  1.00  0.00     0.041 C 
ATOM     64  G   UNL     1       0.396  -8.715  -8.776  1.00  0.00     0.000 G0
ENDBRANCH  60  62
ENDBRANCH  56  58
ENDBRANCH  54  56
ENDBRANCH  52  54
ENDBRANCH  51  52
ENDBRANCH  50  51
ENDBRANCH  49  50
BRANCH  49  65
ATOM     65  C   UNL     1      -6.412  -5.048  -5.758  1.00  0.00     0.326 C 
ATOM     66  O   UNL     1      -7.228  -5.391  -4.915  1.00  0.00    -0.250 OA
BRANCH  65  67
ATOM     67  O   UNL     1      -5.672  -5.982  -6.394  1.00  0.00    -0.480 OA
ATOM     68  H   UNL     1      -6.066  -6.831  -6.098  1.00  0.00     0.296 HD
ENDBRANCH  65  67
ENDBRANCH  49  65
ENDBRANCH  47  49
ENDBRANCH  43  45
ENDBRANCH   1  43
BRANCH   1  69
ATOM     69  C   UNL     1      -7.207  -1.559  -1.828  1.00  0.00    -0.001 C 
ATOM     70  C   UNL     1      -8.137  -1.885  -0.913  1.00  0.00     0.001 C 
BRANCH  70  71
ATOM     71  C   UNL     1      -8.129  -3.051  -0.027  1.00  0.00    -0.055 C 
ATOM     72  C   UNL     1      -6.943  -3.650   0.211  1.00  0.00    -0.018 C 
ATOM     73  C   UNL     1      -9.442  -3.495   0.562  1.00  0.00     0.044 C 
BRANCH  72  74
ATOM     74  C   UNL     1      -6.632  -4.860   1.080  1.00  0.00     0.038 C 
ATOM     75  C   UNL     1      -5.226  -4.656   1.655  1.00  0.00     0.015 C 
BRANCH  74  76
ATOM     76  C   UNL     1      -6.806  -6.149   0.223  1.00  0.00     0.128 C 
BRANCH  76  77
ATOM     77  O   UNL     1      -8.101  -6.727   0.463  1.00  0.00    -0.381 OA
ATOM     78  C   UNL     1      -8.354  -7.014   1.832  1.00  0.00     0.195 C 
ENDBRANCH  76  77
BRANCH  76  79
ATOM     79  C   UNL     1      -6.509  -5.948  -1.284  1.00  0.00     0.068 C 
BRANCH  79  80
ATOM     80  C   UNL     1      -5.200  -6.473  -1.822  1.00  0.00    -0.045 A 
ATOM     81  C   UNL     1      -4.732  -7.746  -1.469  1.00  0.00     0.004 A 
ATOM     82  C   UNL     1      -4.413  -5.677  -2.668  1.00  0.00     0.004 A 
ATOM     83  C   UNL     1      -3.513  -8.218  -1.961  1.00  0.00     0.000 A 
ATOM     84  C   UNL     1      -3.194  -6.150  -3.158  1.00  0.00     0.000 A 
ATOM     85  C   UNL     1      -2.745  -7.421  -2.806  1.00  0.00     0.000 A 
ENDBRANCH  79  80
ENDBRANCH  76  79
ENDBRANCH  74  76
ENDBRANCH  72  74
ENDBRANCH  70  71
ENDBRANCH   1  69
TORSDOF 17
ENDMDL
MODEL 46
REMARK VINA RESULT:    -6.443      3.362      5.489
REMARK INTER + INTRA:         -25.742
REMARK INTER:                 -18.956
REMARK INTRA:                  -6.787
REMARK UNBOUND:                -6.494
REMARK SMILES C=C1C(=O)N[C@H](C)C(=O)N[C@@H](CC(C)C)C(=O)N[C@@H](C(=O)O)[C@H](C)C(=O)N[C@@H](CCCN=C(N)N)C(=O)N[C@@H](/C=C/C(C)=C/[C@H](C)[C@H](Cc2ccccc2)OC)[C@H](C)C(=O)N[C@@H](C(=O)O)CCC(=O)N1C
REMARK SMILES IDX 39 1 38 2 37 3 36 4 28 6 27 7 25 8 26 9 23 11 24 12 19 13
REMARK SMILES IDX 18 14 16 15 17 16 11 18 10 19 8 20 9 21 12 24 13 25 14 26
REMARK SMILES IDX 15 27 20 28 21 29 22 30 29 32 30 33 31 34 32 35 33 36 34 37
REMARK SMILES IDX 35 38 57 43 58 44 59 45 60 46 61 47 62 49 66 50 67 51 68 52
REMARK SMILES IDX 69 53 70 54 71 55 2 56 1 57 3 58 4 59 5 60 6 62 7 63 63 65
REMARK SMILES IDX 64 66 65 67 40 69 41 70 42 71 44 72 43 73 45 74 46 75 47 76
REMARK SMILES IDX 55 77 56 78 48 79 49 80 50 81 54 82 51 83 53 84 52 85
REMARK H PARENT 38 5 27 10 18 17 10 22 22 31 34 39 34 40 35 41 35 42 61 48
REMARK H PARENT 5 61 65 68
REMARK Flexibility Score:  369.900
ROOT
ATOM      1  C   UNL     1      -6.364  -6.805  -0.069  1.00  0.00     0.117 C 
ENDROOT
BRANCH   1   2
ATOM      2  N   UNL     1      -6.600  -5.399  -0.400  1.00  0.00    -0.347 N 
ATOM      3  O   UNL     1      -8.786  -5.599  -1.072  1.00  0.00    -0.273 OA
ATOM      4  C   UNL     1      -7.824  -4.892  -0.789  1.00  0.00     0.243 C 
ATOM      5  H   UNL     1      -5.849  -4.734  -0.296  1.00  0.00     0.164 HD
BRANCH   4   6
ATOM      6  C   UNL     1      -7.825  -3.356  -0.997  1.00  0.00     0.171 C 
BRANCH   6   7
ATOM      7  N   UNL     1      -7.913  -3.030  -2.429  1.00  0.00    -0.344 N 
ATOM      8  C   UNL     1      -6.847  -3.264  -3.270  1.00  0.00     0.226 C 
ATOM      9  O   UNL     1      -5.782  -3.724  -2.874  1.00  0.00    -0.275 OA
ATOM     10  H   UNL     1      -8.752  -2.586  -2.781  1.00  0.00     0.164 HD
BRANCH   8  11
ATOM     11  C   UNL     1      -7.113  -2.926  -4.726  1.00  0.00     0.109 C 
ATOM     12  C   UNL     1      -8.617  -2.915  -4.997  1.00  0.00     0.021 C 
BRANCH  11  13
ATOM     13  C   UNL     1      -6.377  -1.625  -5.103  1.00  0.00     0.204 C 
BRANCH  13  14
ATOM     14  N   UNL     1      -5.886  -1.649  -6.484  1.00  0.00    -0.340 N 
ATOM     15  C   UNL     1      -4.831  -2.437  -6.890  1.00  0.00     0.243 C 
ATOM     16  O   UNL     1      -4.265  -3.224  -6.133  1.00  0.00    -0.273 OA
ATOM     17  H   UNL     1      -6.208  -0.915  -7.121  1.00  0.00     0.164 HD
BRANCH  15  18
ATOM     18  C   UNL     1      -4.358  -2.143  -8.335  1.00  0.00     0.171 C 
BRANCH  18  19
ATOM     19  N   UNL     1      -5.406  -1.340  -8.963  1.00  0.00    -0.343 N 
ATOM     20  C   UNL     1      -5.648  -1.393 -10.322  1.00  0.00     0.242 CG0
ATOM     21  O   UNL     1      -4.911  -2.014 -11.083  1.00  0.00    -0.273 OA
ATOM     22  H   UNL     1      -5.968  -0.721  -8.390  1.00  0.00     0.164 HD
ATOM     23  G   UNL     1      -6.843  -0.537 -10.789  1.00  0.00     0.000 G0
ENDBRANCH  18  19
BRANCH  18  24
ATOM     24  C   UNL     1      -3.014  -1.404  -8.324  1.00  0.00     0.038 C 
BRANCH  24  25
ATOM     25  C   UNL     1      -1.776  -2.317  -8.453  1.00  0.00    -0.015 C 
ATOM     26  C   UNL     1      -0.493  -1.632  -7.980  1.00  0.00     0.007 C 
ATOM     27  C   UNL     1      -1.615  -2.764  -9.908  1.00  0.00     0.007 C 
ENDBRANCH  24  25
ENDBRANCH  18  24
ENDBRANCH  15  18
ENDBRANCH  13  14
BRANCH  13  28
ATOM     28  C   UNL     1      -7.247  -0.374  -4.952  1.00  0.00     0.327 C 
ATOM     29  O   UNL     1      -7.754   0.268  -5.860  1.00  0.00    -0.250 OA
BRANCH  28  30
ATOM     30  O   UNL     1      -7.329   0.064  -3.679  1.00  0.00    -0.480 OA
ATOM     31  H   UNL     1      -8.222   0.463  -3.618  1.00  0.00     0.296 HD
ENDBRANCH  28  30
ENDBRANCH  13  28
ENDBRANCH  11  13
ENDBRANCH   8  11
ENDBRANCH   6   7
BRANCH   6  32
ATOM     32  C   UNL     1      -8.998  -2.744  -0.223  1.00  0.00     0.037 C 
BRANCH  32  33
ATOM     33  C   UNL     1      -8.740  -2.711   1.290  1.00  0.00     0.026 C 
BRANCH  33  34
ATOM     34  C   UNL     1      -9.120  -1.370   1.919  1.00  0.00     0.146 C 
BRANCH  34  35
ATOM     35  N   UNL     1      -9.612  -1.607   3.269  1.00  0.00    -0.254 NA
ATOM     36  C   UNL     1      -9.491  -0.676   4.140  1.00  0.00     0.185 C 
ATOM     37  N   UNL     1      -9.945  -0.882   5.386  1.00  0.00    -0.370 N 
ATOM     38  N   UNL     1      -8.950   0.548   3.999  1.00  0.00    -0.370 N 
ATOM     39  H   UNL     1     -10.377  -1.779   5.569  1.00  0.00     0.159 HD
ATOM     40  H   UNL     1     -10.045  -0.151   6.069  1.00  0.00     0.159 HD
ATOM     41  H   UNL     1      -8.787   1.140   4.796  1.00  0.00     0.159 HD
ATOM     42  H   UNL     1      -8.554   0.834   3.117  1.00  0.00     0.159 HD
ENDBRANCH  34  35
ENDBRANCH  33  34
ENDBRANCH  32  33
ENDBRANCH   6  32
ENDBRANCH   4   6
ENDBRANCH   1   2
BRANCH   1  43
ATOM     43  C   UNL     1      -6.149  -6.923   1.468  1.00  0.00     0.102 C 
ATOM     44  C   UNL     1      -5.064  -7.940   1.858  1.00  0.00     0.020 C 
BRANCH  43  45
ATOM     45  C   UNL     1      -7.482  -7.127   2.195  1.00  0.00     0.225 C 
ATOM     46  O   UNL     1      -8.493  -7.545   1.638  1.00  0.00    -0.275 OA
ATOM     47  N   UNL     1      -7.508  -6.720   3.509  1.00  0.00    -0.342 N 
ATOM     48  H   UNL     1      -6.641  -6.524   3.990  1.00  0.00     0.164 HD
BRANCH  47  49
ATOM     49  C   UNL     1      -8.705  -6.887   4.340  1.00  0.00     0.192 C 
BRANCH  49  50
ATOM     50  C   UNL     1      -8.643  -5.926   5.530  1.00  0.00     0.047 C 
BRANCH  50  51
ATOM     51  C   UNL     1      -8.364  -4.480   5.097  1.00  0.00     0.103 C 
BRANCH  51  52
ATOM     52  C   UNL     1      -7.013  -3.981   5.605  1.00  0.00     0.226 C 
ATOM     53  O   UNL     1      -5.974  -4.443   5.130  1.00  0.00    -0.275 OA
BRANCH  52  54
ATOM     54  N   UNL     1      -7.045  -2.943   6.555  1.00  0.00    -0.311 N 
ATOM     55  C   UNL     1      -6.497  -1.616   6.245  1.00  0.00     0.153 C 
BRANCH  54  56
ATOM     56  C   UNL     1      -7.605  -3.134   7.829  1.00  0.00     0.102 C 
ATOM     57  C   UNL     1      -8.741  -2.564   8.262  1.00  0.00     0.043 C 
BRANCH  56  58
ATOM     58  C   UNL     1      -6.963  -4.070   8.826  1.00  0.00     0.268 C 
ATOM     59  O   UNL     1      -5.987  -3.766   9.498  1.00  0.00    -0.268 OA
ATOM     60  N   UNL     1      -7.626  -5.268   8.947  1.00  0.00    -0.339 N 
ATOM     61  H   UNL     1      -8.422  -5.448   8.345  1.00  0.00     0.164 HD
BRANCH  60  62
ATOM     62  C   UNL     1      -7.211  -6.296   9.900  1.00  0.00     0.168 CG0
ATOM     63  C   UNL     1      -8.298  -7.348  10.079  1.00  0.00     0.041 C 
ATOM     64  G   UNL     1      -6.862  -5.637  11.251  1.00  0.00     0.000 G0
ENDBRANCH  60  62
ENDBRANCH  56  58
ENDBRANCH  54  56
ENDBRANCH  52  54
ENDBRANCH  51  52
ENDBRANCH  50  51
ENDBRANCH  49  50
BRANCH  49  65
ATOM     65  C   UNL     1      -8.840  -8.328   4.855  1.00  0.00     0.326 C 
ATOM     66  O   UNL     1      -8.372  -8.756   5.900  1.00  0.00    -0.250 OA
BRANCH  65  67
ATOM     67  O   UNL     1      -9.493  -9.167   4.020  1.00  0.00    -0.480 OA
ATOM     68  H   UNL     1      -9.068 -10.036   4.187  1.00  0.00     0.296 HD
ENDBRANCH  65  67
ENDBRANCH  49  65
ENDBRANCH  47  49
ENDBRANCH  43  45
ENDBRANCH   1  43
BRANCH   1  69
ATOM     69  C   UNL     1      -5.265  -7.281  -1.001  1.00  0.00    -0.001 C 
ATOM     70  C   UNL     1      -5.024  -6.869  -2.258  1.00  0.00     0.001 C 
BRANCH  70  71
ATOM     71  C   UNL     1      -3.947  -7.320  -3.141  1.00  0.00    -0.055 C 
ATOM     72  C   UNL     1      -3.773  -6.662  -4.306  1.00  0.00    -0.018 C 
ATOM     73  C   UNL     1      -3.104  -8.482  -2.684  1.00  0.00     0.044 C 
BRANCH  72  74
ATOM     74  C   UNL     1      -2.747  -6.902  -5.405  1.00  0.00     0.038 C 
ATOM     75  C   UNL     1      -2.011  -5.577  -5.635  1.00  0.00     0.015 C 
BRANCH  74  76
ATOM     76  C   UNL     1      -3.478  -7.469  -6.657  1.00  0.00     0.128 C 
BRANCH  76  77
ATOM     77  O   UNL     1      -3.476  -8.906  -6.618  1.00  0.00    -0.381 OA
ATOM     78  C   UNL     1      -2.174  -9.475  -6.589  1.00  0.00     0.195 C 
ENDBRANCH  76  77
BRANCH  76  79
ATOM     79  C   UNL     1      -4.892  -6.877  -6.883  1.00  0.00     0.068 C 
BRANCH  79  80
ATOM     80  C   UNL     1      -5.312  -6.568  -8.299  1.00  0.00    -0.045 A 
ATOM     81  C   UNL     1      -4.581  -5.672  -9.090  1.00  0.00     0.004 A 
ATOM     82  C   UNL     1      -6.466  -7.157  -8.839  1.00  0.00     0.004 A 
ATOM     83  C   UNL     1      -4.984  -5.381 -10.395  1.00  0.00     0.000 A 
ATOM     84  C   UNL     1      -6.868  -6.865 -10.144  1.00  0.00     0.000 A 
ATOM     85  C   UNL     1      -6.127  -5.978 -10.922  1.00  0.00     0.000 A 
ENDBRANCH  79  80
ENDBRANCH  76  79
ENDBRANCH  74  76
ENDBRANCH  72  74
ENDBRANCH  70  71
ENDBRANCH   1  69
TORSDOF 17
ENDMDL
MODEL 47
REMARK VINA RESULT:    -6.425      4.327     10.831
REMARK INTER + INTRA:         -25.690
REMARK INTER:                 -18.480
REMARK INTRA:                  -7.209
REMARK UNBOUND:                -6.494
REMARK SMILES C=C1C(=O)N[C@H](C)C(=O)N[C@@H](CC(C)C)C(=O)N[C@@H](C(=O)O)[C@H](C)C(=O)N[C@@H](CCCN=C(N)N)C(=O)N[C@@H](/C=C/C(C)=C/[C@H](C)[C@H](Cc2ccccc2)OC)[C@H](C)C(=O)N[C@@H](C(=O)O)CCC(=O)N1C
REMARK SMILES IDX 39 1 38 2 37 3 36 4 28 6 27 7 25 8 26 9 23 11 24 12 19 13
REMARK SMILES IDX 18 14 16 15 17 16 11 18 10 19 8 20 9 21 12 24 13 25 14 26
REMARK SMILES IDX 15 27 20 28 21 29 22 30 29 32 30 33 31 34 32 35 33 36 34 37
REMARK SMILES IDX 35 38 57 43 58 44 59 45 60 46 61 47 62 49 66 50 67 51 68 52
REMARK SMILES IDX 69 53 70 54 71 55 2 56 1 57 3 58 4 59 5 60 6 62 7 63 63 65
REMARK SMILES IDX 64 66 65 67 40 69 41 70 42 71 44 72 43 73 45 74 46 75 47 76
REMARK SMILES IDX 55 77 56 78 48 79 49 80 50 81 54 82 51 83 53 84 52 85
REMARK H PARENT 38 5 27 10 18 17 10 22 22 31 34 39 34 40 35 41 35 42 61 48
REMARK H PARENT 5 61 65 68
REMARK Flexibility Score:  369.900
ROOT
ATOM      1  C   UNL     1      -5.916  -4.167  -0.762  1.00  0.00     0.117 C 
ENDROOT
BRANCH   1   2
ATOM      2  N   UNL     1      -7.124  -3.460  -0.333  1.00  0.00    -0.347 N 
ATOM      3  O   UNL     1      -6.632  -1.415  -1.252  1.00  0.00    -0.273 OA
ATOM      4  C   UNL     1      -7.428  -2.161  -0.692  1.00  0.00     0.243 C 
ATOM      5  H   UNL     1      -7.813  -3.948   0.219  1.00  0.00     0.164 HD
BRANCH   4   6
ATOM      6  C   UNL     1      -8.807  -1.678  -0.177  1.00  0.00     0.171 C 
BRANCH   6   7
ATOM      7  N   UNL     1      -8.885  -1.813   1.287  1.00  0.00    -0.344 N 
ATOM      8  C   UNL     1      -9.996  -2.371   1.883  1.00  0.00     0.226 C 
ATOM      9  O   UNL     1     -10.966  -2.756   1.242  1.00  0.00    -0.275 OA
ATOM     10  H   UNL     1      -8.132  -1.445   1.854  1.00  0.00     0.164 HD
BRANCH   8  11
ATOM     11  C   UNL     1      -9.901  -2.490   3.394  1.00  0.00     0.109 C 
ATOM     12  C   UNL     1      -8.436  -2.486   3.831  1.00  0.00     0.021 C 
BRANCH  11  13
ATOM     13  C   UNL     1     -10.779  -1.410   4.058  1.00  0.00     0.204 C 
BRANCH  13  14
ATOM     14  N   UNL     1     -11.054  -0.290   3.153  1.00  0.00    -0.340 N 
ATOM     15  C   UNL     1     -10.373   0.907   3.214  1.00  0.00     0.243 C 
ATOM     16  O   UNL     1      -9.442   1.098   3.995  1.00  0.00    -0.273 OA
ATOM     17  H   UNL     1     -11.907  -0.326   2.588  1.00  0.00     0.164 HD
BRANCH  15  18
ATOM     18  C   UNL     1     -10.973   2.008   2.305  1.00  0.00     0.171 C 
BRANCH  18  19
ATOM     19  N   UNL     1     -11.862   2.807   3.147  1.00  0.00    -0.343 N 
ATOM     20  C   UNL     1     -13.174   2.440   3.375  1.00  0.00     0.242 CG0
ATOM     21  O   UNL     1     -13.693   1.501   2.776  1.00  0.00    -0.273 OA
ATOM     22  H   UNL     1     -11.512   3.658   3.572  1.00  0.00     0.164 HD
ATOM     23  G   UNL     1     -13.932   3.363   4.351  1.00  0.00     0.000 G0
ENDBRANCH  18  19
BRANCH  18  24
ATOM     24  C   UNL     1      -9.862   2.866   1.688  1.00  0.00     0.038 C 
BRANCH  24  25
ATOM     25  C   UNL     1     -10.322   3.785   0.537  1.00  0.00    -0.015 C 
ATOM     26  C   UNL     1      -9.493   3.590  -0.734  1.00  0.00     0.007 C 
ATOM     27  C   UNL     1     -10.245   5.247   0.983  1.00  0.00     0.007 C 
ENDBRANCH  24  25
ENDBRANCH  18  24
ENDBRANCH  15  18
ENDBRANCH  13  14
BRANCH  13  28
ATOM     28  C   UNL     1     -12.130  -1.944   4.543  1.00  0.00     0.327 C 
ATOM     29  O   UNL     1     -13.033  -2.370   3.839  1.00  0.00    -0.250 OA
BRANCH  28  30
ATOM     30  O   UNL     1     -12.309  -1.800   5.871  1.00  0.00    -0.480 OA
ATOM     31  H   UNL     1     -11.542  -2.260   6.270  1.00  0.00     0.296 HD
ENDBRANCH  28  30
ENDBRANCH  13  28
ENDBRANCH  11  13
ENDBRANCH   8  11
ENDBRANCH   6   7
BRANCH   6  32
ATOM     32  C   UNL     1      -9.024  -0.223  -0.605  1.00  0.00     0.037 C 
BRANCH  32  33
ATOM     33  C   UNL     1     -10.470   0.042  -1.047  1.00  0.00     0.026 C 
BRANCH  33  34
ATOM     34  C   UNL     1     -11.046  -1.104  -1.879  1.00  0.00     0.146 C 
BRANCH  34  35
ATOM     35  N   UNL     1     -12.434  -1.314  -1.492  1.00  0.00    -0.254 NA
ATOM     36  C   UNL     1     -13.340  -1.258  -2.396  1.00  0.00     0.185 C 
ATOM     37  N   UNL     1     -14.622  -1.454  -2.051  1.00  0.00    -0.370 N 
ATOM     38  N   UNL     1     -13.205  -1.020  -3.713  1.00  0.00    -0.370 N 
ATOM     39  H   UNL     1     -14.804  -1.650  -1.075  1.00  0.00     0.159 HD
ATOM     40  H   UNL     1     -15.361  -1.599  -2.717  1.00  0.00     0.159 HD
ATOM     41  H   UNL     1     -14.009  -0.863  -4.299  1.00  0.00     0.159 HD
ATOM     42  H   UNL     1     -12.297  -0.838  -4.111  1.00  0.00     0.159 HD
ENDBRANCH  34  35
ENDBRANCH  33  34
ENDBRANCH  32  33
ENDBRANCH   6  32
ENDBRANCH   4   6
ENDBRANCH   1   2
BRANCH   1  43
ATOM     43  C   UNL     1      -6.258  -5.008  -2.025  1.00  0.00     0.102 C 
ATOM     44  C   UNL     1      -5.024  -5.639  -2.692  1.00  0.00     0.020 C 
BRANCH  43  45
ATOM     45  C   UNL     1      -7.149  -4.218  -2.988  1.00  0.00     0.225 C 
ATOM     46  O   UNL     1      -8.369  -4.348  -3.032  1.00  0.00    -0.275 OA
ATOM     47  N   UNL     1      -6.484  -3.408  -3.880  1.00  0.00    -0.342 N 
ATOM     48  H   UNL     1      -5.507  -3.197  -3.733  1.00  0.00     0.164 HD
BRANCH  47  49
ATOM     49  C   UNL     1      -7.209  -2.566  -4.837  1.00  0.00     0.192 C 
BRANCH  49  50
ATOM     50  C   UNL     1      -6.945  -3.062  -6.261  1.00  0.00     0.047 C 
BRANCH  50  51
ATOM     51  C   UNL     1      -6.016  -4.283  -6.290  1.00  0.00     0.103 C 
BRANCH  51  52
ATOM     52  C   UNL     1      -4.576  -3.901  -6.629  1.00  0.00     0.226 C 
ATOM     53  O   UNL     1      -4.096  -2.863  -6.170  1.00  0.00    -0.275 OA
BRANCH  52  54
ATOM     54  N   UNL     1      -3.849  -4.823  -7.405  1.00  0.00    -0.311 N 
ATOM     55  C   UNL     1      -4.026  -4.892  -8.861  1.00  0.00     0.153 C 
BRANCH  54  56
ATOM     56  C   UNL     1      -2.926  -5.705  -6.819  1.00  0.00     0.102 C 
ATOM     57  C   UNL     1      -1.657  -5.395  -6.509  1.00  0.00     0.043 C 
BRANCH  56  58
ATOM     58  C   UNL     1      -3.331  -7.111  -6.440  1.00  0.00     0.268 C 
ATOM     59  O   UNL     1      -4.287  -7.361  -5.720  1.00  0.00    -0.268 OA
ATOM     60  N   UNL     1      -2.557  -8.076  -7.040  1.00  0.00    -0.339 N 
ATOM     61  H   UNL     1      -1.775  -7.785  -7.616  1.00  0.00     0.164 HD
BRANCH  60  62
ATOM     62  C   UNL     1      -2.814  -9.504  -6.860  1.00  0.00     0.168 CG0
ATOM     63  C   UNL     1      -1.785 -10.132  -5.929  1.00  0.00     0.041 C 
ATOM     64  G   UNL     1      -2.810 -10.207  -8.233  1.00  0.00     0.000 G0
ENDBRANCH  60  62
ENDBRANCH  56  58
ENDBRANCH  54  56
ENDBRANCH  52  54
ENDBRANCH  51  52
ENDBRANCH  50  51
ENDBRANCH  49  50
BRANCH  49  65
ATOM     65  C   UNL     1      -6.790  -1.092  -4.725  1.00  0.00     0.326 C 
ATOM     66  O   UNL     1      -7.553  -0.138  -4.674  1.00  0.00    -0.250 OA
BRANCH  65  67
ATOM     67  O   UNL     1      -5.455  -0.882  -4.745  1.00  0.00    -0.480 OA
ATOM     68  H   UNL     1      -5.172  -1.272  -5.600  1.00  0.00     0.296 HD
ENDBRANCH  65  67
ENDBRANCH  49  65
ENDBRANCH  47  49
ENDBRANCH  43  45
ENDBRANCH   1  43
BRANCH   1  69
ATOM     69  C   UNL     1      -5.381  -4.875   0.469  1.00  0.00    -0.001 C 
ATOM     70  C   UNL     1      -6.014  -5.074   1.638  1.00  0.00     0.001 C 
BRANCH  70  71
ATOM     71  C   UNL     1      -5.495  -5.779   2.812  1.00  0.00    -0.055 C 
ATOM     72  C   UNL     1      -5.952  -5.401   4.024  1.00  0.00    -0.018 C 
ATOM     73  C   UNL     1      -4.493  -6.881   2.583  1.00  0.00     0.044 C 
BRANCH  72  74
ATOM     74  C   UNL     1      -5.598  -5.947   5.400  1.00  0.00     0.038 C 
ATOM     75  C   UNL     1      -6.906  -6.055   6.194  1.00  0.00     0.015 C 
BRANCH  74  76
ATOM     76  C   UNL     1      -4.519  -5.027   6.042  1.00  0.00     0.128 C 
BRANCH  76  77
ATOM     77  O   UNL     1      -3.216  -5.381   5.549  1.00  0.00    -0.381 OA
ATOM     78  C   UNL     1      -2.724  -6.610   6.065  1.00  0.00     0.195 C 
ENDBRANCH  76  77
BRANCH  76  79
ATOM     79  C   UNL     1      -4.821  -3.513   5.907  1.00  0.00     0.068 C 
BRANCH  79  80
ATOM     80  C   UNL     1      -5.023  -2.716   7.173  1.00  0.00    -0.045 A 
ATOM     81  C   UNL     1      -4.347  -3.053   8.353  1.00  0.00     0.004 A 
ATOM     82  C   UNL     1      -5.918  -1.636   7.193  1.00  0.00     0.004 A 
ATOM     83  C   UNL     1      -4.550  -2.319   9.524  1.00  0.00     0.000 A 
ATOM     84  C   UNL     1      -6.121  -0.904   8.365  1.00  0.00     0.000 A 
ATOM     85  C   UNL     1      -5.436  -1.244   9.529  1.00  0.00     0.000 A 
ENDBRANCH  79  80
ENDBRANCH  76  79
ENDBRANCH  74  76
ENDBRANCH  72  74
ENDBRANCH  70  71
ENDBRANCH   1  69
TORSDOF 17
ENDMDL
MODEL 48
REMARK VINA RESULT:    -6.417      3.625      9.579
REMARK INTER + INTRA:         -25.665
REMARK INTER:                 -17.359
REMARK INTRA:                  -8.306
REMARK UNBOUND:                -6.494
REMARK SMILES C=C1C(=O)N[C@H](C)C(=O)N[C@@H](CC(C)C)C(=O)N[C@@H](C(=O)O)[C@H](C)C(=O)N[C@@H](CCCN=C(N)N)C(=O)N[C@@H](/C=C/C(C)=C/[C@H](C)[C@H](Cc2ccccc2)OC)[C@H](C)C(=O)N[C@@H](C(=O)O)CCC(=O)N1C
REMARK SMILES IDX 39 1 38 2 37 3 36 4 28 6 27 7 25 8 26 9 23 11 24 12 19 13
REMARK SMILES IDX 18 14 16 15 17 16 11 18 10 19 8 20 9 21 12 24 13 25 14 26
REMARK SMILES IDX 15 27 20 28 21 29 22 30 29 32 30 33 31 34 32 35 33 36 34 37
REMARK SMILES IDX 35 38 57 43 58 44 59 45 60 46 61 47 62 49 66 50 67 51 68 52
REMARK SMILES IDX 69 53 70 54 71 55 2 56 1 57 3 58 4 59 5 60 6 62 7 63 63 65
REMARK SMILES IDX 64 66 65 67 40 69 41 70 42 71 44 72 43 73 45 74 46 75 47 76
REMARK SMILES IDX 55 77 56 78 48 79 49 80 50 81 54 82 51 83 53 84 52 85
REMARK H PARENT 38 5 27 10 18 17 10 22 22 31 34 39 34 40 35 41 35 42 61 48
REMARK H PARENT 5 61 65 68
REMARK Flexibility Score:  369.900
ROOT
ATOM      1  C   UNL     1      -9.532  -2.858  -0.137  1.00  0.00     0.117 C 
ENDROOT
BRANCH   1   2
ATOM      2  N   UNL     1      -8.557  -3.454  -1.050  1.00  0.00    -0.347 N 
ATOM      3  O   UNL     1      -6.685  -3.133   0.238  1.00  0.00    -0.273 OA
ATOM      4  C   UNL     1      -7.220  -3.627  -0.749  1.00  0.00     0.243 C 
ATOM      5  H   UNL     1      -8.868  -3.812  -1.941  1.00  0.00     0.164 HD
BRANCH   4   6
ATOM      6  C   UNL     1      -6.421  -4.362  -1.855  1.00  0.00     0.171 C 
BRANCH   6   7
ATOM      7  N   UNL     1      -6.495  -3.618  -3.123  1.00  0.00    -0.344 N 
ATOM      8  C   UNL     1      -7.362  -4.012  -4.119  1.00  0.00     0.226 C 
ATOM      9  O   UNL     1      -8.086  -4.994  -4.014  1.00  0.00    -0.275 OA
ATOM     10  H   UNL     1      -5.864  -2.841  -3.273  1.00  0.00     0.164 HD
BRANCH   8  11
ATOM     11  C   UNL     1      -7.360  -3.111  -5.342  1.00  0.00     0.109 C 
ATOM     12  C   UNL     1      -7.661  -1.669  -4.934  1.00  0.00     0.021 C 
BRANCH  11  13
ATOM     13  C   UNL     1      -6.047  -3.302  -6.128  1.00  0.00     0.204 C 
BRANCH  13  14
ATOM     14  N   UNL     1      -5.645  -4.710  -6.196  1.00  0.00    -0.340 N 
ATOM     15  C   UNL     1      -4.329  -5.116  -6.139  1.00  0.00     0.243 C 
ATOM     16  O   UNL     1      -3.401  -4.327  -5.967  1.00  0.00    -0.273 OA
ATOM     17  H   UNL     1      -6.345  -5.397  -6.489  1.00  0.00     0.164 HD
BRANCH  15  18
ATOM     18  C   UNL     1      -4.132  -6.622  -6.439  1.00  0.00     0.171 C 
BRANCH  18  19
ATOM     19  N   UNL     1      -4.091  -6.758  -7.893  1.00  0.00    -0.343 N 
ATOM     20  C   UNL     1      -5.039  -7.487  -8.585  1.00  0.00     0.242 CG0
ATOM     21  O   UNL     1      -5.883  -8.163  -8.000  1.00  0.00    -0.273 OA
ATOM     22  H   UNL     1      -3.344  -6.312  -8.413  1.00  0.00     0.164 HD
ATOM     23  G   UNL     1      -4.876  -7.451 -10.118  1.00  0.00     0.000 G0
ENDBRANCH  18  19
BRANCH  18  24
ATOM     24  C   UNL     1      -2.844  -7.140  -5.788  1.00  0.00     0.038 C 
BRANCH  24  25
ATOM     25  C   UNL     1      -2.419  -8.555  -6.236  1.00  0.00    -0.015 C 
ATOM     26  C   UNL     1      -2.381  -9.549  -5.075  1.00  0.00     0.007 C 
ATOM     27  C   UNL     1      -1.044  -8.492  -6.906  1.00  0.00     0.007 C 
ENDBRANCH  24  25
ENDBRANCH  18  24
ENDBRANCH  15  18
ENDBRANCH  13  14
BRANCH  13  28
ATOM     28  C   UNL     1      -6.124  -2.782  -7.567  1.00  0.00     0.327 C 
ATOM     29  O   UNL     1      -5.737  -1.694  -7.964  1.00  0.00    -0.250 OA
BRANCH  28  30
ATOM     30  O   UNL     1      -6.790  -3.613  -8.394  1.00  0.00    -0.480 OA
ATOM     31  H   UNL     1      -6.148  -4.328  -8.586  1.00  0.00     0.296 HD
ENDBRANCH  28  30
ENDBRANCH  13  28
ENDBRANCH  11  13
ENDBRANCH   8  11
ENDBRANCH   6   7
BRANCH   6  32
ATOM     32  C   UNL     1      -4.967  -4.526  -1.401  1.00  0.00     0.037 C 
BRANCH  32  33
ATOM     33  C   UNL     1      -4.242  -5.639  -2.171  1.00  0.00     0.026 C 
BRANCH  33  34
ATOM     34  C   UNL     1      -5.200  -6.713  -2.686  1.00  0.00     0.146 C 
BRANCH  34  35
ATOM     35  N   UNL     1      -5.269  -7.790  -1.708  1.00  0.00    -0.254 NA
ATOM     36  C   UNL     1      -6.418  -8.143  -1.263  1.00  0.00     0.185 C 
ATOM     37  N   UNL     1      -6.494  -9.137  -0.365  1.00  0.00    -0.370 N 
ATOM     38  N   UNL     1      -7.631  -7.650  -1.571  1.00  0.00    -0.370 N 
ATOM     39  H   UNL     1      -5.621  -9.568  -0.090  1.00  0.00     0.159 HD
ATOM     40  H   UNL     1      -7.355  -9.585  -0.103  1.00  0.00     0.159 HD
ATOM     41  H   UNL     1      -8.449  -7.918  -1.049  1.00  0.00     0.159 HD
ATOM     42  H   UNL     1      -7.723  -6.886  -2.222  1.00  0.00     0.159 HD
ENDBRANCH  34  35
ENDBRANCH  33  34
ENDBRANCH  32  33
ENDBRANCH   6  32
ENDBRANCH   4   6
ENDBRANCH   1   2
BRANCH   1  43
ATOM     43  C   UNL     1     -10.581  -3.943   0.245  1.00  0.00     0.102 C 
ATOM     44  C   UNL     1     -11.607  -3.464   1.285  1.00  0.00     0.020 C 
BRANCH  43  45
ATOM     45  C   UNL     1      -9.897  -5.264   0.610  1.00  0.00     0.225 C 
ATOM     46  O   UNL     1      -9.869  -6.235  -0.141  1.00  0.00    -0.275 OA
ATOM     47  N   UNL     1      -9.387  -5.334   1.886  1.00  0.00    -0.342 N 
ATOM     48  H   UNL     1      -9.282  -4.490   2.430  1.00  0.00     0.164 HD
BRANCH  47  49
ATOM     49  C   UNL     1      -8.674  -6.524   2.361  1.00  0.00     0.192 C 
BRANCH  49  50
ATOM     50  C   UNL     1      -9.027  -6.783   3.828  1.00  0.00     0.047 C 
BRANCH  50  51
ATOM     51  C   UNL     1     -10.208  -5.925   4.303  1.00  0.00     0.103 C 
BRANCH  51  52
ATOM     52  C   UNL     1      -9.993  -5.385   5.715  1.00  0.00     0.226 C 
ATOM     53  O   UNL     1      -9.039  -4.641   5.946  1.00  0.00    -0.275 OA
BRANCH  52  54
ATOM     54  N   UNL     1     -10.970  -5.723   6.670  1.00  0.00    -0.311 N 
ATOM     55  C   UNL     1     -10.991  -7.054   7.292  1.00  0.00     0.153 C 
BRANCH  54  56
ATOM     56  C   UNL     1     -11.954  -4.803   7.069  1.00  0.00     0.102 C 
ATOM     57  C   UNL     1     -11.823  -3.926   8.077  1.00  0.00     0.043 C 
BRANCH  56  58
ATOM     58  C   UNL     1     -13.267  -4.703   6.327  1.00  0.00     0.268 C 
ATOM     59  O   UNL     1     -13.514  -5.343   5.314  1.00  0.00    -0.268 OA
ATOM     60  N   UNL     1     -14.174  -3.875   6.944  1.00  0.00    -0.339 N 
ATOM     61  H   UNL     1     -13.887  -3.372   7.776  1.00  0.00     0.164 HD
BRANCH  60  62
ATOM     62  C   UNL     1     -15.529  -3.682   6.429  1.00  0.00     0.168 CG0
ATOM     63  C   UNL     1     -15.598  -2.468   5.511  1.00  0.00     0.041 C 
ATOM     64  G   UNL     1     -16.513  -3.533   7.608  1.00  0.00     0.000 G0
ENDBRANCH  60  62
ENDBRANCH  56  58
ENDBRANCH  54  56
ENDBRANCH  52  54
ENDBRANCH  51  52
ENDBRANCH  50  51
ENDBRANCH  49  50
BRANCH  49  65
ATOM     65  C   UNL     1      -7.151  -6.365   2.225  1.00  0.00     0.326 C 
ATOM     66  O   UNL     1      -6.355  -7.274   2.043  1.00  0.00    -0.250 OA
BRANCH  65  67
ATOM     67  O   UNL     1      -6.700  -5.101   2.381  1.00  0.00    -0.480 OA
ATOM     68  H   UNL     1      -7.502  -4.550   2.245  1.00  0.00     0.296 HD
ENDBRANCH  65  67
ENDBRANCH  49  65
ENDBRANCH  47  49
ENDBRANCH  43  45
ENDBRANCH   1  43
BRANCH   1  69
ATOM     69  C   UNL     1     -10.009  -1.579  -0.801  1.00  0.00    -0.001 C 
ATOM     70  C   UNL     1     -10.175  -1.355  -2.116  1.00  0.00     0.001 C 
BRANCH  70  71
ATOM     71  C   UNL     1     -10.657  -0.123  -2.744  1.00  0.00    -0.055 C 
ATOM     72  C   UNL     1     -10.731   0.985  -1.977  1.00  0.00    -0.018 C 
ATOM     73  C   UNL     1     -11.027  -0.176  -4.203  1.00  0.00     0.044 C 
BRANCH  72  74
ATOM     74  C   UNL     1     -11.185   2.389  -2.353  1.00  0.00     0.038 C 
ATOM     75  C   UNL     1      -9.966   3.310  -2.219  1.00  0.00     0.015 C 
BRANCH  74  76
ATOM     76  C   UNL     1     -12.399   2.778  -1.460  1.00  0.00     0.128 C 
BRANCH  76  77
ATOM     77  O   UNL     1     -12.508   4.210  -1.377  1.00  0.00    -0.381 OA
ATOM     78  C   UNL     1     -13.626   4.739  -2.078  1.00  0.00     0.195 C 
ENDBRANCH  76  77
BRANCH  76  79
ATOM     79  C   UNL     1     -13.729   2.099  -1.874  1.00  0.00     0.068 C 
BRANCH  79  80
ATOM     80  C   UNL     1     -13.975   0.685  -1.408  1.00  0.00    -0.045 A 
ATOM     81  C   UNL     1     -14.332  -0.322  -2.314  1.00  0.00     0.004 A 
ATOM     82  C   UNL     1     -13.877   0.361  -0.046  1.00  0.00     0.004 A 
ATOM     83  C   UNL     1     -14.572  -1.625  -1.873  1.00  0.00     0.000 A 
ATOM     84  C   UNL     1     -14.118  -0.942   0.394  1.00  0.00     0.000 A 
ATOM     85  C   UNL     1     -14.464  -1.935  -0.519  1.00  0.00     0.000 A 
ENDBRANCH  79  80
ENDBRANCH  76  79
ENDBRANCH  74  76
ENDBRANCH  72  74
ENDBRANCH  70  71
ENDBRANCH   1  69
TORSDOF 17
ENDMDL
MODEL 49
REMARK VINA RESULT:    -6.375      4.186      9.984
REMARK INTER + INTRA:         -25.538
REMARK INTER:                 -18.080
REMARK INTRA:                  -7.459
REMARK UNBOUND:                -6.494
REMARK SMILES C=C1C(=O)N[C@H](C)C(=O)N[C@@H](CC(C)C)C(=O)N[C@@H](C(=O)O)[C@H](C)C(=O)N[C@@H](CCCN=C(N)N)C(=O)N[C@@H](/C=C/C(C)=C/[C@H](C)[C@H](Cc2ccccc2)OC)[C@H](C)C(=O)N[C@@H](C(=O)O)CCC(=O)N1C
REMARK SMILES IDX 39 1 38 2 37 3 36 4 28 6 27 7 25 8 26 9 23 11 24 12 19 13
REMARK SMILES IDX 18 14 16 15 17 16 11 18 10 19 8 20 9 21 12 24 13 25 14 26
REMARK SMILES IDX 15 27 20 28 21 29 22 30 29 32 30 33 31 34 32 35 33 36 34 37
REMARK SMILES IDX 35 38 57 43 58 44 59 45 60 46 61 47 62 49 66 50 67 51 68 52
REMARK SMILES IDX 69 53 70 54 71 55 2 56 1 57 3 58 4 59 5 60 6 62 7 63 63 65
REMARK SMILES IDX 64 66 65 67 40 69 41 70 42 71 44 72 43 73 45 74 46 75 47 76
REMARK SMILES IDX 55 77 56 78 48 79 49 80 50 81 54 82 51 83 53 84 52 85
REMARK H PARENT 38 5 27 10 18 17 10 22 22 31 34 39 34 40 35 41 35 42 61 48
REMARK H PARENT 5 61 65 68
REMARK Flexibility Score:  369.900
ROOT
ATOM      1  C   UNL     1      -6.257  -7.082   0.463  1.00  0.00     0.117 C 
ENDROOT
BRANCH   1   2
ATOM      2  N   UNL     1      -5.940  -6.123  -0.596  1.00  0.00    -0.347 N 
ATOM      3  O   UNL     1      -6.104  -7.559  -2.379  1.00  0.00    -0.273 OA
ATOM      4  C   UNL     1      -5.978  -6.419  -1.944  1.00  0.00     0.243 C 
ATOM      5  H   UNL     1      -5.725  -5.168  -0.350  1.00  0.00     0.164 HD
BRANCH   4   6
ATOM      6  C   UNL     1      -5.684  -5.202  -2.858  1.00  0.00     0.171 C 
BRANCH   6   7
ATOM      7  N   UNL     1      -6.321  -5.380  -4.173  1.00  0.00    -0.344 N 
ATOM      8  C   UNL     1      -5.729  -4.882  -5.313  1.00  0.00     0.226 C 
ATOM      9  O   UNL     1      -4.674  -4.259  -5.292  1.00  0.00    -0.275 OA
ATOM     10  H   UNL     1      -7.226  -5.831  -4.223  1.00  0.00     0.164 HD
BRANCH   8  11
ATOM     11  C   UNL     1      -6.480  -5.195  -6.595  1.00  0.00     0.109 C 
ATOM     12  C   UNL     1      -7.622  -4.198  -6.792  1.00  0.00     0.021 C 
BRANCH  11  13
ATOM     13  C   UNL     1      -5.489  -5.285  -7.773  1.00  0.00     0.204 C 
BRANCH  13  14
ATOM     14  N   UNL     1      -4.411  -6.245  -7.514  1.00  0.00    -0.340 N 
ATOM     15  C   UNL     1      -3.088  -5.976  -7.789  1.00  0.00     0.243 C 
ATOM     16  O   UNL     1      -2.710  -4.887  -8.215  1.00  0.00    -0.273 OA
ATOM     17  H   UNL     1      -4.670  -7.213  -7.306  1.00  0.00     0.164 HD
BRANCH  15  18
ATOM     18  C   UNL     1      -2.161  -7.207  -7.630  1.00  0.00     0.171 C 
BRANCH  18  19
ATOM     19  N   UNL     1      -0.851  -6.696  -7.232  1.00  0.00    -0.343 N 
ATOM     20  C   UNL     1       0.276  -6.900  -8.005  1.00  0.00     0.242 CG0
ATOM     21  O   UNL     1       0.256  -7.633  -8.991  1.00  0.00    -0.273 OA
ATOM     22  H   UNL     1      -0.761  -6.181  -6.364  1.00  0.00     0.164 HD
ATOM     23  G   UNL     1       1.551  -6.220  -7.464  1.00  0.00     0.000 G0
ENDBRANCH  18  19
BRANCH  18  24
ATOM     24  C   UNL     1      -2.726  -8.179  -6.587  1.00  0.00     0.038 C 
BRANCH  24  25
ATOM     25  C   UNL     1      -1.876  -9.448  -6.363  1.00  0.00    -0.015 C 
ATOM     26  C   UNL     1      -1.911 -10.395  -7.563  1.00  0.00     0.007 C 
ATOM     27  C   UNL     1      -2.368 -10.183  -5.113  1.00  0.00     0.007 C 
ENDBRANCH  24  25
ENDBRANCH  18  24
ENDBRANCH  15  18
ENDBRANCH  13  14
BRANCH  13  28
ATOM     28  C   UNL     1      -6.153  -5.693  -9.091  1.00  0.00     0.327 C 
ATOM     29  O   UNL     1      -6.850  -6.679  -9.275  1.00  0.00    -0.250 OA
BRANCH  28  30
ATOM     30  O   UNL     1      -5.803  -4.901 -10.126  1.00  0.00    -0.480 OA
ATOM     31  H   UNL     1      -5.934  -5.466 -10.916  1.00  0.00     0.296 HD
ENDBRANCH  28  30
ENDBRANCH  13  28
ENDBRANCH  11  13
ENDBRANCH   8  11
ENDBRANCH   6   7
BRANCH   6  32
ATOM     32  C   UNL     1      -6.187  -3.926  -2.174  1.00  0.00     0.037 C 
BRANCH  32  33
ATOM     33  C   UNL     1      -7.701  -3.736  -2.343  1.00  0.00     0.026 C 
BRANCH  33  34
ATOM     34  C   UNL     1      -8.119  -2.267  -2.269  1.00  0.00     0.146 C 
BRANCH  34  35
ATOM     35  N   UNL     1      -7.883  -1.780  -0.917  1.00  0.00    -0.254 NA
ATOM     36  C   UNL     1      -8.891  -1.578  -0.152  1.00  0.00     0.185 C 
ATOM     37  N   UNL     1      -8.685  -1.133   1.098  1.00  0.00    -0.370 N 
ATOM     38  N   UNL     1     -10.198  -1.751  -0.414  1.00  0.00    -0.370 N 
ATOM     39  H   UNL     1      -7.722  -0.988   1.375  1.00  0.00     0.159 HD
ATOM     40  H   UNL     1      -9.397  -1.117   1.807  1.00  0.00     0.159 HD
ATOM     41  H   UNL     1     -10.905  -1.424   0.225  1.00  0.00     0.159 HD
ATOM     42  H   UNL     1     -10.502  -2.067  -1.322  1.00  0.00     0.159 HD
ENDBRANCH  34  35
ENDBRANCH  33  34
ENDBRANCH  32  33
ENDBRANCH   6  32
ENDBRANCH   4   6
ENDBRANCH   1   2
BRANCH   1  43
ATOM     43  C   UNL     1      -7.719  -6.832   0.936  1.00  0.00     0.102 C 
ATOM     44  C   UNL     1      -8.777  -7.274  -0.089  1.00  0.00     0.020 C 
BRANCH  43  45
ATOM     45  C   UNL     1      -7.898  -5.395   1.434  1.00  0.00     0.225 C 
ATOM     46  O   UNL     1      -7.153  -4.475   1.109  1.00  0.00    -0.275 OA
ATOM     47  N   UNL     1      -8.903  -5.208   2.355  1.00  0.00    -0.342 N 
ATOM     48  H   UNL     1      -9.594  -5.931   2.494  1.00  0.00     0.164 HD
BRANCH  47  49
ATOM     49  C   UNL     1      -9.213  -3.880   2.892  1.00  0.00     0.192 C 
BRANCH  49  50
ATOM     50  C   UNL     1      -8.572  -3.721   4.273  1.00  0.00     0.047 C 
BRANCH  50  51
ATOM     51  C   UNL     1      -8.229  -5.073   4.914  1.00  0.00     0.103 C 
BRANCH  51  52
ATOM     52  C   UNL     1      -8.862  -5.230   6.295  1.00  0.00     0.226 C 
ATOM     53  O   UNL     1      -8.509  -4.491   7.216  1.00  0.00    -0.275 OA
BRANCH  52  54
ATOM     54  N   UNL     1      -9.889  -6.185   6.408  1.00  0.00    -0.311 N 
ATOM     55  C   UNL     1     -10.142  -7.155   5.334  1.00  0.00     0.153 C 
BRANCH  54  56
ATOM     56  C   UNL     1     -10.705  -6.252   7.550  1.00  0.00     0.102 C 
ATOM     57  C   UNL     1     -11.951  -5.757   7.634  1.00  0.00     0.043 C 
BRANCH  56  58
ATOM     58  C   UNL     1     -10.231  -6.954   8.801  1.00  0.00     0.268 C 
ATOM     59  O   UNL     1     -10.245  -8.171   8.931  1.00  0.00    -0.268 OA
ATOM     60  N   UNL     1      -9.726  -6.093   9.745  1.00  0.00    -0.339 N 
ATOM     61  H   UNL     1      -9.761  -5.097   9.565  1.00  0.00     0.164 HD
BRANCH  60  62
ATOM     62  C   UNL     1      -9.156  -6.568  11.006  1.00  0.00     0.168 CG0
ATOM     63  C   UNL     1     -10.184  -6.506  12.128  1.00  0.00     0.041 C 
ATOM     64  G   UNL     1      -7.912  -5.727  11.359  1.00  0.00     0.000 G0
ENDBRANCH  60  62
ENDBRANCH  56  58
ENDBRANCH  54  56
ENDBRANCH  52  54
ENDBRANCH  51  52
ENDBRANCH  50  51
ENDBRANCH  49  50
BRANCH  49  65
ATOM     65  C   UNL     1     -10.728  -3.653   3.005  1.00  0.00     0.326 C 
ATOM     66  O   UNL     1     -11.534  -4.452   3.461  1.00  0.00    -0.250 OA
BRANCH  65  67
ATOM     67  O   UNL     1     -11.163  -2.481   2.492  1.00  0.00    -0.480 OA
ATOM     68  H   UNL     1     -11.938  -2.258   3.051  1.00  0.00     0.296 HD
ENDBRANCH  65  67
ENDBRANCH  49  65
ENDBRANCH  47  49
ENDBRANCH  43  45
ENDBRANCH   1  43
BRANCH   1  69
ATOM     69  C   UNL     1      -5.132  -6.983   1.476  1.00  0.00    -0.001 C 
ATOM     70  C   UNL     1      -4.975  -7.711   2.596  1.00  0.00     0.001 C 
BRANCH  70  71
ATOM     71  C   UNL     1      -3.872  -7.621   3.556  1.00  0.00    -0.055 C 
ATOM     72  C   UNL     1      -4.048  -6.840   4.642  1.00  0.00    -0.018 C 
ATOM     73  C   UNL     1      -2.623  -8.412   3.267  1.00  0.00     0.044 C 
BRANCH  72  74
ATOM     74  C   UNL     1      -3.092  -6.562   5.793  1.00  0.00     0.038 C 
ATOM     75  C   UNL     1      -3.361  -7.618   6.872  1.00  0.00     0.015 C 
BRANCH  74  76
ATOM     76  C   UNL     1      -3.285  -5.088   6.260  1.00  0.00     0.128 C 
BRANCH  76  77
ATOM     77  O   UNL     1      -2.085  -4.335   6.017  1.00  0.00    -0.381 OA
ATOM     78  C   UNL     1      -1.328  -4.073   7.190  1.00  0.00     0.195 C 
ENDBRANCH  76  77
BRANCH  76  79
ATOM     79  C   UNL     1      -4.549  -4.405   5.681  1.00  0.00     0.068 C 
BRANCH  79  80
ATOM     80  C   UNL     1      -5.195  -3.309   6.493  1.00  0.00    -0.045 A 
ATOM     81  C   UNL     1      -5.911  -2.277   5.872  1.00  0.00     0.004 A 
ATOM     82  C   UNL     1      -5.064  -3.292   7.890  1.00  0.00     0.004 A 
ATOM     83  C   UNL     1      -6.494  -1.258   6.629  1.00  0.00     0.000 A 
ATOM     84  C   UNL     1      -5.646  -2.273   8.646  1.00  0.00     0.000 A 
ATOM     85  C   UNL     1      -6.362  -1.258   8.016  1.00  0.00     0.000 A 
ENDBRANCH  79  80
ENDBRANCH  76  79
ENDBRANCH  74  76
ENDBRANCH  72  74
ENDBRANCH  70  71
ENDBRANCH   1  69
TORSDOF 17
ENDMDL
MODEL 50
REMARK VINA RESULT:    -6.350      4.243     11.694
REMARK INTER + INTRA:         -25.465
REMARK INTER:                 -17.235
REMARK INTRA:                  -8.230
REMARK UNBOUND:                -6.494
REMARK SMILES C=C1C(=O)N[C@H](C)C(=O)N[C@@H](CC(C)C)C(=O)N[C@@H](C(=O)O)[C@H](C)C(=O)N[C@@H](CCCN=C(N)N)C(=O)N[C@@H](/C=C/C(C)=C/[C@H](C)[C@H](Cc2ccccc2)OC)[C@H](C)C(=O)N[C@@H](C(=O)O)CCC(=O)N1C
REMARK SMILES IDX 39 1 38 2 37 3 36 4 28 6 27 7 25 8 26 9 23 11 24 12 19 13
REMARK SMILES IDX 18 14 16 15 17 16 11 18 10 19 8 20 9 21 12 24 13 25 14 26
REMARK SMILES IDX 15 27 20 28 21 29 22 30 29 32 30 33 31 34 32 35 33 36 34 37
REMARK SMILES IDX 35 38 57 43 58 44 59 45 60 46 61 47 62 49 66 50 67 51 68 52
REMARK SMILES IDX 69 53 70 54 71 55 2 56 1 57 3 58 4 59 5 60 6 62 7 63 63 65
REMARK SMILES IDX 64 66 65 67 40 69 41 70 42 71 44 72 43 73 45 74 46 75 47 76
REMARK SMILES IDX 55 77 56 78 48 79 49 80 50 81 54 82 51 83 53 84 52 85
REMARK H PARENT 38 5 27 10 18 17 10 22 22 31 34 39 34 40 35 41 35 42 61 48
REMARK H PARENT 5 61 65 68
REMARK Flexibility Score:  369.900
ROOT
ATOM      1  C   UNL     1      -9.242  -1.391  -3.063  1.00  0.00     0.117 C 
ENDROOT
BRANCH   1   2
ATOM      2  N   UNL     1      -9.223  -1.960  -1.715  1.00  0.00    -0.347 N 
ATOM      3  O   UNL     1      -8.401  -4.032  -2.261  1.00  0.00    -0.273 OA
ATOM      4  C   UNL     1      -8.716  -3.208  -1.409  1.00  0.00     0.243 C 
ATOM      5  H   UNL     1      -9.551  -1.405  -0.939  1.00  0.00     0.164 HD
BRANCH   4   6
ATOM      6  C   UNL     1      -8.736  -3.536   0.105  1.00  0.00     0.171 C 
BRANCH   6   7
ATOM      7  N   UNL     1     -10.122  -3.641   0.590  1.00  0.00    -0.344 N 
ATOM      8  C   UNL     1     -10.430  -3.360   1.904  1.00  0.00     0.226 C 
ATOM      9  O   UNL     1      -9.581  -3.037   2.726  1.00  0.00    -0.275 OA
ATOM     10  H   UNL     1     -10.840  -3.971  -0.043  1.00  0.00     0.164 HD
BRANCH   8  11
ATOM     11  C   UNL     1     -11.908  -3.462   2.235  1.00  0.00     0.109 C 
ATOM     12  C   UNL     1     -12.097  -4.116   3.604  1.00  0.00     0.021 C 
BRANCH  11  13
ATOM     13  C   UNL     1     -12.573  -2.080   2.080  1.00  0.00     0.204 C 
BRANCH  13  14
ATOM     14  N   UNL     1     -11.744  -1.003   2.630  1.00  0.00    -0.340 N 
ATOM     15  C   UNL     1     -12.141  -0.221   3.693  1.00  0.00     0.243 C 
ATOM     16  O   UNL     1     -13.196  -0.411   4.295  1.00  0.00    -0.273 OA
ATOM     17  H   UNL     1     -10.932  -0.697   2.087  1.00  0.00     0.164 HD
BRANCH  15  18
ATOM     18  C   UNL     1     -11.200   0.979   3.963  1.00  0.00     0.171 C 
BRANCH  18  19
ATOM     19  N   UNL     1     -11.302   1.278   5.390  1.00  0.00    -0.343 N 
ATOM     20  C   UNL     1     -11.734   2.507   5.849  1.00  0.00     0.242 CG0
ATOM     21  O   UNL     1     -11.925   3.448   5.082  1.00  0.00    -0.273 OA
ATOM     22  H   UNL     1     -11.043   0.568   6.066  1.00  0.00     0.164 HD
ATOM     23  G   UNL     1     -11.851   2.609   7.383  1.00  0.00     0.000 G0
ENDBRANCH  18  19
BRANCH  18  24
ATOM     24  C   UNL     1      -9.760   0.639   3.561  1.00  0.00     0.038 C 
BRANCH  24  25
ATOM     25  C   UNL     1      -9.145   1.583   2.506  1.00  0.00    -0.015 C 
ATOM     26  C   UNL     1      -9.951   2.871   2.332  1.00  0.00     0.007 C 
ATOM     27  C   UNL     1      -9.042   0.856   1.163  1.00  0.00     0.007 C 
ENDBRANCH  24  25
ENDBRANCH  18  24
ENDBRANCH  15  18
ENDBRANCH  13  14
BRANCH  13  28
ATOM     28  C   UNL     1     -12.880  -1.717   0.624  1.00  0.00     0.327 C 
ATOM     29  O   UNL     1     -13.873  -2.043  -0.008  1.00  0.00    -0.250 OA
BRANCH  28  30
ATOM     30  O   UNL     1     -11.866  -1.069   0.016  1.00  0.00    -0.480 OA
ATOM     31  H   UNL     1     -11.228  -1.777  -0.210  1.00  0.00     0.296 HD
ENDBRANCH  28  30
ENDBRANCH  13  28
ENDBRANCH  11  13
ENDBRANCH   8  11
ENDBRANCH   6   7
BRANCH   6  32
ATOM     32  C   UNL     1      -7.970  -4.841   0.348  1.00  0.00     0.037 C 
BRANCH  32  33
ATOM     33  C   UNL     1      -6.459  -4.609   0.484  1.00  0.00     0.026 C 
BRANCH  33  34
ATOM     34  C   UNL     1      -5.647  -5.456  -0.496  1.00  0.00     0.146 C 
BRANCH  34  35
ATOM     35  N   UNL     1      -6.487  -6.539  -0.989  1.00  0.00    -0.254 NA
ATOM     36  C   UNL     1      -6.101  -7.747  -0.808  1.00  0.00     0.185 C 
ATOM     37  N   UNL     1      -6.869  -8.753  -1.253  1.00  0.00    -0.370 N 
ATOM     38  N   UNL     1      -4.984  -8.196  -0.208  1.00  0.00    -0.370 N 
ATOM     39  H   UNL     1      -7.735  -8.496  -1.709  1.00  0.00     0.159 HD
ATOM     40  H   UNL     1      -6.727  -9.716  -1.001  1.00  0.00     0.159 HD
ATOM     41  H   UNL     1      -4.724  -9.168  -0.251  1.00  0.00     0.159 HD
ATOM     42  H   UNL     1      -4.305  -7.549   0.162  1.00  0.00     0.159 HD
ENDBRANCH  34  35
ENDBRANCH  33  34
ENDBRANCH  32  33
ENDBRANCH   6  32
ENDBRANCH   4   6
ENDBRANCH   1   2
BRANCH   1  43
ATOM     43  C   UNL     1      -7.844  -0.776  -3.360  1.00  0.00     0.102 C 
ATOM     44  C   UNL     1      -7.713   0.690  -2.914  1.00  0.00     0.020 C 
BRANCH  43  45
ATOM     45  C   UNL     1      -7.434  -1.022  -4.815  1.00  0.00     0.225 C 
ATOM     46  O   UNL     1      -7.850  -0.347  -5.753  1.00  0.00    -0.275 OA
ATOM     47  N   UNL     1      -6.630  -2.118  -5.027  1.00  0.00    -0.342 N 
ATOM     48  H   UNL     1      -6.177  -2.566  -4.242  1.00  0.00     0.164 HD
BRANCH  47  49
ATOM     49  C   UNL     1      -6.129  -2.455  -6.363  1.00  0.00     0.192 C 
BRANCH  49  50
ATOM     50  C   UNL     1      -5.715  -3.928  -6.401  1.00  0.00     0.047 C 
BRANCH  50  51
ATOM     51  C   UNL     1      -6.908  -4.863  -6.643  1.00  0.00     0.103 C 
BRANCH  51  52
ATOM     52  C   UNL     1      -7.201  -5.045  -8.131  1.00  0.00     0.226 C 
ATOM     53  O   UNL     1      -8.264  -4.634  -8.599  1.00  0.00    -0.275 OA
BRANCH  52  54
ATOM     54  N   UNL     1      -6.176  -5.620  -8.906  1.00  0.00    -0.311 N 
ATOM     55  C   UNL     1      -5.534  -4.866  -9.991  1.00  0.00     0.153 C 
BRANCH  54  56
ATOM     56  C   UNL     1      -5.725  -6.929  -8.668  1.00  0.00     0.102 C 
ATOM     57  C   UNL     1      -6.488  -8.031  -8.751  1.00  0.00     0.043 C 
BRANCH  56  58
ATOM     58  C   UNL     1      -4.278  -7.202  -8.332  1.00  0.00     0.268 C 
ATOM     59  O   UNL     1      -3.641  -6.538  -7.525  1.00  0.00    -0.268 OA
ATOM     60  N   UNL     1      -3.773  -8.306  -8.975  1.00  0.00    -0.339 N 
ATOM     61  H   UNL     1      -4.362  -8.796  -9.638  1.00  0.00     0.164 HD
BRANCH  60  62
ATOM     62  C   UNL     1      -2.410  -8.786  -8.746  1.00  0.00     0.168 CG0
ATOM     63  C   UNL     1      -2.380  -9.848  -7.654  1.00  0.00     0.041 C 
ATOM     64  G   UNL     1      -1.499  -7.597  -8.377  1.00  0.00     0.000 G0
ENDBRANCH  60  62
ENDBRANCH  56  58
ENDBRANCH  54  56
ENDBRANCH  52  54
ENDBRANCH  51  52
ENDBRANCH  50  51
ENDBRANCH  49  50
BRANCH  49  65
ATOM     65  C   UNL     1      -4.930  -1.579  -6.757  1.00  0.00     0.326 C 
ATOM     66  O   UNL     1      -3.759  -1.822  -6.504  1.00  0.00    -0.250 OA
BRANCH  65  67
ATOM     67  O   UNL     1      -5.255  -0.427  -7.384  1.00  0.00    -0.480 OA
ATOM     68  H   UNL     1      -5.863   0.016  -6.754  1.00  0.00     0.296 HD
ENDBRANCH  65  67
ENDBRANCH  49  65
ENDBRANCH  47  49
ENDBRANCH  43  45
ENDBRANCH   1  43
BRANCH   1  69
ATOM     69  C   UNL     1     -10.466  -0.496  -3.128  1.00  0.00    -0.001 C 
ATOM     70  C   UNL     1     -11.291  -0.315  -4.174  1.00  0.00     0.001 C 
BRANCH  70  71
ATOM     71  C   UNL     1     -12.482   0.536  -4.219  1.00  0.00    -0.055 C 
ATOM     72  C   UNL     1     -12.573   1.535  -3.316  1.00  0.00    -0.018 C 
ATOM     73  C   UNL     1     -13.517   0.241  -5.273  1.00  0.00     0.044 C 
BRANCH  72  74
ATOM     74  C   UNL     1     -13.678   2.565  -3.128  1.00  0.00     0.038 C 
ATOM     75  C   UNL     1     -13.417   3.697  -4.129  1.00  0.00     0.015 C 
BRANCH  74  76
ATOM     76  C   UNL     1     -13.702   3.007  -1.635  1.00  0.00     0.128 C 
BRANCH  76  77
ATOM     77  O   UNL     1     -14.882   2.497  -0.992  1.00  0.00    -0.381 OA
ATOM     78  C   UNL     1     -14.639   1.367  -0.164  1.00  0.00     0.195 C 
ENDBRANCH  76  77
BRANCH  76  79
ATOM     79  C   UNL     1     -12.404   2.672  -0.858  1.00  0.00     0.068 C 
BRANCH  79  80
ATOM     80  C   UNL     1     -11.262   3.657  -0.931  1.00  0.00    -0.045 A 
ATOM     81  C   UNL     1     -10.040   3.303  -1.517  1.00  0.00     0.004 A 
ATOM     82  C   UNL     1     -11.401   4.942  -0.385  1.00  0.00     0.004 A 
ATOM     83  C   UNL     1      -8.984   4.216  -1.568  1.00  0.00     0.000 A 
ATOM     84  C   UNL     1     -10.344   5.854  -0.435  1.00  0.00     0.000 A 
ATOM     85  C   UNL     1      -9.137   5.491  -1.028  1.00  0.00     0.000 A 
ENDBRANCH  79  80
ENDBRANCH  76  79
ENDBRANCH  74  76
ENDBRANCH  72  74
ENDBRANCH  70  71
ENDBRANCH   1  69
TORSDOF 17
ENDMDL
