MODEL 1
REMARK VINA RESULT:    -6.939      0.000      0.000
REMARK INTER + INTRA:         -13.238
REMARK INTER:                 -11.807
REMARK INTRA:                  -1.431
REMARK UNBOUND:                -1.431
REMARK SMILES CC[C@H](C)[C@@H]1NC(=O)[C@H]2CSC(=N2)[C@@H]([C@@H](C)CC)NC(=O)c2csc(n2)CNC(=O)[C@H]2N=C1O[C@@H]2C
REMARK SMILES IDX 27 1 25 2 22 3 26 4 23 5 24 6 20 7 19 8 21 9 14 11 12 12
REMARK SMILES IDX 11 13 10 14 13 15 9 16 15 18 16 19 17 20 18 21 28 22 29 23
REMARK SMILES IDX 30 24 31 26 32 27 35 28 33 29 34 30 36 31 5 32 6 33 7 34
REMARK SMILES IDX 8 35 3 38 4 39 2 40 1 41
REMARK H PARENT 19 10 28 25 6 36
REMARK Flexibility Score:   91.900
ROOT
ATOM      1  C   UNL     1      -9.454   1.102  -9.513  1.00  0.00     0.183 C 
ENDROOT
BRANCH   1   2
ATOM      2  C   UNL     1     -10.597   1.124  -8.540  1.00  0.00     0.113 A 
ATOM      3  C   UNL     1     -11.890   0.519  -6.828  1.00  0.00     0.139 A 
ATOM      4  N   UNL     1     -10.660   0.353  -7.469  1.00  0.00    -0.234 NA
ATOM      5  C   UNL     1     -12.713   1.466  -7.404  1.00  0.00     0.101 A 
ATOM      6  S   UNL     1     -11.954   2.146  -8.786  1.00  0.00    -0.125 S 
BRANCH   3   7
ATOM      7  C   UNL     1     -12.228  -0.309  -5.668  1.00  0.00     0.271 C 
ATOM      8  N   UNL     1     -12.322   0.441  -4.521  1.00  0.00    -0.341 N 
ATOM      9  O   UNL     1     -12.374  -1.524  -5.718  1.00  0.00    -0.267 OA
ATOM     10  H   UNL     1     -12.199   1.446  -4.641  1.00  0.00     0.164 HD
BRANCH   8  11
ATOM     11  C   UNL     1     -12.461  -0.120  -3.187  1.00  0.00     0.140 C 
BRANCH  11  12
ATOM     12  C   UNL     1     -11.099  -0.022  -2.493  1.00  0.00     0.091 C 
ATOM     13  S   UNL     1     -10.973   0.628  -0.875  1.00  0.00    -0.106 SA
ATOM     14  C   UNL     1      -9.267   0.047  -0.761  1.00  0.00     0.113 C 
ATOM     15  N   UNL     1      -9.997  -0.341  -3.095  1.00  0.00    -0.267 NA
ATOM     16  C   UNL     1      -8.824  -0.042  -2.213  1.00  0.00     0.205 CG0
ATOM     17  G   UNL     1      -8.128   1.257  -2.650  1.00  0.00     0.000 G0
ENDBRANCH  11  12
BRANCH  11  18
ATOM     18  C   UNL     1     -13.678   0.425  -2.397  1.00  0.00     0.015 C 
ATOM     19  C   UNL     1     -14.721   1.010  -3.359  1.00  0.00     0.010 C 
BRANCH  18  20
ATOM     20  C   UNL     1     -14.315  -0.582  -1.419  1.00  0.00     0.002 C 
ATOM     21  C   UNL     1     -15.838  -0.597  -1.487  1.00  0.00     0.004 C 
ENDBRANCH  18  20
ENDBRANCH  11  18
ENDBRANCH   8  11
ENDBRANCH   3   7
ENDBRANCH   1   2
BRANCH   1  22
ATOM     22  N   UNL     1      -8.335   1.766  -8.882  1.00  0.00    -0.348 N 
ATOM     23  C   UNL     1      -7.309   1.126  -8.243  1.00  0.00     0.249 C 
ATOM     24  O   UNL     1      -7.191  -0.094  -8.215  1.00  0.00    -0.272 OA
ATOM     25  H   UNL     1      -8.343   2.784  -8.828  1.00  0.00     0.163 HD
BRANCH  23  26
ATOM     26  C   UNL     1      -6.295   2.099  -7.622  1.00  0.00     0.238 C 
ATOM     27  N   UNL     1      -6.829   2.604  -6.327  1.00  0.00    -0.236 NA
ATOM     28  C   UNL     1      -4.984   1.412  -7.280  1.00  0.00     0.206 C 
ATOM     29  C   UNL     1      -6.047   2.054  -5.447  1.00  0.00     0.208 C 
ATOM     30  O   UNL     1      -5.033   1.257  -5.863  1.00  0.00    -0.474 OA
ATOM     31  C   UNL     1      -3.770   2.261  -7.635  1.00  0.00     0.056 C 
BRANCH  29  32
ATOM     32  C   UNL     1      -6.174   2.164  -3.930  1.00  0.00     0.171 C 
BRANCH  32  33
ATOM     33  N   UNL     1      -6.964   1.067  -3.394  1.00  0.00    -0.342 N 
ATOM     34  C   UNL     1      -8.112   1.267  -2.666  1.00  0.00     0.246 CG0
ATOM     35  O   UNL     1      -8.545   2.383  -2.392  1.00  0.00    -0.273 OA
ATOM     36  H   UNL     1      -6.669   0.103  -3.509  1.00  0.00     0.164 HD
ATOM     37  G   UNL     1      -8.831  -0.024  -2.242  1.00  0.00     0.000 G0
ENDBRANCH  32  33
BRANCH  32  38
ATOM     38  C   UNL     1      -4.771   2.263  -3.274  1.00  0.00     0.017 C 
ATOM     39  C   UNL     1      -4.114   3.601  -3.636  1.00  0.00     0.010 C 
BRANCH  38  40
ATOM     40  C   UNL     1      -4.804   2.039  -1.745  1.00  0.00     0.002 C 
ATOM     41  C   UNL     1      -5.359   3.225  -0.967  1.00  0.00     0.004 C 
ENDBRANCH  38  40
ENDBRANCH  32  38
ENDBRANCH  29  32
ENDBRANCH  23  26
ENDBRANCH   1  22
TORSDOF 4
ENDMDL
MODEL 2
REMARK VINA RESULT:    -6.799      2.551      6.759
REMARK INTER + INTRA:         -12.999
REMARK INTER:                 -11.409
REMARK INTRA:                  -1.591
REMARK UNBOUND:                -1.431
REMARK SMILES CC[C@H](C)[C@@H]1NC(=O)[C@H]2CSC(=N2)[C@@H]([C@@H](C)CC)NC(=O)c2csc(n2)CNC(=O)[C@H]2N=C1O[C@@H]2C
REMARK SMILES IDX 27 1 25 2 22 3 26 4 23 5 24 6 20 7 19 8 21 9 14 11 12 12
REMARK SMILES IDX 11 13 10 14 13 15 9 16 15 18 16 19 17 20 18 21 28 22 29 23
REMARK SMILES IDX 30 24 31 26 32 27 35 28 33 29 34 30 36 31 5 32 6 33 7 34
REMARK SMILES IDX 8 35 3 38 4 39 2 40 1 41
REMARK H PARENT 19 10 28 25 6 36
REMARK Flexibility Score:   91.900
ROOT
ATOM      1  C   UNL     1     -10.643  -1.089  -5.262  1.00  0.00     0.183 C 
ENDROOT
BRANCH   1   2
ATOM      2  C   UNL     1     -10.392  -0.297  -6.514  1.00  0.00     0.113 A 
ATOM      3  C   UNL     1      -9.269   0.760  -8.122  1.00  0.00     0.139 A 
ATOM      4  N   UNL     1      -9.192  -0.108  -7.030  1.00  0.00    -0.234 NA
ATOM      5  C   UNL     1     -10.550   1.164  -8.443  1.00  0.00     0.101 A 
ATOM      6  S   UNL     1     -11.679   0.471  -7.351  1.00  0.00    -0.125 S 
BRANCH   3   7
ATOM      7  C   UNL     1      -8.046   1.198  -8.798  1.00  0.00     0.271 C 
ATOM      8  N   UNL     1      -6.921   0.792  -8.122  1.00  0.00    -0.341 N 
ATOM      9  O   UNL     1      -8.037   1.872  -9.820  1.00  0.00    -0.267 OA
ATOM     10  H   UNL     1      -7.087   0.215  -7.298  1.00  0.00     0.164 HD
BRANCH   8  11
ATOM     11  C   UNL     1      -5.573   1.229  -8.442  1.00  0.00     0.140 C 
BRANCH  11  12
ATOM     12  C   UNL     1      -4.885   1.630  -7.134  1.00  0.00     0.091 C 
ATOM     13  S   UNL     1      -3.242   1.133  -6.806  1.00  0.00    -0.106 SA
ATOM     14  C   UNL     1      -3.167   2.264  -5.401  1.00  0.00     0.113 C 
ATOM     15  N   UNL     1      -5.509   2.279  -6.201  1.00  0.00    -0.267 NA
ATOM     16  C   UNL     1      -4.625   2.435  -5.004  1.00  0.00     0.205 CG0
ATOM     17  G   UNL     1      -5.009   1.432  -3.904  1.00  0.00     0.000 G0
ENDBRANCH  11  12
BRANCH  11  18
ATOM     18  C   UNL     1      -4.794   0.251  -9.358  1.00  0.00     0.015 C 
ATOM     19  C   UNL     1      -5.657  -0.973  -9.691  1.00  0.00     0.010 C 
BRANCH  18  20
ATOM     20  C   UNL     1      -4.207   0.890 -10.634  1.00  0.00     0.002 C 
ATOM     21  C   UNL     1      -2.882   0.267 -11.056  1.00  0.00     0.004 C 
ENDBRANCH  18  20
ENDBRANCH  11  18
ENDBRANCH   8  11
ENDBRANCH   3   7
ENDBRANCH   1   2
BRANCH   1  22
ATOM     22  N   UNL     1     -10.263  -0.259  -4.141  1.00  0.00    -0.348 N 
ATOM     23  C   UNL     1     -10.768  -0.380  -2.875  1.00  0.00     0.249 C 
ATOM     24  O   UNL     1     -11.541  -1.271  -2.542  1.00  0.00    -0.272 OA
ATOM     25  H   UNL     1      -9.640   0.530  -4.312  1.00  0.00     0.163 HD
BRANCH  23  26
ATOM     26  C   UNL     1     -10.215   0.680  -1.910  1.00  0.00     0.238 C 
ATOM     27  N   UNL     1      -8.861   0.265  -1.449  1.00  0.00    -0.236 NA
ATOM     28  C   UNL     1     -10.018   2.023  -2.592  1.00  0.00     0.206 C 
ATOM     29  C   UNL     1      -8.075   1.130  -2.017  1.00  0.00     0.208 C 
ATOM     30  O   UNL     1      -8.608   2.108  -2.790  1.00  0.00    -0.474 OA
ATOM     31  C   UNL     1     -10.458   3.191  -1.720  1.00  0.00     0.056 C 
BRANCH  29  32
ATOM     32  C   UNL     1      -6.550   1.145  -1.953  1.00  0.00     0.171 C 
BRANCH  32  33
ATOM     33  N   UNL     1      -5.993   1.938  -3.038  1.00  0.00    -0.342 N 
ATOM     34  C   UNL     1      -5.020   1.459  -3.882  1.00  0.00     0.246 CG0
ATOM     35  O   UNL     1      -4.529   0.338  -3.771  1.00  0.00    -0.273 OA
ATOM     36  H   UNL     1      -6.281   2.899  -3.187  1.00  0.00     0.164 HD
ATOM     37  G   UNL     1      -4.609   2.432  -4.999  1.00  0.00     0.000 G0
ENDBRANCH  32  33
BRANCH  32  38
ATOM     38  C   UNL     1      -6.069   1.625  -0.558  1.00  0.00     0.017 C 
ATOM     39  C   UNL     1      -4.638   1.139  -0.298  1.00  0.00     0.010 C 
BRANCH  38  40
ATOM     40  C   UNL     1      -6.193   3.155  -0.372  1.00  0.00     0.002 C 
ATOM     41  C   UNL     1      -5.130   3.745   0.546  1.00  0.00     0.004 C 
ENDBRANCH  38  40
ENDBRANCH  32  38
ENDBRANCH  29  32
ENDBRANCH  23  26
ENDBRANCH   1  22
TORSDOF 4
ENDMDL
MODEL 3
REMARK VINA RESULT:    -6.521      2.045      6.928
REMARK INTER + INTRA:         -12.526
REMARK INTER:                 -11.626
REMARK INTRA:                  -0.900
REMARK UNBOUND:                -1.431
REMARK SMILES CC[C@H](C)[C@@H]1NC(=O)[C@H]2CSC(=N2)[C@@H]([C@@H](C)CC)NC(=O)c2csc(n2)CNC(=O)[C@H]2N=C1O[C@@H]2C
REMARK SMILES IDX 27 1 25 2 22 3 26 4 23 5 24 6 20 7 19 8 21 9 14 11 12 12
REMARK SMILES IDX 11 13 10 14 13 15 9 16 15 18 16 19 17 20 18 21 28 22 29 23
REMARK SMILES IDX 30 24 31 26 32 27 35 28 33 29 34 30 36 31 5 32 6 33 7 34
REMARK SMILES IDX 8 35 3 38 4 39 2 40 1 41
REMARK H PARENT 19 10 28 25 6 36
REMARK Flexibility Score:   91.900
ROOT
ATOM      1  C   UNL     1     -11.518   1.724  -8.906  1.00  0.00     0.183 C 
ENDROOT
BRANCH   1   2
ATOM      2  C   UNL     1     -10.131   1.508  -8.371  1.00  0.00     0.113 A 
ATOM      3  C   UNL     1      -8.299   1.820  -7.141  1.00  0.00     0.139 A 
ATOM      4  N   UNL     1      -9.644   2.148  -7.323  1.00  0.00    -0.234 NA
ATOM      5  C   UNL     1      -7.813   0.883  -8.031  1.00  0.00     0.101 A 
ATOM      6  S   UNL     1      -9.045   0.420  -9.133  1.00  0.00    -0.125 S 
BRANCH   3   7
ATOM      7  C   UNL     1      -7.518   2.486  -6.096  1.00  0.00     0.271 C 
ATOM      8  N   UNL     1      -7.227   1.632  -5.060  1.00  0.00    -0.341 N 
ATOM      9  O   UNL     1      -7.197   3.667  -6.135  1.00  0.00    -0.267 OA
ATOM     10  H   UNL     1      -7.541   0.670  -5.181  1.00  0.00     0.164 HD
BRANCH   8  11
ATOM     11  C   UNL     1      -6.630   2.048  -3.802  1.00  0.00     0.140 C 
BRANCH  11  12
ATOM     12  C   UNL     1      -7.649   1.788  -2.689  1.00  0.00     0.091 C 
ATOM     13  S   UNL     1      -7.180   0.935  -1.237  1.00  0.00    -0.106 SA
ATOM     14  C   UNL     1      -8.734   1.400  -0.445  1.00  0.00     0.113 C 
ATOM     15  N   UNL     1      -8.897   2.118  -2.809  1.00  0.00    -0.267 NA
ATOM     16  C   UNL     1      -9.671   1.645  -1.618  1.00  0.00     0.205 CG0
ATOM     17  G   UNL     1     -10.468   0.374  -1.951  1.00  0.00     0.000 G0
ENDBRANCH  11  12
BRANCH  11  18
ATOM     18  C   UNL     1      -5.200   1.496  -3.570  1.00  0.00     0.015 C 
ATOM     19  C   UNL     1      -4.390   1.545  -4.872  1.00  0.00     0.010 C 
BRANCH  18  20
ATOM     20  C   UNL     1      -4.435   2.156  -2.405  1.00  0.00     0.002 C 
ATOM     21  C   UNL     1      -3.118   1.458  -2.086  1.00  0.00     0.004 C 
ENDBRANCH  18  20
ENDBRANCH  11  18
ENDBRANCH   8  11
ENDBRANCH   3   7
ENDBRANCH   1   2
BRANCH   1  22
ATOM     22  N   UNL     1     -12.447   1.248  -7.905  1.00  0.00    -0.348 N 
ATOM     23  C   UNL     1     -12.638  -0.068  -7.583  1.00  0.00     0.249 C 
ATOM     24  O   UNL     1     -11.970  -0.980  -8.057  1.00  0.00    -0.272 OA
ATOM     25  H   UNL     1     -13.070   1.922  -7.463  1.00  0.00     0.163 HD
BRANCH  23  26
ATOM     26  C   UNL     1     -13.731  -0.268  -6.522  1.00  0.00     0.238 C 
ATOM     27  N   UNL     1     -13.182  -1.075  -5.397  1.00  0.00    -0.236 NA
ATOM     28  C   UNL     1     -14.171   1.047  -5.903  1.00  0.00     0.206 C 
ATOM     29  C   UNL     1     -13.125  -0.221  -4.419  1.00  0.00     0.208 C 
ATOM     30  O   UNL     1     -13.547   1.052  -4.620  1.00  0.00    -0.474 OA
ATOM     31  C   UNL     1     -15.679   1.128  -5.712  1.00  0.00     0.056 C 
BRANCH  29  32
ATOM     32  C   UNL     1     -12.565  -0.480  -3.023  1.00  0.00     0.171 C 
BRANCH  32  33
ATOM     33  N   UNL     1     -11.675   0.594  -2.612  1.00  0.00    -0.342 N 
ATOM     34  C   UNL     1     -10.507   0.366  -1.923  1.00  0.00     0.246 CG0
ATOM     35  O   UNL     1     -10.140  -0.755  -1.579  1.00  0.00    -0.273 OA
ATOM     36  H   UNL     1     -11.907   1.565  -2.792  1.00  0.00     0.164 HD
ATOM     37  G   UNL     1      -9.680   1.629  -1.636  1.00  0.00     0.000 G0
ENDBRANCH  32  33
BRANCH  32  38
ATOM     38  C   UNL     1     -13.718  -0.716  -2.012  1.00  0.00     0.017 C 
ATOM     39  C   UNL     1     -13.955   0.550  -1.178  1.00  0.00     0.010 C 
BRANCH  38  40
ATOM     40  C   UNL     1     -15.021  -1.205  -2.686  1.00  0.00     0.002 C 
ATOM     41  C   UNL     1     -15.894  -2.060  -1.776  1.00  0.00     0.004 C 
ENDBRANCH  38  40
ENDBRANCH  32  38
ENDBRANCH  29  32
ENDBRANCH  23  26
ENDBRANCH   1  22
TORSDOF 4
ENDMDL
MODEL 4
REMARK VINA RESULT:    -6.418      2.921      5.207
REMARK INTER + INTRA:         -12.351
REMARK INTER:                 -10.625
REMARK INTRA:                  -1.726
REMARK UNBOUND:                -1.431
REMARK SMILES CC[C@H](C)[C@@H]1NC(=O)[C@H]2CSC(=N2)[C@@H]([C@@H](C)CC)NC(=O)c2csc(n2)CNC(=O)[C@H]2N=C1O[C@@H]2C
REMARK SMILES IDX 27 1 25 2 22 3 26 4 23 5 24 6 20 7 19 8 21 9 14 11 12 12
REMARK SMILES IDX 11 13 10 14 13 15 9 16 15 18 16 19 17 20 18 21 28 22 29 23
REMARK SMILES IDX 30 24 31 26 32 27 35 28 33 29 34 30 36 31 5 32 6 33 7 34
REMARK SMILES IDX 8 35 3 38 4 39 2 40 1 41
REMARK H PARENT 19 10 28 25 6 36
REMARK Flexibility Score:   91.900
ROOT
ATOM      1  C   UNL     1     -10.409   1.521  -8.608  1.00  0.00     0.183 C 
ENDROOT
BRANCH   1   2
ATOM      2  C   UNL     1     -10.591   0.790  -7.309  1.00  0.00     0.113 A 
ATOM      3  C   UNL     1     -10.177   0.094  -5.233  1.00  0.00     0.139 A 
ATOM      4  N   UNL     1      -9.845   1.002  -6.241  1.00  0.00    -0.234 NA
ATOM      5  C   UNL     1     -11.221  -0.754  -5.548  1.00  0.00     0.101 A 
ATOM      6  S   UNL     1     -11.782  -0.434  -7.138  1.00  0.00    -0.125 S 
BRANCH   3   7
ATOM      7  C   UNL     1      -9.412   0.073  -3.984  1.00  0.00     0.271 C 
ATOM      8  N   UNL     1      -8.546   1.135  -3.903  1.00  0.00    -0.341 N 
ATOM      9  O   UNL     1      -9.514  -0.808  -3.139  1.00  0.00    -0.267 OA
ATOM     10  H   UNL     1      -8.590   1.800  -4.675  1.00  0.00     0.164 HD
BRANCH   8  11
ATOM     11  C   UNL     1      -7.527   1.282  -2.877  1.00  0.00     0.140 C 
BRANCH  11  12
ATOM     12  C   UNL     1      -6.219   1.679  -3.567  1.00  0.00     0.091 C 
ATOM     13  S   UNL     1      -5.383   3.145  -3.108  1.00  0.00    -0.106 SA
ATOM     14  C   UNL     1      -3.935   2.630  -4.056  1.00  0.00     0.113 C 
ATOM     15  N   UNL     1      -5.727   0.996  -4.552  1.00  0.00    -0.267 NA
ATOM     16  C   UNL     1      -4.509   1.677  -5.093  1.00  0.00     0.205 CG0
ATOM     17  G   UNL     1      -4.832   2.424  -6.397  1.00  0.00     0.000 G0
ENDBRANCH  11  12
BRANCH  11  18
ATOM     18  C   UNL     1      -7.966   2.157  -1.675  1.00  0.00     0.015 C 
ATOM     19  C   UNL     1      -9.426   2.600  -1.839  1.00  0.00     0.010 C 
BRANCH  18  20
ATOM     20  C   UNL     1      -7.722   1.521  -0.291  1.00  0.00     0.002 C 
ATOM     21  C   UNL     1      -7.502   0.014  -0.360  1.00  0.00     0.004 C 
ENDBRANCH  18  20
ENDBRANCH  11  18
ENDBRANCH   8  11
ENDBRANCH   3   7
ENDBRANCH   1   2
BRANCH   1  22
ATOM     22  N   UNL     1      -9.129   1.127  -9.152  1.00  0.00    -0.348 N 
ATOM     23  C   UNL     1      -8.795   1.181 -10.478  1.00  0.00     0.249 C 
ATOM     24  O   UNL     1      -9.530   1.653 -11.338  1.00  0.00    -0.272 OA
ATOM     25  H   UNL     1      -8.448   0.699  -8.526  1.00  0.00     0.163 HD
BRANCH  23  26
ATOM     26  C   UNL     1      -7.384   0.643 -10.758  1.00  0.00     0.238 C 
ATOM     27  N   UNL     1      -6.399   1.752 -10.622  1.00  0.00    -0.236 NA
ATOM     28  C   UNL     1      -6.961  -0.403  -9.741  1.00  0.00     0.206 C 
ATOM     29  C   UNL     1      -5.738   1.433  -9.549  1.00  0.00     0.208 C 
ATOM     30  O   UNL     1      -6.047   0.289  -8.891  1.00  0.00    -0.474 OA
ATOM     31  C   UNL     1      -6.235  -1.579 -10.380  1.00  0.00     0.056 C 
BRANCH  29  32
ATOM     32  C   UNL     1      -4.640   2.259  -8.885  1.00  0.00     0.171 C 
BRANCH  32  33
ATOM     33  N   UNL     1      -4.371   1.778  -7.539  1.00  0.00    -0.342 N 
ATOM     34  C   UNL     1      -4.865   2.400  -6.417  1.00  0.00     0.246 CG0
ATOM     35  O   UNL     1      -5.547   3.420  -6.463  1.00  0.00    -0.273 OA
ATOM     36  H   UNL     1      -3.770   0.976  -7.379  1.00  0.00     0.164 HD
ATOM     37  G   UNL     1      -4.515   1.700  -5.094  1.00  0.00     0.000 G0
ENDBRANCH  32  33
BRANCH  32  38
ATOM     38  C   UNL     1      -3.367   2.283  -9.773  1.00  0.00     0.017 C 
ATOM     39  C   UNL     1      -2.226   2.998  -9.038  1.00  0.00     0.010 C 
BRANCH  38  40
ATOM     40  C   UNL     1      -2.942   0.878 -10.255  1.00  0.00     0.002 C 
ATOM     41  C   UNL     1      -2.709   0.794 -11.758  1.00  0.00     0.004 C 
ENDBRANCH  38  40
ENDBRANCH  32  38
ENDBRANCH  29  32
ENDBRANCH  23  26
ENDBRANCH   1  22
TORSDOF 4
ENDMDL
MODEL 5
REMARK VINA RESULT:    -6.387      2.690      6.707
REMARK INTER + INTRA:         -12.298
REMARK INTER:                 -11.185
REMARK INTRA:                  -1.113
REMARK UNBOUND:                -1.431
REMARK SMILES CC[C@H](C)[C@@H]1NC(=O)[C@H]2CSC(=N2)[C@@H]([C@@H](C)CC)NC(=O)c2csc(n2)CNC(=O)[C@H]2N=C1O[C@@H]2C
REMARK SMILES IDX 27 1 25 2 22 3 26 4 23 5 24 6 20 7 19 8 21 9 14 11 12 12
REMARK SMILES IDX 11 13 10 14 13 15 9 16 15 18 16 19 17 20 18 21 28 22 29 23
REMARK SMILES IDX 30 24 31 26 32 27 35 28 33 29 34 30 36 31 5 32 6 33 7 34
REMARK SMILES IDX 8 35 3 38 4 39 2 40 1 41
REMARK H PARENT 19 10 28 25 6 36
REMARK Flexibility Score:   91.900
ROOT
ATOM      1  C   UNL     1     -11.578  -0.632  -5.818  1.00  0.00     0.183 C 
ENDROOT
BRANCH   1   2
ATOM      2  C   UNL     1     -11.617   0.283  -7.009  1.00  0.00     0.113 A 
ATOM      3  C   UNL     1     -10.948   1.316  -8.866  1.00  0.00     0.139 A 
ATOM      4  N   UNL     1     -10.702   0.283  -7.960  1.00  0.00    -0.234 NA
ATOM      5  C   UNL     1     -12.092   2.045  -8.605  1.00  0.00     0.101 A 
ATOM      6  S   UNL     1     -12.863   1.449  -7.192  1.00  0.00    -0.125 S 
BRANCH   3   7
ATOM      7  C   UNL     1     -10.005   1.576  -9.956  1.00  0.00     0.271 C 
ATOM      8  N   UNL     1      -8.736   1.158  -9.638  1.00  0.00    -0.341 N 
ATOM      9  O   UNL     1     -10.313   2.130 -11.005  1.00  0.00    -0.267 OA
ATOM     10  H   UNL     1      -8.639   0.693  -8.736  1.00  0.00     0.164 HD
BRANCH   8  11
ATOM     11  C   UNL     1      -7.557   1.447 -10.436  1.00  0.00     0.140 C 
BRANCH  11  12
ATOM     12  C   UNL     1      -6.486   2.020  -9.503  1.00  0.00     0.091 C 
ATOM     13  S   UNL     1      -4.789   1.769  -9.838  1.00  0.00    -0.106 SA
ATOM     14  C   UNL     1      -4.347   2.989  -8.583  1.00  0.00     0.113 C 
ATOM     15  N   UNL     1      -6.792   2.639  -8.406  1.00  0.00    -0.267 NA
ATOM     16  C   UNL     1      -5.548   2.989  -7.650  1.00  0.00     0.205 CG0
ATOM     17  G   UNL     1      -5.327   2.018  -6.479  1.00  0.00     0.000 G0
ENDBRANCH  11  12
BRANCH  11  18
ATOM     18  C   UNL     1      -7.116   0.279 -11.355  1.00  0.00     0.015 C 
ATOM     19  C   UNL     1      -8.220  -0.783 -11.438  1.00  0.00     0.010 C 
BRANCH  18  20
ATOM     20  C   UNL     1      -6.639   0.707 -12.758  1.00  0.00     0.002 C 
ATOM     21  C   UNL     1      -5.671  -0.288 -13.387  1.00  0.00     0.004 C 
ENDBRANCH  18  20
ENDBRANCH  11  18
ENDBRANCH   8  11
ENDBRANCH   3   7
ENDBRANCH   1   2
BRANCH   1  22
ATOM     22  N   UNL     1     -10.728  -0.013  -4.825  1.00  0.00    -0.348 N 
ATOM     23  C   UNL     1     -10.034  -0.693  -3.861  1.00  0.00     0.249 C 
ATOM     24  O   UNL     1      -9.998  -1.916  -3.795  1.00  0.00    -0.272 OA
ATOM     25  H   UNL     1     -10.702   1.005  -4.776  1.00  0.00     0.163 HD
BRANCH  23  26
ATOM     26  C   UNL     1      -9.262   0.239  -2.915  1.00  0.00     0.238 C 
ATOM     27  N   UNL     1      -7.800   0.031  -3.106  1.00  0.00    -0.236 NA
ATOM     28  C   UNL     1      -9.508   1.704  -3.234  1.00  0.00     0.206 C 
ATOM     29  C   UNL     1      -7.411   1.138  -3.664  1.00  0.00     0.208 C 
ATOM     30  O   UNL     1      -8.316   2.119  -3.899  1.00  0.00    -0.474 OA
ATOM     31  C   UNL     1      -9.687   2.552  -1.982  1.00  0.00     0.056 C 
BRANCH  29  32
ATOM     32  C   UNL     1      -6.002   1.457  -4.156  1.00  0.00     0.171 C 
BRANCH  32  33
ATOM     33  N   UNL     1      -6.044   2.301  -5.340  1.00  0.00    -0.342 N 
ATOM     34  C   UNL     1      -5.323   2.021  -6.476  1.00  0.00     0.246 CG0
ATOM     35  O   UNL     1      -4.571   1.054  -6.571  1.00  0.00    -0.273 OA
ATOM     36  H   UNL     1      -6.586   3.159  -5.353  1.00  0.00     0.164 HD
ATOM     37  G   UNL     1      -5.552   3.005  -7.635  1.00  0.00     0.000 G0
ENDBRANCH  32  33
BRANCH  32  38
ATOM     38  C   UNL     1      -5.156   2.077  -3.013  1.00  0.00     0.017 C 
ATOM     39  C   UNL     1      -5.131   1.133  -1.804  1.00  0.00     0.010 C 
BRANCH  38  40
ATOM     40  C   UNL     1      -3.728   2.464  -3.462  1.00  0.00     0.002 C 
ATOM     41  C   UNL     1      -2.631   1.855  -2.597  1.00  0.00     0.004 C 
ENDBRANCH  38  40
ENDBRANCH  32  38
ENDBRANCH  29  32
ENDBRANCH  23  26
ENDBRANCH   1  22
TORSDOF 4
ENDMDL
MODEL 6
REMARK VINA RESULT:    -6.239      3.783      7.117
REMARK INTER + INTRA:         -12.047
REMARK INTER:                 -10.757
REMARK INTRA:                  -1.289
REMARK UNBOUND:                -1.431
REMARK SMILES CC[C@H](C)[C@@H]1NC(=O)[C@H]2CSC(=N2)[C@@H]([C@@H](C)CC)NC(=O)c2csc(n2)CNC(=O)[C@H]2N=C1O[C@@H]2C
REMARK SMILES IDX 27 1 25 2 22 3 26 4 23 5 24 6 20 7 19 8 21 9 14 11 12 12
REMARK SMILES IDX 11 13 10 14 13 15 9 16 15 18 16 19 17 20 18 21 28 22 29 23
REMARK SMILES IDX 30 24 31 26 32 27 35 28 33 29 34 30 36 31 5 32 6 33 7 34
REMARK SMILES IDX 8 35 3 38 4 39 2 40 1 41
REMARK H PARENT 19 10 28 25 6 36
REMARK Flexibility Score:   91.900
ROOT
ATOM      1  C   UNL     1      -8.412   0.497  -3.761  1.00  0.00     0.183 C 
ENDROOT
BRANCH   1   2
ATOM      2  C   UNL     1      -9.480   0.690  -4.799  1.00  0.00     0.113 A 
ATOM      3  C   UNL     1     -11.351   0.336  -5.956  1.00  0.00     0.139 A 
ATOM      4  N   UNL     1     -10.618   0.020  -4.810  1.00  0.00    -0.234 NA
ATOM      5  C   UNL     1     -10.769   1.293  -6.763  1.00  0.00     0.101 A 
ATOM      6  S   UNL     1      -9.267   1.793  -6.097  1.00  0.00    -0.125 S 
BRANCH   3   7
ATOM      7  C   UNL     1     -12.608  -0.362  -6.237  1.00  0.00     0.271 C 
ATOM      8  N   UNL     1     -13.674   0.504  -6.259  1.00  0.00    -0.341 N 
ATOM      9  O   UNL     1     -12.693  -1.573  -6.396  1.00  0.00    -0.267 OA
ATOM     10  H   UNL     1     -13.444   1.489  -6.132  1.00  0.00     0.164 HD
BRANCH   8  11
ATOM     11  C   UNL     1     -15.065   0.087  -6.326  1.00  0.00     0.140 C 
BRANCH  11  12
ATOM     12  C   UNL     1     -15.617   0.060  -4.899  1.00  0.00     0.091 C 
ATOM     13  S   UNL     1     -17.176   0.765  -4.537  1.00  0.00    -0.106 SA
ATOM     14  C   UNL     1     -17.157  -0.002  -2.903  1.00  0.00     0.113 C 
ATOM     15  N   UNL     1     -14.931  -0.411  -3.905  1.00  0.00    -0.267 NA
ATOM     16  C   UNL     1     -15.677  -0.208  -2.623  1.00  0.00     0.205 CG0
ATOM     17  G   UNL     1     -15.101   0.981  -1.837  1.00  0.00     0.000 G0
ENDBRANCH  11  12
BRANCH  11  18
ATOM     18  C   UNL     1     -15.904   0.860  -7.376  1.00  0.00     0.015 C 
ATOM     19  C   UNL     1     -15.139   2.096  -7.867  1.00  0.00     0.010 C 
BRANCH  18  20
ATOM     20  C   UNL     1     -16.408   0.004  -8.556  1.00  0.00     0.002 C 
ATOM     21  C   UNL     1     -16.549  -1.473  -8.202  1.00  0.00     0.004 C 
ENDBRANCH  18  20
ENDBRANCH  11  18
ENDBRANCH   8  11
ENDBRANCH   3   7
ENDBRANCH   1   2
BRANCH   1  22
ATOM     22  N   UNL     1      -8.896   1.075  -2.528  1.00  0.00    -0.348 N 
ATOM     23  C   UNL     1      -9.491   0.370  -1.517  1.00  0.00     0.249 C 
ATOM     24  O   UNL     1      -9.598  -0.851  -1.521  1.00  0.00    -0.272 OA
ATOM     25  H   UNL     1      -8.876   2.089  -2.428  1.00  0.00     0.163 HD
BRANCH  23  26
ATOM     26  C   UNL     1      -9.951   1.266  -0.357  1.00  0.00     0.238 C 
ATOM     27  N   UNL     1     -11.232   1.930  -0.728  1.00  0.00    -0.236 NA
ATOM     28  C   UNL     1     -10.258   0.463   0.895  1.00  0.00     0.206 C 
ATOM     29  C   UNL     1     -12.099   1.365   0.057  1.00  0.00     0.208 C 
ATOM     30  O   UNL     1     -11.684   0.426   0.942  1.00  0.00    -0.474 OA
ATOM     31  C   UNL     1      -9.747   1.136   2.161  1.00  0.00     0.056 C 
BRANCH  29  32
ATOM     32  C   UNL     1     -13.606   1.608   0.065  1.00  0.00     0.171 C 
BRANCH  32  33
ATOM     33  N   UNL     1     -14.294   0.630  -0.763  1.00  0.00    -0.342 N 
ATOM     34  C   UNL     1     -15.077   0.985  -1.835  1.00  0.00     0.246 CG0
ATOM     35  O   UNL     1     -15.277   2.153  -2.160  1.00  0.00    -0.273 OA
ATOM     36  H   UNL     1     -14.248  -0.361  -0.551  1.00  0.00     0.164 HD
ATOM     37  G   UNL     1     -15.668  -0.201  -2.614  1.00  0.00     0.000 G0
ENDBRANCH  32  33
BRANCH  32  38
ATOM     38  C   UNL     1     -14.143   1.639   1.520  1.00  0.00     0.017 C 
ATOM     39  C   UNL     1     -13.285   2.577   2.378  1.00  0.00     0.010 C 
BRANCH  38  40
ATOM     40  C   UNL     1     -15.643   2.006   1.601  1.00  0.00     0.002 C 
ATOM     41  C   UNL     1     -15.905   3.355   2.256  1.00  0.00     0.004 C 
ENDBRANCH  38  40
ENDBRANCH  32  38
ENDBRANCH  29  32
ENDBRANCH  23  26
ENDBRANCH   1  22
TORSDOF 4
ENDMDL
MODEL 7
REMARK VINA RESULT:    -5.932      3.932      7.859
REMARK INTER + INTRA:         -11.523
REMARK INTER:                  -9.803
REMARK INTRA:                  -1.721
REMARK UNBOUND:                -1.431
REMARK SMILES CC[C@H](C)[C@@H]1NC(=O)[C@H]2CSC(=N2)[C@@H]([C@@H](C)CC)NC(=O)c2csc(n2)CNC(=O)[C@H]2N=C1O[C@@H]2C
REMARK SMILES IDX 27 1 25 2 22 3 26 4 23 5 24 6 20 7 19 8 21 9 14 11 12 12
REMARK SMILES IDX 11 13 10 14 13 15 9 16 15 18 16 19 17 20 18 21 28 22 29 23
REMARK SMILES IDX 30 24 31 26 32 27 35 28 33 29 34 30 36 31 5 32 6 33 7 34
REMARK SMILES IDX 8 35 3 38 4 39 2 40 1 41
REMARK H PARENT 19 10 28 25 6 36
REMARK Flexibility Score:   91.900
ROOT
ATOM      1  C   UNL     1     -10.611   1.312  -7.478  1.00  0.00     0.183 C 
ENDROOT
BRANCH   1   2
ATOM      2  C   UNL     1     -10.271   0.930  -6.066  1.00  0.00     0.113 A 
ATOM      3  C   UNL     1     -10.117   1.072  -3.847  1.00  0.00     0.139 A 
ATOM      4  N   UNL     1     -10.688   1.600  -5.007  1.00  0.00    -0.234 NA
ATOM      5  C   UNL     1      -9.317  -0.035  -4.056  1.00  0.00     0.101 A 
ATOM      6  S   UNL     1      -9.255  -0.412  -5.729  1.00  0.00    -0.125 S 
BRANCH   3   7
ATOM      7  C   UNL     1     -10.355   1.716  -2.554  1.00  0.00     0.271 C 
ATOM      8  N   UNL     1     -11.278   1.026  -1.807  1.00  0.00    -0.341 N 
ATOM      9  O   UNL     1      -9.819   2.761  -2.205  1.00  0.00    -0.267 OA
ATOM     10  H   UNL     1     -11.620   0.160  -2.221  1.00  0.00     0.164 HD
BRANCH   8  11
ATOM     11  C   UNL     1     -11.856   1.516  -0.566  1.00  0.00     0.140 C 
BRANCH  11  12
ATOM     12  C   UNL     1     -13.378   1.391  -0.676  1.00  0.00     0.091 C 
ATOM     13  S   UNL     1     -14.283   0.487   0.516  1.00  0.00    -0.106 SA
ATOM     14  C   UNL     1     -15.830   1.151  -0.135  1.00  0.00     0.113 C 
ATOM     15  N   UNL     1     -14.037   1.879  -1.679  1.00  0.00    -0.267 NA
ATOM     16  C   UNL     1     -15.484   1.513  -1.571  1.00  0.00     0.205 CG0
ATOM     17  G   UNL     1     -15.829   0.355  -2.522  1.00  0.00     0.000 G0
ENDBRANCH  11  12
BRANCH  11  18
ATOM     18  C   UNL     1     -11.206   0.921   0.709  1.00  0.00     0.015 C 
ATOM     19  C   UNL     1     -10.353  -0.304   0.354  1.00  0.00     0.010 C 
BRANCH  18  20
ATOM     20  C   UNL     1     -10.411   1.933   1.560  1.00  0.00     0.002 C 
ATOM     21  C   UNL     1      -9.762   1.301   2.786  1.00  0.00     0.004 C 
ENDBRANCH  18  20
ENDBRANCH  11  18
ENDBRANCH   8  11
ENDBRANCH   3   7
ENDBRANCH   1   2
BRANCH   1  22
ATOM     22  N   UNL     1     -12.044   1.195  -7.625  1.00  0.00    -0.348 N 
ATOM     23  C   UNL     1     -12.714   0.019  -7.823  1.00  0.00     0.249 C 
ATOM     24  O   UNL     1     -12.166  -1.078  -7.811  1.00  0.00    -0.272 OA
ATOM     25  H   UNL     1     -12.598   2.050  -7.672  1.00  0.00     0.163 HD
BRANCH  23  26
ATOM     26  C   UNL     1     -14.227   0.218  -7.999  1.00  0.00     0.238 C 
ATOM     27  N   UNL     1     -14.953  -0.660  -7.039  1.00  0.00    -0.236 NA
ATOM     28  C   UNL     1     -14.658   1.635  -7.661  1.00  0.00     0.206 C 
ATOM     29  C   UNL     1     -15.471   0.184  -6.198  1.00  0.00     0.208 C 
ATOM     30  O   UNL     1     -15.272   1.513  -6.379  1.00  0.00    -0.474 OA
ATOM     31  C   UNL     1     -15.685   2.183  -8.642  1.00  0.00     0.056 C 
BRANCH  29  32
ATOM     32  C   UNL     1     -16.272  -0.163  -4.946  1.00  0.00     0.171 C 
BRANCH  32  33
ATOM     33  N   UNL     1     -15.976   0.767  -3.867  1.00  0.00    -0.342 N 
ATOM     34  C   UNL     1     -15.848   0.366  -2.558  1.00  0.00     0.246 CG0
ATOM     35  O   UNL     1     -15.998  -0.798  -2.196  1.00  0.00    -0.273 OA
ATOM     36  H   UNL     1     -15.890   1.762  -4.041  1.00  0.00     0.164 HD
ATOM     37  G   UNL     1     -15.476   1.493  -1.581  1.00  0.00     0.000 G0
ENDBRANCH  32  33
BRANCH  32  38
ATOM     38  C   UNL     1     -17.787  -0.233  -5.272  1.00  0.00     0.017 C 
ATOM     39  C   UNL     1     -18.383  -1.537  -4.726  1.00  0.00     0.010 C 
BRANCH  38  40
ATOM     40  C   UNL     1     -18.569   1.003  -4.772  1.00  0.00     0.002 C 
ATOM     41  C   UNL     1     -19.686   1.438  -5.712  1.00  0.00     0.004 C 
ENDBRANCH  38  40
ENDBRANCH  32  38
ENDBRANCH  29  32
ENDBRANCH  23  26
ENDBRANCH   1  22
TORSDOF 4
ENDMDL
MODEL 8
REMARK VINA RESULT:    -5.864      2.212      3.010
REMARK INTER + INTRA:         -11.409
REMARK INTER:                  -9.877
REMARK INTRA:                  -1.532
REMARK UNBOUND:                -1.431
REMARK SMILES CC[C@H](C)[C@@H]1NC(=O)[C@H]2CSC(=N2)[C@@H]([C@@H](C)CC)NC(=O)c2csc(n2)CNC(=O)[C@H]2N=C1O[C@@H]2C
REMARK SMILES IDX 27 1 25 2 22 3 26 4 23 5 24 6 20 7 19 8 21 9 14 11 12 12
REMARK SMILES IDX 11 13 10 14 13 15 9 16 15 18 16 19 17 20 18 21 28 22 29 23
REMARK SMILES IDX 30 24 31 26 32 27 35 28 33 29 34 30 36 31 5 32 6 33 7 34
REMARK SMILES IDX 8 35 3 38 4 39 2 40 1 41
REMARK H PARENT 19 10 28 25 6 36
REMARK Flexibility Score:   91.900
ROOT
ATOM      1  C   UNL     1      -8.565   2.316  -6.304  1.00  0.00     0.183 C 
ENDROOT
BRANCH   1   2
ATOM      2  C   UNL     1      -9.765   1.446  -6.063  1.00  0.00     0.113 A 
ATOM      3  C   UNL     1     -11.187   0.104  -4.994  1.00  0.00     0.139 A 
ATOM      4  N   UNL     1     -10.095   0.967  -4.878  1.00  0.00    -0.234 NA
ATOM      5  C   UNL     1     -11.698  -0.004  -6.272  1.00  0.00     0.101 A 
ATOM      6  S   UNL     1     -10.788   0.967  -7.356  1.00  0.00    -0.125 S 
BRANCH   3   7
ATOM      7  C   UNL     1     -11.671  -0.627  -3.821  1.00  0.00     0.271 C 
ATOM      8  N   UNL     1     -12.283   0.209  -2.920  1.00  0.00    -0.341 N 
ATOM      9  O   UNL     1     -11.513  -1.831  -3.656  1.00  0.00    -0.267 OA
ATOM     10  H   UNL     1     -12.361   1.184  -3.207  1.00  0.00     0.164 HD
BRANCH   8  11
ATOM     11  C   UNL     1     -12.696  -0.189  -1.585  1.00  0.00     0.140 C 
BRANCH  11  12
ATOM     12  C   UNL     1     -11.705   0.415  -0.586  1.00  0.00     0.091 C 
ATOM     13  S   UNL     1     -12.189   1.727   0.462  1.00  0.00    -0.106 SA
ATOM     14  C   UNL     1     -10.679   1.525   1.432  1.00  0.00     0.113 C 
ATOM     15  N   UNL     1     -10.467   0.034  -0.532  1.00  0.00    -0.267 NA
ATOM     16  C   UNL     1      -9.715   0.869   0.456  1.00  0.00     0.205 CG0
ATOM     17  G   UNL     1      -8.860   1.928  -0.259  1.00  0.00     0.000 G0
ENDBRANCH  11  12
BRANCH  11  18
ATOM     18  C   UNL     1     -14.200   0.050  -1.293  1.00  0.00     0.015 C 
ATOM     19  C   UNL     1     -14.901   0.623  -2.531  1.00  0.00     0.010 C 
BRANCH  18  20
ATOM     20  C   UNL     1     -14.952  -1.177  -0.737  1.00  0.00     0.002 C 
ATOM     21  C   UNL     1     -15.146  -2.277  -1.775  1.00  0.00     0.004 C 
ENDBRANCH  18  20
ENDBRANCH  11  18
ENDBRANCH   8  11
ENDBRANCH   3   7
ENDBRANCH   1   2
BRANCH   1  22
ATOM     22  N   UNL     1      -7.575   1.973  -5.308  1.00  0.00    -0.348 N 
ATOM     23  C   UNL     1      -6.366   2.598  -5.162  1.00  0.00     0.249 C 
ATOM     24  O   UNL     1      -6.035   3.581  -5.816  1.00  0.00    -0.272 OA
ATOM     25  H   UNL     1      -7.740   1.154  -4.723  1.00  0.00     0.163 HD
BRANCH  23  26
ATOM     26  C   UNL     1      -5.504   1.976  -4.053  1.00  0.00     0.238 C 
ATOM     27  N   UNL     1      -5.474   2.894  -2.881  1.00  0.00    -0.236 NA
ATOM     28  C   UNL     1      -6.094   0.675  -3.536  1.00  0.00     0.206 C 
ATOM     29  C   UNL     1      -6.159   2.252  -1.983  1.00  0.00     0.208 C 
ATOM     30  O   UNL     1      -6.667   1.031  -2.278  1.00  0.00    -0.474 OA
ATOM     31  C   UNL     1      -5.036  -0.395  -3.303  1.00  0.00     0.056 C 
BRANCH  29  32
ATOM     32  C   UNL     1      -6.519   2.758  -0.588  1.00  0.00     0.171 C 
BRANCH  32  33
ATOM     33  N   UNL     1      -7.504   1.891   0.040  1.00  0.00    -0.342 N 
ATOM     34  C   UNL     1      -8.839   1.927  -0.287  1.00  0.00     0.246 CG0
ATOM     35  O   UNL     1      -9.306   2.707  -1.112  1.00  0.00    -0.273 OA
ATOM     36  H   UNL     1      -7.241   1.247   0.778  1.00  0.00     0.164 HD
ATOM     37  G   UNL     1      -9.702   0.889   0.449  1.00  0.00     0.000 G0
ENDBRANCH  32  33
BRANCH  32  38
ATOM     38  C   UNL     1      -5.241   2.928   0.274  1.00  0.00     0.017 C 
ATOM     39  C   UNL     1      -5.620   3.098   1.751  1.00  0.00     0.010 C 
BRANCH  38  40
ATOM     40  C   UNL     1      -4.223   1.781   0.076  1.00  0.00     0.002 C 
ATOM     41  C   UNL     1      -2.844   2.259  -0.361  1.00  0.00     0.004 C 
ENDBRANCH  38  40
ENDBRANCH  32  38
ENDBRANCH  29  32
ENDBRANCH  23  26
ENDBRANCH   1  22
TORSDOF 4
ENDMDL
MODEL 9
REMARK VINA RESULT:    -5.741      3.055      5.081
REMARK INTER + INTRA:         -11.200
REMARK INTER:                  -9.727
REMARK INTRA:                  -1.472
REMARK UNBOUND:                -1.431
REMARK SMILES CC[C@H](C)[C@@H]1NC(=O)[C@H]2CSC(=N2)[C@@H]([C@@H](C)CC)NC(=O)c2csc(n2)CNC(=O)[C@H]2N=C1O[C@@H]2C
REMARK SMILES IDX 27 1 25 2 22 3 26 4 23 5 24 6 20 7 19 8 21 9 14 11 12 12
REMARK SMILES IDX 11 13 10 14 13 15 9 16 15 18 16 19 17 20 18 21 28 22 29 23
REMARK SMILES IDX 30 24 31 26 32 27 35 28 33 29 34 30 36 31 5 32 6 33 7 34
REMARK SMILES IDX 8 35 3 38 4 39 2 40 1 41
REMARK H PARENT 19 10 28 25 6 36
REMARK Flexibility Score:   91.900
ROOT
ATOM      1  C   UNL     1      -8.641   0.391  -6.785  1.00  0.00     0.183 C 
ENDROOT
BRANCH   1   2
ATOM      2  C   UNL     1     -10.091   0.564  -7.137  1.00  0.00     0.113 A 
ATOM      3  C   UNL     1     -12.277   0.143  -7.235  1.00  0.00     0.139 A 
ATOM      4  N   UNL     1     -11.059  -0.177  -6.631  1.00  0.00    -0.234 NA
ATOM      5  C   UNL     1     -12.207   1.173  -8.152  1.00  0.00     0.101 A 
ATOM      6  S   UNL     1     -10.592   1.737  -8.286  1.00  0.00    -0.125 S 
BRANCH   3   7
ATOM      7  C   UNL     1     -13.482  -0.620  -6.904  1.00  0.00     0.271 C 
ATOM      8  N   UNL     1     -14.348   0.111  -6.129  1.00  0.00    -0.341 N 
ATOM      9  O   UNL     1     -13.670  -1.779  -7.252  1.00  0.00    -0.267 OA
ATOM     10  H   UNL     1     -14.065   1.072  -5.939  1.00  0.00     0.164 HD
BRANCH   8  11
ATOM     11  C   UNL     1     -15.535  -0.435  -5.491  1.00  0.00     0.140 C 
BRANCH  11  12
ATOM     12  C   UNL     1     -15.393  -0.228  -3.980  1.00  0.00     0.091 C 
ATOM     13  S   UNL     1     -16.674   0.532  -3.065  1.00  0.00    -0.106 SA
ATOM     14  C   UNL     1     -15.880   0.039  -1.520  1.00  0.00     0.113 C 
ATOM     15  N   UNL     1     -14.307  -0.535  -3.343  1.00  0.00    -0.267 NA
ATOM     16  C   UNL     1     -14.418  -0.125  -1.908  1.00  0.00     0.205 CG0
ATOM     17  G   UNL     1     -13.638   1.174  -1.647  1.00  0.00     0.000 G0
ENDBRANCH  11  12
BRANCH  11  18
ATOM     18  C   UNL     1     -16.867   0.036  -6.129  1.00  0.00     0.015 C 
ATOM     19  C   UNL     1     -16.740   1.482  -6.627  1.00  0.00     0.010 C 
BRANCH  18  20
ATOM     20  C   UNL     1     -17.417  -0.893  -7.230  1.00  0.00     0.002 C 
ATOM     21  C   UNL     1     -17.106  -0.397  -8.638  1.00  0.00     0.004 C 
ENDBRANCH  18  20
ENDBRANCH  11  18
ENDBRANCH   8  11
ENDBRANCH   3   7
ENDBRANCH   1   2
BRANCH   1  22
ATOM     22  N   UNL     1      -8.496   0.712  -5.383  1.00  0.00    -0.348 N 
ATOM     23  C   UNL     1      -8.592   1.972  -4.857  1.00  0.00     0.249 C 
ATOM     24  O   UNL     1      -8.899   2.956  -5.522  1.00  0.00    -0.272 OA
ATOM     25  H   UNL     1      -8.217  -0.030  -4.742  1.00  0.00     0.163 HD
BRANCH  23  26
ATOM     26  C   UNL     1      -8.335   2.007  -3.343  1.00  0.00     0.238 C 
ATOM     27  N   UNL     1      -9.430   2.766  -2.677  1.00  0.00    -0.236 NA
ATOM     28  C   UNL     1      -8.370   0.618  -2.728  1.00  0.00     0.206 C 
ATOM     29  C   UNL     1     -10.069   1.847  -2.016  1.00  0.00     0.208 C 
ATOM     30  O   UNL     1      -9.632   0.565  -2.065  1.00  0.00    -0.474 OA
ATOM     31  C   UNL     1      -7.269   0.408  -1.698  1.00  0.00     0.056 C 
BRANCH  29  32
ATOM     32  C   UNL     1     -11.342   2.042  -1.197  1.00  0.00     0.171 C 
BRANCH  32  33
ATOM     33  N   UNL     1     -12.276   0.950  -1.421  1.00  0.00    -0.342 N 
ATOM     34  C   UNL     1     -13.618   1.155  -1.636  1.00  0.00     0.246 CG0
ATOM     35  O   UNL     1     -14.135   2.270  -1.632  1.00  0.00    -0.273 OA
ATOM     36  H   UNL     1     -11.970  -0.017  -1.387  1.00  0.00     0.164 HD
ATOM     37  G   UNL     1     -14.422  -0.126  -1.910  1.00  0.00     0.000 G0
ENDBRANCH  32  33
BRANCH  32  38
ATOM     38  C   UNL     1     -10.997   2.232   0.304  1.00  0.00     0.017 C 
ATOM     39  C   UNL     1     -12.089   3.060   0.994  1.00  0.00     0.010 C 
BRANCH  38  40
ATOM     40  C   UNL     1     -10.746   0.895   1.038  1.00  0.00     0.002 C 
ATOM     41  C   UNL     1     -10.045   1.060   2.380  1.00  0.00     0.004 C 
ENDBRANCH  38  40
ENDBRANCH  32  38
ENDBRANCH  29  32
ENDBRANCH  23  26
ENDBRANCH   1  22
TORSDOF 4
ENDMDL
MODEL 10
REMARK VINA RESULT:    -5.714      3.356      4.834
REMARK INTER + INTRA:         -11.153
REMARK INTER:                 -11.536
REMARK INTRA:                   0.383
REMARK UNBOUND:                -1.431
REMARK SMILES CC[C@H](C)[C@@H]1NC(=O)[C@H]2CSC(=N2)[C@@H]([C@@H](C)CC)NC(=O)c2csc(n2)CNC(=O)[C@H]2N=C1O[C@@H]2C
REMARK SMILES IDX 27 1 25 2 22 3 26 4 23 5 24 6 20 7 19 8 21 9 14 11 12 12
REMARK SMILES IDX 11 13 10 14 13 15 9 16 15 18 16 19 17 20 18 21 28 22 29 23
REMARK SMILES IDX 30 24 31 26 32 27 35 28 33 29 34 30 36 31 5 32 6 33 7 34
REMARK SMILES IDX 8 35 3 38 4 39 2 40 1 41
REMARK H PARENT 19 10 28 25 6 36
REMARK Flexibility Score:   91.900
ROOT
ATOM      1  C   UNL     1      -8.867   1.131  -9.347  1.00  0.00     0.183 C 
ENDROOT
BRANCH   1   2
ATOM      2  C   UNL     1      -9.039   1.337  -7.869  1.00  0.00     0.113 A 
ATOM      3  C   UNL     1      -8.501   1.547  -5.717  1.00  0.00     0.139 A 
ATOM      4  N   UNL     1      -8.032   1.494  -7.031  1.00  0.00    -0.234 NA
ATOM      5  C   UNL     1      -9.876   1.486  -5.598  1.00  0.00     0.101 A 
ATOM      6  S   UNL     1     -10.597   1.335  -7.149  1.00  0.00    -0.125 S 
BRANCH   3   7
ATOM      7  C   UNL     1      -7.554   1.619  -4.602  1.00  0.00     0.271 C 
ATOM      8  N   UNL     1      -7.834   0.680  -3.639  1.00  0.00    -0.341 N 
ATOM      9  O   UNL     1      -6.649   2.440  -4.530  1.00  0.00    -0.267 OA
ATOM     10  H   UNL     1      -8.606   0.049  -3.851  1.00  0.00     0.164 HD
BRANCH   8  11
ATOM     11  C   UNL     1      -7.190   0.628  -2.337  1.00  0.00     0.140 C 
BRANCH  11  12
ATOM     12  C   UNL     1      -5.688   0.844  -2.548  1.00  0.00     0.091 C 
ATOM     13  S   UNL     1      -4.796   1.938  -1.518  1.00  0.00    -0.106 SA
ATOM     14  C   UNL     1      -3.237   1.311  -2.179  1.00  0.00     0.113 C 
ATOM     15  N   UNL     1      -5.045   0.290  -3.527  1.00  0.00    -0.267 NA
ATOM     16  C   UNL     1      -3.626   0.764  -3.544  1.00  0.00     0.205 CG0
ATOM     17  G   UNL     1      -3.416   1.826  -4.636  1.00  0.00     0.000 G0
ENDBRANCH  11  12
BRANCH  11  18
ATOM     18  C   UNL     1      -7.869   1.514  -1.262  1.00  0.00     0.015 C 
ATOM     19  C   UNL     1      -9.102   2.215  -1.847  1.00  0.00     0.010 C 
BRANCH  18  20
ATOM     20  C   UNL     1      -8.207   0.785   0.055  1.00  0.00     0.002 C 
ATOM     21  C   UNL     1      -9.564   1.183   0.624  1.00  0.00     0.004 C 
ENDBRANCH  18  20
ENDBRANCH  11  18
ENDBRANCH   8  11
ENDBRANCH   3   7
ENDBRANCH   1   2
BRANCH   1  22
ATOM     22  N   UNL     1      -7.488   1.423  -9.667  1.00  0.00    -0.348 N 
ATOM     23  C   UNL     1      -6.456   0.531  -9.555  1.00  0.00     0.249 C 
ATOM     24  O   UNL     1      -6.615  -0.646  -9.249  1.00  0.00    -0.272 OA
ATOM     25  H   UNL     1      -7.239   2.381  -9.912  1.00  0.00     0.163 HD
BRANCH  23  26
ATOM     26  C   UNL     1      -5.095   1.146  -9.913  1.00  0.00     0.238 C 
ATOM     27  N   UNL     1      -4.731   2.164  -8.888  1.00  0.00    -0.236 NA
ATOM     28  C   UNL     1      -3.978   0.117  -9.878  1.00  0.00     0.206 C 
ATOM     29  C   UNL     1      -3.730   1.616  -8.267  1.00  0.00     0.208 C 
ATOM     30  O   UNL     1      -3.287   0.397  -8.662  1.00  0.00    -0.474 OA
ATOM     31  C   UNL     1      -3.004   0.272 -11.039  1.00  0.00     0.056 C 
BRANCH  29  32
ATOM     32  C   UNL     1      -2.994   2.186  -7.058  1.00  0.00     0.171 C 
BRANCH  32  33
ATOM     33  N   UNL     1      -3.164   1.330  -5.895  1.00  0.00    -0.342 N 
ATOM     34  C   UNL     1      -3.395   1.829  -4.635  1.00  0.00     0.246 CG0
ATOM     35  O   UNL     1      -3.450   3.032  -4.390  1.00  0.00    -0.273 OA
ATOM     36  H   UNL     1      -3.080   0.322  -5.969  1.00  0.00     0.164 HD
ATOM     37  G   UNL     1      -3.605   0.756  -3.554  1.00  0.00     0.000 G0
ENDBRANCH  32  33
BRANCH  32  38
ATOM     38  C   UNL     1      -1.501   2.436  -7.400  1.00  0.00     0.017 C 
ATOM     39  C   UNL     1      -1.386   3.371  -8.610  1.00  0.00     0.010 C 
BRANCH  38  40
ATOM     40  C   UNL     1      -0.686   2.961  -6.195  1.00  0.00     0.002 C 
ATOM     41  C   UNL     1       0.692   3.486  -6.574  1.00  0.00     0.004 C 
ENDBRANCH  38  40
ENDBRANCH  32  38
ENDBRANCH  29  32
ENDBRANCH  23  26
ENDBRANCH   1  22
TORSDOF 4
ENDMDL
