MODEL 1
REMARK VINA RESULT:    -7.464      0.000      0.000
REMARK INTER + INTRA:         -17.505
REMARK INTER:                 -15.100
REMARK INTRA:                  -2.405
REMARK UNBOUND:                -2.405
REMARK SMILES CC[C@@H](C)[C@@H](NC(=O)[C@@H](O)Cc1ccc(O)c(Cl)c1)C(=O)N1[C@H](C(=O)NCCCCN=C(N)N)C[C@H]2CC[C@H](OS(=O)(=O)O)C[C@@H]21
REMARK SMILES IDX 22 1 36 2 46 3 35 4 23 5 45 6 37 7 39 8 38 9 20 10 21 11
REMARK SMILES IDX 5 12 6 13 7 14 8 15 9 17 11 18 12 19 17 20 19 21 15 22 14 23
REMARK SMILES IDX 13 24 18 25 16 26 10 28 3 30 4 31 2 32 1 33 24 34 25 35
REMARK SMILES IDX 26 36 27 38 28 39 29 40 30 41 31 42 32 43 33 44 34 45 40 50
REMARK SMILES IDX 41 51 42 52 43 53 44 54
REMARK H PARENT 6 16 16 27 10 29 26 37 33 46 33 47 34 48 34 49 44 55
ROOT
ATOM      1  N   UNL     1       2.845   8.001   6.415  1.00  0.00    -0.326 N 
ATOM      2  C   UNL     1       2.013  10.053   7.216  1.00  0.00     0.014 C 
ATOM      3  C   UNL     1       2.438   9.326   5.937  1.00  0.00     0.091 C 
ATOM      4  C   UNL     1       2.975   9.495   8.254  1.00  0.00     0.041 C 
ATOM      5  C   UNL     1       2.922   7.998   7.897  1.00  0.00     0.175 C 
ATOM      6  C   UNL     1       1.294   9.411   4.929  1.00  0.00     0.059 C 
ATOM      7  C   UNL     1       1.948  11.551   6.992  1.00  0.00     0.008 C 
ATOM      8  C   UNL     1       0.458  10.705   5.046  1.00  0.00     0.143 C 
ATOM      9  C   UNL     1       1.275  11.870   5.640  1.00  0.00     0.034 C 
ENDROOT
BRANCH   1  10
ATOM     10  C   UNL     1       3.342   6.917   5.711  1.00  0.00     0.246 C 
ATOM     11  O   UNL     1       4.516   6.937   5.326  1.00  0.00    -0.272 OA
BRANCH  10  12
ATOM     12  C   UNL     1       2.428   5.683   5.459  1.00  0.00     0.174 C 
BRANCH  12  13
ATOM     13  N   UNL     1       3.196   4.450   5.634  1.00  0.00    -0.342 N 
ATOM     14  C   UNL     1       3.555   3.909   6.848  1.00  0.00     0.249 C 
ATOM     15  O   UNL     1       3.244   4.392   7.929  1.00  0.00    -0.272 OA
ATOM     16  H   UNL     1       3.655   4.025   4.833  1.00  0.00     0.164 HD
BRANCH  14  17
ATOM     17  C   UNL     1       4.378   2.611   6.701  1.00  0.00     0.207 C 
BRANCH  17  18
ATOM     18  C   UNL     1       3.805   1.738   5.580  1.00  0.00     0.077 C 
BRANCH  18  19
ATOM     19  C   UNL     1       4.691   0.549   5.285  1.00  0.00    -0.043 A 
ATOM     20  C   UNL     1       5.093  -1.843   5.353  1.00  0.00     0.083 A 
ATOM     21  C   UNL     1       4.254  -0.752   5.581  1.00  0.00     0.028 A 
ATOM     22  C   UNL     1       6.372  -1.643   4.833  1.00  0.00     0.134 A 
ATOM     23  C   UNL     1       6.819  -0.360   4.535  1.00  0.00     0.048 A 
ATOM     24  C   UNL     1       5.981   0.734   4.764  1.00  0.00     0.008 A 
ATOM     25  Cl  UNL     1       4.538  -3.433   5.723  1.00  0.00    -0.080 Cl
BRANCH  22  26
ATOM     26  O   UNL     1       7.235  -2.680   4.602  1.00  0.00    -0.506 OA
ATOM     27  H   UNL     1       7.301  -3.179   5.437  1.00  0.00     0.293 HD
ENDBRANCH  22  26
ENDBRANCH  18  19
ENDBRANCH  17  18
BRANCH  17  28
ATOM     28  O   UNL     1       4.391   1.865   7.928  1.00  0.00    -0.383 OA
ATOM     29  H   UNL     1       5.245   1.377   7.941  1.00  0.00     0.211 HD
ENDBRANCH  17  28
ENDBRANCH  14  17
ENDBRANCH  12  13
BRANCH  12  30
ATOM     30  C   UNL     1       1.707   5.741   4.086  1.00  0.00     0.018 C 
ATOM     31  C   UNL     1       0.957   4.429   3.806  1.00  0.00     0.010 C 
BRANCH  30  32
ATOM     32  C   UNL     1       2.647   6.079   2.903  1.00  0.00     0.002 C 
ATOM     33  C   UNL     1       1.949   6.427   1.595  1.00  0.00     0.004 C 
ENDBRANCH  30  32
ENDBRANCH  12  30
ENDBRANCH  10  12
ENDBRANCH   1  10
BRANCH   5  34
ATOM     34  C   UNL     1       1.675   7.307   8.511  1.00  0.00     0.242 C 
ATOM     35  O   UNL     1       0.602   7.234   7.912  1.00  0.00    -0.273 OA
ATOM     36  N   UNL     1       1.841   6.832   9.793  1.00  0.00    -0.354 N 
ATOM     37  H   UNL     1       2.715   7.029  10.281  1.00  0.00     0.163 HD
BRANCH  36  38
ATOM     38  C   UNL     1       0.862   5.977  10.433  1.00  0.00     0.116 C 
BRANCH  38  39
ATOM     39  C   UNL     1       0.033   6.790  11.424  1.00  0.00     0.023 C 
BRANCH  39  40
ATOM     40  C   UNL     1      -1.154   7.481  10.762  1.00  0.00     0.026 C 
BRANCH  40  41
ATOM     41  C   UNL     1      -2.136   7.998  11.813  1.00  0.00     0.146 C 
BRANCH  41  42
ATOM     42  N   UNL     1      -2.228   7.045  12.912  1.00  0.00    -0.254 NA
ATOM     43  C   UNL     1      -3.049   7.260  13.870  1.00  0.00     0.185 C 
ATOM     44  N   UNL     1      -3.907   8.279  14.062  1.00  0.00    -0.370 N 
ATOM     45  N   UNL     1      -3.115   6.372  14.875  1.00  0.00    -0.370 N 
ATOM     46  H   UNL     1      -4.310   8.446  14.968  1.00  0.00     0.159 HD
ATOM     47  H   UNL     1      -3.997   9.034  13.389  1.00  0.00     0.159 HD
ATOM     48  H   UNL     1      -2.506   5.568  14.804  1.00  0.00     0.159 HD
ATOM     49  H   UNL     1      -3.881   6.342  15.525  1.00  0.00     0.159 HD
ENDBRANCH  41  42
ENDBRANCH  40  41
ENDBRANCH  39  40
ENDBRANCH  38  39
ENDBRANCH  36  38
ENDBRANCH   5  34
BRANCH   8  50
ATOM     50  O   UNL     1      -0.681  10.479   5.878  1.00  0.00    -0.245 OA
BRANCH  50  51
ATOM     51  S   UNL     1      -2.061   9.930   5.217  1.00  0.00     0.397 S 
ATOM     52  O   UNL     1      -1.949  10.054   3.781  1.00  0.00    -0.169 OA
ATOM     53  O   UNL     1      -3.195  10.470   5.939  1.00  0.00    -0.169 OA
BRANCH  51  54
ATOM     54  O   UNL     1      -1.979   8.355   5.528  1.00  0.00    -0.264 OA
ATOM     55  H   UNL     1      -1.144   8.189   6.011  1.00  0.00     0.236 HD
ENDBRANCH  51  54
ENDBRANCH  50  51
ENDBRANCH   8  50
TORSDOF 19
ENDMDL
MODEL 2
REMARK VINA RESULT:    -7.458      7.593     12.960
REMARK INTER + INTRA:         -17.493
REMARK INTER:                 -14.719
REMARK INTRA:                  -2.774
REMARK UNBOUND:                -2.405
REMARK SMILES CC[C@@H](C)[C@@H](NC(=O)[C@@H](O)Cc1ccc(O)c(Cl)c1)C(=O)N1[C@H](C(=O)NCCCCN=C(N)N)C[C@H]2CC[C@H](OS(=O)(=O)O)C[C@@H]21
REMARK SMILES IDX 22 1 36 2 46 3 35 4 23 5 45 6 37 7 39 8 38 9 20 10 21 11
REMARK SMILES IDX 5 12 6 13 7 14 8 15 9 17 11 18 12 19 17 20 19 21 15 22 14 23
REMARK SMILES IDX 13 24 18 25 16 26 10 28 3 30 4 31 2 32 1 33 24 34 25 35
REMARK SMILES IDX 26 36 27 38 28 39 29 40 30 41 31 42 32 43 33 44 34 45 40 50
REMARK SMILES IDX 41 51 42 52 43 53 44 54
REMARK H PARENT 6 16 16 27 10 29 26 37 33 46 33 47 34 48 34 49 44 55
ROOT
ATOM      1  N   UNL     1       5.843   9.368   0.157  1.00  0.00    -0.326 N 
ATOM      2  C   UNL     1       6.876  10.490  -1.636  1.00  0.00     0.014 C 
ATOM      3  C   UNL     1       7.045  10.148  -0.153  1.00  0.00     0.091 C 
ATOM      4  C   UNL     1       5.372  10.669  -1.770  1.00  0.00     0.041 C 
ATOM      5  C   UNL     1       4.880   9.450  -0.969  1.00  0.00     0.175 C 
ATOM      6  C   UNL     1       8.407   9.485   0.038  1.00  0.00     0.059 C 
ATOM      7  C   UNL     1       7.799  11.624  -2.039  1.00  0.00     0.008 C 
ATOM      8  C   UNL     1       9.488   9.991  -0.943  1.00  0.00     0.143 C 
ATOM      9  C   UNL     1       9.202  11.426  -1.429  1.00  0.00     0.034 C 
ENDROOT
BRANCH   1  10
ATOM     10  C   UNL     1       5.435   8.804   1.354  1.00  0.00     0.246 C 
ATOM     11  O   UNL     1       6.286   8.339   2.120  1.00  0.00    -0.272 OA
BRANCH  10  12
ATOM     12  C   UNL     1       3.924   8.805   1.727  1.00  0.00     0.174 C 
BRANCH  12  13
ATOM     13  N   UNL     1       3.700   9.654   2.896  1.00  0.00    -0.342 N 
ATOM     14  C   UNL     1       3.414  11.000   2.852  1.00  0.00     0.249 C 
ATOM     15  O   UNL     1       3.287  11.637   1.814  1.00  0.00    -0.272 OA
ATOM     16  H   UNL     1       3.926   9.304   3.824  1.00  0.00     0.164 HD
BRANCH  14  17
ATOM     17  C   UNL     1       3.249  11.620   4.256  1.00  0.00     0.207 C 
BRANCH  17  18
ATOM     18  C   UNL     1       1.785  11.995   4.508  1.00  0.00     0.077 C 
BRANCH  18  19
ATOM     19  C   UNL     1       0.953  10.789   4.882  1.00  0.00    -0.043 A 
ATOM     20  C   UNL     1       0.737   8.651   6.006  1.00  0.00     0.083 A 
ATOM     21  C   UNL     1       1.490   9.786   5.704  1.00  0.00     0.028 A 
ATOM     22  C   UNL     1      -0.552   8.510   5.491  1.00  0.00     0.134 A 
ATOM     23  C   UNL     1      -1.096   9.496   4.676  1.00  0.00     0.048 A 
ATOM     24  C   UNL     1      -0.344  10.632   4.369  1.00  0.00     0.008 A 
ATOM     25  Cl  UNL     1       1.413   7.429   7.018  1.00  0.00    -0.080 Cl
BRANCH  22  26
ATOM     26  O   UNL     1      -1.325   7.410   5.752  1.00  0.00    -0.506 OA
ATOM     27  H   UNL     1      -2.042   7.705   6.343  1.00  0.00     0.293 HD
ENDBRANCH  22  26
ENDBRANCH  18  19
ENDBRANCH  17  18
BRANCH  17  28
ATOM     28  O   UNL     1       4.073  12.788   4.406  1.00  0.00    -0.383 OA
ATOM     29  H   UNL     1       3.909  13.122   5.317  1.00  0.00     0.211 HD
ENDBRANCH  17  28
ENDBRANCH  14  17
ENDBRANCH  12  13
BRANCH  12  30
ATOM     30  C   UNL     1       3.352   7.374   1.916  1.00  0.00     0.018 C 
ATOM     31  C   UNL     1       2.765   6.843   0.599  1.00  0.00     0.010 C 
BRANCH  30  32
ATOM     32  C   UNL     1       2.301   7.269   3.048  1.00  0.00     0.002 C 
ATOM     33  C   UNL     1       1.136   6.329   2.770  1.00  0.00     0.004 C 
ENDBRANCH  30  32
ENDBRANCH  12  30
ENDBRANCH  10  12
ENDBRANCH   1  10
BRANCH   5  34
ATOM     34  C   UNL     1       4.918   8.153  -1.821  1.00  0.00     0.242 C 
ATOM     35  O   UNL     1       5.589   7.173  -1.497  1.00  0.00    -0.273 OA
ATOM     36  N   UNL     1       4.192   8.198  -2.990  1.00  0.00    -0.354 N 
ATOM     37  H   UNL     1       3.755   9.079  -3.263  1.00  0.00     0.163 HD
BRANCH  36  38
ATOM     38  C   UNL     1       3.942   7.018  -3.791  1.00  0.00     0.116 C 
BRANCH  38  39
ATOM     39  C   UNL     1       3.624   7.425  -5.228  1.00  0.00     0.023 C 
BRANCH  39  40
ATOM     40  C   UNL     1       4.711   6.998  -6.208  1.00  0.00     0.026 C 
BRANCH  40  41
ATOM     41  C   UNL     1       4.280   7.271  -7.649  1.00  0.00     0.146 C 
BRANCH  41  42
ATOM     42  N   UNL     1       5.425   7.722  -8.429  1.00  0.00    -0.254 NA
ATOM     43  C   UNL     1       5.557   8.967  -8.697  1.00  0.00     0.185 C 
ATOM     44  N   UNL     1       4.776  10.012  -8.366  1.00  0.00    -0.370 N 
ATOM     45  N   UNL     1       6.618   9.362  -9.421  1.00  0.00    -0.370 N 
ATOM     46  H   UNL     1       4.866  10.891  -8.846  1.00  0.00     0.159 HD
ATOM     47  H   UNL     1       3.938   9.894  -7.806  1.00  0.00     0.159 HD
ATOM     48  H   UNL     1       7.262   8.637  -9.705  1.00  0.00     0.159 HD
ATOM     49  H   UNL     1       6.917  10.320  -9.470  1.00  0.00     0.159 HD
ENDBRANCH  41  42
ENDBRANCH  40  41
ENDBRANCH  39  40
ENDBRANCH  38  39
ENDBRANCH  36  38
ENDBRANCH   5  34
BRANCH   8  50
ATOM     50  O   UNL     1       9.557   9.132  -2.081  1.00  0.00    -0.245 OA
BRANCH  50  51
ATOM     51  S   UNL     1      10.785   8.074  -2.215  1.00  0.00     0.397 S 
ATOM     52  O   UNL     1      10.482   7.175  -3.306  1.00  0.00    -0.169 OA
ATOM     53  O   UNL     1      11.147   7.581  -0.902  1.00  0.00    -0.169 OA
BRANCH  51  54
ATOM     54  O   UNL     1      11.981   9.012  -2.740  1.00  0.00    -0.264 OA
ATOM     55  H   UNL     1      11.851   9.903  -2.356  1.00  0.00     0.236 HD
ENDBRANCH  51  54
ENDBRANCH  50  51
ENDBRANCH   8  50
TORSDOF 19
ENDMDL
MODEL 3
REMARK VINA RESULT:    -7.412      6.008     10.228
REMARK INTER + INTRA:         -17.400
REMARK INTER:                 -14.332
REMARK INTRA:                  -3.067
REMARK UNBOUND:                -2.405
REMARK SMILES CC[C@@H](C)[C@@H](NC(=O)[C@@H](O)Cc1ccc(O)c(Cl)c1)C(=O)N1[C@H](C(=O)NCCCCN=C(N)N)C[C@H]2CC[C@H](OS(=O)(=O)O)C[C@@H]21
REMARK SMILES IDX 22 1 36 2 46 3 35 4 23 5 45 6 37 7 39 8 38 9 20 10 21 11
REMARK SMILES IDX 5 12 6 13 7 14 8 15 9 17 11 18 12 19 17 20 19 21 15 22 14 23
REMARK SMILES IDX 13 24 18 25 16 26 10 28 3 30 4 31 2 32 1 33 24 34 25 35
REMARK SMILES IDX 26 36 27 38 28 39 29 40 30 41 31 42 32 43 33 44 34 45 40 50
REMARK SMILES IDX 41 51 42 52 43 53 44 54
REMARK H PARENT 6 16 16 27 10 29 26 37 33 46 33 47 34 48 34 49 44 55
ROOT
ATOM      1  N   UNL     1       3.381   7.318   3.962  1.00  0.00    -0.326 N 
ATOM      2  C   UNL     1       1.398   6.673   5.054  1.00  0.00     0.014 C 
ATOM      3  C   UNL     1       2.562   7.665   5.127  1.00  0.00     0.091 C 
ATOM      4  C   UNL     1       2.057   5.423   4.494  1.00  0.00     0.041 C 
ATOM      5  C   UNL     1       2.907   6.043   3.370  1.00  0.00     0.175 C 
ATOM      6  C   UNL     1       1.988   9.078   5.214  1.00  0.00     0.059 C 
ATOM      7  C   UNL     1       0.666   6.598   6.379  1.00  0.00     0.008 C 
ATOM      8  C   UNL     1       0.635   9.155   5.954  1.00  0.00     0.143 C 
ATOM      9  C   UNL     1       0.466   8.009   6.972  1.00  0.00     0.034 C 
ENDROOT
BRANCH   1  10
ATOM     10  C   UNL     1       4.575   7.864   3.522  1.00  0.00     0.246 C 
ATOM     11  O   UNL     1       5.633   7.489   4.038  1.00  0.00    -0.272 OA
BRANCH  10  12
ATOM     12  C   UNL     1       4.563   8.901   2.362  1.00  0.00     0.174 C 
BRANCH  12  13
ATOM     13  N   UNL     1       5.215   8.338   1.181  1.00  0.00    -0.342 N 
ATOM     14  C   UNL     1       4.819   8.553  -0.119  1.00  0.00     0.249 C 
ATOM     15  O   UNL     1       3.880   9.273  -0.436  1.00  0.00    -0.272 OA
ATOM     16  H   UNL     1       5.907   7.600   1.292  1.00  0.00     0.164 HD
BRANCH  14  17
ATOM     17  C   UNL     1       5.700   7.805  -1.142  1.00  0.00     0.207 C 
BRANCH  17  18
ATOM     18  C   UNL     1       5.902   8.657  -2.399  1.00  0.00     0.077 C 
BRANCH  18  19
ATOM     19  C   UNL     1       7.257   9.329  -2.410  1.00  0.00    -0.043 A 
ATOM     20  C   UNL     1       9.675   9.190  -2.277  1.00  0.00     0.083 A 
ATOM     21  C   UNL     1       8.429   8.563  -2.316  1.00  0.00     0.028 A 
ATOM     22  C   UNL     1       9.758  10.582  -2.330  1.00  0.00     0.134 A 
ATOM     23  C   UNL     1       8.605  11.353  -2.423  1.00  0.00     0.048 A 
ATOM     24  C   UNL     1       7.357  10.728  -2.461  1.00  0.00     0.008 A 
ATOM     25  Cl  UNL     1      11.103   8.231  -2.161  1.00  0.00    -0.080 Cl
BRANCH  22  26
ATOM     26  O   UNL     1      10.956  11.241  -2.283  1.00  0.00    -0.506 OA
ATOM     27  H   UNL     1      10.765  12.182  -2.456  1.00  0.00     0.293 HD
ENDBRANCH  22  26
ENDBRANCH  18  19
ENDBRANCH  17  18
BRANCH  17  28
ATOM     28  O   UNL     1       5.112   6.546  -1.509  1.00  0.00    -0.383 OA
ATOM     29  H   UNL     1       5.155   6.502  -2.491  1.00  0.00     0.211 HD
ENDBRANCH  17  28
ENDBRANCH  14  17
ENDBRANCH  12  13
BRANCH  12  30
ATOM     30  C   UNL     1       5.167  10.270   2.776  1.00  0.00     0.018 C 
ATOM     31  C   UNL     1       4.204  11.418   2.435  1.00  0.00     0.010 C 
BRANCH  30  32
ATOM     32  C   UNL     1       6.561  10.546   2.162  1.00  0.00     0.002 C 
ATOM     33  C   UNL     1       6.612  11.678   1.145  1.00  0.00     0.004 C 
ENDBRANCH  30  32
ENDBRANCH  12  30
ENDBRANCH  10  12
ENDBRANCH   1  10
BRANCH   5  34
ATOM     34  C   UNL     1       2.062   6.309   2.095  1.00  0.00     0.242 C 
ATOM     35  O   UNL     1       1.910   7.438   1.631  1.00  0.00    -0.273 OA
ATOM     36  N   UNL     1       1.453   5.199   1.554  1.00  0.00    -0.354 N 
ATOM     37  H   UNL     1       1.519   4.310   2.052  1.00  0.00     0.163 HD
BRANCH  36  38
ATOM     38  C   UNL     1       0.812   5.224   0.256  1.00  0.00     0.116 C 
BRANCH  38  39
ATOM     39  C   UNL     1       1.860   5.424  -0.836  1.00  0.00     0.023 C 
BRANCH  39  40
ATOM     40  C   UNL     1       1.696   6.753  -1.565  1.00  0.00     0.026 C 
BRANCH  40  41
ATOM     41  C   UNL     1       1.563   6.532  -3.072  1.00  0.00     0.146 C 
BRANCH  41  42
ATOM     42  N   UNL     1       2.745   7.047  -3.752  1.00  0.00    -0.254 NA
ATOM     43  C   UNL     1       2.612   7.701  -4.844  1.00  0.00     0.185 C 
ATOM     44  N   UNL     1       1.500   8.025  -5.529  1.00  0.00    -0.370 N 
ATOM     45  N   UNL     1       3.714   8.164  -5.457  1.00  0.00    -0.370 N 
ATOM     46  H   UNL     1       1.558   8.325  -6.488  1.00  0.00     0.159 HD
ATOM     47  H   UNL     1       0.576   7.765  -5.199  1.00  0.00     0.159 HD
ATOM     48  H   UNL     1       4.595   7.971  -5.001  1.00  0.00     0.159 HD
ATOM     49  H   UNL     1       3.683   8.873  -6.169  1.00  0.00     0.159 HD
ENDBRANCH  41  42
ENDBRANCH  40  41
ENDBRANCH  39  40
ENDBRANCH  38  39
ENDBRANCH  36  38
ENDBRANCH   5  34
BRANCH   8  50
ATOM     50  O   UNL     1      -0.440   9.092   5.016  1.00  0.00    -0.245 OA
BRANCH  50  51
ATOM     51  S   UNL     1      -1.738  10.052   5.217  1.00  0.00     0.397 S 
ATOM     52  O   UNL     1      -2.390  10.195   3.935  1.00  0.00    -0.169 OA
ATOM     53  O   UNL     1      -1.372  11.203   6.016  1.00  0.00    -0.169 OA
BRANCH  51  54
ATOM     54  O   UNL     1      -2.708   9.124   6.101  1.00  0.00    -0.264 OA
ATOM     55  H   UNL     1      -2.453   8.192   5.946  1.00  0.00     0.236 HD
ENDBRANCH  51  54
ENDBRANCH  50  51
ENDBRANCH   8  50
TORSDOF 19
ENDMDL
MODEL 4
REMARK VINA RESULT:    -7.372      9.382     12.862
REMARK INTER + INTRA:         -17.320
REMARK INTER:                 -14.661
REMARK INTRA:                  -2.659
REMARK UNBOUND:                -2.405
REMARK SMILES CC[C@@H](C)[C@@H](NC(=O)[C@@H](O)Cc1ccc(O)c(Cl)c1)C(=O)N1[C@H](C(=O)NCCCCN=C(N)N)C[C@H]2CC[C@H](OS(=O)(=O)O)C[C@@H]21
REMARK SMILES IDX 22 1 36 2 46 3 35 4 23 5 45 6 37 7 39 8 38 9 20 10 21 11
REMARK SMILES IDX 5 12 6 13 7 14 8 15 9 17 11 18 12 19 17 20 19 21 15 22 14 23
REMARK SMILES IDX 13 24 18 25 16 26 10 28 3 30 4 31 2 32 1 33 24 34 25 35
REMARK SMILES IDX 26 36 27 38 28 39 29 40 30 41 31 42 32 43 33 44 34 45 40 50
REMARK SMILES IDX 41 51 42 52 43 53 44 54
REMARK H PARENT 6 16 16 27 10 29 26 37 33 46 33 47 34 48 34 49 44 55
ROOT
ATOM      1  N   UNL     1       5.563   8.774  -0.265  1.00  0.00    -0.326 N 
ATOM      2  C   UNL     1       7.845   8.488   0.239  1.00  0.00     0.014 C 
ATOM      3  C   UNL     1       6.803   8.271  -0.863  1.00  0.00     0.091 C 
ATOM      4  C   UNL     1       7.045   8.242   1.509  1.00  0.00     0.041 C 
ATOM      5  C   UNL     1       5.764   9.032   1.182  1.00  0.00     0.175 C 
ATOM      6  C   UNL     1       7.310   8.931  -2.144  1.00  0.00     0.059 C 
ATOM      7  C   UNL     1       9.092   7.668  -0.025  1.00  0.00     0.008 C 
ATOM      8  C   UNL     1       8.848   8.919  -2.283  1.00  0.00     0.143 C 
ATOM      9  C   UNL     1       9.490   7.746  -1.514  1.00  0.00     0.034 C 
ENDROOT
BRANCH   1  10
ATOM     10  C   UNL     1       4.281   8.819  -0.787  1.00  0.00     0.246 C 
ATOM     11  O   UNL     1       3.768   9.917  -1.027  1.00  0.00    -0.272 OA
BRANCH  10  12
ATOM     12  C   UNL     1       3.533   7.490  -1.099  1.00  0.00     0.174 C 
BRANCH  12  13
ATOM     13  N   UNL     1       2.835   7.600  -2.379  1.00  0.00    -0.342 N 
ATOM     14  C   UNL     1       3.118   6.852  -3.500  1.00  0.00     0.249 C 
ATOM     15  O   UNL     1       3.979   5.982  -3.540  1.00  0.00    -0.272 OA
ATOM     16  H   UNL     1       2.206   8.382  -2.545  1.00  0.00     0.164 HD
BRANCH  14  17
ATOM     17  C   UNL     1       2.217   7.214  -4.700  1.00  0.00     0.207 C 
BRANCH  17  18
ATOM     18  C   UNL     1       2.878   8.297  -5.559  1.00  0.00     0.077 C 
BRANCH  18  19
ATOM     19  C   UNL     1       3.693   7.702  -6.686  1.00  0.00    -0.043 A 
ATOM     20  C   UNL     1       5.237   7.977  -8.536  1.00  0.00     0.083 A 
ATOM     21  C   UNL     1       4.525   8.520  -7.466  1.00  0.00     0.028 A 
ATOM     22  C   UNL     1       5.122   6.619  -8.834  1.00  0.00     0.134 A 
ATOM     23  C   UNL     1       4.301   5.797  -8.069  1.00  0.00     0.048 A 
ATOM     24  C   UNL     1       3.586   6.338  -6.998  1.00  0.00     0.008 A 
ATOM     25  Cl  UNL     1       6.254   8.997  -9.484  1.00  0.00    -0.080 Cl
BRANCH  22  26
ATOM     26  O   UNL     1       5.792   6.043  -9.879  1.00  0.00    -0.506 OA
ATOM     27  H   UNL     1       5.249   5.290 -10.179  1.00  0.00     0.293 HD
ENDBRANCH  22  26
ENDBRANCH  18  19
ENDBRANCH  17  18
BRANCH  17  28
ATOM     28  O   UNL     1       0.929   7.674  -4.260  1.00  0.00    -0.383 OA
ATOM     29  H   UNL     1       0.284   6.987  -4.545  1.00  0.00     0.211 HD
ENDBRANCH  17  28
ENDBRANCH  14  17
ENDBRANCH  12  13
BRANCH  12  30
ATOM     30  C   UNL     1       2.592   7.047   0.053  1.00  0.00     0.018 C 
ATOM     31  C   UNL     1       3.353   6.983   1.387  1.00  0.00     0.010 C 
BRANCH  30  32
ATOM     32  C   UNL     1       1.873   5.703  -0.214  1.00  0.00     0.002 C 
ATOM     33  C   UNL     1       0.858   5.285   0.843  1.00  0.00     0.004 C 
ENDBRANCH  30  32
ENDBRANCH  12  30
ENDBRANCH  10  12
ENDBRANCH   1  10
BRANCH   5  34
ATOM     34  C   UNL     1       5.944  10.550   1.450  1.00  0.00     0.242 C 
ATOM     35  O   UNL     1       5.065  11.372   1.194  1.00  0.00    -0.273 OA
ATOM     36  N   UNL     1       7.176  10.916   1.945  1.00  0.00    -0.354 N 
ATOM     37  H   UNL     1       7.905  10.205   2.023  1.00  0.00     0.163 HD
BRANCH  36  38
ATOM     38  C   UNL     1       7.443  12.246   2.451  1.00  0.00     0.116 C 
BRANCH  38  39
ATOM     39  C   UNL     1       8.460  12.948   1.555  1.00  0.00     0.023 C 
BRANCH  39  40
ATOM     40  C   UNL     1       8.008  14.345   1.144  1.00  0.00     0.026 C 
BRANCH  40  41
ATOM     41  C   UNL     1       7.731  14.406  -0.358  1.00  0.00     0.146 C 
BRANCH  41  42
ATOM     42  N   UNL     1       6.555  13.607  -0.675  1.00  0.00    -0.254 NA
ATOM     43  C   UNL     1       6.605  12.758  -1.632  1.00  0.00     0.185 C 
ATOM     44  N   UNL     1       7.619  12.446  -2.460  1.00  0.00    -0.370 N 
ATOM     45  N   UNL     1       5.508  12.035  -1.911  1.00  0.00    -0.370 N 
ATOM     46  H   UNL     1       7.447  11.944  -3.315  1.00  0.00     0.159 HD
ATOM     47  H   UNL     1       8.528  12.890  -2.380  1.00  0.00     0.159 HD
ATOM     48  H   UNL     1       4.700  12.202  -1.328  1.00  0.00     0.159 HD
ATOM     49  H   UNL     1       5.534  11.201  -2.472  1.00  0.00     0.159 HD
ENDBRANCH  41  42
ENDBRANCH  40  41
ENDBRANCH  39  40
ENDBRANCH  38  39
ENDBRANCH  36  38
ENDBRANCH   5  34
BRANCH   8  50
ATOM     50  O   UNL     1       9.395  10.140  -1.785  1.00  0.00    -0.245 OA
BRANCH  50  51
ATOM     51  S   UNL     1      10.865  10.625  -2.286  1.00  0.00     0.397 S 
ATOM     52  O   UNL     1      10.714  11.907  -2.937  1.00  0.00    -0.169 OA
ATOM     53  O   UNL     1      11.547   9.521  -2.930  1.00  0.00    -0.169 OA
BRANCH  51  54
ATOM     54  O   UNL     1      11.612  10.926  -0.894  1.00  0.00    -0.264 OA
ATOM     55  H   UNL     1      11.845  11.876  -0.880  1.00  0.00     0.236 HD
ENDBRANCH  51  54
ENDBRANCH  50  51
ENDBRANCH   8  50
TORSDOF 19
ENDMDL
MODEL 5
REMARK VINA RESULT:    -7.091      7.587     11.760
REMARK INTER + INTRA:         -16.751
REMARK INTER:                 -14.266
REMARK INTRA:                  -2.485
REMARK UNBOUND:                -2.405
REMARK SMILES CC[C@@H](C)[C@@H](NC(=O)[C@@H](O)Cc1ccc(O)c(Cl)c1)C(=O)N1[C@H](C(=O)NCCCCN=C(N)N)C[C@H]2CC[C@H](OS(=O)(=O)O)C[C@@H]21
REMARK SMILES IDX 22 1 36 2 46 3 35 4 23 5 45 6 37 7 39 8 38 9 20 10 21 11
REMARK SMILES IDX 5 12 6 13 7 14 8 15 9 17 11 18 12 19 17 20 19 21 15 22 14 23
REMARK SMILES IDX 13 24 18 25 16 26 10 28 3 30 4 31 2 32 1 33 24 34 25 35
REMARK SMILES IDX 26 36 27 38 28 39 29 40 30 41 31 42 32 43 33 44 34 45 40 50
REMARK SMILES IDX 41 51 42 52 43 53 44 54
REMARK H PARENT 6 16 16 27 10 29 26 37 33 46 33 47 34 48 34 49 44 55
ROOT
ATOM      1  N   UNL     1       5.243   8.951   1.322  1.00  0.00    -0.326 N 
ATOM      2  C   UNL     1       3.993   8.871   3.316  1.00  0.00     0.014 C 
ATOM      3  C   UNL     1       3.875   8.718   1.797  1.00  0.00     0.091 C 
ATOM      4  C   UNL     1       5.049   9.956   3.462  1.00  0.00     0.041 C 
ATOM      5  C   UNL     1       6.083   9.471   2.429  1.00  0.00     0.175 C 
ATOM      6  C   UNL     1       3.224   7.369   1.496  1.00  0.00     0.059 C 
ATOM      7  C   UNL     1       2.629   9.070   3.948  1.00  0.00     0.008 C 
ATOM      8  C   UNL     1       2.215   6.913   2.572  1.00  0.00     0.143 C 
ATOM      9  C   UNL     1       1.596   8.105   3.329  1.00  0.00     0.034 C 
ENDROOT
BRANCH   1  10
ATOM     10  C   UNL     1       5.745   8.960   0.032  1.00  0.00     0.246 C 
ATOM     11  O   UNL     1       6.852   8.456  -0.186  1.00  0.00    -0.272 OA
BRANCH  10  12
ATOM     12  C   UNL     1       4.890   9.564  -1.119  1.00  0.00     0.174 C 
BRANCH  12  13
ATOM     13  N   UNL     1       4.883   8.655  -2.265  1.00  0.00    -0.342 N 
ATOM     14  C   UNL     1       3.758   8.073  -2.805  1.00  0.00     0.249 C 
ATOM     15  O   UNL     1       2.622   8.277  -2.397  1.00  0.00    -0.272 OA
ATOM     16  H   UNL     1       5.760   8.272  -2.609  1.00  0.00     0.164 HD
BRANCH  14  17
ATOM     17  C   UNL     1       4.081   7.149  -3.998  1.00  0.00     0.207 C 
BRANCH  17  18
ATOM     18  C   UNL     1       3.099   7.396  -5.148  1.00  0.00     0.077 C 
BRANCH  18  19
ATOM     19  C   UNL     1       3.800   7.432  -6.488  1.00  0.00    -0.043 A 
ATOM     20  C   UNL     1       4.976   6.293  -8.277  1.00  0.00     0.083 A 
ATOM     21  C   UNL     1       4.287   6.249  -7.065  1.00  0.00     0.028 A 
ATOM     22  C   UNL     1       5.186   7.514  -8.918  1.00  0.00     0.134 A 
ATOM     23  C   UNL     1       4.709   8.694  -8.357  1.00  0.00     0.048 A 
ATOM     24  C   UNL     1       4.020   8.653  -7.143  1.00  0.00     0.008 A 
ATOM     25  Cl  UNL     1       5.567   4.828  -8.970  1.00  0.00    -0.080 Cl
BRANCH  22  26
ATOM     26  O   UNL     1       5.865   7.608 -10.102  1.00  0.00    -0.506 OA
ATOM     27  H   UNL     1       5.290   7.220 -10.787  1.00  0.00     0.293 HD
ENDBRANCH  22  26
ENDBRANCH  18  19
ENDBRANCH  17  18
BRANCH  17  28
ATOM     28  O   UNL     1       4.023   5.766  -3.612  1.00  0.00    -0.383 OA
ATOM     29  H   UNL     1       3.636   5.285  -4.378  1.00  0.00     0.211 HD
ENDBRANCH  17  28
ENDBRANCH  14  17
ENDBRANCH  12  13
BRANCH  12  30
ATOM     30  C   UNL     1       5.333  11.001  -1.506  1.00  0.00     0.018 C 
ATOM     31  C   UNL     1       6.728  10.987  -2.151  1.00  0.00     0.010 C 
BRANCH  30  32
ATOM     32  C   UNL     1       5.304  11.999  -0.323  1.00  0.00     0.002 C 
ATOM     33  C   UNL     1       3.943  12.195   0.331  1.00  0.00     0.004 C 
ENDBRANCH  30  32
ENDBRANCH  12  30
ENDBRANCH  10  12
ENDBRANCH   1  10
BRANCH   5  34
ATOM     34  C   UNL     1       6.987   8.350   3.007  1.00  0.00     0.242 C 
ATOM     35  O   UNL     1       6.604   7.587   3.894  1.00  0.00    -0.273 OA
ATOM     36  N   UNL     1       8.265   8.306   2.496  1.00  0.00    -0.354 N 
ATOM     37  H   UNL     1       8.561   9.040   1.851  1.00  0.00     0.163 HD
BRANCH  36  38
ATOM     38  C   UNL     1       9.166   7.204   2.759  1.00  0.00     0.116 C 
BRANCH  38  39
ATOM     39  C   UNL     1      10.279   7.183   1.715  1.00  0.00     0.023 C 
BRANCH  39  40
ATOM     40  C   UNL     1       9.832   6.555   0.399  1.00  0.00     0.026 C 
BRANCH  40  41
ATOM     41  C   UNL     1      10.635   7.121  -0.772  1.00  0.00     0.146 C 
BRANCH  41  42
ATOM     42  N   UNL     1      10.699   8.573  -0.670  1.00  0.00    -0.254 NA
ATOM     43  C   UNL     1      10.013   9.295  -1.475  1.00  0.00     0.185 C 
ATOM     44  N   UNL     1       9.184   8.932  -2.470  1.00  0.00    -0.370 N 
ATOM     45  N   UNL     1      10.089  10.631  -1.367  1.00  0.00    -0.370 N 
ATOM     46  H   UNL     1       8.906   9.595  -3.174  1.00  0.00     0.159 HD
ATOM     47  H   UNL     1       9.000   7.956  -2.682  1.00  0.00     0.159 HD
ATOM     48  H   UNL     1      10.687  10.989  -0.635  1.00  0.00     0.159 HD
ATOM     49  H   UNL     1       9.419  11.250  -1.788  1.00  0.00     0.159 HD
ENDBRANCH  41  42
ENDBRANCH  40  41
ENDBRANCH  39  40
ENDBRANCH  38  39
ENDBRANCH  36  38
ENDBRANCH   5  34
BRANCH   8  50
ATOM     50  O   UNL     1       2.859   6.060   3.519  1.00  0.00    -0.245 OA
BRANCH  50  51
ATOM     51  S   UNL     1       2.008   4.880   4.246  1.00  0.00     0.397 S 
ATOM     52  O   UNL     1       1.256   5.475   5.328  1.00  0.00    -0.169 OA
ATOM     53  O   UNL     1       2.858   3.726   4.456  1.00  0.00    -0.169 OA
BRANCH  51  54
ATOM     54  O   UNL     1       0.928   4.501   3.118  1.00  0.00    -0.264 OA
ATOM     55  H   UNL     1       0.180   5.128   3.198  1.00  0.00     0.236 HD
ENDBRANCH  51  54
ENDBRANCH  50  51
ENDBRANCH   8  50
TORSDOF 19
ENDMDL
MODEL 6
REMARK VINA RESULT:    -7.054      6.563     10.632
REMARK INTER + INTRA:         -16.676
REMARK INTER:                 -13.610
REMARK INTRA:                  -3.066
REMARK UNBOUND:                -2.405
REMARK SMILES CC[C@@H](C)[C@@H](NC(=O)[C@@H](O)Cc1ccc(O)c(Cl)c1)C(=O)N1[C@H](C(=O)NCCCCN=C(N)N)C[C@H]2CC[C@H](OS(=O)(=O)O)C[C@@H]21
REMARK SMILES IDX 22 1 36 2 46 3 35 4 23 5 45 6 37 7 39 8 38 9 20 10 21 11
REMARK SMILES IDX 5 12 6 13 7 14 8 15 9 17 11 18 12 19 17 20 19 21 15 22 14 23
REMARK SMILES IDX 13 24 18 25 16 26 10 28 3 30 4 31 2 32 1 33 24 34 25 35
REMARK SMILES IDX 26 36 27 38 28 39 29 40 30 41 31 42 32 43 33 44 34 45 40 50
REMARK SMILES IDX 41 51 42 52 43 53 44 54
REMARK H PARENT 6 16 16 27 10 29 26 37 33 46 33 47 34 48 34 49 44 55
ROOT
ATOM      1  N   UNL     1       3.576   8.630   2.825  1.00  0.00    -0.326 N 
ATOM      2  C   UNL     1       2.592   8.197   4.920  1.00  0.00     0.014 C 
ATOM      3  C   UNL     1       3.061   9.332   4.004  1.00  0.00     0.091 C 
ATOM      4  C   UNL     1       3.605   7.098   4.636  1.00  0.00     0.041 C 
ATOM      5  C   UNL     1       3.667   7.175   3.100  1.00  0.00     0.175 C 
ATOM      6  C   UNL     1       1.903  10.310   3.817  1.00  0.00     0.059 C 
ATOM      7  C   UNL     1       2.407   8.689   6.342  1.00  0.00     0.008 C 
ATOM      8  C   UNL     1       0.969  10.411   5.043  1.00  0.00     0.143 C 
ATOM      9  C   UNL     1       1.697  10.059   6.356  1.00  0.00     0.034 C 
ENDROOT
BRANCH   1  10
ATOM     10  C   UNL     1       4.149   9.136   1.671  1.00  0.00     0.246 C 
ATOM     11  O   UNL     1       3.656   8.844   0.576  1.00  0.00    -0.272 OA
BRANCH  10  12
ATOM     12  C   UNL     1       5.372  10.094   1.778  1.00  0.00     0.174 C 
BRANCH  12  13
ATOM     13  N   UNL     1       5.707  10.625   0.458  1.00  0.00    -0.342 N 
ATOM     14  C   UNL     1       5.720  11.961   0.123  1.00  0.00     0.249 C 
ATOM     15  O   UNL     1       5.477  12.864   0.914  1.00  0.00    -0.272 OA
ATOM     16  H   UNL     1       5.777   9.993  -0.336  1.00  0.00     0.164 HD
BRANCH  14  17
ATOM     17  C   UNL     1       6.097  12.201  -1.354  1.00  0.00     0.207 C 
BRANCH  17  18
ATOM     18  C   UNL     1       7.610  12.396  -1.496  1.00  0.00     0.077 C 
BRANCH  18  19
ATOM     19  C   UNL     1       8.324  11.087  -1.751  1.00  0.00    -0.043 A 
ATOM     20  C   UNL     1      10.345   9.747  -1.685  1.00  0.00     0.083 A 
ATOM     21  C   UNL     1       9.676  10.939  -1.404  1.00  0.00     0.028 A 
ATOM     22  C   UNL     1       9.670   8.700  -2.313  1.00  0.00     0.134 A 
ATOM     23  C   UNL     1       8.332   8.833  -2.662  1.00  0.00     0.048 A 
ATOM     24  C   UNL     1       7.660  10.025  -2.384  1.00  0.00     0.008 A 
ATOM     25  Cl  UNL     1      12.006   9.584  -1.252  1.00  0.00    -0.080 Cl
BRANCH  22  26
ATOM     26  O   UNL     1      10.287   7.517  -2.619  1.00  0.00    -0.506 OA
ATOM     27  H   UNL     1      10.054   6.888  -1.910  1.00  0.00     0.293 HD
ENDBRANCH  22  26
ENDBRANCH  18  19
ENDBRANCH  17  18
BRANCH  17  28
ATOM     28  O   UNL     1       5.416  13.351  -1.881  1.00  0.00    -0.383 OA
ATOM     29  H   UNL     1       5.360  13.997  -1.140  1.00  0.00     0.211 HD
ENDBRANCH  17  28
ENDBRANCH  14  17
ENDBRANCH  12  13
BRANCH  12  30
ATOM     30  C   UNL     1       6.591   9.434   2.478  1.00  0.00     0.018 C 
ATOM     31  C   UNL     1       6.763   9.979   3.905  1.00  0.00     0.010 C 
BRANCH  30  32
ATOM     32  C   UNL     1       7.915   9.581   1.689  1.00  0.00     0.002 C 
ATOM     33  C   UNL     1       8.547   8.275   1.228  1.00  0.00     0.004 C 
ENDBRANCH  30  32
ENDBRANCH  12  30
ENDBRANCH  10  12
ENDBRANCH   1  10
BRANCH   5  34
ATOM     34  C   UNL     1       2.485   6.415   2.441  1.00  0.00     0.242 C 
ATOM     35  O   UNL     1       1.583   5.901   3.102  1.00  0.00    -0.273 OA
ATOM     36  N   UNL     1       2.547   6.312   1.069  1.00  0.00    -0.354 N 
ATOM     37  H   UNL     1       3.379   6.654   0.588  1.00  0.00     0.163 HD
BRANCH  36  38
ATOM     38  C   UNL     1       1.432   5.831   0.279  1.00  0.00     0.116 C 
BRANCH  38  39
ATOM     39  C   UNL     1       1.854   5.696  -1.183  1.00  0.00     0.023 C 
BRANCH  39  40
ATOM     40  C   UNL     1       2.073   7.047  -1.854  1.00  0.00     0.026 C 
BRANCH  40  41
ATOM     41  C   UNL     1       1.656   6.997  -3.324  1.00  0.00     0.146 C 
BRANCH  41  42
ATOM     42  N   UNL     1       2.830   7.150  -4.173  1.00  0.00    -0.254 NA
ATOM     43  C   UNL     1       2.770   7.905  -5.205  1.00  0.00     0.185 C 
ATOM     44  N   UNL     1       1.747   8.638  -5.683  1.00  0.00    -0.370 N 
ATOM     45  N   UNL     1       3.861   8.030  -5.978  1.00  0.00    -0.370 N 
ATOM     46  H   UNL     1       1.762   8.985  -6.627  1.00  0.00     0.159 HD
ATOM     47  H   UNL     1       0.848   8.669  -5.212  1.00  0.00     0.159 HD
ATOM     48  H   UNL     1       4.680   7.517  -5.683  1.00  0.00     0.159 HD
ATOM     49  H   UNL     1       3.970   8.769  -6.650  1.00  0.00     0.159 HD
ENDBRANCH  41  42
ENDBRANCH  40  41
ENDBRANCH  39  40
ENDBRANCH  38  39
ENDBRANCH  36  38
ENDBRANCH   5  34
BRANCH   8  50
ATOM     50  O   UNL     1      -0.140   9.525   4.888  1.00  0.00    -0.245 OA
BRANCH  50  51
ATOM     51  S   UNL     1      -1.631  10.024   5.303  1.00  0.00     0.397 S 
ATOM     52  O   UNL     1      -1.514  11.343   5.883  1.00  0.00    -0.169 OA
ATOM     53  O   UNL     1      -2.330   8.954   5.984  1.00  0.00    -0.169 OA
BRANCH  51  54
ATOM     54  O   UNL     1      -2.325  10.237   3.869  1.00  0.00    -0.264 OA
ATOM     55  H   UNL     1      -1.875  10.985   3.426  1.00  0.00     0.236 HD
ENDBRANCH  51  54
ENDBRANCH  50  51
ENDBRANCH   8  50
TORSDOF 19
ENDMDL
MODEL 7
REMARK VINA RESULT:    -7.000      6.049      8.985
REMARK INTER + INTRA:         -16.566
REMARK INTER:                 -12.379
REMARK INTRA:                  -4.188
REMARK UNBOUND:                -2.405
REMARK SMILES CC[C@@H](C)[C@@H](NC(=O)[C@@H](O)Cc1ccc(O)c(Cl)c1)C(=O)N1[C@H](C(=O)NCCCCN=C(N)N)C[C@H]2CC[C@H](OS(=O)(=O)O)C[C@@H]21
REMARK SMILES IDX 22 1 36 2 46 3 35 4 23 5 45 6 37 7 39 8 38 9 20 10 21 11
REMARK SMILES IDX 5 12 6 13 7 14 8 15 9 17 11 18 12 19 17 20 19 21 15 22 14 23
REMARK SMILES IDX 13 24 18 25 16 26 10 28 3 30 4 31 2 32 1 33 24 34 25 35
REMARK SMILES IDX 26 36 27 38 28 39 29 40 30 41 31 42 32 43 33 44 34 45 40 50
REMARK SMILES IDX 41 51 42 52 43 53 44 54
REMARK H PARENT 6 16 16 27 10 29 26 37 33 46 33 47 34 48 34 49 44 55
ROOT
ATOM      1  N   UNL     1       5.699   9.462   3.408  1.00  0.00    -0.326 N 
ATOM      2  C   UNL     1       4.654   8.686   5.370  1.00  0.00     0.014 C 
ATOM      3  C   UNL     1       5.493   9.839   4.810  1.00  0.00     0.091 C 
ATOM      4  C   UNL     1       5.190   7.482   4.611  1.00  0.00     0.041 C 
ATOM      5  C   UNL     1       5.255   8.064   3.187  1.00  0.00     0.175 C 
ATOM      6  C   UNL     1       4.771  11.151   5.109  1.00  0.00     0.059 C 
ATOM      7  C   UNL     1       4.680   8.683   6.885  1.00  0.00     0.008 C 
ATOM      8  C   UNL     1       3.955  11.127   6.420  1.00  0.00     0.143 C 
ATOM      9  C   UNL     1       4.522  10.116   7.436  1.00  0.00     0.034 C 
ENDROOT
BRANCH   1  10
ATOM     10  C   UNL     1       6.402  10.113   2.409  1.00  0.00     0.246 C 
ATOM     11  O   UNL     1       7.633  10.193   2.494  1.00  0.00    -0.272 OA
BRANCH  10  12
ATOM     12  C   UNL     1       5.637  10.690   1.183  1.00  0.00     0.174 C 
BRANCH  12  13
ATOM     13  N   UNL     1       5.876   9.855   0.007  1.00  0.00    -0.342 N 
ATOM     14  C   UNL     1       4.904   9.422  -0.866  1.00  0.00     0.249 C 
ATOM     15  O   UNL     1       3.719   9.716  -0.768  1.00  0.00    -0.272 OA
ATOM     16  H   UNL     1       6.780   9.405  -0.115  1.00  0.00     0.164 HD
BRANCH  14  17
ATOM     17  C   UNL     1       5.470   8.540  -1.999  1.00  0.00     0.207 C 
BRANCH  17  18
ATOM     18  C   UNL     1       4.677   7.234  -2.109  1.00  0.00     0.077 C 
BRANCH  18  19
ATOM     19  C   UNL     1       3.731   7.249  -3.289  1.00  0.00    -0.043 A 
ATOM     20  C   UNL     1       3.340   7.524  -5.667  1.00  0.00     0.083 A 
ATOM     21  C   UNL     1       4.221   7.462  -4.587  1.00  0.00     0.028 A 
ATOM     22  C   UNL     1       1.968   7.377  -5.458  1.00  0.00     0.134 A 
ATOM     23  C   UNL     1       1.469   7.165  -4.178  1.00  0.00     0.048 A 
ATOM     24  C   UNL     1       2.349   7.104  -3.095  1.00  0.00     0.008 A 
ATOM     25  Cl  UNL     1       3.960   7.787  -7.254  1.00  0.00    -0.080 Cl
BRANCH  22  26
ATOM     26  O   UNL     1       1.065   7.441  -6.485  1.00  0.00    -0.506 OA
ATOM     27  H   UNL     1       1.421   8.077  -7.132  1.00  0.00     0.293 HD
ENDBRANCH  22  26
ENDBRANCH  18  19
ENDBRANCH  17  18
BRANCH  17  28
ATOM     28  O   UNL     1       6.857   8.237  -1.775  1.00  0.00    -0.383 OA
ATOM     29  H   UNL     1       7.024   8.418  -0.822  1.00  0.00     0.211 HD
ENDBRANCH  17  28
ENDBRANCH  14  17
ENDBRANCH  12  13
BRANCH  12  30
ATOM     30  C   UNL     1       5.961  12.186   0.923  1.00  0.00     0.018 C 
ATOM     31  C   UNL     1       4.721  13.063   1.157  1.00  0.00     0.010 C 
BRANCH  30  32
ATOM     32  C   UNL     1       6.548  12.459  -0.483  1.00  0.00     0.002 C 
ATOM     33  C   UNL     1       7.837  13.271  -0.505  1.00  0.00     0.004 C 
ENDBRANCH  30  32
ENDBRANCH  12  30
ENDBRANCH  10  12
ENDBRANCH   1  10
BRANCH   5  34
ATOM     34  C   UNL     1       3.868   8.030   2.492  1.00  0.00     0.242 C 
ATOM     35  O   UNL     1       3.059   8.952   2.593  1.00  0.00    -0.273 OA
ATOM     36  N   UNL     1       3.588   6.873   1.799  1.00  0.00    -0.354 N 
ATOM     37  H   UNL     1       4.249   6.097   1.852  1.00  0.00     0.163 HD
BRANCH  36  38
ATOM     38  C   UNL     1       2.443   6.756   0.920  1.00  0.00     0.116 C 
BRANCH  38  39
ATOM     39  C   UNL     1       1.524   5.641   1.412  1.00  0.00     0.023 C 
BRANCH  39  40
ATOM     40  C   UNL     1       1.796   5.258   2.862  1.00  0.00     0.026 C 
BRANCH  40  41
ATOM     41  C   UNL     1       0.574   5.540   3.736  1.00  0.00     0.146 C 
BRANCH  41  42
ATOM     42  N   UNL     1       0.974   6.302   4.911  1.00  0.00    -0.254 NA
ATOM     43  C   UNL     1       0.826   7.573   4.922  1.00  0.00     0.185 C 
ATOM     44  N   UNL     1       0.331   8.395   3.978  1.00  0.00    -0.370 N 
ATOM     45  N   UNL     1       1.205   8.259   6.013  1.00  0.00    -0.370 N 
ATOM     46  H   UNL     1       0.498   9.386   4.021  1.00  0.00     0.159 HD
ATOM     47  H   UNL     1      -0.016   8.041   3.092  1.00  0.00     0.159 HD
ATOM     48  H   UNL     1       1.581   7.713   6.777  1.00  0.00     0.159 HD
ATOM     49  H   UNL     1       0.909   9.202   6.193  1.00  0.00     0.159 HD
ENDBRANCH  41  42
ENDBRANCH  40  41
ENDBRANCH  39  40
ENDBRANCH  38  39
ENDBRANCH  36  38
ENDBRANCH   5  34
BRANCH   8  50
ATOM     50  O   UNL     1       2.597  10.783   6.146  1.00  0.00    -0.245 OA
BRANCH  50  51
ATOM     51  S   UNL     1       1.447  11.931   6.217  1.00  0.00     0.397 S 
ATOM     52  O   UNL     1       1.610  12.798   5.073  1.00  0.00    -0.169 OA
ATOM     53  O   UNL     1       1.368  12.457   7.564  1.00  0.00    -0.169 OA
BRANCH  51  54
ATOM     54  O   UNL     1       0.109  11.083   5.937  1.00  0.00    -0.264 OA
ATOM     55  H   UNL     1       0.314  10.421   5.246  1.00  0.00     0.236 HD
ENDBRANCH  51  54
ENDBRANCH  50  51
ENDBRANCH   8  50
TORSDOF 19
ENDMDL
MODEL 8
REMARK VINA RESULT:    -6.965      4.549      6.895
REMARK INTER + INTRA:         -16.496
REMARK INTER:                 -11.995
REMARK INTRA:                  -4.501
REMARK UNBOUND:                -2.405
REMARK SMILES CC[C@@H](C)[C@@H](NC(=O)[C@@H](O)Cc1ccc(O)c(Cl)c1)C(=O)N1[C@H](C(=O)NCCCCN=C(N)N)C[C@H]2CC[C@H](OS(=O)(=O)O)C[C@@H]21
REMARK SMILES IDX 22 1 36 2 46 3 35 4 23 5 45 6 37 7 39 8 38 9 20 10 21 11
REMARK SMILES IDX 5 12 6 13 7 14 8 15 9 17 11 18 12 19 17 20 19 21 15 22 14 23
REMARK SMILES IDX 13 24 18 25 16 26 10 28 3 30 4 31 2 32 1 33 24 34 25 35
REMARK SMILES IDX 26 36 27 38 28 39 29 40 30 41 31 42 32 43 33 44 34 45 40 50
REMARK SMILES IDX 41 51 42 52 43 53 44 54
REMARK H PARENT 6 16 16 27 10 29 26 37 33 46 33 47 34 48 34 49 44 55
ROOT
ATOM      1  N   UNL     1       1.217   7.504   8.311  1.00  0.00    -0.326 N 
ATOM      2  C   UNL     1       1.679   5.621   9.646  1.00  0.00     0.014 C 
ATOM      3  C   UNL     1       2.303   6.570   8.619  1.00  0.00     0.091 C 
ATOM      4  C   UNL     1       0.233   5.529   9.182  1.00  0.00     0.041 C 
ATOM      5  C   UNL     1      -0.056   7.014   8.896  1.00  0.00     0.175 C 
ATOM      6  C   UNL     1       3.598   7.131   9.204  1.00  0.00     0.059 C 
ATOM      7  C   UNL     1       2.498   4.353   9.782  1.00  0.00     0.008 C 
ATOM      8  C   UNL     1       4.327   6.153  10.151  1.00  0.00     0.143 C 
ATOM      9  C   UNL     1       4.006   4.681   9.823  1.00  0.00     0.034 C 
ENDROOT
BRANCH   1  10
ATOM     10  C   UNL     1       1.188   8.573   7.432  1.00  0.00     0.246 C 
ATOM     11  O   UNL     1       1.753   9.626   7.746  1.00  0.00    -0.272 OA
BRANCH  10  12
ATOM     12  C   UNL     1       0.484   8.413   6.053  1.00  0.00     0.174 C 
BRANCH  12  13
ATOM     13  N   UNL     1       1.217   7.453   5.227  1.00  0.00    -0.342 N 
ATOM     14  C   UNL     1       0.743   6.220   4.839  1.00  0.00     0.249 C 
ATOM     15  O   UNL     1      -0.370   5.797   5.124  1.00  0.00    -0.272 OA
ATOM     16  H   UNL     1       2.208   7.597   5.047  1.00  0.00     0.164 HD
BRANCH  14  17
ATOM     17  C   UNL     1       1.760   5.433   3.986  1.00  0.00     0.207 C 
BRANCH  17  18
ATOM     18  C   UNL     1       1.253   5.286   2.548  1.00  0.00     0.077 C 
BRANCH  18  19
ATOM     19  C   UNL     1       2.060   6.121   1.580  1.00  0.00    -0.043 A 
ATOM     20  C   UNL     1       2.697   6.677  -0.694  1.00  0.00     0.083 A 
ATOM     21  C   UNL     1       1.915   5.939   0.196  1.00  0.00     0.028 A 
ATOM     22  C   UNL     1       3.627   7.597  -0.209  1.00  0.00     0.134 A 
ATOM     23  C   UNL     1       3.781   7.787   1.159  1.00  0.00     0.048 A 
ATOM     24  C   UNL     1       3.001   7.049   2.052  1.00  0.00     0.008 A 
ATOM     25  Cl  UNL     1       2.505   6.438  -2.391  1.00  0.00    -0.080 Cl
BRANCH  22  26
ATOM     26  O   UNL     1       4.423   8.335  -1.042  1.00  0.00    -0.506 OA
ATOM     27  H   UNL     1       3.890   9.096  -1.337  1.00  0.00     0.293 HD
ENDBRANCH  22  26
ENDBRANCH  18  19
ENDBRANCH  17  18
BRANCH  17  28
ATOM     28  O   UNL     1       2.002   4.130   4.542  1.00  0.00    -0.383 OA
ATOM     29  H   UNL     1       1.411   4.054   5.325  1.00  0.00     0.211 HD
ENDBRANCH  17  28
ENDBRANCH  14  17
ENDBRANCH  12  13
BRANCH  12  30
ATOM     30  C   UNL     1       0.264   9.769   5.330  1.00  0.00     0.018 C 
ATOM     31  C   UNL     1      -1.198   9.917   4.880  1.00  0.00     0.010 C 
BRANCH  30  32
ATOM     32  C   UNL     1       1.216   9.996   4.131  1.00  0.00     0.002 C 
ATOM     33  C   UNL     1       2.311  11.030   4.355  1.00  0.00     0.004 C 
ENDBRANCH  30  32
ENDBRANCH  12  30
ENDBRANCH  10  12
ENDBRANCH   1  10
BRANCH   5  34
ATOM     34  C   UNL     1      -0.400   7.791  10.194  1.00  0.00     0.242 C 
ATOM     35  O   UNL     1       0.364   8.621  10.687  1.00  0.00    -0.273 OA
ATOM     36  N   UNL     1      -1.595   7.445  10.784  1.00  0.00    -0.354 N 
ATOM     37  H   UNL     1      -2.128   6.666  10.395  1.00  0.00     0.163 HD
BRANCH  36  38
ATOM     38  C   UNL     1      -2.172   8.211  11.870  1.00  0.00     0.116 C 
BRANCH  38  39
ATOM     39  C   UNL     1      -2.444   7.297  13.062  1.00  0.00     0.023 C 
BRANCH  39  40
ATOM     40  C   UNL     1      -2.067   7.943  14.390  1.00  0.00     0.026 C 
BRANCH  40  41
ATOM     41  C   UNL     1      -0.753   7.368  14.920  1.00  0.00     0.146 C 
BRANCH  41  42
ATOM     42  N   UNL     1       0.361   8.191  14.470  1.00  0.00    -0.254 NA
ATOM     43  C   UNL     1       1.214   7.708  13.647  1.00  0.00     0.185 C 
ATOM     44  N   UNL     1       1.274   6.490  13.078  1.00  0.00    -0.370 N 
ATOM     45  N   UNL     1       2.237   8.481  13.248  1.00  0.00    -0.370 N 
ATOM     46  H   UNL     1       2.123   6.165  12.648  1.00  0.00     0.159 HD
ATOM     47  H   UNL     1       0.569   5.782  13.260  1.00  0.00     0.159 HD
ATOM     48  H   UNL     1       2.262   9.420  13.624  1.00  0.00     0.159 HD
ATOM     49  H   UNL     1       2.799   8.268  12.443  1.00  0.00     0.159 HD
ENDBRANCH  41  42
ENDBRANCH  40  41
ENDBRANCH  39  40
ENDBRANCH  38  39
ENDBRANCH  36  38
ENDBRANCH   5  34
BRANCH   8  50
ATOM     50  O   UNL     1       3.949   6.409  11.504  1.00  0.00    -0.245 OA
BRANCH  50  51
ATOM     51  S   UNL     1       5.101   6.641  12.629  1.00  0.00     0.397 S 
ATOM     52  O   UNL     1       5.328   8.064  12.748  1.00  0.00    -0.169 OA
ATOM     53  O   UNL     1       6.191   5.714  12.407  1.00  0.00    -0.169 OA
BRANCH  51  54
ATOM     54  O   UNL     1       4.345   6.204  13.979  1.00  0.00    -0.264 OA
ATOM     55  H   UNL     1       3.947   7.007  14.372  1.00  0.00     0.236 HD
ENDBRANCH  51  54
ENDBRANCH  50  51
ENDBRANCH   8  50
TORSDOF 19
ENDMDL
MODEL 9
REMARK VINA RESULT:    -6.814      4.274      6.906
REMARK INTER + INTRA:         -16.191
REMARK INTER:                 -13.309
REMARK INTRA:                  -2.882
REMARK UNBOUND:                -2.405
REMARK SMILES CC[C@@H](C)[C@@H](NC(=O)[C@@H](O)Cc1ccc(O)c(Cl)c1)C(=O)N1[C@H](C(=O)NCCCCN=C(N)N)C[C@H]2CC[C@H](OS(=O)(=O)O)C[C@@H]21
REMARK SMILES IDX 22 1 36 2 46 3 35 4 23 5 45 6 37 7 39 8 38 9 20 10 21 11
REMARK SMILES IDX 5 12 6 13 7 14 8 15 9 17 11 18 12 19 17 20 19 21 15 22 14 23
REMARK SMILES IDX 13 24 18 25 16 26 10 28 3 30 4 31 2 32 1 33 24 34 25 35
REMARK SMILES IDX 26 36 27 38 28 39 29 40 30 41 31 42 32 43 33 44 34 45 40 50
REMARK SMILES IDX 41 51 42 52 43 53 44 54
REMARK H PARENT 6 16 16 27 10 29 26 37 33 46 33 47 34 48 34 49 44 55
ROOT
ATOM      1  N   UNL     1       0.897   7.728  11.112  1.00  0.00    -0.326 N 
ATOM      2  C   UNL     1       0.130   9.411  12.568  1.00  0.00     0.014 C 
ATOM      3  C   UNL     1      -0.228   8.651  11.289  1.00  0.00     0.091 C 
ATOM      4  C   UNL     1       1.645   9.513  12.485  1.00  0.00     0.041 C 
ATOM      5  C   UNL     1       1.991   8.076  12.053  1.00  0.00     0.175 C 
ATOM      6  C   UNL     1      -1.628   8.062  11.452  1.00  0.00     0.059 C 
ATOM      7  C   UNL     1      -0.694  10.678  12.695  1.00  0.00     0.008 C 
ATOM      8  C   UNL     1      -2.563   8.918  12.335  1.00  0.00     0.143 C 
ATOM      9  C   UNL     1      -2.167  10.408  12.322  1.00  0.00     0.034 C 
ENDROOT
BRANCH   1  10
ATOM     10  C   UNL     1       1.136   6.800  10.113  1.00  0.00     0.246 C 
ATOM     11  O   UNL     1       0.699   5.652  10.242  1.00  0.00    -0.272 OA
BRANCH  10  12
ATOM     12  C   UNL     1       1.910   7.233   8.834  1.00  0.00     0.174 C 
BRANCH  12  13
ATOM     13  N   UNL     1       1.132   6.895   7.642  1.00  0.00    -0.342 N 
ATOM     14  C   UNL     1       0.528   7.808   6.807  1.00  0.00     0.249 C 
ATOM     15  O   UNL     1       0.600   9.021   6.957  1.00  0.00    -0.272 OA
ATOM     16  H   UNL     1       0.856   5.930   7.479  1.00  0.00     0.164 HD
BRANCH  14  17
ATOM     17  C   UNL     1      -0.235   7.137   5.644  1.00  0.00     0.207 C 
BRANCH  17  18
ATOM     18  C   UNL     1       0.499   5.876   5.179  1.00  0.00     0.077 C 
BRANCH  18  19
ATOM     19  C   UNL     1       1.226   6.099   3.871  1.00  0.00    -0.043 A 
ATOM     20  C   UNL     1       1.409   5.739   1.480  1.00  0.00     0.083 A 
ATOM     21  C   UNL     1       0.711   5.574   2.676  1.00  0.00     0.028 A 
ATOM     22  C   UNL     1       2.624   6.426   1.469  1.00  0.00     0.134 A 
ATOM     23  C   UNL     1       3.146   6.951   2.646  1.00  0.00     0.048 A 
ATOM     24  C   UNL     1       2.450   6.786   3.845  1.00  0.00     0.008 A 
ATOM     25  Cl  UNL     1       0.760   5.087   0.021  1.00  0.00    -0.080 Cl
BRANCH  22  26
ATOM     26  O   UNL     1       3.350   6.604   0.323  1.00  0.00    -0.506 OA
ATOM     27  H   UNL     1       3.141   7.499  -0.005  1.00  0.00     0.293 HD
ENDBRANCH  22  26
ENDBRANCH  18  19
ENDBRANCH  17  18
BRANCH  17  28
ATOM     28  O   UNL     1      -0.384   8.039   4.536  1.00  0.00    -0.383 OA
ATOM     29  H   UNL     1      -0.685   8.894   4.919  1.00  0.00     0.211 HD
ENDBRANCH  17  28
ENDBRANCH  14  17
ENDBRANCH  12  13
BRANCH  12  30
ATOM     30  C   UNL     1       3.352   6.661   8.782  1.00  0.00     0.018 C 
ATOM     31  C   UNL     1       4.176   7.353   7.686  1.00  0.00     0.010 C 
BRANCH  30  32
ATOM     32  C   UNL     1       3.405   5.125   8.597  1.00  0.00     0.002 C 
ATOM     33  C   UNL     1       3.604   4.648   7.164  1.00  0.00     0.004 C 
ENDBRANCH  30  32
ENDBRANCH  12  30
ENDBRANCH  10  12
ENDBRANCH   1  10
BRANCH   5  34
ATOM     34  C   UNL     1       2.006   7.103  13.262  1.00  0.00     0.242 C 
ATOM     35  O   UNL     1       1.091   6.308  13.479  1.00  0.00    -0.273 OA
ATOM     36  N   UNL     1       3.089   7.231  14.103  1.00  0.00    -0.354 N 
ATOM     37  H   UNL     1       3.753   7.988  13.937  1.00  0.00     0.163 HD
BRANCH  36  38
ATOM     38  C   UNL     1       3.373   6.270  15.149  1.00  0.00     0.116 C 
BRANCH  38  39
ATOM     39  C   UNL     1       3.320   6.956  16.512  1.00  0.00     0.023 C 
BRANCH  39  40
ATOM     40  C   UNL     1       1.929   7.485  16.844  1.00  0.00     0.026 C 
BRANCH  40  41
ATOM     41  C   UNL     1       1.147   6.470  17.677  1.00  0.00     0.146 C 
BRANCH  41  42
ATOM     42  N   UNL     1      -0.258   6.495  17.292  1.00  0.00    -0.254 NA
ATOM     43  C   UNL     1      -0.709   5.609  16.486  1.00  0.00     0.185 C 
ATOM     44  N   UNL     1      -0.078   4.583  15.886  1.00  0.00    -0.370 N 
ATOM     45  N   UNL     1      -2.006   5.652  16.141  1.00  0.00    -0.370 N 
ATOM     46  H   UNL     1      -0.491   4.119  15.095  1.00  0.00     0.159 HD
ATOM     47  H   UNL     1       0.906   4.396  16.047  1.00  0.00     0.159 HD
ATOM     48  H   UNL     1      -2.557   6.391  16.557  1.00  0.00     0.159 HD
ATOM     49  H   UNL     1      -2.482   4.876  15.716  1.00  0.00     0.159 HD
ENDBRANCH  41  42
ENDBRANCH  40  41
ENDBRANCH  39  40
ENDBRANCH  38  39
ENDBRANCH  36  38
ENDBRANCH   5  34
BRANCH   8  50
ATOM     50  O   UNL     1      -2.527   8.450  13.683  1.00  0.00    -0.245 OA
BRANCH  50  51
ATOM     51  S   UNL     1      -3.836   8.635  14.632  1.00  0.00     0.397 S 
ATOM     52  O   UNL     1      -3.502   9.579  15.674  1.00  0.00    -0.169 OA
ATOM     53  O   UNL     1      -4.403   7.337  14.935  1.00  0.00    -0.169 OA
BRANCH  51  54
ATOM     54  O   UNL     1      -4.854   9.404  13.654  1.00  0.00    -0.264 OA
ATOM     55  H   UNL     1      -5.348   8.729  13.146  1.00  0.00     0.236 HD
ENDBRANCH  51  54
ENDBRANCH  50  51
ENDBRANCH   8  50
TORSDOF 19
ENDMDL
MODEL 10
REMARK VINA RESULT:    -6.812      5.768      8.417
REMARK INTER + INTRA:         -16.186
REMARK INTER:                 -12.779
REMARK INTRA:                  -3.407
REMARK UNBOUND:                -2.405
REMARK SMILES CC[C@@H](C)[C@@H](NC(=O)[C@@H](O)Cc1ccc(O)c(Cl)c1)C(=O)N1[C@H](C(=O)NCCCCN=C(N)N)C[C@H]2CC[C@H](OS(=O)(=O)O)C[C@@H]21
REMARK SMILES IDX 22 1 36 2 46 3 35 4 23 5 45 6 37 7 39 8 38 9 20 10 21 11
REMARK SMILES IDX 5 12 6 13 7 14 8 15 9 17 11 18 12 19 17 20 19 21 15 22 14 23
REMARK SMILES IDX 13 24 18 25 16 26 10 28 3 30 4 31 2 32 1 33 24 34 25 35
REMARK SMILES IDX 26 36 27 38 28 39 29 40 30 41 31 42 32 43 33 44 34 45 40 50
REMARK SMILES IDX 41 51 42 52 43 53 44 54
REMARK H PARENT 6 16 16 27 10 29 26 37 33 46 33 47 34 48 34 49 44 55
ROOT
ATOM      1  N   UNL     1       4.296  10.340   3.579  1.00  0.00    -0.326 N 
ATOM      2  C   UNL     1       2.604  11.188   4.978  1.00  0.00     0.014 C 
ATOM      3  C   UNL     1       2.837  10.452   3.655  1.00  0.00     0.091 C 
ATOM      4  C   UNL     1       3.795  12.131   5.051  1.00  0.00     0.041 C 
ATOM      5  C   UNL     1       4.926  11.174   4.632  1.00  0.00     0.175 C 
ATOM      6  C   UNL     1       2.011   9.167   3.665  1.00  0.00     0.059 C 
ATOM      7  C   UNL     1       1.200  11.757   5.042  1.00  0.00     0.008 C 
ATOM      8  C   UNL     1       0.693   9.281   4.463  1.00  0.00     0.143 C 
ATOM      9  C   UNL     1       0.173  10.732   4.517  1.00  0.00     0.034 C 
ENDROOT
BRANCH   1  10
ATOM     10  C   UNL     1       5.093   9.783   2.593  1.00  0.00     0.246 C 
ATOM     11  O   UNL     1       5.628   8.689   2.799  1.00  0.00    -0.272 OA
BRANCH  10  12
ATOM     12  C   UNL     1       5.262  10.523   1.234  1.00  0.00     0.174 C 
BRANCH  12  13
ATOM     13  N   UNL     1       5.656   9.573   0.194  1.00  0.00    -0.342 N 
ATOM     14  C   UNL     1       5.170   9.566  -1.094  1.00  0.00     0.249 C 
ATOM     15  O   UNL     1       4.365  10.383  -1.524  1.00  0.00    -0.272 OA
ATOM     16  H   UNL     1       6.194   8.747   0.444  1.00  0.00     0.164 HD
BRANCH  14  17
ATOM     17  C   UNL     1       5.766   8.428  -1.949  1.00  0.00     0.207 C 
BRANCH  17  18
ATOM     18  C   UNL     1       5.107   7.090  -1.594  1.00  0.00     0.077 C 
BRANCH  18  19
ATOM     19  C   UNL     1       3.725   6.969  -2.194  1.00  0.00    -0.043 A 
ATOM     20  C   UNL     1       2.201   7.307  -4.051  1.00  0.00     0.083 A 
ATOM     21  C   UNL     1       3.488   7.375  -3.517  1.00  0.00     0.028 A 
ATOM     22  C   UNL     1       1.144   6.837  -3.270  1.00  0.00     0.134 A 
ATOM     23  C   UNL     1       1.365   6.431  -1.959  1.00  0.00     0.048 A 
ATOM     24  C   UNL     1       2.652   6.499  -1.420  1.00  0.00     0.008 A 
ATOM     25  Cl  UNL     1       1.930   7.811  -5.678  1.00  0.00    -0.080 Cl
BRANCH  22  26
ATOM     26  O   UNL     1      -0.136   6.762  -3.746  1.00  0.00    -0.506 OA
ATOM     27  H   UNL     1      -0.378   5.817  -3.753  1.00  0.00     0.293 HD
ENDBRANCH  22  26
ENDBRANCH  18  19
ENDBRANCH  17  18
BRANCH  17  28
ATOM     28  O   UNL     1       7.186   8.325  -1.756  1.00  0.00    -0.383 OA
ATOM     29  H   UNL     1       7.349   8.550  -0.812  1.00  0.00     0.211 HD
ENDBRANCH  17  28
ENDBRANCH  14  17
ENDBRANCH  12  13
BRANCH  12  30
ATOM     30  C   UNL     1       6.230  11.734   1.328  1.00  0.00     0.018 C 
ATOM     31  C   UNL     1       5.470  13.056   1.144  1.00  0.00     0.010 C 
BRANCH  30  32
ATOM     32  C   UNL     1       7.416  11.659   0.335  1.00  0.00     0.002 C 
ATOM     33  C   UNL     1       7.374  12.667  -0.806  1.00  0.00     0.004 C 
ENDBRANCH  30  32
ENDBRANCH  12  30
ENDBRANCH  10  12
ENDBRANCH   1  10
BRANCH   5  34
ATOM     34  C   UNL     1       5.401  10.294   5.819  1.00  0.00     0.242 C 
ATOM     35  O   UNL     1       6.229  10.689   6.640  1.00  0.00    -0.273 OA
ATOM     36  N   UNL     1       4.871   9.024   5.856  1.00  0.00    -0.354 N 
ATOM     37  H   UNL     1       4.283   8.714   5.082  1.00  0.00     0.163 HD
BRANCH  36  38
ATOM     38  C   UNL     1       5.034   8.151   7.000  1.00  0.00     0.116 C 
BRANCH  38  39
ATOM     39  C   UNL     1       4.232   6.869   6.792  1.00  0.00     0.023 C 
BRANCH  39  40
ATOM     40  C   UNL     1       4.146   6.467   5.324  1.00  0.00     0.026 C 
BRANCH  40  41
ATOM     41  C   UNL     1       3.063   5.409   5.114  1.00  0.00     0.146 C 
BRANCH  41  42
ATOM     42  N   UNL     1       2.000   5.952   4.277  1.00  0.00    -0.254 NA
ATOM     43  C   UNL     1       1.195   5.155   3.681  1.00  0.00     0.185 C 
ATOM     44  N   UNL     1       1.145   3.811   3.686  1.00  0.00    -0.370 N 
ATOM     45  N   UNL     1       0.225   5.675   2.911  1.00  0.00    -0.370 N 
ATOM     46  H   UNL     1       0.621   3.314   2.986  1.00  0.00     0.159 HD
ATOM     47  H   UNL     1       1.799   3.255   4.229  1.00  0.00     0.159 HD
ATOM     48  H   UNL     1       0.186   6.684   2.860  1.00  0.00     0.159 HD
ATOM     49  H   UNL     1      -0.574   5.145   2.611  1.00  0.00     0.159 HD
ENDBRANCH  41  42
ENDBRANCH  40  41
ENDBRANCH  39  40
ENDBRANCH  38  39
ENDBRANCH  36  38
ENDBRANCH   5  34
BRANCH   8  50
ATOM     50  O   UNL     1       0.888   8.819   5.800  1.00  0.00    -0.245 OA
BRANCH  50  51
ATOM     51  S   UNL     1      -0.234   7.866   6.491  1.00  0.00     0.397 S 
ATOM     52  O   UNL     1      -1.218   8.719   7.119  1.00  0.00    -0.169 OA
ATOM     53  O   UNL     1       0.418   6.796   7.217  1.00  0.00    -0.169 OA
BRANCH  51  54
ATOM     54  O   UNL     1      -0.964   7.224   5.210  1.00  0.00    -0.264 OA
ATOM     55  H   UNL     1      -0.394   7.383   4.431  1.00  0.00     0.236 HD
ENDBRANCH  51  54
ENDBRANCH  50  51
ENDBRANCH   8  50
TORSDOF 19
ENDMDL
MODEL 11
REMARK VINA RESULT:    -6.777      6.478      9.964
REMARK INTER + INTRA:         -16.115
REMARK INTER:                 -13.168
REMARK INTRA:                  -2.948
REMARK UNBOUND:                -2.405
REMARK SMILES CC[C@@H](C)[C@@H](NC(=O)[C@@H](O)Cc1ccc(O)c(Cl)c1)C(=O)N1[C@H](C(=O)NCCCCN=C(N)N)C[C@H]2CC[C@H](OS(=O)(=O)O)C[C@@H]21
REMARK SMILES IDX 22 1 36 2 46 3 35 4 23 5 45 6 37 7 39 8 38 9 20 10 21 11
REMARK SMILES IDX 5 12 6 13 7 14 8 15 9 17 11 18 12 19 17 20 19 21 15 22 14 23
REMARK SMILES IDX 13 24 18 25 16 26 10 28 3 30 4 31 2 32 1 33 24 34 25 35
REMARK SMILES IDX 26 36 27 38 28 39 29 40 30 41 31 42 32 43 33 44 34 45 40 50
REMARK SMILES IDX 41 51 42 52 43 53 44 54
REMARK H PARENT 6 16 16 27 10 29 26 37 33 46 33 47 34 48 34 49 44 55
ROOT
ATOM      1  N   UNL     1       4.197   9.574   2.654  1.00  0.00    -0.326 N 
ATOM      2  C   UNL     1       3.283   8.822   4.689  1.00  0.00     0.014 C 
ATOM      3  C   UNL     1       3.613  10.090   3.895  1.00  0.00     0.091 C 
ATOM      4  C   UNL     1       4.412   7.880   4.301  1.00  0.00     0.041 C 
ATOM      5  C   UNL     1       4.455   8.118   2.780  1.00  0.00     0.175 C 
ATOM      6  C   UNL     1       2.351  10.944   3.802  1.00  0.00     0.059 C 
ATOM      7  C   UNL     1       3.052   9.144   6.152  1.00  0.00     0.008 C 
ATOM      8  C   UNL     1       1.420  10.813   5.026  1.00  0.00     0.143 C 
ATOM      9  C   UNL     1       2.191  10.416   6.301  1.00  0.00     0.034 C 
ENDROOT
BRANCH   1  10
ATOM     10  C   UNL     1       4.702  10.256   1.560  1.00  0.00     0.246 C 
ATOM     11  O   UNL     1       3.920  10.842   0.803  1.00  0.00    -0.272 OA
BRANCH  10  12
ATOM     12  C   UNL     1       6.240  10.306   1.330  1.00  0.00     0.174 C 
BRANCH  12  13
ATOM     13  N   UNL     1       6.598   9.489   0.171  1.00  0.00    -0.342 N 
ATOM     14  C   UNL     1       6.718   9.958  -1.119  1.00  0.00     0.249 C 
ATOM     15  O   UNL     1       6.563  11.130  -1.436  1.00  0.00    -0.272 OA
ATOM     16  H   UNL     1       6.604   8.476   0.251  1.00  0.00     0.164 HD
BRANCH  14  17
ATOM     17  C   UNL     1       7.091   8.847  -2.123  1.00  0.00     0.207 C 
BRANCH  17  18
ATOM     18  C   UNL     1       8.507   9.068  -2.666  1.00  0.00     0.077 C 
BRANCH  18  19
ATOM     19  C   UNL     1       9.560   8.529  -1.724  1.00  0.00    -0.043 A 
ATOM     20  C   UNL     1      10.256   6.920  -0.047  1.00  0.00     0.083 A 
ATOM     21  C   UNL     1       9.301   7.386  -0.952  1.00  0.00     0.028 A 
ATOM     22  C   UNL     1      11.472   7.591   0.093  1.00  0.00     0.134 A 
ATOM     23  C   UNL     1      11.741   8.725  -0.666  1.00  0.00     0.048 A 
ATOM     24  C   UNL     1      10.786   9.195  -1.570  1.00  0.00     0.008 A 
ATOM     25  Cl  UNL     1       9.920   5.514   0.893  1.00  0.00    -0.080 Cl
BRANCH  22  26
ATOM     26  O   UNL     1      12.434   7.178   0.974  1.00  0.00    -0.506 OA
ATOM     27  H   UNL     1      13.270   7.133   0.474  1.00  0.00     0.293 HD
ENDBRANCH  22  26
ENDBRANCH  18  19
ENDBRANCH  17  18
BRANCH  17  28
ATOM     28  O   UNL     1       6.162   8.807  -3.219  1.00  0.00    -0.383 OA
ATOM     29  H   UNL     1       6.327   9.622  -3.745  1.00  0.00     0.211 HD
ENDBRANCH  17  28
ENDBRANCH  14  17
ENDBRANCH  12  13
BRANCH  12  30
ATOM     30  C   UNL     1       7.049   9.921   2.598  1.00  0.00     0.018 C 
ATOM     31  C   UNL     1       7.716  11.159   3.218  1.00  0.00     0.010 C 
BRANCH  30  32
ATOM     32  C   UNL     1       8.105   8.816   2.350  1.00  0.00     0.002 C 
ATOM     33  C   UNL     1       9.491   9.101   2.914  1.00  0.00     0.004 C 
ENDBRANCH  30  32
ENDBRANCH  12  30
ENDBRANCH  10  12
ENDBRANCH   1  10
BRANCH   5  34
ATOM     34  C   UNL     1       3.362   7.299   2.042  1.00  0.00     0.242 C 
ATOM     35  O   UNL     1       2.455   6.722   2.642  1.00  0.00    -0.273 OA
ATOM     36  N   UNL     1       3.513   7.220   0.676  1.00  0.00    -0.354 N 
ATOM     37  H   UNL     1       4.351   7.618   0.250  1.00  0.00     0.163 HD
BRANCH  36  38
ATOM     38  C   UNL     1       2.479   6.685  -0.186  1.00  0.00     0.116 C 
BRANCH  38  39
ATOM     39  C   UNL     1       3.056   5.573  -1.058  1.00  0.00     0.023 C 
BRANCH  39  40
ATOM     40  C   UNL     1       3.839   6.113  -2.250  1.00  0.00     0.026 C 
BRANCH  40  41
ATOM     41  C   UNL     1       3.087   7.267  -2.914  1.00  0.00     0.146 C 
BRANCH  41  42
ATOM     42  N   UNL     1       2.278   6.760  -4.015  1.00  0.00    -0.254 NA
ATOM     43  C   UNL     1       1.002   6.792  -3.929  1.00  0.00     0.185 C 
ATOM     44  N   UNL     1       0.212   7.242  -2.937  1.00  0.00    -0.370 N 
ATOM     45  N   UNL     1       0.274   6.315  -4.952  1.00  0.00    -0.370 N 
ATOM     46  H   UNL     1      -0.760   6.984  -2.898  1.00  0.00     0.159 HD
ATOM     47  H   UNL     1       0.598   7.650  -2.091  1.00  0.00     0.159 HD
ATOM     48  H   UNL     1       0.793   5.963  -5.746  1.00  0.00     0.159 HD
ATOM     49  H   UNL     1      -0.703   6.517  -5.066  1.00  0.00     0.159 HD
ENDBRANCH  41  42
ENDBRANCH  40  41
ENDBRANCH  39  40
ENDBRANCH  38  39
ENDBRANCH  36  38
ENDBRANCH   5  34
BRANCH   8  50
ATOM     50  O   UNL     1       0.417   9.827   4.777  1.00  0.00    -0.245 OA
BRANCH  50  51
ATOM     51  S   UNL     1      -1.111  10.093   5.267  1.00  0.00     0.397 S 
ATOM     52  O   UNL     1      -1.392   9.192   6.362  1.00  0.00    -0.169 OA
ATOM     53  O   UNL     1      -1.982  10.183   4.114  1.00  0.00    -0.169 OA
BRANCH  51  54
ATOM     54  O   UNL     1      -1.002  11.558   5.922  1.00  0.00    -0.264 OA
ATOM     55  H   UNL     1      -1.687  12.121   5.508  1.00  0.00     0.236 HD
ENDBRANCH  51  54
ENDBRANCH  50  51
ENDBRANCH   8  50
TORSDOF 19
ENDMDL
MODEL 12
REMARK VINA RESULT:    -6.748      4.275      6.209
REMARK INTER + INTRA:         -16.058
REMARK INTER:                 -13.148
REMARK INTRA:                  -2.909
REMARK UNBOUND:                -2.405
REMARK SMILES CC[C@@H](C)[C@@H](NC(=O)[C@@H](O)Cc1ccc(O)c(Cl)c1)C(=O)N1[C@H](C(=O)NCCCCN=C(N)N)C[C@H]2CC[C@H](OS(=O)(=O)O)C[C@@H]21
REMARK SMILES IDX 22 1 36 2 46 3 35 4 23 5 45 6 37 7 39 8 38 9 20 10 21 11
REMARK SMILES IDX 5 12 6 13 7 14 8 15 9 17 11 18 12 19 17 20 19 21 15 22 14 23
REMARK SMILES IDX 13 24 18 25 16 26 10 28 3 30 4 31 2 32 1 33 24 34 25 35
REMARK SMILES IDX 26 36 27 38 28 39 29 40 30 41 31 42 32 43 33 44 34 45 40 50
REMARK SMILES IDX 41 51 42 52 43 53 44 54
REMARK H PARENT 6 16 16 27 10 29 26 37 33 46 33 47 34 48 34 49 44 55
ROOT
ATOM      1  N   UNL     1       1.559   7.445   7.321  1.00  0.00    -0.326 N 
ATOM      2  C   UNL     1       3.847   7.178   7.805  1.00  0.00     0.014 C 
ATOM      3  C   UNL     1       2.826   8.179   7.257  1.00  0.00     0.091 C 
ATOM      4  C   UNL     1       3.310   5.845   7.307  1.00  0.00     0.041 C 
ATOM      5  C   UNL     1       1.814   6.016   7.629  1.00  0.00     0.175 C 
ATOM      6  C   UNL     1       2.951   9.479   8.050  1.00  0.00     0.059 C 
ATOM      7  C   UNL     1       5.260   7.592   7.445  1.00  0.00     0.008 C 
ATOM      8  C   UNL     1       4.384   9.768   8.547  1.00  0.00     0.143 C 
ATOM      9  C   UNL     1       5.452   9.109   7.651  1.00  0.00     0.034 C 
ENDROOT
BRANCH   1  10
ATOM     10  C   UNL     1       0.287   7.836   6.940  1.00  0.00     0.246 C 
ATOM     11  O   UNL     1      -0.578   7.996   7.807  1.00  0.00    -0.272 OA
BRANCH  10  12
ATOM     12  C   UNL     1      -0.015   8.106   5.437  1.00  0.00     0.174 C 
BRANCH  12  13
ATOM     13  N   UNL     1       0.837   7.264   4.598  1.00  0.00    -0.342 N 
ATOM     14  C   UNL     1       0.558   5.963   4.244  1.00  0.00     0.249 C 
ATOM     15  O   UNL     1      -0.462   5.370   4.574  1.00  0.00    -0.272 OA
ATOM     16  H   UNL     1       1.784   7.564   4.380  1.00  0.00     0.164 HD
BRANCH  14  17
ATOM     17  C   UNL     1       1.661   5.336   3.365  1.00  0.00     0.207 C 
BRANCH  17  18
ATOM     18  C   UNL     1       1.194   5.238   1.909  1.00  0.00     0.077 C 
BRANCH  18  19
ATOM     19  C   UNL     1       2.006   6.132   0.998  1.00  0.00    -0.043 A 
ATOM     20  C   UNL     1       2.770   6.729  -1.226  1.00  0.00     0.083 A 
ATOM     21  C   UNL     1       1.982   5.935  -0.392  1.00  0.00     0.028 A 
ATOM     22  C   UNL     1       3.585   7.721  -0.679  1.00  0.00     0.134 A 
ATOM     23  C   UNL     1       3.618   7.926   0.695  1.00  0.00     0.048 A 
ATOM     24  C   UNL     1       2.832   7.132   1.533  1.00  0.00     0.008 A 
ATOM     25  Cl  UNL     1       2.727   6.472  -2.931  1.00  0.00    -0.080 Cl
BRANCH  22  26
ATOM     26  O   UNL     1       4.383   8.517  -1.455  1.00  0.00    -0.506 OA
ATOM     27  H   UNL     1       4.104   8.377  -2.379  1.00  0.00     0.293 HD
ENDBRANCH  22  26
ENDBRANCH  18  19
ENDBRANCH  17  18
BRANCH  17  28
ATOM     28  O   UNL     1       2.019   4.028   3.839  1.00  0.00    -0.383 OA
ATOM     29  H   UNL     1       2.775   3.734   3.282  1.00  0.00     0.211 HD
ENDBRANCH  17  28
ENDBRANCH  14  17
ENDBRANCH  12  13
BRANCH  12  30
ATOM     30  C   UNL     1       0.089   9.610   5.065  1.00  0.00     0.018 C 
ATOM     31  C   UNL     1      -1.264  10.146   4.572  1.00  0.00     0.010 C 
BRANCH  30  32
ATOM     32  C   UNL     1       1.194   9.918   4.026  1.00  0.00     0.002 C 
ATOM     33  C   UNL     1       2.404  10.670   4.565  1.00  0.00     0.004 C 
ENDBRANCH  30  32
ENDBRANCH  12  30
ENDBRANCH  10  12
ENDBRANCH   1  10
BRANCH   5  34
ATOM     34  C   UNL     1       1.512   5.712   9.120  1.00  0.00     0.242 C 
ATOM     35  O   UNL     1       1.738   4.614   9.627  1.00  0.00    -0.273 OA
ATOM     36  N   UNL     1       0.923   6.742   9.820  1.00  0.00    -0.354 N 
ATOM     37  H   UNL     1       0.650   7.586   9.315  1.00  0.00     0.163 HD
BRANCH  36  38
ATOM     38  C   UNL     1       0.771   6.710  11.260  1.00  0.00     0.116 C 
BRANCH  38  39
ATOM     39  C   UNL     1      -0.712   6.718  11.625  1.00  0.00     0.023 C 
BRANCH  39  40
ATOM     40  C   UNL     1      -1.359   8.081  11.407  1.00  0.00     0.026 C 
BRANCH  40  41
ATOM     41  C   UNL     1      -2.447   8.337  12.450  1.00  0.00     0.146 C 
BRANCH  41  42
ATOM     42  N   UNL     1      -2.541   7.198  13.354  1.00  0.00    -0.254 NA
ATOM     43  C   UNL     1      -2.968   7.371  14.548  1.00  0.00     0.185 C 
ATOM     44  N   UNL     1      -3.377   8.494  15.167  1.00  0.00    -0.370 N 
ATOM     45  N   UNL     1      -3.044   6.309  15.367  1.00  0.00    -0.370 N 
ATOM     46  H   UNL     1      -3.453   8.528  16.169  1.00  0.00     0.159 HD
ATOM     47  H   UNL     1      -3.398   9.389  14.688  1.00  0.00     0.159 HD
ATOM     48  H   UNL     1      -2.762   5.420  14.975  1.00  0.00     0.159 HD
ATOM     49  H   UNL     1      -3.579   6.314  16.217  1.00  0.00     0.159 HD
ENDBRANCH  41  42
ENDBRANCH  40  41
ENDBRANCH  39  40
ENDBRANCH  38  39
ENDBRANCH  36  38
ENDBRANCH   5  34
BRANCH   8  50
ATOM     50  O   UNL     1       4.547   9.283   9.880  1.00  0.00    -0.245 OA
BRANCH  50  51
ATOM     51  S   UNL     1       4.952  10.319  11.067  1.00  0.00     0.397 S 
ATOM     52  O   UNL     1       6.315  10.744  10.844  1.00  0.00    -0.169 OA
ATOM     53  O   UNL     1       4.521   9.787  12.344  1.00  0.00    -0.169 OA
BRANCH  51  54
ATOM     54  O   UNL     1       4.034  11.595  10.727  1.00  0.00    -0.264 OA
ATOM     55  H   UNL     1       3.209  11.267  10.314  1.00  0.00     0.236 HD
ENDBRANCH  51  54
ENDBRANCH  50  51
ENDBRANCH   8  50
TORSDOF 19
ENDMDL
MODEL 13
REMARK VINA RESULT:    -6.699      4.507      6.704
REMARK INTER + INTRA:         -15.957
REMARK INTER:                 -12.986
REMARK INTRA:                  -2.971
REMARK UNBOUND:                -2.405
REMARK SMILES CC[C@@H](C)[C@@H](NC(=O)[C@@H](O)Cc1ccc(O)c(Cl)c1)C(=O)N1[C@H](C(=O)NCCCCN=C(N)N)C[C@H]2CC[C@H](OS(=O)(=O)O)C[C@@H]21
REMARK SMILES IDX 22 1 36 2 46 3 35 4 23 5 45 6 37 7 39 8 38 9 20 10 21 11
REMARK SMILES IDX 5 12 6 13 7 14 8 15 9 17 11 18 12 19 17 20 19 21 15 22 14 23
REMARK SMILES IDX 13 24 18 25 16 26 10 28 3 30 4 31 2 32 1 33 24 34 25 35
REMARK SMILES IDX 26 36 27 38 28 39 29 40 30 41 31 42 32 43 33 44 34 45 40 50
REMARK SMILES IDX 41 51 42 52 43 53 44 54
REMARK H PARENT 6 16 16 27 10 29 26 37 33 46 33 47 34 48 34 49 44 55
ROOT
ATOM      1  N   UNL     1       1.222   7.131   8.439  1.00  0.00    -0.326 N 
ATOM      2  C   UNL     1       1.900   5.391   9.872  1.00  0.00     0.014 C 
ATOM      3  C   UNL     1       2.409   6.345   8.787  1.00  0.00     0.091 C 
ATOM      4  C   UNL     1       0.473   5.109   9.428  1.00  0.00     0.041 C 
ATOM      5  C   UNL     1       0.015   6.533   9.062  1.00  0.00     0.175 C 
ATOM      6  C   UNL     1       3.633   7.082   9.327  1.00  0.00     0.059 C 
ATOM      7  C   UNL     1       2.860   4.234  10.070  1.00  0.00     0.008 C 
ATOM      8  C   UNL     1       4.472   6.249  10.320  1.00  0.00     0.143 C 
ATOM      9  C   UNL     1       4.320   4.734  10.078  1.00  0.00     0.034 C 
ENDROOT
BRANCH   1  10
ATOM     10  C   UNL     1       1.068   8.138   7.501  1.00  0.00     0.246 C 
ATOM     11  O   UNL     1       1.621   9.226   7.691  1.00  0.00    -0.272 OA
BRANCH  10  12
ATOM     12  C   UNL     1       0.240   7.865   6.211  1.00  0.00     0.174 C 
BRANCH  12  13
ATOM     13  N   UNL     1       1.017   7.042   5.285  1.00  0.00    -0.342 N 
ATOM     14  C   UNL     1       0.576   5.874   4.705  1.00  0.00     0.249 C 
ATOM     15  O   UNL     1      -0.542   5.405   4.882  1.00  0.00    -0.272 OA
ATOM     16  H   UNL     1       2.012   7.219   5.167  1.00  0.00     0.164 HD
BRANCH  14  17
ATOM     17  C   UNL     1       1.635   5.227   3.788  1.00  0.00     0.207 C 
BRANCH  17  18
ATOM     18  C   UNL     1       1.153   5.222   2.333  1.00  0.00     0.077 C 
BRANCH  18  19
ATOM     19  C   UNL     1       1.995   6.123   1.459  1.00  0.00    -0.043 A 
ATOM     20  C   UNL     1       2.824   6.750  -0.733  1.00  0.00     0.083 A 
ATOM     21  C   UNL     1       2.007   5.949   0.066  1.00  0.00     0.028 A 
ATOM     22  C   UNL     1       3.631   7.726  -0.149  1.00  0.00     0.134 A 
ATOM     23  C   UNL     1       3.628   7.910   1.229  1.00  0.00     0.048 A 
ATOM     24  C   UNL     1       2.814   7.108   2.032  1.00  0.00     0.008 A 
ATOM     25  Cl  UNL     1       2.825   6.520  -2.442  1.00  0.00    -0.080 Cl
BRANCH  22  26
ATOM     26  O   UNL     1       4.455   8.529  -0.891  1.00  0.00    -0.506 OA
ATOM     27  H   UNL     1       5.304   8.057  -0.974  1.00  0.00     0.293 HD
ENDBRANCH  22  26
ENDBRANCH  18  19
ENDBRANCH  17  18
BRANCH  17  28
ATOM     28  O   UNL     1       1.923   3.881   4.199  1.00  0.00    -0.383 OA
ATOM     29  H   UNL     1       2.701   3.941   4.800  1.00  0.00     0.211 HD
ENDBRANCH  17  28
ENDBRANCH  14  17
ENDBRANCH  12  13
BRANCH  12  30
ATOM     30  C   UNL     1      -0.285   9.167   5.549  1.00  0.00     0.018 C 
ATOM     31  C   UNL     1      -1.818   9.150   5.450  1.00  0.00     0.010 C 
BRANCH  30  32
ATOM     32  C   UNL     1       0.335   9.451   4.159  1.00  0.00     0.002 C 
ATOM     33  C   UNL     1       1.571  10.339   4.166  1.00  0.00     0.004 C 
ENDBRANCH  30  32
ENDBRANCH  12  30
ENDBRANCH  10  12
ENDBRANCH   1  10
BRANCH   5  34
ATOM     34  C   UNL     1      -0.411   7.338  10.319  1.00  0.00     0.242 C 
ATOM     35  O   UNL     1      -1.496   7.164  10.874  1.00  0.00    -0.273 OA
ATOM     36  N   UNL     1       0.487   8.295  10.734  1.00  0.00    -0.354 N 
ATOM     37  H   UNL     1       1.314   8.474  10.162  1.00  0.00     0.163 HD
BRANCH  36  38
ATOM     38  C   UNL     1       0.354   8.983  12.001  1.00  0.00     0.116 C 
BRANCH  38  39
ATOM     39  C   UNL     1       1.050   8.185  13.100  1.00  0.00     0.023 C 
BRANCH  39  40
ATOM     40  C   UNL     1       0.062   7.508  14.044  1.00  0.00     0.026 C 
BRANCH  40  41
ATOM     41  C   UNL     1      -1.049   8.476  14.452  1.00  0.00     0.146 C 
BRANCH  41  42
ATOM     42  N   UNL     1      -2.047   7.773  15.246  1.00  0.00    -0.254 NA
ATOM     43  C   UNL     1      -2.942   7.069  14.660  1.00  0.00     0.185 C 
ATOM     44  N   UNL     1      -3.142   6.841  13.349  1.00  0.00    -0.370 N 
ATOM     45  N   UNL     1      -3.856   6.432  15.411  1.00  0.00    -0.370 N 
ATOM     46  H   UNL     1      -4.019   6.474  13.021  1.00  0.00     0.159 HD
ATOM     47  H   UNL     1      -2.533   7.237  12.640  1.00  0.00     0.159 HD
ATOM     48  H   UNL     1      -3.771   6.544  16.412  1.00  0.00     0.159 HD
ATOM     49  H   UNL     1      -4.428   5.687  15.055  1.00  0.00     0.159 HD
ENDBRANCH  41  42
ENDBRANCH  40  41
ENDBRANCH  39  40
ENDBRANCH  38  39
ENDBRANCH  36  38
ENDBRANCH   5  34
BRANCH   8  50
ATOM     50  O   UNL     1       4.072   6.537  11.660  1.00  0.00    -0.245 OA
BRANCH  50  51
ATOM     51  S   UNL     1       4.943   7.583  12.551  1.00  0.00     0.397 S 
ATOM     52  O   UNL     1       4.447   8.915  12.288  1.00  0.00    -0.169 OA
ATOM     53  O   UNL     1       6.351   7.261  12.440  1.00  0.00    -0.169 OA
BRANCH  51  54
ATOM     54  O   UNL     1       4.470   7.226  14.046  1.00  0.00    -0.264 OA
ATOM     55  H   UNL     1       5.273   7.089  14.589  1.00  0.00     0.236 HD
ENDBRANCH  51  54
ENDBRANCH  50  51
ENDBRANCH   8  50
TORSDOF 19
ENDMDL
MODEL 14
REMARK VINA RESULT:    -6.695     10.021     14.299
REMARK INTER + INTRA:         -15.950
REMARK INTER:                 -11.041
REMARK INTRA:                  -4.910
REMARK UNBOUND:                -2.405
REMARK SMILES CC[C@@H](C)[C@@H](NC(=O)[C@@H](O)Cc1ccc(O)c(Cl)c1)C(=O)N1[C@H](C(=O)NCCCCN=C(N)N)C[C@H]2CC[C@H](OS(=O)(=O)O)C[C@@H]21
REMARK SMILES IDX 22 1 36 2 46 3 35 4 23 5 45 6 37 7 39 8 38 9 20 10 21 11
REMARK SMILES IDX 5 12 6 13 7 14 8 15 9 17 11 18 12 19 17 20 19 21 15 22 14 23
REMARK SMILES IDX 13 24 18 25 16 26 10 28 3 30 4 31 2 32 1 33 24 34 25 35
REMARK SMILES IDX 26 36 27 38 28 39 29 40 30 41 31 42 32 43 33 44 34 45 40 50
REMARK SMILES IDX 41 51 42 52 43 53 44 54
REMARK H PARENT 6 16 16 27 10 29 26 37 33 46 33 47 34 48 34 49 44 55
ROOT
ATOM      1  N   UNL     1       1.087  -4.461  10.961  1.00  0.00    -0.326 N 
ATOM      2  C   UNL     1       0.405  -5.268   8.858  1.00  0.00     0.014 C 
ATOM      3  C   UNL     1       0.520  -3.991   9.694  1.00  0.00     0.091 C 
ATOM      4  C   UNL     1       0.069  -6.322   9.901  1.00  0.00     0.041 C 
ATOM      5  C   UNL     1       1.073  -5.944  11.004  1.00  0.00     0.175 C 
ATOM      6  C   UNL     1       1.303  -2.955   8.890  1.00  0.00     0.059 C 
ATOM      7  C   UNL     1      -0.528  -5.063   7.680  1.00  0.00     0.008 C 
ATOM      8  C   UNL     1       1.098  -3.069   7.363  1.00  0.00     0.143 C 
ATOM      9  C   UNL     1      -0.264  -3.699   7.008  1.00  0.00     0.034 C 
ENDROOT
BRANCH   1  10
ATOM     10  C   UNL     1       1.397  -3.755  12.111  1.00  0.00     0.246 C 
ATOM     11  O   UNL     1       2.583  -3.540  12.384  1.00  0.00    -0.272 OA
BRANCH  10  12
ATOM     12  C   UNL     1       0.249  -3.213  13.011  1.00  0.00     0.174 C 
BRANCH  12  13
ATOM     13  N   UNL     1      -0.849  -4.178  13.055  1.00  0.00    -0.342 N 
ATOM     14  C   UNL     1      -1.558  -4.518  14.185  1.00  0.00     0.249 C 
ATOM     15  O   UNL     1      -1.362  -4.022  15.287  1.00  0.00    -0.272 OA
ATOM     16  H   UNL     1      -1.020  -4.783  12.255  1.00  0.00     0.164 HD
BRANCH  14  17
ATOM     17  C   UNL     1      -2.644  -5.580  13.910  1.00  0.00     0.207 C 
BRANCH  17  18
ATOM     18  C   UNL     1      -2.979  -5.629  12.416  1.00  0.00     0.077 C 
BRANCH  18  19
ATOM     19  C   UNL     1      -2.902  -7.036  11.868  1.00  0.00    -0.043 A 
ATOM     20  C   UNL     1      -3.657  -8.726  10.300  1.00  0.00     0.083 A 
ATOM     21  C   UNL     1      -3.694  -7.414  10.772  1.00  0.00     0.028 A 
ATOM     22  C   UNL     1      -2.833  -9.668  10.918  1.00  0.00     0.134 A 
ATOM     23  C   UNL     1      -2.043  -9.307  12.004  1.00  0.00     0.048 A 
ATOM     24  C   UNL     1      -2.080  -7.994  12.480  1.00  0.00     0.008 A 
ATOM     25  Cl  UNL     1      -4.637  -9.172   8.953  1.00  0.00    -0.080 Cl
BRANCH  22  26
ATOM     26  O   UNL     1      -2.771 -10.969  10.498  1.00  0.00    -0.506 OA
ATOM     27  H   UNL     1      -2.015 -11.377  10.960  1.00  0.00     0.293 HD
ENDBRANCH  22  26
ENDBRANCH  18  19
ENDBRANCH  17  18
BRANCH  17  28
ATOM     28  O   UNL     1      -3.839  -5.304  14.658  1.00  0.00    -0.383 OA
ATOM     29  H   UNL     1      -4.507  -5.003  14.002  1.00  0.00     0.211 HD
ENDBRANCH  17  28
ENDBRANCH  14  17
ENDBRANCH  12  13
BRANCH  12  30
ATOM     30  C   UNL     1      -0.225  -1.796  12.589  1.00  0.00     0.018 C 
ATOM     31  C   UNL     1      -0.488  -0.918  13.823  1.00  0.00     0.010 C 
BRANCH  30  32
ATOM     32  C   UNL     1      -1.470  -1.805  11.669  1.00  0.00     0.002 C 
ATOM     33  C   UNL     1      -1.413  -0.845  10.487  1.00  0.00     0.004 C 
ENDBRANCH  30  32
ENDBRANCH  12  30
ENDBRANCH  10  12
ENDBRANCH   1  10
BRANCH   5  34
ATOM     34  C   UNL     1       2.486  -6.516  10.712  1.00  0.00     0.242 C 
ATOM     35  O   UNL     1       3.364  -5.852  10.162  1.00  0.00    -0.273 OA
ATOM     36  N   UNL     1       2.668  -7.835  11.064  1.00  0.00    -0.354 N 
ATOM     37  H   UNL     1       1.867  -8.367  11.406  1.00  0.00     0.163 HD
BRANCH  36  38
ATOM     38  C   UNL     1       3.973  -8.463  11.063  1.00  0.00     0.116 C 
BRANCH  38  39
ATOM     39  C   UNL     1       4.023  -9.554   9.997  1.00  0.00     0.023 C 
BRANCH  39  40
ATOM     40  C   UNL     1       5.442  -9.829   9.510  1.00  0.00     0.026 C 
BRANCH  40  41
ATOM     41  C   UNL     1       5.709  -9.111   8.187  1.00  0.00     0.146 C 
BRANCH  41  42
ATOM     42  N   UNL     1       4.477  -8.508   7.696  1.00  0.00    -0.254 NA
ATOM     43  C   UNL     1       4.418  -7.241   7.522  1.00  0.00     0.185 C 
ATOM     44  N   UNL     1       5.353  -6.295   7.723  1.00  0.00    -0.370 N 
ATOM     45  N   UNL     1       3.272  -6.704   7.073  1.00  0.00    -0.370 N 
ATOM     46  H   UNL     1       5.097  -5.325   7.781  1.00  0.00     0.159 HD
ATOM     47  H   UNL     1       6.286  -6.529   8.050  1.00  0.00     0.159 HD
ATOM     48  H   UNL     1       2.516  -7.350   6.887  1.00  0.00     0.159 HD
ATOM     49  H   UNL     1       3.218  -5.777   6.691  1.00  0.00     0.159 HD
ENDBRANCH  41  42
ENDBRANCH  40  41
ENDBRANCH  39  40
ENDBRANCH  38  39
ENDBRANCH  36  38
ENDBRANCH   5  34
BRANCH   8  50
ATOM     50  O   UNL     1       2.132  -3.868   6.788  1.00  0.00    -0.245 OA
BRANCH  50  51
ATOM     51  S   UNL     1       3.636  -3.262   6.657  1.00  0.00     0.397 S 
ATOM     52  O   UNL     1       4.370  -3.630   7.847  1.00  0.00    -0.169 OA
ATOM     53  O   UNL     1       3.569  -1.890   6.199  1.00  0.00    -0.169 OA
BRANCH  51  54
ATOM     54  O   UNL     1       4.254  -4.152   5.469  1.00  0.00    -0.264 OA
ATOM     55  H   UNL     1       3.742  -4.985   5.423  1.00  0.00     0.236 HD
ENDBRANCH  51  54
ENDBRANCH  50  51
ENDBRANCH   8  50
TORSDOF 19
ENDMDL
MODEL 15
REMARK VINA RESULT:    -6.683      4.254      6.662
REMARK INTER + INTRA:         -15.926
REMARK INTER:                 -14.163
REMARK INTRA:                  -1.763
REMARK UNBOUND:                -2.405
REMARK SMILES CC[C@@H](C)[C@@H](NC(=O)[C@@H](O)Cc1ccc(O)c(Cl)c1)C(=O)N1[C@H](C(=O)NCCCCN=C(N)N)C[C@H]2CC[C@H](OS(=O)(=O)O)C[C@@H]21
REMARK SMILES IDX 22 1 36 2 46 3 35 4 23 5 45 6 37 7 39 8 38 9 20 10 21 11
REMARK SMILES IDX 5 12 6 13 7 14 8 15 9 17 11 18 12 19 17 20 19 21 15 22 14 23
REMARK SMILES IDX 13 24 18 25 16 26 10 28 3 30 4 31 2 32 1 33 24 34 25 35
REMARK SMILES IDX 26 36 27 38 28 39 29 40 30 41 31 42 32 43 33 44 34 45 40 50
REMARK SMILES IDX 41 51 42 52 43 53 44 54
REMARK H PARENT 6 16 16 27 10 29 26 37 33 46 33 47 34 48 34 49 44 55
ROOT
ATOM      1  N   UNL     1       1.339   7.579   7.461  1.00  0.00    -0.326 N 
ATOM      2  C   UNL     1       2.302   5.709   8.518  1.00  0.00     0.014 C 
ATOM      3  C   UNL     1       2.549   6.753   7.425  1.00  0.00     0.091 C 
ATOM      4  C   UNL     1       0.800   5.483   8.432  1.00  0.00     0.041 C 
ATOM      5  C   UNL     1       0.312   6.939   8.319  1.00  0.00     0.175 C 
ATOM      6  C   UNL     1       3.894   7.425   7.693  1.00  0.00     0.059 C 
ATOM      7  C   UNL     1       3.241   4.530   8.364  1.00  0.00     0.008 C 
ATOM      8  C   UNL     1       4.930   6.497   8.364  1.00  0.00     0.143 C 
ATOM      9  C   UNL     1       4.671   5.011   8.040  1.00  0.00     0.034 C 
ENDROOT
BRANCH   1  10
ATOM     10  C   UNL     1       0.985   8.669   6.683  1.00  0.00     0.246 C 
ATOM     11  O   UNL     1       1.332   9.800   7.040  1.00  0.00    -0.272 OA
BRANCH  10  12
ATOM     12  C   UNL     1       0.198   8.444   5.360  1.00  0.00     0.174 C 
BRANCH  12  13
ATOM     13  N   UNL     1       0.897   7.469   4.524  1.00  0.00    -0.342 N 
ATOM     14  C   UNL     1       0.548   6.143   4.396  1.00  0.00     0.249 C 
ATOM     15  O   UNL     1      -0.416   5.635   4.955  1.00  0.00    -0.272 OA
ATOM     16  H   UNL     1       1.803   7.704   4.125  1.00  0.00     0.164 HD
BRANCH  14  17
ATOM     17  C   UNL     1       1.492   5.366   3.453  1.00  0.00     0.207 C 
BRANCH  17  18
ATOM     18  C   UNL     1       0.910   5.315   2.037  1.00  0.00     0.077 C 
BRANCH  18  19
ATOM     19  C   UNL     1       1.827   5.971   1.029  1.00  0.00    -0.043 A 
ATOM     20  C   UNL     1       3.641   7.499   0.519  1.00  0.00     0.083 A 
ATOM     21  C   UNL     1       2.829   6.858   1.455  1.00  0.00     0.028 A 
ATOM     22  C   UNL     1       3.458   7.261  -0.844  1.00  0.00     0.134 A 
ATOM     23  C   UNL     1       2.470   6.385  -1.279  1.00  0.00     0.048 A 
ATOM     24  C   UNL     1       1.655   5.743  -0.345  1.00  0.00     0.008 A 
ATOM     25  Cl  UNL     1       4.866   8.585   1.061  1.00  0.00    -0.080 Cl
BRANCH  22  26
ATOM     26  O   UNL     1       4.223   7.874  -1.799  1.00  0.00    -0.506 OA
ATOM     27  H   UNL     1       4.116   7.357  -2.619  1.00  0.00     0.293 HD
ENDBRANCH  22  26
ENDBRANCH  18  19
ENDBRANCH  17  18
BRANCH  17  28
ATOM     28  O   UNL     1       1.710   4.028   3.928  1.00  0.00    -0.383 OA
ATOM     29  H   UNL     1       1.844   3.474   3.125  1.00  0.00     0.211 HD
ENDBRANCH  17  28
ENDBRANCH  14  17
ENDBRANCH  12  13
BRANCH  12  30
ATOM     30  C   UNL     1      -0.097   9.768   4.605  1.00  0.00     0.018 C 
ATOM     31  C   UNL     1       1.204  10.529   4.307  1.00  0.00     0.010 C 
BRANCH  30  32
ATOM     32  C   UNL     1      -1.098  10.693   5.339  1.00  0.00     0.002 C 
ATOM     33  C   UNL     1      -2.549  10.230   5.317  1.00  0.00     0.004 C 
ENDBRANCH  30  32
ENDBRANCH  12  30
ENDBRANCH  10  12
ENDBRANCH   1  10
BRANCH   5  34
ATOM     34  C   UNL     1       0.246   7.630   9.707  1.00  0.00     0.242 C 
ATOM     35  O   UNL     1       1.009   8.542  10.025  1.00  0.00    -0.273 OA
ATOM     36  N   UNL     1      -0.691   7.114  10.574  1.00  0.00    -0.354 N 
ATOM     37  H   UNL     1      -1.211   6.281  10.297  1.00  0.00     0.163 HD
BRANCH  36  38
ATOM     38  C   UNL     1      -1.035   7.768  11.819  1.00  0.00     0.116 C 
BRANCH  38  39
ATOM     39  C   UNL     1      -2.372   8.492  11.672  1.00  0.00     0.023 C 
BRANCH  39  40
ATOM     40  C   UNL     1      -2.594   9.533  12.764  1.00  0.00     0.026 C 
BRANCH  40  41
ATOM     41  C   UNL     1      -2.288   8.948  14.142  1.00  0.00     0.146 C 
BRANCH  41  42
ATOM     42  N   UNL     1      -3.499   8.940  14.953  1.00  0.00    -0.254 NA
ATOM     43  C   UNL     1      -4.254   7.907  14.953  1.00  0.00     0.185 C 
ATOM     44  N   UNL     1      -4.126   6.741  14.294  1.00  0.00    -0.370 N 
ATOM     45  N   UNL     1      -5.368   7.922  15.704  1.00  0.00    -0.370 N 
ATOM     46  H   UNL     1      -4.910   6.119  14.195  1.00  0.00     0.159 HD
ATOM     47  H   UNL     1      -3.331   6.555  13.690  1.00  0.00     0.159 HD
ATOM     48  H   UNL     1      -5.536   8.762  16.241  1.00  0.00     0.159 HD
ATOM     49  H   UNL     1      -5.875   7.087  15.942  1.00  0.00     0.159 HD
ENDBRANCH  41  42
ENDBRANCH  40  41
ENDBRANCH  39  40
ENDBRANCH  38  39
ENDBRANCH  36  38
ENDBRANCH   5  34
BRANCH   8  50
ATOM     50  O   UNL     1       4.894   6.665   9.781  1.00  0.00    -0.245 OA
BRANCH  50  51
ATOM     51  S   UNL     1       6.160   7.347  10.541  1.00  0.00     0.397 S 
ATOM     52  O   UNL     1       6.571   6.461  11.606  1.00  0.00    -0.169 OA
ATOM     53  O   UNL     1       5.885   8.749  10.781  1.00  0.00    -0.169 OA
BRANCH  51  54
ATOM     54  O   UNL     1       7.312   7.253   9.423  1.00  0.00    -0.264 OA
ATOM     55  H   UNL     1       6.913   6.874   8.614  1.00  0.00     0.236 HD
ENDBRANCH  51  54
ENDBRANCH  50  51
ENDBRANCH   8  50
TORSDOF 19
ENDMDL
MODEL 16
REMARK VINA RESULT:    -6.608      3.068      5.330
REMARK INTER + INTRA:         -15.774
REMARK INTER:                 -14.059
REMARK INTRA:                  -1.715
REMARK UNBOUND:                -2.405
REMARK SMILES CC[C@@H](C)[C@@H](NC(=O)[C@@H](O)Cc1ccc(O)c(Cl)c1)C(=O)N1[C@H](C(=O)NCCCCN=C(N)N)C[C@H]2CC[C@H](OS(=O)(=O)O)C[C@@H]21
REMARK SMILES IDX 22 1 36 2 46 3 35 4 23 5 45 6 37 7 39 8 38 9 20 10 21 11
REMARK SMILES IDX 5 12 6 13 7 14 8 15 9 17 11 18 12 19 17 20 19 21 15 22 14 23
REMARK SMILES IDX 13 24 18 25 16 26 10 28 3 30 4 31 2 32 1 33 24 34 25 35
REMARK SMILES IDX 26 36 27 38 28 39 29 40 30 41 31 42 32 43 33 44 34 45 40 50
REMARK SMILES IDX 41 51 42 52 43 53 44 54
REMARK H PARENT 6 16 16 27 10 29 26 37 33 46 33 47 34 48 34 49 44 55
ROOT
ATOM      1  N   UNL     1       2.131   7.132   7.976  1.00  0.00    -0.326 N 
ATOM      2  C   UNL     1       1.920   9.476   7.998  1.00  0.00     0.014 C 
ATOM      3  C   UNL     1       2.225   8.289   7.081  1.00  0.00     0.091 C 
ATOM      4  C   UNL     1       2.533   9.044   9.321  1.00  0.00     0.041 C 
ATOM      5  C   UNL     1       2.041   7.586   9.385  1.00  0.00     0.175 C 
ATOM      6  C   UNL     1       1.284   8.353   5.878  1.00  0.00     0.059 C 
ATOM      7  C   UNL     1       2.364  10.780   7.363  1.00  0.00     0.008 C 
ATOM      8  C   UNL     1       0.901   9.790   5.466  1.00  0.00     0.143 C 
ATOM      9  C   UNL     1       1.979  10.816   5.869  1.00  0.00     0.034 C 
ENDROOT
BRANCH   1  10
ATOM     10  C   UNL     1       2.326   5.787   7.711  1.00  0.00     0.246 C 
ATOM     11  O   UNL     1       1.627   4.952   8.295  1.00  0.00    -0.272 OA
BRANCH  10  12
ATOM     12  C   UNL     1       3.388   5.359   6.657  1.00  0.00     0.174 C 
BRANCH  12  13
ATOM     13  N   UNL     1       2.796   5.373   5.320  1.00  0.00    -0.342 N 
ATOM     14  C   UNL     1       3.282   6.089   4.249  1.00  0.00     0.249 C 
ATOM     15  O   UNL     1       4.291   6.781   4.292  1.00  0.00    -0.272 OA
ATOM     16  H   UNL     1       1.872   4.974   5.173  1.00  0.00     0.164 HD
BRANCH  14  17
ATOM     17  C   UNL     1       2.426   5.911   2.976  1.00  0.00     0.207 C 
BRANCH  17  18
ATOM     18  C   UNL     1       2.494   7.169   2.104  1.00  0.00     0.077 C 
BRANCH  18  19
ATOM     19  C   UNL     1       2.847   6.841   0.671  1.00  0.00    -0.043 A 
ATOM     20  C   UNL     1       4.190   7.244  -1.309  1.00  0.00     0.083 A 
ATOM     21  C   UNL     1       3.899   7.514   0.029  1.00  0.00     0.028 A 
ATOM     22  C   UNL     1       3.435   6.304  -2.012  1.00  0.00     0.134 A 
ATOM     23  C   UNL     1       2.391   5.631  -1.388  1.00  0.00     0.048 A 
ATOM     24  C   UNL     1       2.096   5.900  -0.050  1.00  0.00     0.008 A 
ATOM     25  Cl  UNL     1       5.485   8.081  -2.080  1.00  0.00    -0.080 Cl
BRANCH  22  26
ATOM     26  O   UNL     1       3.676   6.014  -3.328  1.00  0.00    -0.506 OA
ATOM     27  H   UNL     1       4.523   6.440  -3.558  1.00  0.00     0.293 HD
ENDBRANCH  22  26
ENDBRANCH  18  19
ENDBRANCH  17  18
BRANCH  17  28
ATOM     28  O   UNL     1       1.056   5.634   3.308  1.00  0.00    -0.383 OA
ATOM     29  H   UNL     1       0.805   6.292   3.996  1.00  0.00     0.211 HD
ENDBRANCH  17  28
ENDBRANCH  14  17
ENDBRANCH  12  13
BRANCH  12  30
ATOM     30  C   UNL     1       4.055   3.998   6.996  1.00  0.00     0.018 C 
ATOM     31  C   UNL     1       5.583   4.143   7.072  1.00  0.00     0.010 C 
BRANCH  30  32
ATOM     32  C   UNL     1       3.676   2.860   6.017  1.00  0.00     0.002 C 
ATOM     33  C   UNL     1       4.289   1.501   6.330  1.00  0.00     0.004 C 
ENDBRANCH  30  32
ENDBRANCH  12  30
ENDBRANCH  10  12
ENDBRANCH   1  10
BRANCH   5  34
ATOM     34  C   UNL     1       0.580   7.497   9.900  1.00  0.00     0.242 C 
ATOM     35  O   UNL     1      -0.388   7.743   9.180  1.00  0.00    -0.273 OA
ATOM     36  N   UNL     1       0.447   7.178  11.233  1.00  0.00    -0.354 N 
ATOM     37  H   UNL     1       1.288   7.104  11.807  1.00  0.00     0.163 HD
BRANCH  36  38
ATOM     38  C   UNL     1      -0.832   6.843  11.824  1.00  0.00     0.116 C 
BRANCH  38  39
ATOM     39  C   UNL     1      -1.511   8.109  12.342  1.00  0.00     0.023 C 
BRANCH  39  40
ATOM     40  C   UNL     1      -2.668   7.805  13.288  1.00  0.00     0.026 C 
BRANCH  40  41
ATOM     41  C   UNL     1      -2.226   7.937  14.745  1.00  0.00     0.146 C 
BRANCH  41  42
ATOM     42  N   UNL     1      -1.228   6.920  15.051  1.00  0.00    -0.254 NA
ATOM     43  C   UNL     1      -1.579   5.855  15.670  1.00  0.00     0.185 C 
ATOM     44  N   UNL     1      -2.788   5.475  16.122  1.00  0.00    -0.370 N 
ATOM     45  N   UNL     1      -0.643   4.932  15.946  1.00  0.00    -0.370 N 
ATOM     46  H   UNL     1      -2.873   4.737  16.799  1.00  0.00     0.159 HD
ATOM     47  H   UNL     1      -3.613   6.051  15.986  1.00  0.00     0.159 HD
ATOM     48  H   UNL     1       0.295   5.136  15.631  1.00  0.00     0.159 HD
ATOM     49  H   UNL     1      -0.870   3.989  16.207  1.00  0.00     0.159 HD
ENDBRANCH  41  42
ENDBRANCH  40  41
ENDBRANCH  39  40
ENDBRANCH  38  39
ENDBRANCH  36  38
ENDBRANCH   5  34
BRANCH   8  50
ATOM     50  O   UNL     1      -0.333  10.164   6.079  1.00  0.00    -0.245 OA
BRANCH  50  51
ATOM     51  S   UNL     1      -1.737   9.828   5.330  1.00  0.00     0.397 S 
ATOM     52  O   UNL     1      -1.490   9.812   3.906  1.00  0.00    -0.169 OA
ATOM     53  O   UNL     1      -2.799  10.624   5.908  1.00  0.00    -0.169 OA
BRANCH  51  54
ATOM     54  O   UNL     1      -1.982   8.295   5.749  1.00  0.00    -0.264 OA
ATOM     55  H   UNL     1      -2.248   7.805   4.944  1.00  0.00     0.236 HD
ENDBRANCH  51  54
ENDBRANCH  50  51
ENDBRANCH   8  50
TORSDOF 19
ENDMDL
MODEL 17
REMARK VINA RESULT:    -6.601      4.078      7.073
REMARK INTER + INTRA:         -15.760
REMARK INTER:                 -13.959
REMARK INTRA:                  -1.802
REMARK UNBOUND:                -2.405
REMARK SMILES CC[C@@H](C)[C@@H](NC(=O)[C@@H](O)Cc1ccc(O)c(Cl)c1)C(=O)N1[C@H](C(=O)NCCCCN=C(N)N)C[C@H]2CC[C@H](OS(=O)(=O)O)C[C@@H]21
REMARK SMILES IDX 22 1 36 2 46 3 35 4 23 5 45 6 37 7 39 8 38 9 20 10 21 11
REMARK SMILES IDX 5 12 6 13 7 14 8 15 9 17 11 18 12 19 17 20 19 21 15 22 14 23
REMARK SMILES IDX 13 24 18 25 16 26 10 28 3 30 4 31 2 32 1 33 24 34 25 35
REMARK SMILES IDX 26 36 27 38 28 39 29 40 30 41 31 42 32 43 33 44 34 45 40 50
REMARK SMILES IDX 41 51 42 52 43 53 44 54
REMARK H PARENT 6 16 16 27 10 29 26 37 33 46 33 47 34 48 34 49 44 55
ROOT
ATOM      1  N   UNL     1       1.636   8.237   5.658  1.00  0.00    -0.326 N 
ATOM      2  C   UNL     1       0.850   6.027   5.456  1.00  0.00     0.014 C 
ATOM      3  C   UNL     1       1.935   6.985   4.956  1.00  0.00     0.091 C 
ATOM      4  C   UNL     1      -0.352   6.943   5.627  1.00  0.00     0.041 C 
ATOM      5  C   UNL     1       0.316   8.141   6.328  1.00  0.00     0.175 C 
ATOM      6  C   UNL     1       3.297   6.334   5.186  1.00  0.00     0.059 C 
ATOM      7  C   UNL     1       0.738   4.816   4.551  1.00  0.00     0.008 C 
ATOM      8  C   UNL     1       3.276   4.794   5.079  1.00  0.00     0.143 C 
ATOM      9  C   UNL     1       2.138   4.292   4.167  1.00  0.00     0.034 C 
ENDROOT
BRANCH   1  10
ATOM     10  C   UNL     1       2.270   9.466   5.590  1.00  0.00     0.246 C 
ATOM     11  O   UNL     1       3.013   9.811   6.515  1.00  0.00    -0.272 OA
BRANCH  10  12
ATOM     12  C   UNL     1       2.069  10.365   4.335  1.00  0.00     0.174 C 
BRANCH  12  13
ATOM     13  N   UNL     1       2.621   9.703   3.154  1.00  0.00    -0.342 N 
ATOM     14  C   UNL     1       3.939   9.337   2.997  1.00  0.00     0.249 C 
ATOM     15  O   UNL     1       4.800   9.504   3.852  1.00  0.00    -0.272 OA
ATOM     16  H   UNL     1       2.065   9.641   2.305  1.00  0.00     0.164 HD
BRANCH  14  17
ATOM     17  C   UNL     1       4.214   8.673   1.631  1.00  0.00     0.207 C 
BRANCH  17  18
ATOM     18  C   UNL     1       3.695   7.232   1.622  1.00  0.00     0.077 C 
BRANCH  18  19
ATOM     19  C   UNL     1       2.907   6.926   0.368  1.00  0.00    -0.043 A 
ATOM     20  C   UNL     1       2.476   7.305  -1.989  1.00  0.00     0.083 A 
ATOM     21  C   UNL     1       3.236   7.552  -0.845  1.00  0.00     0.028 A 
ATOM     22  C   UNL     1       1.385   6.436  -1.929  1.00  0.00     0.134 A 
ATOM     23  C   UNL     1       1.049   5.810  -0.735  1.00  0.00     0.048 A 
ATOM     24  C   UNL     1       1.807   6.056   0.412  1.00  0.00     0.008 A 
ATOM     25  Cl  UNL     1       2.895   8.084  -3.470  1.00  0.00    -0.080 Cl
BRANCH  22  26
ATOM     26  O   UNL     1       0.605   6.172  -3.022  1.00  0.00    -0.506 OA
ATOM     27  H   UNL     1       1.016   5.419  -3.485  1.00  0.00     0.293 HD
ENDBRANCH  22  26
ENDBRANCH  18  19
ENDBRANCH  17  18
BRANCH  17  28
ATOM     28  O   UNL     1       5.619   8.676   1.328  1.00  0.00    -0.383 OA
ATOM     29  H   UNL     1       6.080   8.869   2.176  1.00  0.00     0.211 HD
ENDBRANCH  17  28
ENDBRANCH  14  17
ENDBRANCH  12  13
BRANCH  12  30
ATOM     30  C   UNL     1       2.632  11.799   4.528  1.00  0.00     0.018 C 
ATOM     31  C   UNL     1       1.721  12.623   5.451  1.00  0.00     0.010 C 
BRANCH  30  32
ATOM     32  C   UNL     1       2.869  12.557   3.200  1.00  0.00     0.002 C 
ATOM     33  C   UNL     1       4.008  13.569   3.222  1.00  0.00     0.004 C 
ENDBRANCH  30  32
ENDBRANCH  12  30
ENDBRANCH  10  12
ENDBRANCH   1  10
BRANCH   5  34
ATOM     34  C   UNL     1       0.488   7.889   7.850  1.00  0.00     0.242 C 
ATOM     35  O   UNL     1       1.296   8.519   8.533  1.00  0.00    -0.273 OA
ATOM     36  N   UNL     1      -0.286   6.876   8.368  1.00  0.00    -0.354 N 
ATOM     37  H   UNL     1      -0.847   6.310   7.729  1.00  0.00     0.163 HD
BRANCH  36  38
ATOM     38  C   UNL     1      -0.413   6.650   9.793  1.00  0.00     0.116 C 
BRANCH  38  39
ATOM     39  C   UNL     1      -1.408   7.642  10.389  1.00  0.00     0.023 C 
BRANCH  39  40
ATOM     40  C   UNL     1      -1.041   8.052  11.811  1.00  0.00     0.026 C 
BRANCH  40  41
ATOM     41  C   UNL     1      -1.251   6.890  12.782  1.00  0.00     0.146 C 
BRANCH  41  42
ATOM     42  N   UNL     1      -2.671   6.746  13.077  1.00  0.00    -0.254 NA
ATOM     43  C   UNL     1      -3.121   7.118  14.216  1.00  0.00     0.185 C 
ATOM     44  N   UNL     1      -2.478   7.660  15.266  1.00  0.00    -0.370 N 
ATOM     45  N   UNL     1      -4.432   6.972  14.471  1.00  0.00    -0.370 N 
ATOM     46  H   UNL     1      -2.905   7.676  16.177  1.00  0.00     0.159 HD
ATOM     47  H   UNL     1      -1.481   7.852  15.239  1.00  0.00     0.159 HD
ATOM     48  H   UNL     1      -4.992   6.579  13.727  1.00  0.00     0.159 HD
ATOM     49  H   UNL     1      -4.896   7.447  15.225  1.00  0.00     0.159 HD
ENDBRANCH  41  42
ENDBRANCH  40  41
ENDBRANCH  39  40
ENDBRANCH  38  39
ENDBRANCH  36  38
ENDBRANCH   5  34
BRANCH   8  50
ATOM     50  O   UNL     1       3.108   4.215   6.373  1.00  0.00    -0.245 OA
BRANCH  50  51
ATOM     51  S   UNL     1       4.234   3.190   6.947  1.00  0.00     0.397 S 
ATOM     52  O   UNL     1       4.342   2.083   6.024  1.00  0.00    -0.169 OA
ATOM     53  O   UNL     1       4.022   2.980   8.364  1.00  0.00    -0.169 OA
BRANCH  51  54
ATOM     54  O   UNL     1       5.585   4.043   6.769  1.00  0.00    -0.264 OA
ATOM     55  H   UNL     1       5.810   4.050   5.816  1.00  0.00     0.236 HD
ENDBRANCH  51  54
ENDBRANCH  50  51
ENDBRANCH   8  50
TORSDOF 19
ENDMDL
MODEL 18
REMARK VINA RESULT:    -6.596      9.615     14.579
REMARK INTER + INTRA:         -15.749
REMARK INTER:                 -13.449
REMARK INTRA:                  -2.300
REMARK UNBOUND:                -2.405
REMARK SMILES CC[C@@H](C)[C@@H](NC(=O)[C@@H](O)Cc1ccc(O)c(Cl)c1)C(=O)N1[C@H](C(=O)NCCCCN=C(N)N)C[C@H]2CC[C@H](OS(=O)(=O)O)C[C@@H]21
REMARK SMILES IDX 22 1 36 2 46 3 35 4 23 5 45 6 37 7 39 8 38 9 20 10 21 11
REMARK SMILES IDX 5 12 6 13 7 14 8 15 9 17 11 18 12 19 17 20 19 21 15 22 14 23
REMARK SMILES IDX 13 24 18 25 16 26 10 28 3 30 4 31 2 32 1 33 24 34 25 35
REMARK SMILES IDX 26 36 27 38 28 39 29 40 30 41 31 42 32 43 33 44 34 45 40 50
REMARK SMILES IDX 41 51 42 52 43 53 44 54
REMARK H PARENT 6 16 16 27 10 29 26 37 33 46 33 47 34 48 34 49 44 55
ROOT
ATOM      1  N   UNL     1       2.339  -4.631   7.908  1.00  0.00    -0.326 N 
ATOM      2  C   UNL     1       3.578  -3.650   6.163  1.00  0.00     0.014 C 
ATOM      3  C   UNL     1       2.758  -3.317   7.412  1.00  0.00     0.091 C 
ATOM      4  C   UNL     1       2.860  -4.869   5.605  1.00  0.00     0.041 C 
ATOM      5  C   UNL     1       2.647  -5.675   6.900  1.00  0.00     0.175 C 
ATOM      6  C   UNL     1       3.606  -2.434   8.326  1.00  0.00     0.059 C 
ATOM      7  C   UNL     1       3.754  -2.425   5.287  1.00  0.00     0.008 C 
ATOM      8  C   UNL     1       4.586  -1.514   7.567  1.00  0.00     0.143 C 
ATOM      9  C   UNL     1       4.088  -1.186   6.144  1.00  0.00     0.034 C 
ENDROOT
BRANCH   1  10
ATOM     10  C   UNL     1       1.558  -4.959   9.002  1.00  0.00     0.246 C 
ATOM     11  O   UNL     1       1.978  -5.792   9.813  1.00  0.00    -0.272 OA
BRANCH  10  12
ATOM     12  C   UNL     1       0.191  -4.245   9.211  1.00  0.00     0.174 C 
BRANCH  12  13
ATOM     13  N   UNL     1      -0.303  -4.500  10.564  1.00  0.00    -0.342 N 
ATOM     14  C   UNL     1      -0.994  -3.593  11.337  1.00  0.00     0.249 C 
ATOM     15  O   UNL     1      -1.297  -2.468  10.961  1.00  0.00    -0.272 OA
ATOM     16  H   UNL     1       0.006  -5.329  11.065  1.00  0.00     0.164 HD
BRANCH  14  17
ATOM     17  C   UNL     1      -1.364  -4.156  12.725  1.00  0.00     0.207 C 
BRANCH  17  18
ATOM     18  C   UNL     1      -2.719  -4.870  12.670  1.00  0.00     0.077 C 
BRANCH  18  19
ATOM     19  C   UNL     1      -2.564  -6.344  12.370  1.00  0.00    -0.043 A 
ATOM     20  C   UNL     1      -3.217  -8.314  11.113  1.00  0.00     0.083 A 
ATOM     21  C   UNL     1      -3.326  -6.944  11.355  1.00  0.00     0.028 A 
ATOM     22  C   UNL     1      -2.351  -9.092  11.882  1.00  0.00     0.134 A 
ATOM     23  C   UNL     1      -1.591  -8.511  12.891  1.00  0.00     0.048 A 
ATOM     24  C   UNL     1      -1.699  -7.140  13.136  1.00  0.00     0.008 A 
ATOM     25  Cl  UNL     1      -4.162  -9.032   9.862  1.00  0.00    -0.080 Cl
BRANCH  22  26
ATOM     26  O   UNL     1      -2.219 -10.440  11.690  1.00  0.00    -0.506 OA
ATOM     27  H   UNL     1      -3.037 -10.743  11.253  1.00  0.00     0.293 HD
ENDBRANCH  22  26
ENDBRANCH  18  19
ENDBRANCH  17  18
BRANCH  17  28
ATOM     28  O   UNL     1      -1.417  -3.110  13.710  1.00  0.00    -0.383 OA
ATOM     29  H   UNL     1      -0.664  -2.510  13.509  1.00  0.00     0.211 HD
ENDBRANCH  17  28
ENDBRANCH  14  17
ENDBRANCH  12  13
BRANCH  12  30
ATOM     30  C   UNL     1      -0.850  -4.611   8.120  1.00  0.00     0.018 C 
ATOM     31  C   UNL     1      -0.779  -6.107   7.777  1.00  0.00     0.010 C 
BRANCH  30  32
ATOM     32  C   UNL     1      -0.725  -3.763   6.831  1.00  0.00     0.002 C 
ATOM     33  C   UNL     1      -0.691  -2.255   7.045  1.00  0.00     0.004 C 
ENDBRANCH  30  32
ENDBRANCH  12  30
ENDBRANCH  10  12
ENDBRANCH   1  10
BRANCH   5  34
ATOM     34  C   UNL     1       3.923  -6.465   7.297  1.00  0.00     0.242 C 
ATOM     35  O   UNL     1       5.053  -5.991   7.181  1.00  0.00    -0.273 OA
ATOM     36  N   UNL     1       3.702  -7.751   7.738  1.00  0.00    -0.354 N 
ATOM     37  H   UNL     1       2.755  -8.128   7.699  1.00  0.00     0.163 HD
BRANCH  36  38
ATOM     38  C   UNL     1       4.746  -8.548   8.349  1.00  0.00     0.116 C 
BRANCH  38  39
ATOM     39  C   UNL     1       4.885  -9.875   7.606  1.00  0.00     0.023 C 
BRANCH  39  40
ATOM     40  C   UNL     1       4.805  -9.708   6.093  1.00  0.00     0.026 C 
BRANCH  40  41
ATOM     41  C   UNL     1       5.476 -10.883   5.381  1.00  0.00     0.146 C 
BRANCH  41  42
ATOM     42  N   UNL     1       6.024 -10.438   4.107  1.00  0.00    -0.254 NA
ATOM     43  C   UNL     1       6.013 -11.231   3.102  1.00  0.00     0.185 C 
ATOM     44  N   UNL     1       5.552 -12.491   2.998  1.00  0.00    -0.370 N 
ATOM     45  N   UNL     1       6.527 -10.804   1.937  1.00  0.00    -0.370 N 
ATOM     46  H   UNL     1       5.826 -13.075   2.227  1.00  0.00     0.159 HD
ATOM     47  H   UNL     1       5.117 -12.965   3.784  1.00  0.00     0.159 HD
ATOM     48  H   UNL     1       6.889  -9.860   1.926  1.00  0.00     0.159 HD
ATOM     49  H   UNL     1       6.344 -11.261   1.061  1.00  0.00     0.159 HD
ENDBRANCH  41  42
ENDBRANCH  40  41
ENDBRANCH  39  40
ENDBRANCH  38  39
ENDBRANCH  36  38
ENDBRANCH   5  34
BRANCH   8  50
ATOM     50  O   UNL     1       5.867  -2.136   7.467  1.00  0.00    -0.245 OA
BRANCH  50  51
ATOM     51  S   UNL     1       7.212  -1.239   7.642  1.00  0.00     0.397 S 
ATOM     52  O   UNL     1       7.719  -0.932   6.323  1.00  0.00    -0.169 OA
ATOM     53  O   UNL     1       8.056  -1.822   8.663  1.00  0.00    -0.169 OA
BRANCH  51  54
ATOM     54  O   UNL     1       6.621   0.142   8.216  1.00  0.00    -0.264 OA
ATOM     55  H   UNL     1       6.079  -0.069   9.002  1.00  0.00     0.236 HD
ENDBRANCH  51  54
ENDBRANCH  50  51
ENDBRANCH   8  50
TORSDOF 19
ENDMDL
MODEL 19
REMARK VINA RESULT:    -6.512      9.062     12.891
REMARK INTER + INTRA:         -15.579
REMARK INTER:                 -10.777
REMARK INTRA:                  -4.802
REMARK UNBOUND:                -2.405
REMARK SMILES CC[C@@H](C)[C@@H](NC(=O)[C@@H](O)Cc1ccc(O)c(Cl)c1)C(=O)N1[C@H](C(=O)NCCCCN=C(N)N)C[C@H]2CC[C@H](OS(=O)(=O)O)C[C@@H]21
REMARK SMILES IDX 22 1 36 2 46 3 35 4 23 5 45 6 37 7 39 8 38 9 20 10 21 11
REMARK SMILES IDX 5 12 6 13 7 14 8 15 9 17 11 18 12 19 17 20 19 21 15 22 14 23
REMARK SMILES IDX 13 24 18 25 16 26 10 28 3 30 4 31 2 32 1 33 24 34 25 35
REMARK SMILES IDX 26 36 27 38 28 39 29 40 30 41 31 42 32 43 33 44 34 45 40 50
REMARK SMILES IDX 41 51 42 52 43 53 44 54
REMARK H PARENT 6 16 16 27 10 29 26 37 33 46 33 47 34 48 34 49 44 55
ROOT
ATOM      1  N   UNL     1      -1.014  -2.851  11.304  1.00  0.00    -0.326 N 
ATOM      2  C   UNL     1      -2.289  -3.692  13.096  1.00  0.00     0.014 C 
ATOM      3  C   UNL     1      -1.908  -3.964  11.638  1.00  0.00     0.091 C 
ATOM      4  C   UNL     1      -2.340  -2.173  13.151  1.00  0.00     0.041 C 
ATOM      5  C   UNL     1      -1.052  -1.829  12.379  1.00  0.00     0.175 C 
ATOM      6  C   UNL     1      -1.362  -5.387  11.539  1.00  0.00     0.059 C 
ATOM      7  C   UNL     1      -3.514  -4.491  13.494  1.00  0.00     0.008 C 
ATOM      8  C   UNL     1      -1.997  -6.368  12.547  1.00  0.00     0.143 C 
ATOM      9  C   UNL     1      -3.419  -5.936  12.959  1.00  0.00     0.034 C 
ENDROOT
BRANCH   1  10
ATOM     10  C   UNL     1      -0.371  -2.555  10.114  1.00  0.00     0.246 C 
ATOM     11  O   UNL     1      -0.147  -1.374   9.830  1.00  0.00    -0.272 OA
BRANCH  10  12
ATOM     12  C   UNL     1       0.091  -3.713   9.183  1.00  0.00     0.174 C 
BRANCH  12  13
ATOM     13  N   UNL     1       1.551  -3.732   9.098  1.00  0.00    -0.342 N 
ATOM     14  C   UNL     1       2.318  -4.862   8.924  1.00  0.00     0.249 C 
ATOM     15  O   UNL     1       1.854  -5.987   8.792  1.00  0.00    -0.272 OA
ATOM     16  H   UNL     1       2.081  -2.900   9.345  1.00  0.00     0.164 HD
BRANCH  14  17
ATOM     17  C   UNL     1       3.831  -4.555   8.891  1.00  0.00     0.207 C 
BRANCH  17  18
ATOM     18  C   UNL     1       4.380  -4.719   7.470  1.00  0.00     0.077 C 
BRANCH  18  19
ATOM     19  C   UNL     1       4.458  -3.396   6.742  1.00  0.00    -0.043 A 
ATOM     20  C   UNL     1       4.534  -0.972   6.788  1.00  0.00     0.083 A 
ATOM     21  C   UNL     1       4.512  -2.193   7.463  1.00  0.00     0.028 A 
ATOM     22  C   UNL     1       4.501  -0.944   5.394  1.00  0.00     0.134 A 
ATOM     23  C   UNL     1       4.448  -2.128   4.667  1.00  0.00     0.048 A 
ATOM     24  C   UNL     1       4.424  -3.352   5.340  1.00  0.00     0.008 A 
ATOM     25  Cl  UNL     1       4.600   0.496   7.691  1.00  0.00    -0.080 Cl
BRANCH  22  26
ATOM     26  O   UNL     1       4.510   0.229   4.688  1.00  0.00    -0.506 OA
ATOM     27  H   UNL     1       3.621   0.329   4.301  1.00  0.00     0.293 HD
ENDBRANCH  22  26
ENDBRANCH  18  19
ENDBRANCH  17  18
BRANCH  17  28
ATOM     28  O   UNL     1       4.553  -5.419   9.784  1.00  0.00    -0.383 OA
ATOM     29  H   UNL     1       4.557  -6.307   9.359  1.00  0.00     0.211 HD
ENDBRANCH  17  28
ENDBRANCH  14  17
ENDBRANCH  12  13
BRANCH  12  30
ATOM     30  C   UNL     1      -0.583  -3.666   7.786  1.00  0.00     0.018 C 
ATOM     31  C   UNL     1      -1.121  -5.050   7.391  1.00  0.00     0.010 C 
BRANCH  30  32
ATOM     32  C   UNL     1       0.337  -3.115   6.670  1.00  0.00     0.002 C 
ATOM     33  C   UNL     1       0.766  -4.130   5.619  1.00  0.00     0.004 C 
ENDBRANCH  30  32
ENDBRANCH  12  30
ENDBRANCH  10  12
ENDBRANCH   1  10
BRANCH   5  34
ATOM     34  C   UNL     1       0.204  -1.936  13.285  1.00  0.00     0.242 C 
ATOM     35  O   UNL     1       0.209  -1.543  14.451  1.00  0.00    -0.273 OA
ATOM     36  N   UNL     1       1.324  -2.452  12.673  1.00  0.00    -0.354 N 
ATOM     37  H   UNL     1       1.292  -2.648  11.672  1.00  0.00     0.163 HD
BRANCH  36  38
ATOM     38  C   UNL     1       2.510  -2.821  13.418  1.00  0.00     0.116 C 
BRANCH  38  39
ATOM     39  C   UNL     1       3.106  -4.103  12.841  1.00  0.00     0.023 C 
BRANCH  39  40
ATOM     40  C   UNL     1       2.039  -5.126  12.469  1.00  0.00     0.026 C 
BRANCH  40  41
ATOM     41  C   UNL     1       2.627  -6.537  12.439  1.00  0.00     0.146 C 
BRANCH  41  42
ATOM     42  N   UNL     1       1.551  -7.519  12.461  1.00  0.00    -0.254 NA
ATOM     43  C   UNL     1       1.370  -8.284  11.450  1.00  0.00     0.185 C 
ATOM     44  N   UNL     1       2.042  -8.352  10.286  1.00  0.00    -0.370 N 
ATOM     45  N   UNL     1       0.370  -9.180  11.488  1.00  0.00    -0.370 N 
ATOM     46  H   UNL     1       1.644  -8.823   9.492  1.00  0.00     0.159 HD
ATOM     47  H   UNL     1       2.839  -7.753  10.095  1.00  0.00     0.159 HD
ATOM     48  H   UNL     1      -0.181  -9.200  12.336  1.00  0.00     0.159 HD
ATOM     49  H   UNL     1       0.313  -9.958  10.856  1.00  0.00     0.159 HD
ENDBRANCH  41  42
ENDBRANCH  40  41
ENDBRANCH  39  40
ENDBRANCH  38  39
ENDBRANCH  36  38
ENDBRANCH   5  34
BRANCH   8  50
ATOM     50  O   UNL     1      -1.191  -6.454  13.722  1.00  0.00    -0.245 OA
BRANCH  50  51
ATOM     51  S   UNL     1      -1.260  -7.790  14.647  1.00  0.00     0.397 S 
ATOM     52  O   UNL     1      -1.660  -8.895  13.806  1.00  0.00    -0.169 OA
ATOM     53  O   UNL     1      -1.949  -7.489  15.885  1.00  0.00    -0.169 OA
BRANCH  51  54
ATOM     54  O   UNL     1       0.291  -8.040  14.991  1.00  0.00    -0.264 OA
ATOM     55  H   UNL     1       0.816  -7.369  14.508  1.00  0.00     0.236 HD
ENDBRANCH  51  54
ENDBRANCH  50  51
ENDBRANCH   8  50
TORSDOF 19
ENDMDL
MODEL 20
REMARK VINA RESULT:    -6.505     10.073     14.495
REMARK INTER + INTRA:         -15.566
REMARK INTER:                 -11.759
REMARK INTRA:                  -3.807
REMARK UNBOUND:                -2.405
REMARK SMILES CC[C@@H](C)[C@@H](NC(=O)[C@@H](O)Cc1ccc(O)c(Cl)c1)C(=O)N1[C@H](C(=O)NCCCCN=C(N)N)C[C@H]2CC[C@H](OS(=O)(=O)O)C[C@@H]21
REMARK SMILES IDX 22 1 36 2 46 3 35 4 23 5 45 6 37 7 39 8 38 9 20 10 21 11
REMARK SMILES IDX 5 12 6 13 7 14 8 15 9 17 11 18 12 19 17 20 19 21 15 22 14 23
REMARK SMILES IDX 13 24 18 25 16 26 10 28 3 30 4 31 2 32 1 33 24 34 25 35
REMARK SMILES IDX 26 36 27 38 28 39 29 40 30 41 31 42 32 43 33 44 34 45 40 50
REMARK SMILES IDX 41 51 42 52 43 53 44 54
REMARK H PARENT 6 16 16 27 10 29 26 37 33 46 33 47 34 48 34 49 44 55
ROOT
ATOM      1  N   UNL     1      -0.299  -5.457  10.335  1.00  0.00    -0.326 N 
ATOM      2  C   UNL     1       1.740  -4.317  10.627  1.00  0.00     0.014 C 
ATOM      3  C   UNL     1       1.064  -5.676  10.829  1.00  0.00     0.091 C 
ATOM      4  C   UNL     1       0.608  -3.337  10.891  1.00  0.00     0.041 C 
ATOM      5  C   UNL     1      -0.526  -4.010  10.097  1.00  0.00     0.175 C 
ATOM      6  C   UNL     1       1.917  -6.746  10.150  1.00  0.00     0.059 C 
ATOM      7  C   UNL     1       3.014  -4.219  11.443  1.00  0.00     0.008 C 
ATOM      8  C   UNL     1       3.429  -6.434  10.160  1.00  0.00     0.143 C 
ATOM      9  C   UNL     1       3.826  -5.528  11.344  1.00  0.00     0.034 C 
ENDROOT
BRANCH   1  10
ATOM     10  C   UNL     1      -1.375  -6.327  10.283  1.00  0.00     0.246 C 
ATOM     11  O   UNL     1      -1.679  -6.842   9.202  1.00  0.00    -0.272 OA
BRANCH  10  12
ATOM     12  C   UNL     1      -2.148  -6.669  11.589  1.00  0.00     0.174 C 
BRANCH  12  13
ATOM     13  N   UNL     1      -1.726  -5.775  12.667  1.00  0.00    -0.342 N 
ATOM     14  C   UNL     1      -2.503  -5.416  13.745  1.00  0.00     0.249 C 
ATOM     15  O   UNL     1      -3.639  -5.833  13.937  1.00  0.00    -0.272 OA
ATOM     16  H   UNL     1      -0.873  -5.232  12.565  1.00  0.00     0.164 HD
BRANCH  14  17
ATOM     17  C   UNL     1      -1.781  -4.444  14.702  1.00  0.00     0.207 C 
BRANCH  17  18
ATOM     18  C   UNL     1      -0.264  -4.525  14.503  1.00  0.00     0.077 C 
BRANCH  18  19
ATOM     19  C   UNL     1       0.376  -3.155  14.496  1.00  0.00    -0.043 A 
ATOM     20  C   UNL     1       2.308  -1.735  14.860  1.00  0.00     0.083 A 
ATOM     21  C   UNL     1       1.734  -3.006  14.820  1.00  0.00     0.028 A 
ATOM     22  C   UNL     1       1.534  -0.609  14.579  1.00  0.00     0.134 A 
ATOM     23  C   UNL     1       0.188  -0.743  14.257  1.00  0.00     0.048 A 
ATOM     24  C   UNL     1      -0.391  -2.013  14.218  1.00  0.00     0.008 A 
ATOM     25  Cl  UNL     1       3.978  -1.571  15.260  1.00  0.00    -0.080 Cl
BRANCH  22  26
ATOM     26  O   UNL     1       2.051   0.658  14.616  1.00  0.00    -0.506 OA
ATOM     27  H   UNL     1       1.335   1.243  14.927  1.00  0.00     0.293 HD
ENDBRANCH  22  26
ENDBRANCH  18  19
ENDBRANCH  17  18
BRANCH  17  28
ATOM     28  O   UNL     1      -2.098  -4.737  16.073  1.00  0.00    -0.383 OA
ATOM     29  H   UNL     1      -2.965  -4.306  16.249  1.00  0.00     0.211 HD
ENDBRANCH  17  28
ENDBRANCH  14  17
ENDBRANCH  12  13
BRANCH  12  30
ATOM     30  C   UNL     1      -2.031  -8.167  11.981  1.00  0.00     0.018 C 
ATOM     31  C   UNL     1      -0.559  -8.607  12.023  1.00  0.00     0.010 C 
BRANCH  30  32
ATOM     32  C   UNL     1      -2.843  -9.114  11.065  1.00  0.00     0.002 C 
ATOM     33  C   UNL     1      -4.283  -8.692  10.804  1.00  0.00     0.004 C 
ENDBRANCH  30  32
ENDBRANCH  12  30
ENDBRANCH  10  12
ENDBRANCH   1  10
BRANCH   5  34
ATOM     34  C   UNL     1      -0.439  -3.680   8.583  1.00  0.00     0.242 C 
ATOM     35  O   UNL     1      -0.694  -2.562   8.138  1.00  0.00    -0.273 OA
ATOM     36  N   UNL     1      -0.108  -4.742   7.771  1.00  0.00    -0.354 N 
ATOM     37  H   UNL     1      -0.026  -5.671   8.185  1.00  0.00     0.163 HD
BRANCH  36  38
ATOM     38  C   UNL     1       0.226  -4.570   6.372  1.00  0.00     0.116 C 
BRANCH  38  39
ATOM     39  C   UNL     1       1.730  -4.747   6.174  1.00  0.00     0.023 C 
BRANCH  39  40
ATOM     40  C   UNL     1       2.493  -3.433   6.300  1.00  0.00     0.026 C 
BRANCH  40  41
ATOM     41  C   UNL     1       3.103  -3.029   4.958  1.00  0.00     0.146 C 
BRANCH  41  42
ATOM     42  N   UNL     1       4.495  -3.457   4.900  1.00  0.00    -0.254 NA
ATOM     43  C   UNL     1       5.414  -2.593   4.685  1.00  0.00     0.185 C 
ATOM     44  N   UNL     1       5.325  -1.265   4.488  1.00  0.00    -0.370 N 
ATOM     45  N   UNL     1       6.690  -3.009   4.631  1.00  0.00    -0.370 N 
ATOM     46  H   UNL     1       6.094  -0.753   4.090  1.00  0.00     0.159 HD
ATOM     47  H   UNL     1       4.432  -0.782   4.510  1.00  0.00     0.159 HD
ATOM     48  H   UNL     1       6.847  -3.997   4.777  1.00  0.00     0.159 HD
ATOM     49  H   UNL     1       7.471  -2.380   4.704  1.00  0.00     0.159 HD
ENDBRANCH  41  42
ENDBRANCH  40  41
ENDBRANCH  39  40
ENDBRANCH  38  39
ENDBRANCH  36  38
ENDBRANCH   5  34
BRANCH   8  50
ATOM     50  O   UNL     1       3.803  -5.782   8.946  1.00  0.00    -0.245 OA
BRANCH  50  51
ATOM     51  S   UNL     1       4.852  -6.507   7.936  1.00  0.00     0.397 S 
ATOM     52  O   UNL     1       4.111  -7.441   7.118  1.00  0.00    -0.169 OA
ATOM     53  O   UNL     1       6.033  -6.911   8.669  1.00  0.00    -0.169 OA
BRANCH  51  54
ATOM     54  O   UNL     1       5.264  -5.300   6.957  1.00  0.00    -0.264 OA
ATOM     55  H   UNL     1       4.736  -4.516   7.211  1.00  0.00     0.236 HD
ENDBRANCH  51  54
ENDBRANCH  50  51
ENDBRANCH   8  50
TORSDOF 19
ENDMDL
MODEL 21
REMARK VINA RESULT:    -6.495      5.731      8.476
REMARK INTER + INTRA:         -15.545
REMARK INTER:                 -12.097
REMARK INTRA:                  -3.448
REMARK UNBOUND:                -2.405
REMARK SMILES CC[C@@H](C)[C@@H](NC(=O)[C@@H](O)Cc1ccc(O)c(Cl)c1)C(=O)N1[C@H](C(=O)NCCCCN=C(N)N)C[C@H]2CC[C@H](OS(=O)(=O)O)C[C@@H]21
REMARK SMILES IDX 22 1 36 2 46 3 35 4 23 5 45 6 37 7 39 8 38 9 20 10 21 11
REMARK SMILES IDX 5 12 6 13 7 14 8 15 9 17 11 18 12 19 17 20 19 21 15 22 14 23
REMARK SMILES IDX 13 24 18 25 16 26 10 28 3 30 4 31 2 32 1 33 24 34 25 35
REMARK SMILES IDX 26 36 27 38 28 39 29 40 30 41 31 42 32 43 33 44 34 45 40 50
REMARK SMILES IDX 41 51 42 52 43 53 44 54
REMARK H PARENT 6 16 16 27 10 29 26 37 33 46 33 47 34 48 34 49 44 55
ROOT
ATOM      1  N   UNL     1       4.192  10.630   3.293  1.00  0.00    -0.326 N 
ATOM      2  C   UNL     1       2.617  11.305   4.908  1.00  0.00     0.014 C 
ATOM      3  C   UNL     1       2.744  10.682   3.515  1.00  0.00     0.091 C 
ATOM      4  C   UNL     1       3.780  12.284   4.944  1.00  0.00     0.041 C 
ATOM      5  C   UNL     1       4.894  11.405   4.346  1.00  0.00     0.175 C 
ATOM      6  C   UNL     1       1.962   9.369   3.500  1.00  0.00     0.059 C 
ATOM      7  C   UNL     1       1.209  11.814   5.148  1.00  0.00     0.008 C 
ATOM      8  C   UNL     1       0.725   9.373   4.423  1.00  0.00     0.143 C 
ATOM      9  C   UNL     1       0.168  10.794   4.641  1.00  0.00     0.034 C 
ENDROOT
BRANCH   1  10
ATOM     10  C   UNL     1       4.906  10.181   2.196  1.00  0.00     0.246 C 
ATOM     11  O   UNL     1       5.717   9.260   2.342  1.00  0.00    -0.272 OA
BRANCH  10  12
ATOM     12  C   UNL     1       4.644  10.813   0.798  1.00  0.00     0.174 C 
BRANCH  12  13
ATOM     13  N   UNL     1       5.382  10.077  -0.228  1.00  0.00    -0.342 N 
ATOM     14  C   UNL     1       4.810   9.277  -1.192  1.00  0.00     0.249 C 
ATOM     15  O   UNL     1       3.602   9.113  -1.313  1.00  0.00    -0.272 OA
ATOM     16  H   UNL     1       6.392   9.991  -0.158  1.00  0.00     0.164 HD
BRANCH  14  17
ATOM     17  C   UNL     1       5.855   8.622  -2.119  1.00  0.00     0.207 C 
BRANCH  17  18
ATOM     18  C   UNL     1       6.999   9.598  -2.410  1.00  0.00     0.077 C 
BRANCH  18  19
ATOM     19  C   UNL     1       8.330   9.061  -1.934  1.00  0.00    -0.043 A 
ATOM     20  C   UNL     1       9.608   7.461  -0.634  1.00  0.00     0.083 A 
ATOM     21  C   UNL     1       8.382   7.924  -1.112  1.00  0.00     0.028 A 
ATOM     22  C   UNL     1      10.787   8.129  -0.970  1.00  0.00     0.134 A 
ATOM     23  C   UNL     1      10.750   9.256  -1.782  1.00  0.00     0.048 A 
ATOM     24  C   UNL     1       9.524   9.723  -2.262  1.00  0.00     0.008 A 
ATOM     25  Cl  UNL     1       9.652   6.062   0.374  1.00  0.00    -0.080 Cl
BRANCH  22  26
ATOM     26  O   UNL     1      12.011   7.718  -0.516  1.00  0.00    -0.506 OA
ATOM     27  H   UNL     1      12.526   7.454  -1.301  1.00  0.00     0.293 HD
ENDBRANCH  22  26
ENDBRANCH  18  19
ENDBRANCH  17  18
BRANCH  17  28
ATOM     28  O   UNL     1       5.258   8.204  -3.358  1.00  0.00    -0.383 OA
ATOM     29  H   UNL     1       5.811   8.596  -4.072  1.00  0.00     0.211 HD
ENDBRANCH  17  28
ENDBRANCH  14  17
ENDBRANCH  12  13
BRANCH  12  30
ATOM     30  C   UNL     1       4.941  12.336   0.763  1.00  0.00     0.018 C 
ATOM     31  C   UNL     1       3.647  13.141   0.567  1.00  0.00     0.010 C 
BRANCH  30  32
ATOM     32  C   UNL     1       5.986  12.742  -0.304  1.00  0.00     0.002 C 
ATOM     33  C   UNL     1       5.479  13.687  -1.386  1.00  0.00     0.004 C 
ENDBRANCH  30  32
ENDBRANCH  12  30
ENDBRANCH  10  12
ENDBRANCH   1  10
BRANCH   5  34
ATOM     34  C   UNL     1       5.508  10.456   5.410  1.00  0.00     0.242 C 
ATOM     35  O   UNL     1       6.485  10.773   6.088  1.00  0.00    -0.273 OA
ATOM     36  N   UNL     1       4.915   9.217   5.501  1.00  0.00    -0.354 N 
ATOM     37  H   UNL     1       4.187   8.970   4.830  1.00  0.00     0.163 HD
BRANCH  36  38
ATOM     38  C   UNL     1       5.214   8.294   6.576  1.00  0.00     0.116 C 
BRANCH  38  39
ATOM     39  C   UNL     1       4.539   6.951   6.309  1.00  0.00     0.023 C 
BRANCH  39  40
ATOM     40  C   UNL     1       4.145   6.777   4.846  1.00  0.00     0.026 C 
BRANCH  40  41
ATOM     41  C   UNL     1       3.102   5.670   4.693  1.00  0.00     0.146 C 
BRANCH  41  42
ATOM     42  N   UNL     1       2.061   6.099   3.768  1.00  0.00    -0.254 NA
ATOM     43  C   UNL     1       1.182   5.258   3.370  1.00  0.00     0.185 C 
ATOM     44  N   UNL     1       1.030   3.956   3.674  1.00  0.00    -0.370 N 
ATOM     45  N   UNL     1       0.234   5.672   2.514  1.00  0.00    -0.370 N 
ATOM     46  H   UNL     1       0.451   3.361   3.106  1.00  0.00     0.159 HD
ATOM     47  H   UNL     1       1.655   3.483   4.320  1.00  0.00     0.159 HD
ATOM     48  H   UNL     1       0.270   6.645   2.240  1.00  0.00     0.159 HD
ATOM     49  H   UNL     1      -0.611   5.155   2.346  1.00  0.00     0.159 HD
ENDBRANCH  41  42
ENDBRANCH  40  41
ENDBRANCH  39  40
ENDBRANCH  38  39
ENDBRANCH  36  38
ENDBRANCH   5  34
BRANCH   8  50
ATOM     50  O   UNL     1       1.061   8.818   5.695  1.00  0.00    -0.245 OA
BRANCH  50  51
ATOM     51  S   UNL     1       0.028   7.793   6.423  1.00  0.00     0.397 S 
ATOM     52  O   UNL     1      -0.963   8.580   7.121  1.00  0.00    -0.169 OA
ATOM     53  O   UNL     1       0.772   6.744   7.088  1.00  0.00    -0.169 OA
BRANCH  51  54
ATOM     54  O   UNL     1      -0.736   7.140   5.168  1.00  0.00    -0.264 OA
ATOM     55  H   UNL     1      -0.217   7.345   4.363  1.00  0.00     0.236 HD
ENDBRANCH  51  54
ENDBRANCH  50  51
ENDBRANCH   8  50
TORSDOF 19
ENDMDL
MODEL 22
REMARK VINA RESULT:    -6.470      9.781     13.980
REMARK INTER + INTRA:         -15.494
REMARK INTER:                 -11.611
REMARK INTRA:                  -3.883
REMARK UNBOUND:                -2.405
REMARK SMILES CC[C@@H](C)[C@@H](NC(=O)[C@@H](O)Cc1ccc(O)c(Cl)c1)C(=O)N1[C@H](C(=O)NCCCCN=C(N)N)C[C@H]2CC[C@H](OS(=O)(=O)O)C[C@@H]21
REMARK SMILES IDX 22 1 36 2 46 3 35 4 23 5 45 6 37 7 39 8 38 9 20 10 21 11
REMARK SMILES IDX 5 12 6 13 7 14 8 15 9 17 11 18 12 19 17 20 19 21 15 22 14 23
REMARK SMILES IDX 13 24 18 25 16 26 10 28 3 30 4 31 2 32 1 33 24 34 25 35
REMARK SMILES IDX 26 36 27 38 28 39 29 40 30 41 31 42 32 43 33 44 34 45 40 50
REMARK SMILES IDX 41 51 42 52 43 53 44 54
REMARK H PARENT 6 16 16 27 10 29 26 37 33 46 33 47 34 48 34 49 44 55
ROOT
ATOM      1  N   UNL     1      -0.272  -4.747  12.468  1.00  0.00    -0.326 N 
ATOM      2  C   UNL     1      -2.298  -5.452  13.437  1.00  0.00     0.014 C 
ATOM      3  C   UNL     1      -1.648  -5.089  12.098  1.00  0.00     0.091 C 
ATOM      4  C   UNL     1      -1.613  -4.505  14.410  1.00  0.00     0.041 C 
ATOM      5  C   UNL     1      -0.152  -4.645  13.944  1.00  0.00     0.175 C 
ATOM      6  C   UNL     1      -1.871  -6.244  11.124  1.00  0.00     0.059 C 
ATOM      7  C   UNL     1      -3.810  -5.439  13.326  1.00  0.00     0.008 C 
ATOM      8  C   UNL     1      -3.194  -7.006  11.355  1.00  0.00     0.143 C 
ATOM      9  C   UNL     1      -4.266  -6.117  12.017  1.00  0.00     0.034 C 
ENDROOT
BRANCH   1  10
ATOM     10  C   UNL     1       0.781  -4.322  11.675  1.00  0.00     0.246 C 
ATOM     11  O   UNL     1       1.911  -4.778  11.881  1.00  0.00    -0.272 OA
BRANCH  10  12
ATOM     12  C   UNL     1       0.512  -3.315  10.519  1.00  0.00     0.174 C 
BRANCH  12  13
ATOM     13  N   UNL     1       1.595  -3.382   9.538  1.00  0.00    -0.342 N 
ATOM     14  C   UNL     1       1.510  -3.993   8.307  1.00  0.00     0.249 C 
ATOM     15  O   UNL     1       0.495  -4.531   7.882  1.00  0.00    -0.272 OA
ATOM     16  H   UNL     1       2.539  -3.119   9.811  1.00  0.00     0.164 HD
BRANCH  14  17
ATOM     17  C   UNL     1       2.828  -3.910   7.508  1.00  0.00     0.207 C 
BRANCH  17  18
ATOM     18  C   UNL     1       2.677  -2.947   6.326  1.00  0.00     0.077 C 
BRANCH  18  19
ATOM     19  C   UNL     1       4.006  -2.358   5.908  1.00  0.00    -0.043 A 
ATOM     20  C   UNL     1       5.663  -0.592   6.054  1.00  0.00     0.083 A 
ATOM     21  C   UNL     1       4.460  -1.158   6.478  1.00  0.00     0.028 A 
ATOM     22  C   UNL     1       6.417  -1.218   5.061  1.00  0.00     0.134 A 
ATOM     23  C   UNL     1       5.980  -2.406   4.489  1.00  0.00     0.048 A 
ATOM     24  C   UNL     1       4.775  -2.975   4.909  1.00  0.00     0.008 A 
ATOM     25  Cl  UNL     1       6.203   0.883   6.766  1.00  0.00    -0.080 Cl
BRANCH  22  26
ATOM     26  O   UNL     1       7.598  -0.695   4.606  1.00  0.00    -0.506 OA
ATOM     27  H   UNL     1       8.074  -0.357   5.387  1.00  0.00     0.293 HD
ENDBRANCH  22  26
ENDBRANCH  18  19
ENDBRANCH  17  18
BRANCH  17  28
ATOM     28  O   UNL     1       3.221  -5.203   7.022  1.00  0.00    -0.383 OA
ATOM     29  H   UNL     1       2.425  -5.582   6.584  1.00  0.00     0.211 HD
ENDBRANCH  17  28
ENDBRANCH  14  17
ENDBRANCH  12  13
BRANCH  12  30
ATOM     30  C   UNL     1       0.262  -1.870  11.028  1.00  0.00     0.018 C 
ATOM     31  C   UNL     1       1.098  -1.581  12.284  1.00  0.00     0.010 C 
BRANCH  30  32
ATOM     32  C   UNL     1      -1.229  -1.555  11.297  1.00  0.00     0.002 C 
ATOM     33  C   UNL     1      -1.566  -1.180  12.734  1.00  0.00     0.004 C 
ENDBRANCH  30  32
ENDBRANCH  12  30
ENDBRANCH  10  12
ENDBRANCH   1  10
BRANCH   5  34
ATOM     34  C   UNL     1       0.516  -5.917  14.530  1.00  0.00     0.242 C 
ATOM     35  O   UNL     1       0.839  -6.004  15.715  1.00  0.00    -0.273 OA
ATOM     36  N   UNL     1       0.769  -6.919  13.620  1.00  0.00    -0.354 N 
ATOM     37  H   UNL     1       0.588  -6.741  12.631  1.00  0.00     0.163 HD
BRANCH  36  38
ATOM     38  C   UNL     1       1.185  -8.245  14.025  1.00  0.00     0.116 C 
BRANCH  38  39
ATOM     39  C   UNL     1       2.550  -8.568  13.421  1.00  0.00     0.023 C 
BRANCH  39  40
ATOM     40  C   UNL     1       2.506  -9.778  12.495  1.00  0.00     0.026 C 
BRANCH  40  41
ATOM     41  C   UNL     1       2.437  -9.339  11.032  1.00  0.00     0.146 C 
BRANCH  41  42
ATOM     42  N   UNL     1       3.374  -8.247  10.801  1.00  0.00    -0.254 NA
ATOM     43  C   UNL     1       3.022  -7.255  10.072  1.00  0.00     0.185 C 
ATOM     44  N   UNL     1       1.861  -7.017   9.435  1.00  0.00    -0.370 N 
ATOM     45  N   UNL     1       3.902  -6.261   9.868  1.00  0.00    -0.370 N 
ATOM     46  H   UNL     1       1.808  -6.326   8.707  1.00  0.00     0.159 HD
ATOM     47  H   UNL     1       1.079  -7.662   9.494  1.00  0.00     0.159 HD
ATOM     48  H   UNL     1       4.801  -6.357  10.320  1.00  0.00     0.159 HD
ATOM     49  H   UNL     1       3.632  -5.359   9.518  1.00  0.00     0.159 HD
ENDBRANCH  41  42
ENDBRANCH  40  41
ENDBRANCH  39  40
ENDBRANCH  38  39
ENDBRANCH  36  38
ENDBRANCH   5  34
BRANCH   8  50
ATOM     50  O   UNL     1      -2.967  -8.141  12.190  1.00  0.00    -0.245 OA
BRANCH  50  51
ATOM     51  S   UNL     1      -3.080  -9.637  11.562  1.00  0.00     0.397 S 
ATOM     52  O   UNL     1      -3.416  -9.508  10.162  1.00  0.00    -0.169 OA
ATOM     53  O   UNL     1      -3.848 -10.482  12.453  1.00  0.00    -0.169 OA
BRANCH  51  54
ATOM     54  O   UNL     1      -1.551 -10.134  11.601  1.00  0.00    -0.264 OA
ATOM     55  H   UNL     1      -1.324 -10.470  10.710  1.00  0.00     0.236 HD
ENDBRANCH  51  54
ENDBRANCH  50  51
ENDBRANCH   8  50
TORSDOF 19
ENDMDL
MODEL 23
REMARK VINA RESULT:    -6.453      9.583     13.254
REMARK INTER + INTRA:         -15.460
REMARK INTER:                 -11.980
REMARK INTRA:                  -3.481
REMARK UNBOUND:                -2.405
REMARK SMILES CC[C@@H](C)[C@@H](NC(=O)[C@@H](O)Cc1ccc(O)c(Cl)c1)C(=O)N1[C@H](C(=O)NCCCCN=C(N)N)C[C@H]2CC[C@H](OS(=O)(=O)O)C[C@@H]21
REMARK SMILES IDX 22 1 36 2 46 3 35 4 23 5 45 6 37 7 39 8 38 9 20 10 21 11
REMARK SMILES IDX 5 12 6 13 7 14 8 15 9 17 11 18 12 19 17 20 19 21 15 22 14 23
REMARK SMILES IDX 13 24 18 25 16 26 10 28 3 30 4 31 2 32 1 33 24 34 25 35
REMARK SMILES IDX 26 36 27 38 28 39 29 40 30 41 31 42 32 43 33 44 34 45 40 50
REMARK SMILES IDX 41 51 42 52 43 53 44 54
REMARK H PARENT 6 16 16 27 10 29 26 37 33 46 33 47 34 48 34 49 44 55
ROOT
ATOM      1  N   UNL     1      -0.141  -3.679  11.967  1.00  0.00    -0.326 N 
ATOM      2  C   UNL     1      -1.967  -4.097  13.392  1.00  0.00     0.014 C 
ATOM      3  C   UNL     1      -1.467  -4.303  11.959  1.00  0.00     0.091 C 
ATOM      4  C   UNL     1      -1.379  -2.744  13.761  1.00  0.00     0.041 C 
ATOM      5  C   UNL     1       0.054  -2.913  13.222  1.00  0.00     0.175 C 
ATOM      6  C   UNL     1      -1.566  -5.790  11.622  1.00  0.00     0.059 C 
ATOM      7  C   UNL     1      -3.466  -4.305  13.478  1.00  0.00     0.008 C 
ATOM      8  C   UNL     1      -2.737  -6.510  12.326  1.00  0.00     0.143 C 
ATOM      9  C   UNL     1      -3.892  -5.545  12.664  1.00  0.00     0.034 C 
ENDROOT
BRANCH   1  10
ATOM     10  C   UNL     1       0.781  -3.541  10.942  1.00  0.00     0.246 C 
ATOM     11  O   UNL     1       1.984  -3.485  11.219  1.00  0.00    -0.272 OA
BRANCH  10  12
ATOM     12  C   UNL     1       0.287  -3.501   9.467  1.00  0.00     0.174 C 
BRANCH  12  13
ATOM     13  N   UNL     1       1.431  -3.541   8.557  1.00  0.00    -0.342 N 
ATOM     14  C   UNL     1       1.904  -4.672   7.931  1.00  0.00     0.249 C 
ATOM     15  O   UNL     1       1.394  -5.780   8.048  1.00  0.00    -0.272 OA
ATOM     16  H   UNL     1       2.047  -2.734   8.486  1.00  0.00     0.164 HD
BRANCH  14  17
ATOM     17  C   UNL     1       3.138  -4.392   7.046  1.00  0.00     0.207 C 
BRANCH  17  18
ATOM     18  C   UNL     1       3.068  -2.977   6.463  1.00  0.00     0.077 C 
BRANCH  18  19
ATOM     19  C   UNL     1       4.401  -2.269   6.546  1.00  0.00    -0.043 A 
ATOM     20  C   UNL     1       6.051  -0.772   5.584  1.00  0.00     0.083 A 
ATOM     21  C   UNL     1       4.799  -1.386   5.529  1.00  0.00     0.028 A 
ATOM     22  C   UNL     1       6.912  -1.036   6.650  1.00  0.00     0.134 A 
ATOM     23  C   UNL     1       6.531  -1.908   7.663  1.00  0.00     0.048 A 
ATOM     24  C   UNL     1       5.279  -2.525   7.610  1.00  0.00     0.008 A 
ATOM     25  Cl  UNL     1       6.521   0.309   4.325  1.00  0.00    -0.080 Cl
BRANCH  22  26
ATOM     26  O   UNL     1       8.153  -0.466   6.741  1.00  0.00    -0.506 OA
ATOM     27  H   UNL     1       8.349  -0.373   7.692  1.00  0.00     0.293 HD
ENDBRANCH  22  26
ENDBRANCH  18  19
ENDBRANCH  17  18
BRANCH  17  28
ATOM     28  O   UNL     1       3.233  -5.345   5.976  1.00  0.00    -0.383 OA
ATOM     29  H   UNL     1       3.623  -6.158   6.370  1.00  0.00     0.211 HD
ENDBRANCH  17  28
ENDBRANCH  14  17
ENDBRANCH  12  13
BRANCH  12  30
ATOM     30  C   UNL     1      -0.655  -2.300   9.182  1.00  0.00     0.018 C 
ATOM     31  C   UNL     1      -0.640  -1.937   7.689  1.00  0.00     0.010 C 
BRANCH  30  32
ATOM     32  C   UNL     1      -0.343  -1.048  10.037  1.00  0.00     0.002 C 
ATOM     33  C   UNL     1      -1.519  -0.491  10.829  1.00  0.00     0.004 C 
ENDBRANCH  30  32
ENDBRANCH  12  30
ENDBRANCH  10  12
ENDBRANCH   1  10
BRANCH   5  34
ATOM     34  C   UNL     1       0.948  -3.702  14.215  1.00  0.00     0.242 C 
ATOM     35  O   UNL     1       0.478  -4.360  15.144  1.00  0.00    -0.273 OA
ATOM     36  N   UNL     1       2.304  -3.570  14.015  1.00  0.00    -0.354 N 
ATOM     37  H   UNL     1       2.634  -2.917  13.304  1.00  0.00     0.163 HD
BRANCH  36  38
ATOM     38  C   UNL     1       3.272  -4.398  14.704  1.00  0.00     0.116 C 
BRANCH  38  39
ATOM     39  C   UNL     1       4.043  -5.244  13.693  1.00  0.00     0.023 C 
BRANCH  39  40
ATOM     40  C   UNL     1       3.234  -6.435  13.191  1.00  0.00     0.026 C 
BRANCH  40  41
ATOM     41  C   UNL     1       3.450  -6.644  11.693  1.00  0.00     0.146 C 
BRANCH  41  42
ATOM     42  N   UNL     1       3.315  -8.059  11.369  1.00  0.00    -0.254 NA
ATOM     43  C   UNL     1       2.267  -8.472  10.763  1.00  0.00     0.185 C 
ATOM     44  N   UNL     1       1.187  -7.791  10.338  1.00  0.00    -0.370 N 
ATOM     45  N   UNL     1       2.160  -9.780  10.477  1.00  0.00    -0.370 N 
ATOM     46  H   UNL     1       0.337  -8.273  10.100  1.00  0.00     0.159 HD
ATOM     47  H   UNL     1       1.109  -6.786  10.461  1.00  0.00     0.159 HD
ATOM     48  H   UNL     1       2.936 -10.365  10.756  1.00  0.00     0.159 HD
ATOM     49  H   UNL     1       1.500 -10.139   9.810  1.00  0.00     0.159 HD
ENDBRANCH  41  42
ENDBRANCH  40  41
ENDBRANCH  39  40
ENDBRANCH  38  39
ENDBRANCH  36  38
ENDBRANCH   5  34
BRANCH   8  50
ATOM     50  O   UNL     1      -2.283  -7.115  13.537  1.00  0.00    -0.245 OA
BRANCH  50  51
ATOM     51  S   UNL     1      -1.602  -8.591  13.491  1.00  0.00     0.397 S 
ATOM     52  O   UNL     1      -0.218  -8.433  13.103  1.00  0.00    -0.169 OA
ATOM     53  O   UNL     1      -2.483  -9.512  12.802  1.00  0.00    -0.169 OA
BRANCH  51  54
ATOM     54  O   UNL     1      -1.577  -8.998  15.046  1.00  0.00    -0.264 OA
ATOM     55  H   UNL     1      -2.397  -8.655  15.457  1.00  0.00     0.236 HD
ENDBRANCH  51  54
ENDBRANCH  50  51
ENDBRANCH   8  50
TORSDOF 19
ENDMDL
MODEL 24
REMARK VINA RESULT:    -6.452      8.869     11.890
REMARK INTER + INTRA:         -15.457
REMARK INTER:                 -11.918
REMARK INTRA:                  -3.539
REMARK UNBOUND:                -2.405
REMARK SMILES CC[C@@H](C)[C@@H](NC(=O)[C@@H](O)Cc1ccc(O)c(Cl)c1)C(=O)N1[C@H](C(=O)NCCCCN=C(N)N)C[C@H]2CC[C@H](OS(=O)(=O)O)C[C@@H]21
REMARK SMILES IDX 22 1 36 2 46 3 35 4 23 5 45 6 37 7 39 8 38 9 20 10 21 11
REMARK SMILES IDX 5 12 6 13 7 14 8 15 9 17 11 18 12 19 17 20 19 21 15 22 14 23
REMARK SMILES IDX 13 24 18 25 16 26 10 28 3 30 4 31 2 32 1 33 24 34 25 35
REMARK SMILES IDX 26 36 27 38 28 39 29 40 30 41 31 42 32 43 33 44 34 45 40 50
REMARK SMILES IDX 41 51 42 52 43 53 44 54
REMARK H PARENT 6 16 16 27 10 29 26 37 33 46 33 47 34 48 34 49 44 55
ROOT
ATOM      1  N   UNL     1       0.096  -2.523  11.100  1.00  0.00    -0.326 N 
ATOM      2  C   UNL     1      -1.004  -2.462  13.181  1.00  0.00     0.014 C 
ATOM      3  C   UNL     1      -1.201  -2.834  11.708  1.00  0.00     0.091 C 
ATOM      4  C   UNL     1      -0.075  -1.261  13.102  1.00  0.00     0.041 C 
ATOM      5  C   UNL     1       0.939  -1.769  12.061  1.00  0.00     0.175 C 
ATOM      6  C   UNL     1      -1.708  -4.273  11.637  1.00  0.00     0.059 C 
ATOM      7  C   UNL     1      -2.338  -2.325  13.888  1.00  0.00     0.008 C 
ATOM      8  C   UNL     1      -2.586  -4.683  12.840  1.00  0.00     0.143 C 
ATOM      9  C   UNL     1      -3.289  -3.471  13.483  1.00  0.00     0.034 C 
ENDROOT
BRANCH   1  10
ATOM     10  C   UNL     1       0.509  -2.637   9.784  1.00  0.00     0.246 C 
ATOM     11  O   UNL     1       0.660  -1.612   9.110  1.00  0.00    -0.272 OA
BRANCH  10  12
ATOM     12  C   UNL     1       0.816  -4.045   9.195  1.00  0.00     0.174 C 
BRANCH  12  13
ATOM     13  N   UNL     1       2.025  -3.990   8.375  1.00  0.00    -0.342 N 
ATOM     14  C   UNL     1       3.172  -4.714   8.609  1.00  0.00     0.249 C 
ATOM     15  O   UNL     1       3.298  -5.516   9.526  1.00  0.00    -0.272 OA
ATOM     16  H   UNL     1       2.127  -3.258   7.676  1.00  0.00     0.164 HD
BRANCH  14  17
ATOM     17  C   UNL     1       4.282  -4.424   7.576  1.00  0.00     0.207 C 
BRANCH  17  18
ATOM     18  C   UNL     1       3.683  -3.815   6.304  1.00  0.00     0.077 C 
BRANCH  18  19
ATOM     19  C   UNL     1       4.514  -2.663   5.786  1.00  0.00    -0.043 A 
ATOM     20  C   UNL     1       4.852  -0.279   5.496  1.00  0.00     0.083 A 
ATOM     21  C   UNL     1       4.110  -1.339   6.017  1.00  0.00     0.028 A 
ATOM     22  C   UNL     1       5.999  -0.533   4.742  1.00  0.00     0.134 A 
ATOM     23  C   UNL     1       6.411  -1.840   4.507  1.00  0.00     0.048 A 
ATOM     24  C   UNL     1       5.668  -2.903   5.025  1.00  0.00     0.008 A 
ATOM     25  Cl  UNL     1       4.339   1.342   5.789  1.00  0.00    -0.080 Cl
BRANCH  22  26
ATOM     26  O   UNL     1       6.753   0.473   4.202  1.00  0.00    -0.506 OA
ATOM     27  H   UNL     1       6.756   1.201   4.852  1.00  0.00     0.293 HD
ENDBRANCH  22  26
ENDBRANCH  18  19
ENDBRANCH  17  18
BRANCH  17  28
ATOM     28  O   UNL     1       5.001  -5.620   7.239  1.00  0.00    -0.383 OA
ATOM     29  H   UNL     1       5.322  -5.994   8.091  1.00  0.00     0.211 HD
ENDBRANCH  17  28
ENDBRANCH  14  17
ENDBRANCH  12  13
BRANCH  12  30
ATOM     30  C   UNL     1      -0.392  -4.651   8.431  1.00  0.00     0.018 C 
ATOM     31  C   UNL     1      -0.395  -6.184   8.542  1.00  0.00     0.010 C 
BRANCH  30  32
ATOM     32  C   UNL     1      -0.462  -4.226   6.944  1.00  0.00     0.002 C 
ATOM     33  C   UNL     1      -1.463  -3.121   6.629  1.00  0.00     0.004 C 
ENDBRANCH  30  32
ENDBRANCH  12  30
ENDBRANCH  10  12
ENDBRANCH   1  10
BRANCH   5  34
ATOM     34  C   UNL     1       2.004  -2.697  12.705  1.00  0.00     0.242 C 
ATOM     35  O   UNL     1       2.247  -3.822  12.268  1.00  0.00    -0.273 OA
ATOM     36  N   UNL     1       2.616  -2.192  13.830  1.00  0.00    -0.354 N 
ATOM     37  H   UNL     1       2.287  -1.305  14.213  1.00  0.00     0.163 HD
BRANCH  36  38
ATOM     38  C   UNL     1       3.775  -2.823  14.428  1.00  0.00     0.116 C 
BRANCH  38  39
ATOM     39  C   UNL     1       3.328  -3.868  15.448  1.00  0.00     0.023 C 
BRANCH  39  40
ATOM     40  C   UNL     1       2.395  -3.288  16.505  1.00  0.00     0.026 C 
BRANCH  40  41
ATOM     41  C   UNL     1       1.027  -3.968  16.452  1.00  0.00     0.146 C 
BRANCH  41  42
ATOM     42  N   UNL     1       0.077  -3.230  17.274  1.00  0.00    -0.254 NA
ATOM     43  C   UNL     1      -1.137  -3.629  17.353  1.00  0.00     0.185 C 
ATOM     44  N   UNL     1      -1.741  -4.683  16.774  1.00  0.00    -0.370 N 
ATOM     45  N   UNL     1      -1.997  -2.932  18.113  1.00  0.00    -0.370 N 
ATOM     46  H   UNL     1      -2.744  -4.736  16.725  1.00  0.00     0.159 HD
ATOM     47  H   UNL     1      -1.232  -5.325  16.175  1.00  0.00     0.159 HD
ATOM     48  H   UNL     1      -1.620  -2.126  18.593  1.00  0.00     0.159 HD
ATOM     49  H   UNL     1      -2.882  -3.302  18.413  1.00  0.00     0.159 HD
ENDBRANCH  41  42
ENDBRANCH  40  41
ENDBRANCH  39  40
ENDBRANCH  38  39
ENDBRANCH  36  38
ENDBRANCH   5  34
BRANCH   8  50
ATOM     50  O   UNL     1      -1.787  -5.324  13.834  1.00  0.00    -0.245 OA
BRANCH  50  51
ATOM     51  S   UNL     1      -1.686  -6.947  13.860  1.00  0.00     0.397 S 
ATOM     52  O   UNL     1      -2.662  -7.470  12.931  1.00  0.00    -0.169 OA
ATOM     53  O   UNL     1      -1.619  -7.408  15.231  1.00  0.00    -0.169 OA
BRANCH  51  54
ATOM     54  O   UNL     1      -0.252  -7.205  13.180  1.00  0.00    -0.264 OA
ATOM     55  H   UNL     1       0.348  -6.487  13.467  1.00  0.00     0.236 HD
ENDBRANCH  51  54
ENDBRANCH  50  51
ENDBRANCH   8  50
TORSDOF 19
ENDMDL
MODEL 25
REMARK VINA RESULT:    -6.389      9.649     12.420
REMARK INTER + INTRA:         -15.331
REMARK INTER:                 -11.156
REMARK INTRA:                  -4.175
REMARK UNBOUND:                -2.405
REMARK SMILES CC[C@@H](C)[C@@H](NC(=O)[C@@H](O)Cc1ccc(O)c(Cl)c1)C(=O)N1[C@H](C(=O)NCCCCN=C(N)N)C[C@H]2CC[C@H](OS(=O)(=O)O)C[C@@H]21
REMARK SMILES IDX 22 1 36 2 46 3 35 4 23 5 45 6 37 7 39 8 38 9 20 10 21 11
REMARK SMILES IDX 5 12 6 13 7 14 8 15 9 17 11 18 12 19 17 20 19 21 15 22 14 23
REMARK SMILES IDX 13 24 18 25 16 26 10 28 3 30 4 31 2 32 1 33 24 34 25 35
REMARK SMILES IDX 26 36 27 38 28 39 29 40 30 41 31 42 32 43 33 44 34 45 40 50
REMARK SMILES IDX 41 51 42 52 43 53 44 54
REMARK H PARENT 6 16 16 27 10 29 26 37 33 46 33 47 34 48 34 49 44 55
ROOT
ATOM      1  N   UNL     1       1.296  -4.336   9.712  1.00  0.00    -0.326 N 
ATOM      2  C   UNL     1       0.955  -2.318  10.876  1.00  0.00     0.014 C 
ATOM      3  C   UNL     1       0.232  -3.385  10.048  1.00  0.00     0.091 C 
ATOM      4  C   UNL     1       2.328  -2.263  10.225  1.00  0.00     0.041 C 
ATOM      5  C   UNL     1       2.618  -3.767  10.072  1.00  0.00     0.175 C 
ATOM      6  C   UNL     1      -0.964  -3.891  10.852  1.00  0.00     0.059 C 
ATOM      7  C   UNL     1       0.126  -1.052  10.972  1.00  0.00     0.008 C 
ATOM      8  C   UNL     1      -1.595  -2.820  11.769  1.00  0.00     0.143 C 
ATOM      9  C   UNL     1      -1.355  -1.391  11.240  1.00  0.00     0.034 C 
ENDROOT
BRANCH   1  10
ATOM     10  C   UNL     1       1.243  -5.498   8.961  1.00  0.00     0.246 C 
ATOM     11  O   UNL     1       1.565  -6.568   9.486  1.00  0.00    -0.272 OA
BRANCH  10  12
ATOM     12  C   UNL     1       0.739  -5.437   7.490  1.00  0.00     0.174 C 
BRANCH  12  13
ATOM     13  N   UNL     1       1.569  -4.515   6.716  1.00  0.00    -0.342 N 
ATOM     14  C   UNL     1       2.570  -4.891   5.848  1.00  0.00     0.249 C 
ATOM     15  O   UNL     1       2.860  -6.056   5.606  1.00  0.00    -0.272 OA
ATOM     16  H   UNL     1       1.550  -3.521   6.928  1.00  0.00     0.164 HD
BRANCH  14  17
ATOM     17  C   UNL     1       3.276  -3.684   5.195  1.00  0.00     0.207 C 
BRANCH  17  18
ATOM     18  C   UNL     1       3.268  -2.481   6.143  1.00  0.00     0.077 C 
BRANCH  18  19
ATOM     19  C   UNL     1       4.658  -1.927   6.361  1.00  0.00    -0.043 A 
ATOM     20  C   UNL     1       6.232  -0.667   7.710  1.00  0.00     0.083 A 
ATOM     21  C   UNL     1       4.963  -1.220   7.534  1.00  0.00     0.028 A 
ATOM     22  C   UNL     1       7.201  -0.816   6.718  1.00  0.00     0.134 A 
ATOM     23  C   UNL     1       6.913  -1.514   5.551  1.00  0.00     0.048 A 
ATOM     24  C   UNL     1       5.643  -2.067   5.371  1.00  0.00     0.008 A 
ATOM     25  Cl  UNL     1       6.587   0.199   9.158  1.00  0.00    -0.080 Cl
BRANCH  22  26
ATOM     26  O   UNL     1       8.456  -0.283   6.840  1.00  0.00    -0.506 OA
ATOM     27  H   UNL     1       9.058  -0.868   6.344  1.00  0.00     0.293 HD
ENDBRANCH  22  26
ENDBRANCH  18  19
ENDBRANCH  17  18
BRANCH  17  28
ATOM     28  O   UNL     1       2.642  -3.321   3.958  1.00  0.00    -0.383 OA
ATOM     29  H   UNL     1       2.491  -2.350   4.005  1.00  0.00     0.211 HD
ENDBRANCH  17  28
ENDBRANCH  14  17
ENDBRANCH  12  13
BRANCH  12  30
ATOM     30  C   UNL     1      -0.774  -5.102   7.387  1.00  0.00     0.018 C 
ATOM     31  C   UNL     1      -1.585  -6.349   7.003  1.00  0.00     0.010 C 
BRANCH  30  32
ATOM     32  C   UNL     1      -1.088  -3.941   6.412  1.00  0.00     0.002 C 
ATOM     33  C   UNL     1      -1.179  -2.561   7.050  1.00  0.00     0.004 C 
ENDBRANCH  30  32
ENDBRANCH  12  30
ENDBRANCH  10  12
ENDBRANCH   1  10
BRANCH   5  34
ATOM     34  C   UNL     1       3.142  -4.386  11.395  1.00  0.00     0.242 C 
ATOM     35  O   UNL     1       2.921  -3.876  12.493  1.00  0.00    -0.273 OA
ATOM     36  N   UNL     1       3.916  -5.515  11.247  1.00  0.00    -0.354 N 
ATOM     37  H   UNL     1       4.164  -5.821  10.306  1.00  0.00     0.163 HD
BRANCH  36  38
ATOM     38  C   UNL     1       4.304  -6.340  12.373  1.00  0.00     0.116 C 
BRANCH  38  39
ATOM     39  C   UNL     1       3.906  -7.791  12.115  1.00  0.00     0.023 C 
BRANCH  39  40
ATOM     40  C   UNL     1       5.080  -8.642  11.643  1.00  0.00     0.026 C 
BRANCH  40  41
ATOM     41  C   UNL     1       5.012  -8.871  10.133  1.00  0.00     0.146 C 
BRANCH  41  42
ATOM     42  N   UNL     1       5.491  -7.687   9.433  1.00  0.00    -0.254 NA
ATOM     43  C   UNL     1       4.879  -7.280   8.385  1.00  0.00     0.185 C 
ATOM     44  N   UNL     1       3.795  -7.783   7.766  1.00  0.00    -0.370 N 
ATOM     45  N   UNL     1       5.339  -6.189   7.752  1.00  0.00    -0.370 N 
ATOM     46  H   UNL     1       3.571  -7.512   6.824  1.00  0.00     0.159 HD
ATOM     47  H   UNL     1       3.311  -8.602   8.121  1.00  0.00     0.159 HD
ATOM     48  H   UNL     1       6.150  -5.743   8.158  1.00  0.00     0.159 HD
ATOM     49  H   UNL     1       4.792  -5.678   7.081  1.00  0.00     0.159 HD
ENDBRANCH  41  42
ENDBRANCH  40  41
ENDBRANCH  39  40
ENDBRANCH  38  39
ENDBRANCH  36  38
ENDBRANCH   5  34
BRANCH   8  50
ATOM     50  O   UNL     1      -1.045  -2.915  13.083  1.00  0.00    -0.245 OA
BRANCH  50  51
ATOM     51  S   UNL     1      -2.038  -2.911  14.371  1.00  0.00     0.397 S 
ATOM     52  O   UNL     1      -3.240  -2.196  14.005  1.00  0.00    -0.169 OA
ATOM     53  O   UNL     1      -1.287  -2.574  15.563  1.00  0.00    -0.169 OA
BRANCH  51  54
ATOM     54  O   UNL     1      -2.463  -4.458  14.473  1.00  0.00    -0.264 OA
ATOM     55  H   UNL     1      -2.211  -4.779  15.363  1.00  0.00     0.236 HD
ENDBRANCH  51  54
ENDBRANCH  50  51
ENDBRANCH   8  50
TORSDOF 19
ENDMDL
MODEL 26
REMARK VINA RESULT:    -6.378      8.929     13.552
REMARK INTER + INTRA:         -15.309
REMARK INTER:                 -11.498
REMARK INTRA:                  -3.811
REMARK UNBOUND:                -2.405
REMARK SMILES CC[C@@H](C)[C@@H](NC(=O)[C@@H](O)Cc1ccc(O)c(Cl)c1)C(=O)N1[C@H](C(=O)NCCCCN=C(N)N)C[C@H]2CC[C@H](OS(=O)(=O)O)C[C@@H]21
REMARK SMILES IDX 22 1 36 2 46 3 35 4 23 5 45 6 37 7 39 8 38 9 20 10 21 11
REMARK SMILES IDX 5 12 6 13 7 14 8 15 9 17 11 18 12 19 17 20 19 21 15 22 14 23
REMARK SMILES IDX 13 24 18 25 16 26 10 28 3 30 4 31 2 32 1 33 24 34 25 35
REMARK SMILES IDX 26 36 27 38 28 39 29 40 30 41 31 42 32 43 33 44 34 45 40 50
REMARK SMILES IDX 41 51 42 52 43 53 44 54
REMARK H PARENT 6 16 16 27 10 29 26 37 33 46 33 47 34 48 34 49 44 55
ROOT
ATOM      1  N   UNL     1      -0.036  -5.315  10.379  1.00  0.00    -0.326 N 
ATOM      2  C   UNL     1      -1.484  -4.398  11.993  1.00  0.00     0.014 C 
ATOM      3  C   UNL     1      -1.305  -5.596  11.056  1.00  0.00     0.091 C 
ATOM      4  C   UNL     1      -0.883  -3.253  11.192  1.00  0.00     0.041 C 
ATOM      5  C   UNL     1       0.400  -3.927  10.673  1.00  0.00     0.175 C 
ATOM      6  C   UNL     1      -1.418  -6.876  11.882  1.00  0.00     0.059 C 
ATOM      7  C   UNL     1      -2.917  -4.295  12.476  1.00  0.00     0.008 C 
ATOM      8  C   UNL     1      -2.374  -6.755  13.088  1.00  0.00     0.143 C 
ATOM      9  C   UNL     1      -3.463  -5.687  12.860  1.00  0.00     0.034 C 
ENDROOT
BRANCH   1  10
ATOM     10  C   UNL     1       0.629  -6.039   9.404  1.00  0.00     0.246 C 
ATOM     11  O   UNL     1       1.196  -7.090   9.719  1.00  0.00    -0.272 OA
BRANCH  10  12
ATOM     12  C   UNL     1       0.613  -5.538   7.931  1.00  0.00     0.174 C 
BRANCH  12  13
ATOM     13  N   UNL     1       1.837  -4.792   7.644  1.00  0.00    -0.342 N 
ATOM     14  C   UNL     1       2.713  -5.074   6.620  1.00  0.00     0.249 C 
ATOM     15  O   UNL     1       2.545  -5.976   5.808  1.00  0.00    -0.272 OA
ATOM     16  H   UNL     1       2.188  -4.119   8.322  1.00  0.00     0.164 HD
BRANCH  14  17
ATOM     17  C   UNL     1       3.922  -4.116   6.589  1.00  0.00     0.207 C 
BRANCH  17  18
ATOM     18  C   UNL     1       3.906  -3.272   5.310  1.00  0.00     0.077 C 
BRANCH  18  19
ATOM     19  C   UNL     1       4.402  -1.865   5.558  1.00  0.00    -0.043 A 
ATOM     20  C   UNL     1       5.951  -0.065   5.066  1.00  0.00     0.083 A 
ATOM     21  C   UNL     1       5.463  -1.345   4.801  1.00  0.00     0.028 A 
ATOM     22  C   UNL     1       5.385   0.701   6.085  1.00  0.00     0.134 A 
ATOM     23  C   UNL     1       4.333   0.198   6.842  1.00  0.00     0.048 A 
ATOM     24  C   UNL     1       3.844  -1.084   6.581  1.00  0.00     0.008 A 
ATOM     25  Cl  UNL     1       7.257   0.557   4.126  1.00  0.00    -0.080 Cl
BRANCH  22  26
ATOM     26  O   UNL     1       5.836   1.957   6.389  1.00  0.00    -0.506 OA
ATOM     27  H   UNL     1       6.242   2.313   5.576  1.00  0.00     0.293 HD
ENDBRANCH  22  26
ENDBRANCH  18  19
ENDBRANCH  17  18
BRANCH  17  28
ATOM     28  O   UNL     1       5.160  -4.842   6.665  1.00  0.00    -0.383 OA
ATOM     29  H   UNL     1       5.636  -4.487   7.450  1.00  0.00     0.211 HD
ENDBRANCH  17  28
ENDBRANCH  14  17
ENDBRANCH  12  13
BRANCH  12  30
ATOM     30  C   UNL     1      -0.667  -4.730   7.586  1.00  0.00     0.018 C 
ATOM     31  C   UNL     1      -1.764  -5.654   7.034  1.00  0.00     0.010 C 
BRANCH  30  32
ATOM     32  C   UNL     1      -0.417  -3.557   6.607  1.00  0.00     0.002 C 
ATOM     33  C   UNL     1      -0.851  -2.186   7.110  1.00  0.00     0.004 C 
ENDBRANCH  30  32
ENDBRANCH  12  30
ENDBRANCH  10  12
ENDBRANCH   1  10
BRANCH   5  34
ATOM     34  C   UNL     1       1.523  -3.920  11.745  1.00  0.00     0.242 C 
ATOM     35  O   UNL     1       1.785  -2.923  12.417  1.00  0.00    -0.273 OA
ATOM     36  N   UNL     1       2.239  -5.092  11.851  1.00  0.00    -0.354 N 
ATOM     37  H   UNL     1       2.054  -5.842  11.185  1.00  0.00     0.163 HD
BRANCH  36  38
ATOM     38  C   UNL     1       3.169  -5.334  12.935  1.00  0.00     0.116 C 
BRANCH  38  39
ATOM     39  C   UNL     1       4.386  -6.095  12.413  1.00  0.00     0.023 C 
BRANCH  39  40
ATOM     40  C   UNL     1       4.796  -5.649  11.014  1.00  0.00     0.026 C 
BRANCH  40  41
ATOM     41  C   UNL     1       5.703  -6.690  10.357  1.00  0.00     0.146 C 
BRANCH  41  42
ATOM     42  N   UNL     1       5.323  -6.863   8.961  1.00  0.00    -0.254 NA
ATOM     43  C   UNL     1       4.469  -7.762   8.644  1.00  0.00     0.185 C 
ATOM     44  N   UNL     1       3.808  -8.640   9.421  1.00  0.00    -0.370 N 
ATOM     45  N   UNL     1       4.135  -7.909   7.351  1.00  0.00    -0.370 N 
ATOM     46  H   UNL     1       3.358  -9.444   9.018  1.00  0.00     0.159 HD
ATOM     47  H   UNL     1       3.932  -8.659  10.429  1.00  0.00     0.159 HD
ATOM     48  H   UNL     1       4.582  -7.279   6.699  1.00  0.00     0.159 HD
ATOM     49  H   UNL     1       3.319  -8.413   7.054  1.00  0.00     0.159 HD
ENDBRANCH  41  42
ENDBRANCH  40  41
ENDBRANCH  39  40
ENDBRANCH  38  39
ENDBRANCH  36  38
ENDBRANCH   5  34
BRANCH   8  50
ATOM     50  O   UNL     1      -1.640  -6.410  14.263  1.00  0.00    -0.245 OA
BRANCH  50  51
ATOM     51  S   UNL     1      -0.795  -7.558  15.048  1.00  0.00     0.397 S 
ATOM     52  O   UNL     1       0.604  -7.374  14.735  1.00  0.00    -0.169 OA
ATOM     53  O   UNL     1      -1.448  -8.840  14.884  1.00  0.00    -0.169 OA
BRANCH  51  54
ATOM     54  O   UNL     1      -0.964  -7.108  16.582  1.00  0.00    -0.264 OA
ATOM     55  H   UNL     1      -0.584  -7.815  17.144  1.00  0.00     0.236 HD
ENDBRANCH  51  54
ENDBRANCH  50  51
ENDBRANCH   8  50
TORSDOF 19
ENDMDL
MODEL 27
REMARK VINA RESULT:    -6.367      9.468     13.886
REMARK INTER + INTRA:         -15.286
REMARK INTER:                 -11.650
REMARK INTRA:                  -3.636
REMARK UNBOUND:                -2.405
REMARK SMILES CC[C@@H](C)[C@@H](NC(=O)[C@@H](O)Cc1ccc(O)c(Cl)c1)C(=O)N1[C@H](C(=O)NCCCCN=C(N)N)C[C@H]2CC[C@H](OS(=O)(=O)O)C[C@@H]21
REMARK SMILES IDX 22 1 36 2 46 3 35 4 23 5 45 6 37 7 39 8 38 9 20 10 21 11
REMARK SMILES IDX 5 12 6 13 7 14 8 15 9 17 11 18 12 19 17 20 19 21 15 22 14 23
REMARK SMILES IDX 13 24 18 25 16 26 10 28 3 30 4 31 2 32 1 33 24 34 25 35
REMARK SMILES IDX 26 36 27 38 28 39 29 40 30 41 31 42 32 43 33 44 34 45 40 50
REMARK SMILES IDX 41 51 42 52 43 53 44 54
REMARK H PARENT 6 16 16 27 10 29 26 37 33 46 33 47 34 48 34 49 44 55
ROOT
ATOM      1  N   UNL     1      -0.594  -5.139   9.738  1.00  0.00    -0.326 N 
ATOM      2  C   UNL     1      -0.235  -2.893   9.128  1.00  0.00     0.014 C 
ATOM      3  C   UNL     1      -0.510  -3.801  10.330  1.00  0.00     0.091 C 
ATOM      4  C   UNL     1      -1.022  -3.567   8.014  1.00  0.00     0.041 C 
ATOM      5  C   UNL     1      -0.636  -5.037   8.258  1.00  0.00     0.175 C 
ATOM      6  C   UNL     1       0.563  -3.542  11.386  1.00  0.00     0.059 C 
ATOM      7  C   UNL     1      -0.519  -1.443   9.467  1.00  0.00     0.008 C 
ATOM      8  C   UNL     1       1.084  -2.088  11.400  1.00  0.00     0.143 C 
ATOM      9  C   UNL     1       0.035  -1.092  10.864  1.00  0.00     0.034 C 
ENDROOT
BRANCH   1  10
ATOM     10  C   UNL     1      -0.845  -6.361  10.338  1.00  0.00     0.246 C 
ATOM     11  O   UNL     1       0.075  -7.180  10.441  1.00  0.00    -0.272 OA
BRANCH  10  12
ATOM     12  C   UNL     1      -2.262  -6.660  10.906  1.00  0.00     0.174 C 
BRANCH  12  13
ATOM     13  N   UNL     1      -2.279  -6.432  12.350  1.00  0.00    -0.342 N 
ATOM     14  C   UNL     1      -2.753  -5.295  12.966  1.00  0.00     0.249 C 
ATOM     15  O   UNL     1      -3.245  -4.349  12.364  1.00  0.00    -0.272 OA
ATOM     16  H   UNL     1      -1.763  -7.057  12.965  1.00  0.00     0.164 HD
BRANCH  14  17
ATOM     17  C   UNL     1      -2.618  -5.349  14.502  1.00  0.00     0.207 C 
BRANCH  17  18
ATOM     18  C   UNL     1      -1.387  -6.168  14.903  1.00  0.00     0.077 C 
BRANCH  18  19
ATOM     19  C   UNL     1      -0.120  -5.344  14.846  1.00  0.00    -0.043 A 
ATOM     20  C   UNL     1       0.996  -3.194  14.968  1.00  0.00     0.083 A 
ATOM     21  C   UNL     1      -0.166  -3.959  15.070  1.00  0.00     0.028 A 
ATOM     22  C   UNL     1       2.208  -3.804  14.641  1.00  0.00     0.134 A 
ATOM     23  C   UNL     1       2.267  -5.175  14.417  1.00  0.00     0.048 A 
ATOM     24  C   UNL     1       1.105  -5.943  14.517  1.00  0.00     0.008 A 
ATOM     25  Cl  UNL     1       0.920  -1.493  15.246  1.00  0.00    -0.080 Cl
BRANCH  22  26
ATOM     26  O   UNL     1       3.371  -3.094  14.519  1.00  0.00    -0.506 OA
ATOM     27  H   UNL     1       3.719  -2.969  15.422  1.00  0.00     0.293 HD
ENDBRANCH  22  26
ENDBRANCH  18  19
ENDBRANCH  17  18
BRANCH  17  28
ATOM     28  O   UNL     1      -3.789  -5.922  15.105  1.00  0.00    -0.383 OA
ATOM     29  H   UNL     1      -3.824  -5.568  16.023  1.00  0.00     0.211 HD
ENDBRANCH  17  28
ENDBRANCH  14  17
ENDBRANCH  12  13
BRANCH  12  30
ATOM     30  C   UNL     1      -2.775  -8.075  10.524  1.00  0.00     0.018 C 
ATOM     31  C   UNL     1      -3.817  -7.992   9.397  1.00  0.00     0.010 C 
BRANCH  30  32
ATOM     32  C   UNL     1      -3.348  -8.872  11.720  1.00  0.00     0.002 C 
ATOM     33  C   UNL     1      -3.830 -10.280  11.394  1.00  0.00     0.004 C 
ENDBRANCH  30  32
ENDBRANCH  12  30
ENDBRANCH  10  12
ENDBRANCH   1  10
BRANCH   5  34
ATOM     34  C   UNL     1       0.748  -5.375   7.643  1.00  0.00     0.242 C 
ATOM     35  O   UNL     1       1.691  -5.774   8.326  1.00  0.00    -0.273 OA
ATOM     36  N   UNL     1       0.860  -5.145   6.290  1.00  0.00    -0.354 N 
ATOM     37  H   UNL     1       0.082  -4.701   5.801  1.00  0.00     0.163 HD
BRANCH  36  38
ATOM     38  C   UNL     1       1.998  -5.603   5.520  1.00  0.00     0.116 C 
BRANCH  38  39
ATOM     39  C   UNL     1       2.710  -4.410   4.888  1.00  0.00     0.023 C 
BRANCH  39  40
ATOM     40  C   UNL     1       2.874  -3.247   5.861  1.00  0.00     0.026 C 
BRANCH  40  41
ATOM     41  C   UNL     1       4.055  -2.364   5.456  1.00  0.00     0.146 C 
BRANCH  41  42
ATOM     42  N   UNL     1       5.068  -3.172   4.789  1.00  0.00    -0.254 NA
ATOM     43  C   UNL     1       6.207  -2.658   4.514  1.00  0.00     0.185 C 
ATOM     44  N   UNL     1       6.676  -1.418   4.746  1.00  0.00    -0.370 N 
ATOM     45  N   UNL     1       7.126  -3.418   3.895  1.00  0.00    -0.370 N 
ATOM     46  H   UNL     1       7.490  -1.079   4.262  1.00  0.00     0.159 HD
ATOM     47  H   UNL     1       6.115  -0.716   5.219  1.00  0.00     0.159 HD
ATOM     48  H   UNL     1       6.856  -4.370   3.691  1.00  0.00     0.159 HD
ATOM     49  H   UNL     1       8.099  -3.174   3.860  1.00  0.00     0.159 HD
ENDBRANCH  41  42
ENDBRANCH  40  41
ENDBRANCH  39  40
ENDBRANCH  38  39
ENDBRANCH  36  38
ENDBRANCH   5  34
BRANCH   8  50
ATOM     50  O   UNL     1       2.261  -1.981  10.599  1.00  0.00    -0.245 OA
BRANCH  50  51
ATOM     51  S   UNL     1       3.471  -1.004  11.076  1.00  0.00     0.397 S 
ATOM     52  O   UNL     1       3.397  -0.872  12.514  1.00  0.00    -0.169 OA
ATOM     53  O   UNL     1       3.532   0.153  10.209  1.00  0.00    -0.169 OA
BRANCH  51  54
ATOM     54  O   UNL     1       4.767  -1.910  10.786  1.00  0.00    -0.264 OA
ATOM     55  H   UNL     1       5.533  -1.482  11.220  1.00  0.00     0.236 HD
ENDBRANCH  51  54
ENDBRANCH  50  51
ENDBRANCH   8  50
TORSDOF 19
ENDMDL
MODEL 28
REMARK VINA RESULT:    -6.351      6.208      9.507
REMARK INTER + INTRA:         -15.253
REMARK INTER:                 -11.970
REMARK INTRA:                  -3.283
REMARK UNBOUND:                -2.405
REMARK SMILES CC[C@@H](C)[C@@H](NC(=O)[C@@H](O)Cc1ccc(O)c(Cl)c1)C(=O)N1[C@H](C(=O)NCCCCN=C(N)N)C[C@H]2CC[C@H](OS(=O)(=O)O)C[C@@H]21
REMARK SMILES IDX 22 1 36 2 46 3 35 4 23 5 45 6 37 7 39 8 38 9 20 10 21 11
REMARK SMILES IDX 5 12 6 13 7 14 8 15 9 17 11 18 12 19 17 20 19 21 15 22 14 23
REMARK SMILES IDX 13 24 18 25 16 26 10 28 3 30 4 31 2 32 1 33 24 34 25 35
REMARK SMILES IDX 26 36 27 38 28 39 29 40 30 41 31 42 32 43 33 44 34 45 40 50
REMARK SMILES IDX 41 51 42 52 43 53 44 54
REMARK H PARENT 6 16 16 27 10 29 26 37 33 46 33 47 34 48 34 49 44 55
ROOT
ATOM      1  N   UNL     1       1.992   9.131   3.648  1.00  0.00    -0.326 N 
ATOM      2  C   UNL     1       0.380  10.213   4.979  1.00  0.00     0.014 C 
ATOM      3  C   UNL     1       0.661   8.912   4.222  1.00  0.00     0.091 C 
ATOM      4  C   UNL     1       1.054  11.261   4.107  1.00  0.00     0.041 C 
ATOM      5  C   UNL     1       2.388  10.552   3.811  1.00  0.00     0.175 C 
ATOM      6  C   UNL     1       0.471   7.742   5.185  1.00  0.00     0.059 C 
ATOM      7  C   UNL     1      -1.097  10.348   5.296  1.00  0.00     0.008 C 
ATOM      8  C   UNL     1      -0.606   7.993   6.263  1.00  0.00     0.143 C 
ATOM      9  C   UNL     1      -1.671   9.005   5.793  1.00  0.00     0.034 C 
ENDROOT
BRANCH   1  10
ATOM     10  C   UNL     1       2.759   8.304   2.845  1.00  0.00     0.246 C 
ATOM     11  O   UNL     1       2.290   7.223   2.473  1.00  0.00    -0.272 OA
BRANCH  10  12
ATOM     12  C   UNL     1       4.174   8.771   2.394  1.00  0.00     0.174 C 
BRANCH  12  13
ATOM     13  N   UNL     1       4.217   8.894   0.937  1.00  0.00    -0.342 N 
ATOM     14  C   UNL     1       4.159  10.082   0.243  1.00  0.00     0.249 C 
ATOM     15  O   UNL     1       4.093  11.182   0.777  1.00  0.00    -0.272 OA
ATOM     16  H   UNL     1       4.114   8.065   0.358  1.00  0.00     0.164 HD
BRANCH  14  17
ATOM     17  C   UNL     1       4.209   9.881  -1.287  1.00  0.00     0.207 C 
BRANCH  17  18
ATOM     18  C   UNL     1       4.437   8.404  -1.625  1.00  0.00     0.077 C 
BRANCH  18  19
ATOM     19  C   UNL     1       3.254   7.805  -2.353  1.00  0.00    -0.043 A 
ATOM     20  C   UNL     1       1.969   7.505  -4.388  1.00  0.00     0.083 A 
ATOM     21  C   UNL     1       3.088   8.017  -3.730  1.00  0.00     0.028 A 
ATOM     22  C   UNL     1       1.012   6.781  -3.677  1.00  0.00     0.134 A 
ATOM     23  C   UNL     1       1.164   6.563  -2.313  1.00  0.00     0.048 A 
ATOM     24  C   UNL     1       2.281   7.076  -1.651  1.00  0.00     0.008 A 
ATOM     25  Cl  UNL     1       1.783   7.776  -6.081  1.00  0.00    -0.080 Cl
BRANCH  22  26
ATOM     26  O   UNL     1      -0.107   6.268  -4.277  1.00  0.00    -0.506 OA
ATOM     27  H   UNL     1      -0.816   6.926  -4.156  1.00  0.00     0.293 HD
ENDBRANCH  22  26
ENDBRANCH  18  19
ENDBRANCH  17  18
BRANCH  17  28
ATOM     28  O   UNL     1       5.252  10.672  -1.879  1.00  0.00    -0.383 OA
ATOM     29  H   UNL     1       6.096  10.214  -1.664  1.00  0.00     0.211 HD
ENDBRANCH  17  28
ENDBRANCH  14  17
ENDBRANCH  12  13
BRANCH  12  30
ATOM     30  C   UNL     1       5.308   7.866   2.945  1.00  0.00     0.018 C 
ATOM     31  C   UNL     1       4.978   7.381   4.366  1.00  0.00     0.010 C 
BRANCH  30  32
ATOM     32  C   UNL     1       6.704   8.535   2.922  1.00  0.00     0.002 C 
ATOM     33  C   UNL     1       6.728  10.004   3.327  1.00  0.00     0.004 C 
ENDBRANCH  30  32
ENDBRANCH  12  30
ENDBRANCH  10  12
ENDBRANCH   1  10
BRANCH   5  34
ATOM     34  C   UNL     1       3.393  10.712   4.982  1.00  0.00     0.242 C 
ATOM     35  O   UNL     1       3.540   9.848   5.846  1.00  0.00    -0.273 OA
ATOM     36  N   UNL     1       4.068  11.912   5.016  1.00  0.00    -0.354 N 
ATOM     37  H   UNL     1       3.815  12.636   4.342  1.00  0.00     0.163 HD
BRANCH  36  38
ATOM     38  C   UNL     1       5.188  12.145   5.903  1.00  0.00     0.116 C 
BRANCH  38  39
ATOM     39  C   UNL     1       5.777  13.529   5.641  1.00  0.00     0.023 C 
BRANCH  39  40
ATOM     40  C   UNL     1       6.855  13.510   4.562  1.00  0.00     0.026 C 
BRANCH  40  41
ATOM     41  C   UNL     1       6.330  14.118   3.261  1.00  0.00     0.146 C 
BRANCH  41  42
ATOM     42  N   UNL     1       6.849  13.370   2.124  1.00  0.00    -0.254 NA
ATOM     43  C   UNL     1       6.255  13.444   0.993  1.00  0.00     0.185 C 
ATOM     44  N   UNL     1       5.158  14.138   0.635  1.00  0.00    -0.370 N 
ATOM     45  N   UNL     1       6.746  12.743  -0.043  1.00  0.00    -0.370 N 
ATOM     46  H   UNL     1       4.663  13.914  -0.211  1.00  0.00     0.159 HD
ATOM     47  H   UNL     1       4.666  14.733   1.294  1.00  0.00     0.159 HD
ATOM     48  H   UNL     1       7.579  12.199   0.140  1.00  0.00     0.159 HD
ATOM     49  H   UNL     1       6.490  12.929  -0.996  1.00  0.00     0.159 HD
ENDBRANCH  41  42
ENDBRANCH  40  41
ENDBRANCH  39  40
ENDBRANCH  38  39
ENDBRANCH  36  38
ENDBRANCH   5  34
BRANCH   8  50
ATOM     50  O   UNL     1       0.000   8.494   7.454  1.00  0.00    -0.245 OA
BRANCH  50  51
ATOM     51  S   UNL     1       0.488   7.454   8.605  1.00  0.00     0.397 S 
ATOM     52  O   UNL     1      -0.082   7.880   9.864  1.00  0.00    -0.169 OA
ATOM     53  O   UNL     1       1.907   7.200   8.461  1.00  0.00    -0.169 OA
BRANCH  51  54
ATOM     54  O   UNL     1      -0.299   6.111   8.200  1.00  0.00    -0.264 OA
ATOM     55  H   UNL     1       0.252   5.349   8.470  1.00  0.00     0.236 HD
ENDBRANCH  51  54
ENDBRANCH  50  51
ENDBRANCH   8  50
TORSDOF 19
ENDMDL
MODEL 29
REMARK VINA RESULT:    -6.333      8.760     11.787
REMARK INTER + INTRA:         -15.218
REMARK INTER:                 -11.568
REMARK INTRA:                  -3.650
REMARK UNBOUND:                -2.405
REMARK SMILES CC[C@@H](C)[C@@H](NC(=O)[C@@H](O)Cc1ccc(O)c(Cl)c1)C(=O)N1[C@H](C(=O)NCCCCN=C(N)N)C[C@H]2CC[C@H](OS(=O)(=O)O)C[C@@H]21
REMARK SMILES IDX 22 1 36 2 46 3 35 4 23 5 45 6 37 7 39 8 38 9 20 10 21 11
REMARK SMILES IDX 5 12 6 13 7 14 8 15 9 17 11 18 12 19 17 20 19 21 15 22 14 23
REMARK SMILES IDX 13 24 18 25 16 26 10 28 3 30 4 31 2 32 1 33 24 34 25 35
REMARK SMILES IDX 26 36 27 38 28 39 29 40 30 41 31 42 32 43 33 44 34 45 40 50
REMARK SMILES IDX 41 51 42 52 43 53 44 54
REMARK H PARENT 6 16 16 27 10 29 26 37 33 46 33 47 34 48 34 49 44 55
ROOT
ATOM      1  N   UNL     1       2.475  -2.841   8.429  1.00  0.00    -0.326 N 
ATOM      2  C   UNL     1       4.076  -3.444   6.812  1.00  0.00     0.014 C 
ATOM      3  C   UNL     1       2.982  -2.417   7.121  1.00  0.00     0.091 C 
ATOM      4  C   UNL     1       3.522  -4.719   7.427  1.00  0.00     0.041 C 
ATOM      5  C   UNL     1       3.022  -4.175   8.778  1.00  0.00     0.175 C 
ATOM      6  C   UNL     1       3.583  -1.018   6.995  1.00  0.00     0.059 C 
ATOM      7  C   UNL     1       4.437  -3.424   5.339  1.00  0.00     0.008 C 
ATOM      8  C   UNL     1       4.702  -0.916   5.936  1.00  0.00     0.143 C 
ATOM      9  C   UNL     1       4.547  -1.974   4.825  1.00  0.00     0.034 C 
ENDROOT
BRANCH   1  10
ATOM     10  C   UNL     1       1.463  -2.302   9.206  1.00  0.00     0.246 C 
ATOM     11  O   UNL     1       1.710  -1.327   9.923  1.00  0.00    -0.272 OA
BRANCH  10  12
ATOM     12  C   UNL     1       0.032  -2.907   9.128  1.00  0.00     0.174 C 
BRANCH  12  13
ATOM     13  N   UNL     1      -0.285  -3.602  10.375  1.00  0.00    -0.342 N 
ATOM     14  C   UNL     1      -1.046  -3.083  11.398  1.00  0.00     0.249 C 
ATOM     15  O   UNL     1      -1.572  -1.978  11.363  1.00  0.00    -0.272 OA
ATOM     16  H   UNL     1       0.208  -4.460  10.613  1.00  0.00     0.164 HD
BRANCH  14  17
ATOM     17  C   UNL     1      -1.184  -4.055  12.589  1.00  0.00     0.207 C 
BRANCH  17  18
ATOM     18  C   UNL     1      -2.496  -4.840  12.491  1.00  0.00     0.077 C 
BRANCH  18  19
ATOM     19  C   UNL     1      -2.255  -6.300  12.181  1.00  0.00    -0.043 A 
ATOM     20  C   UNL     1      -3.037  -8.419  11.296  1.00  0.00     0.083 A 
ATOM     21  C   UNL     1      -3.243  -7.060  11.535  1.00  0.00     0.028 A 
ATOM     22  C   UNL     1      -1.848  -9.027  11.700  1.00  0.00     0.134 A 
ATOM     23  C   UNL     1      -0.861  -8.286  12.341  1.00  0.00     0.048 A 
ATOM     24  C   UNL     1      -1.065  -6.926  12.584  1.00  0.00     0.008 A 
ATOM     25  Cl  UNL     1      -4.262  -9.335  10.500  1.00  0.00    -0.080 Cl
BRANCH  22  26
ATOM     26  O   UNL     1      -1.605 -10.358  11.497  1.00  0.00    -0.506 OA
ATOM     27  H   UNL     1      -2.434 -10.745  11.158  1.00  0.00     0.293 HD
ENDBRANCH  22  26
ENDBRANCH  18  19
ENDBRANCH  17  18
BRANCH  17  28
ATOM     28  O   UNL     1      -1.145  -3.348  13.840  1.00  0.00    -0.383 OA
ATOM     29  H   UNL     1      -0.206  -3.085  13.974  1.00  0.00     0.211 HD
ENDBRANCH  17  28
ENDBRANCH  14  17
ENDBRANCH  12  13
BRANCH  12  30
ATOM     30  C   UNL     1      -0.172  -3.808   7.880  1.00  0.00     0.018 C 
ATOM     31  C   UNL     1      -1.177  -3.173   6.906  1.00  0.00     0.010 C 
BRANCH  30  32
ATOM     32  C   UNL     1      -0.603  -5.255   8.221  1.00  0.00     0.002 C 
ATOM     33  C   UNL     1      -1.370  -5.982   7.124  1.00  0.00     0.004 C 
ENDBRANCH  30  32
ENDBRANCH  12  30
ENDBRANCH  10  12
ENDBRANCH   1  10
BRANCH   5  34
ATOM     34  C   UNL     1       4.179  -4.044   9.805  1.00  0.00     0.242 C 
ATOM     35  O   UNL     1       5.192  -4.741   9.747  1.00  0.00    -0.273 OA
ATOM     36  N   UNL     1       3.966  -3.132  10.814  1.00  0.00    -0.354 N 
ATOM     37  H   UNL     1       3.057  -2.672  10.877  1.00  0.00     0.163 HD
BRANCH  36  38
ATOM     38  C   UNL     1       5.016  -2.728  11.725  1.00  0.00     0.116 C 
BRANCH  38  39
ATOM     39  C   UNL     1       4.636  -3.106  13.155  1.00  0.00     0.023 C 
BRANCH  39  40
ATOM     40  C   UNL     1       4.755  -1.931  14.120  1.00  0.00     0.026 C 
BRANCH  40  41
ATOM     41  C   UNL     1       3.764  -0.826  13.753  1.00  0.00     0.146 C 
BRANCH  41  42
ATOM     42  N   UNL     1       2.615  -0.878  14.647  1.00  0.00    -0.254 NA
ATOM     43  C   UNL     1       1.436  -0.970  14.158  1.00  0.00     0.185 C 
ATOM     44  N   UNL     1       1.033  -1.033  12.876  1.00  0.00    -0.370 N 
ATOM     45  N   UNL     1       0.390  -1.012  15.000  1.00  0.00    -0.370 N 
ATOM     46  H   UNL     1       0.074  -0.857  12.631  1.00  0.00     0.159 HD
ATOM     47  H   UNL     1       1.697  -1.027  12.108  1.00  0.00     0.159 HD
ATOM     48  H   UNL     1       0.606  -0.978  15.987  1.00  0.00     0.159 HD
ATOM     49  H   UNL     1      -0.525  -1.317  14.717  1.00  0.00     0.159 HD
ENDBRANCH  41  42
ENDBRANCH  40  41
ENDBRANCH  39  40
ENDBRANCH  38  39
ENDBRANCH  36  38
ENDBRANCH   5  34
BRANCH   8  50
ATOM     50  O   UNL     1       5.978  -1.090   6.553  1.00  0.00    -0.245 OA
BRANCH  50  51
ATOM     51  S   UNL     1       7.225  -0.149   6.097  1.00  0.00     0.397 S 
ATOM     52  O   UNL     1       8.321  -0.389   7.009  1.00  0.00    -0.169 OA
ATOM     53  O   UNL     1       6.748   1.189   5.819  1.00  0.00    -0.169 OA
BRANCH  51  54
ATOM     54  O   UNL     1       7.660  -0.821   4.703  1.00  0.00    -0.264 OA
ATOM     55  H   UNL     1       7.477  -0.174   3.990  1.00  0.00     0.236 HD
ENDBRANCH  51  54
ENDBRANCH  50  51
ENDBRANCH   8  50
TORSDOF 19
ENDMDL
MODEL 30
REMARK VINA RESULT:    -6.331     10.204     14.913
REMARK INTER + INTRA:         -15.212
REMARK INTER:                 -11.080
REMARK INTRA:                  -4.132
REMARK UNBOUND:                -2.405
REMARK SMILES CC[C@@H](C)[C@@H](NC(=O)[C@@H](O)Cc1ccc(O)c(Cl)c1)C(=O)N1[C@H](C(=O)NCCCCN=C(N)N)C[C@H]2CC[C@H](OS(=O)(=O)O)C[C@@H]21
REMARK SMILES IDX 22 1 36 2 46 3 35 4 23 5 45 6 37 7 39 8 38 9 20 10 21 11
REMARK SMILES IDX 5 12 6 13 7 14 8 15 9 17 11 18 12 19 17 20 19 21 15 22 14 23
REMARK SMILES IDX 13 24 18 25 16 26 10 28 3 30 4 31 2 32 1 33 24 34 25 35
REMARK SMILES IDX 26 36 27 38 28 39 29 40 30 41 31 42 32 43 33 44 34 45 40 50
REMARK SMILES IDX 41 51 42 52 43 53 44 54
REMARK H PARENT 6 16 16 27 10 29 26 37 33 46 33 47 34 48 34 49 44 55
ROOT
ATOM      1  N   UNL     1       0.466  -5.973  10.628  1.00  0.00    -0.326 N 
ATOM      2  C   UNL     1      -0.490  -6.211  12.766  1.00  0.00     0.014 C 
ATOM      3  C   UNL     1      -0.814  -5.811  11.323  1.00  0.00     0.091 C 
ATOM      4  C   UNL     1       0.937  -5.715  12.938  1.00  0.00     0.041 C 
ATOM      5  C   UNL     1       1.554  -6.195  11.612  1.00  0.00     0.175 C 
ATOM      6  C   UNL     1      -2.006  -6.640  10.849  1.00  0.00     0.059 C 
ATOM      7  C   UNL     1      -1.566  -5.725  13.717  1.00  0.00     0.008 C 
ATOM      8  C   UNL     1      -3.000  -7.000  11.974  1.00  0.00     0.143 C 
ATOM      9  C   UNL     1      -2.969  -5.974  13.125  1.00  0.00     0.034 C 
ENDROOT
BRANCH   1  10
ATOM     10  C   UNL     1       0.792  -5.740   9.302  1.00  0.00     0.246 C 
ATOM     11  O   UNL     1       0.234  -6.403   8.421  1.00  0.00    -0.272 OA
BRANCH  10  12
ATOM     12  C   UNL     1       1.817  -4.625   8.949  1.00  0.00     0.174 C 
BRANCH  12  13
ATOM     13  N   UNL     1       1.546  -3.428   9.744  1.00  0.00    -0.342 N 
ATOM     14  C   UNL     1       2.493  -2.705  10.434  1.00  0.00     0.249 C 
ATOM     15  O   UNL     1       3.688  -2.973  10.435  1.00  0.00    -0.272 OA
ATOM     16  H   UNL     1       0.585  -3.176   9.963  1.00  0.00     0.164 HD
BRANCH  14  17
ATOM     17  C   UNL     1       1.890  -1.503  11.192  1.00  0.00     0.207 C 
BRANCH  17  18
ATOM     18  C   UNL     1       0.362  -1.513  11.082  1.00  0.00     0.077 C 
BRANCH  18  19
ATOM     19  C   UNL     1      -0.294  -1.846  12.403  1.00  0.00    -0.043 A 
ATOM     20  C   UNL     1      -2.280  -2.386  13.688  1.00  0.00     0.083 A 
ATOM     21  C   UNL     1      -1.668  -2.127  12.461  1.00  0.00     0.028 A 
ATOM     22  C   UNL     1      -1.526  -2.364  14.862  1.00  0.00     0.134 A 
ATOM     23  C   UNL     1      -0.164  -2.087  14.820  1.00  0.00     0.048 A 
ATOM     24  C   UNL     1       0.450  -1.826  13.593  1.00  0.00     0.008 A 
ATOM     25  Cl  UNL     1      -3.969  -2.729  13.739  1.00  0.00    -0.080 Cl
BRANCH  22  26
ATOM     26  O   UNL     1      -2.083  -2.601  16.090  1.00  0.00    -0.506 OA
ATOM     27  H   UNL     1      -1.446  -2.279  16.754  1.00  0.00     0.293 HD
ENDBRANCH  22  26
ENDBRANCH  18  19
ENDBRANCH  17  18
BRANCH  17  28
ATOM     28  O   UNL     1       2.396  -0.261  10.678  1.00  0.00    -0.383 OA
ATOM     29  H   UNL     1       3.251  -0.103  11.141  1.00  0.00     0.211 HD
ENDBRANCH  17  28
ENDBRANCH  14  17
ENDBRANCH  12  13
BRANCH  12  30
ATOM     30  C   UNL     1       1.877  -4.325   7.427  1.00  0.00     0.018 C 
ATOM     31  C   UNL     1       3.333  -4.226   6.947  1.00  0.00     0.010 C 
BRANCH  30  32
ATOM     32  C   UNL     1       1.093  -3.055   7.013  1.00  0.00     0.002 C 
ATOM     33  C   UNL     1      -0.362  -3.286   6.626  1.00  0.00     0.004 C 
ENDBRANCH  30  32
ENDBRANCH  12  30
ENDBRANCH  10  12
ENDBRANCH   1  10
BRANCH   5  34
ATOM     34  C   UNL     1       1.945  -7.696  11.672  1.00  0.00     0.242 C 
ATOM     35  O   UNL     1       1.282  -8.571  11.116  1.00  0.00    -0.273 OA
ATOM     36  N   UNL     1       3.053  -7.982  12.437  1.00  0.00    -0.354 N 
ATOM     37  H   UNL     1       3.490  -7.229  12.971  1.00  0.00     0.163 HD
BRANCH  36  38
ATOM     38  C   UNL     1       3.682  -9.287  12.430  1.00  0.00     0.116 C 
BRANCH  38  39
ATOM     39  C   UNL     1       4.992  -9.227  11.648  1.00  0.00     0.023 C 
BRANCH  39  40
ATOM     40  C   UNL     1       4.864  -9.820  10.249  1.00  0.00     0.026 C 
BRANCH  40  41
ATOM     41  C   UNL     1       4.443  -8.749   9.243  1.00  0.00     0.146 C 
BRANCH  41  42
ATOM     42  N   UNL     1       4.957  -7.451   9.661  1.00  0.00    -0.254 NA
ATOM     43  C   UNL     1       5.565  -6.708   8.814  1.00  0.00     0.185 C 
ATOM     44  N   UNL     1       5.834  -6.921   7.513  1.00  0.00    -0.370 N 
ATOM     45  N   UNL     1       6.035  -5.518   9.220  1.00  0.00    -0.370 N 
ATOM     46  H   UNL     1       6.526  -6.368   7.036  1.00  0.00     0.159 HD
ATOM     47  H   UNL     1       5.537  -7.768   7.039  1.00  0.00     0.159 HD
ATOM     48  H   UNL     1       5.866  -5.275  10.187  1.00  0.00     0.159 HD
ATOM     49  H   UNL     1       6.303  -4.791   8.580  1.00  0.00     0.159 HD
ENDBRANCH  41  42
ENDBRANCH  40  41
ENDBRANCH  39  40
ENDBRANCH  38  39
ENDBRANCH  36  38
ENDBRANCH   5  34
BRANCH   8  50
ATOM     50  O   UNL     1      -2.692  -8.288  12.507  1.00  0.00    -0.245 OA
BRANCH  50  51
ATOM     51  S   UNL     1      -2.992  -9.617  11.620  1.00  0.00     0.397 S 
ATOM     52  O   UNL     1      -3.409  -9.190  10.303  1.00  0.00    -0.169 OA
ATOM     53  O   UNL     1      -3.777 -10.554  12.398  1.00  0.00    -0.169 OA
BRANCH  51  54
ATOM     54  O   UNL     1      -1.520 -10.237  11.434  1.00  0.00    -0.264 OA
ATOM     55  H   UNL     1      -1.577 -11.199  11.610  1.00  0.00     0.236 HD
ENDBRANCH  51  54
ENDBRANCH  50  51
ENDBRANCH   8  50
TORSDOF 19
ENDMDL
MODEL 31
REMARK VINA RESULT:    -6.310      6.163     10.529
REMARK INTER + INTRA:         -15.170
REMARK INTER:                 -12.579
REMARK INTRA:                  -2.591
REMARK UNBOUND:                -2.405
REMARK SMILES CC[C@@H](C)[C@@H](NC(=O)[C@@H](O)Cc1ccc(O)c(Cl)c1)C(=O)N1[C@H](C(=O)NCCCCN=C(N)N)C[C@H]2CC[C@H](OS(=O)(=O)O)C[C@@H]21
REMARK SMILES IDX 22 1 36 2 46 3 35 4 23 5 45 6 37 7 39 8 38 9 20 10 21 11
REMARK SMILES IDX 5 12 6 13 7 14 8 15 9 17 11 18 12 19 17 20 19 21 15 22 14 23
REMARK SMILES IDX 13 24 18 25 16 26 10 28 3 30 4 31 2 32 1 33 24 34 25 35
REMARK SMILES IDX 26 36 27 38 28 39 29 40 30 41 31 42 32 43 33 44 34 45 40 50
REMARK SMILES IDX 41 51 42 52 43 53 44 54
REMARK H PARENT 6 16 16 27 10 29 26 37 33 46 33 47 34 48 34 49 44 55
ROOT
ATOM      1  N   UNL     1       3.291   9.054   3.963  1.00  0.00    -0.326 N 
ATOM      2  C   UNL     1       4.001   7.076   5.024  1.00  0.00     0.014 C 
ATOM      3  C   UNL     1       3.791   8.576   5.255  1.00  0.00     0.091 C 
ATOM      4  C   UNL     1       4.449   7.020   3.572  1.00  0.00     0.041 C 
ATOM      5  C   UNL     1       3.436   7.991   2.937  1.00  0.00     0.175 C 
ATOM      6  C   UNL     1       2.904   8.755   6.486  1.00  0.00     0.059 C 
ATOM      7  C   UNL     1       4.889   6.482   6.100  1.00  0.00     0.008 C 
ATOM      8  C   UNL     1       3.089   7.653   7.551  1.00  0.00     0.143 C 
ATOM      9  C   UNL     1       4.493   7.019   7.491  1.00  0.00     0.034 C 
ENDROOT
BRANCH   1  10
ATOM     10  C   UNL     1       2.944  10.333   3.564  1.00  0.00     0.246 C 
ATOM     11  O   UNL     1       1.786  10.726   3.746  1.00  0.00    -0.272 OA
BRANCH  10  12
ATOM     12  C   UNL     1       4.024  11.262   2.937  1.00  0.00     0.174 C 
BRANCH  12  13
ATOM     13  N   UNL     1       4.511  10.685   1.685  1.00  0.00    -0.342 N 
ATOM     14  C   UNL     1       4.115  11.079   0.426  1.00  0.00     0.249 C 
ATOM     15  O   UNL     1       3.322  11.987   0.215  1.00  0.00    -0.272 OA
ATOM     16  H   UNL     1       5.052   9.824   1.704  1.00  0.00     0.164 HD
BRANCH  14  17
ATOM     17  C   UNL     1       4.797  10.266  -0.695  1.00  0.00     0.207 C 
BRANCH  17  18
ATOM     18  C   UNL     1       5.545  11.198  -1.653  1.00  0.00     0.077 C 
BRANCH  18  19
ATOM     19  C   UNL     1       6.992  10.790  -1.819  1.00  0.00    -0.043 A 
ATOM     20  C   UNL     1       9.354  11.336  -1.736  1.00  0.00     0.083 A 
ATOM     21  C   UNL     1       8.022  11.700  -1.534  1.00  0.00     0.028 A 
ATOM     22  C   UNL     1       9.665  10.067  -2.223  1.00  0.00     0.134 A 
ATOM     23  C   UNL     1       8.655   9.155  -2.509  1.00  0.00     0.048 A 
ATOM     24  C   UNL     1       7.321   9.517  -2.310  1.00  0.00     0.008 A 
ATOM     25  Cl  UNL     1      10.605  12.469  -1.380  1.00  0.00    -0.080 Cl
BRANCH  22  26
ATOM     26  O   UNL     1      10.955   9.669  -2.446  1.00  0.00    -0.506 OA
ATOM     27  H   UNL     1      11.113   8.895  -1.874  1.00  0.00     0.293 HD
ENDBRANCH  22  26
ENDBRANCH  18  19
ENDBRANCH  17  18
BRANCH  17  28
ATOM     28  O   UNL     1       3.835   9.495  -1.433  1.00  0.00    -0.383 OA
ATOM     29  H   UNL     1       3.628  10.020  -2.239  1.00  0.00     0.211 HD
ENDBRANCH  17  28
ENDBRANCH  14  17
ENDBRANCH  12  13
BRANCH  12  30
ATOM     30  C   UNL     1       5.175  11.594   3.924  1.00  0.00     0.018 C 
ATOM     31  C   UNL     1       5.416  13.110   3.993  1.00  0.00     0.010 C 
BRANCH  30  32
ATOM     32  C   UNL     1       6.500  10.859   3.604  1.00  0.00     0.002 C 
ATOM     33  C   UNL     1       7.495  11.648   2.763  1.00  0.00     0.004 C 
ENDBRANCH  30  32
ENDBRANCH  12  30
ENDBRANCH  10  12
ENDBRANCH   1  10
BRANCH   5  34
ATOM     34  C   UNL     1       2.074   7.300   2.665  1.00  0.00     0.242 C 
ATOM     35  O   UNL     1       1.050   7.600   3.278  1.00  0.00    -0.273 OA
ATOM     36  N   UNL     1       2.106   6.291   1.729  1.00  0.00    -0.354 N 
ATOM     37  H   UNL     1       3.007   6.007   1.343  1.00  0.00     0.163 HD
BRANCH  36  38
ATOM     38  C   UNL     1       0.900   5.690   1.198  1.00  0.00     0.116 C 
BRANCH  38  39
ATOM     39  C   UNL     1       1.125   5.269  -0.252  1.00  0.00     0.023 C 
BRANCH  39  40
ATOM     40  C   UNL     1       1.981   6.269  -1.023  1.00  0.00     0.026 C 
BRANCH  40  41
ATOM     41  C   UNL     1       1.191   6.881  -2.179  1.00  0.00     0.146 C 
BRANCH  41  42
ATOM     42  N   UNL     1       2.075   7.694  -3.004  1.00  0.00    -0.254 NA
ATOM     43  C   UNL     1       1.985   7.632  -4.280  1.00  0.00     0.185 C 
ATOM     44  N   UNL     1       1.163   6.901  -5.055  1.00  0.00    -0.370 N 
ATOM     45  N   UNL     1       2.812   8.386  -5.022  1.00  0.00    -0.370 N 
ATOM     46  H   UNL     1       1.364   6.766  -6.031  1.00  0.00     0.159 HD
ATOM     47  H   UNL     1       0.462   6.284  -4.656  1.00  0.00     0.159 HD
ATOM     48  H   UNL     1       3.459   8.974  -4.515  1.00  0.00     0.159 HD
ATOM     49  H   UNL     1       2.651   8.573  -5.996  1.00  0.00     0.159 HD
ENDBRANCH  41  42
ENDBRANCH  40  41
ENDBRANCH  39  40
ENDBRANCH  38  39
ENDBRANCH  36  38
ENDBRANCH   5  34
BRANCH   8  50
ATOM     50  O   UNL     1       2.118   6.623   7.365  1.00  0.00    -0.245 OA
BRANCH  50  51
ATOM     51  S   UNL     1       0.545   6.945   7.624  1.00  0.00     0.397 S 
ATOM     52  O   UNL     1       0.437   8.320   8.057  1.00  0.00    -0.169 OA
ATOM     53  O   UNL     1      -0.056   5.863   8.375  1.00  0.00    -0.169 OA
BRANCH  51  54
ATOM     54  O   UNL     1      -0.056   6.908   6.133  1.00  0.00    -0.264 OA
ATOM     55  H   UNL     1      -0.560   7.735   5.993  1.00  0.00     0.236 HD
ENDBRANCH  51  54
ENDBRANCH  50  51
ENDBRANCH   8  50
TORSDOF 19
ENDMDL
MODEL 32
REMARK VINA RESULT:    -6.303      7.010     10.023
REMARK INTER + INTRA:         -15.156
REMARK INTER:                 -11.861
REMARK INTRA:                  -3.295
REMARK UNBOUND:                -2.405
REMARK SMILES CC[C@@H](C)[C@@H](NC(=O)[C@@H](O)Cc1ccc(O)c(Cl)c1)C(=O)N1[C@H](C(=O)NCCCCN=C(N)N)C[C@H]2CC[C@H](OS(=O)(=O)O)C[C@@H]21
REMARK SMILES IDX 22 1 36 2 46 3 35 4 23 5 45 6 37 7 39 8 38 9 20 10 21 11
REMARK SMILES IDX 5 12 6 13 7 14 8 15 9 17 11 18 12 19 17 20 19 21 15 22 14 23
REMARK SMILES IDX 13 24 18 25 16 26 10 28 3 30 4 31 2 32 1 33 24 34 25 35
REMARK SMILES IDX 26 36 27 38 28 39 29 40 30 41 31 42 32 43 33 44 34 45 40 50
REMARK SMILES IDX 41 51 42 52 43 53 44 54
REMARK H PARENT 6 16 16 27 10 29 26 37 33 46 33 47 34 48 34 49 44 55
ROOT
ATOM      1  N   UNL     1       4.894  10.626   2.681  1.00  0.00    -0.326 N 
ATOM      2  C   UNL     1       5.127   9.890   4.905  1.00  0.00     0.014 C 
ATOM      3  C   UNL     1       5.255  11.126   4.011  1.00  0.00     0.091 C 
ATOM      4  C   UNL     1       5.572   8.763   3.985  1.00  0.00     0.041 C 
ATOM      5  C   UNL     1       4.811   9.144   2.701  1.00  0.00     0.175 C 
ATOM      6  C   UNL     1       4.414  12.249   4.615  1.00  0.00     0.059 C 
ATOM      7  C   UNL     1       5.845  10.099   6.224  1.00  0.00     0.008 C 
ATOM      8  C   UNL     1       4.332  12.203   6.156  1.00  0.00     0.143 C 
ATOM      9  C   UNL     1       5.560  11.510   6.781  1.00  0.00     0.034 C 
ENDROOT
BRANCH   1  10
ATOM     10  C   UNL     1       4.847  11.287   1.466  1.00  0.00     0.246 C 
ATOM     11  O   UNL     1       3.760  11.703   1.049  1.00  0.00    -0.272 OA
BRANCH  10  12
ATOM     12  C   UNL     1       6.164  11.532   0.674  1.00  0.00     0.174 C 
BRANCH  12  13
ATOM     13  N   UNL     1       6.445  10.387  -0.192  1.00  0.00    -0.342 N 
ATOM     14  C   UNL     1       5.797  10.114  -1.375  1.00  0.00     0.249 C 
ATOM     15  O   UNL     1       4.921  10.825  -1.853  1.00  0.00    -0.272 OA
ATOM     16  H   UNL     1       7.033   9.631   0.148  1.00  0.00     0.164 HD
BRANCH  14  17
ATOM     17  C   UNL     1       6.308   8.823  -2.050  1.00  0.00     0.207 C 
BRANCH  17  18
ATOM     18  C   UNL     1       7.601   9.099  -2.823  1.00  0.00     0.077 C 
BRANCH  18  19
ATOM     19  C   UNL     1       8.820   8.618  -2.069  1.00  0.00    -0.043 A 
ATOM     20  C   UNL     1       9.837   7.123  -0.452  1.00  0.00     0.083 A 
ATOM     21  C   UNL     1       8.722   7.533  -1.184  1.00  0.00     0.028 A 
ATOM     22  C   UNL     1      11.053   7.792  -0.598  1.00  0.00     0.134 A 
ATOM     23  C   UNL     1      11.164   8.868  -1.471  1.00  0.00     0.048 A 
ATOM     24  C   UNL     1      10.049   9.282  -2.203  1.00  0.00     0.008 A 
ATOM     25  Cl  UNL     1       9.698   5.788   0.631  1.00  0.00    -0.080 Cl
BRANCH  22  26
ATOM     26  O   UNL     1      12.171   7.433   0.106  1.00  0.00    -0.506 OA
ATOM     27  H   UNL     1      12.828   8.139  -0.033  1.00  0.00     0.293 HD
ENDBRANCH  22  26
ENDBRANCH  18  19
ENDBRANCH  17  18
BRANCH  17  28
ATOM     28  O   UNL     1       5.323   8.284  -2.946  1.00  0.00    -0.383 OA
ATOM     29  H   UNL     1       5.412   8.791  -3.785  1.00  0.00     0.211 HD
ENDBRANCH  17  28
ENDBRANCH  14  17
ENDBRANCH  12  13
BRANCH  12  30
ATOM     30  C   UNL     1       7.362  11.884   1.597  1.00  0.00     0.018 C 
ATOM     31  C   UNL     1       8.039  13.186   1.140  1.00  0.00     0.010 C 
BRANCH  30  32
ATOM     32  C   UNL     1       8.411  10.751   1.714  1.00  0.00     0.002 C 
ATOM     33  C   UNL     1       9.781  11.070   1.130  1.00  0.00     0.004 C 
ENDBRANCH  30  32
ENDBRANCH  12  30
ENDBRANCH  10  12
ENDBRANCH   1  10
BRANCH   5  34
ATOM     34  C   UNL     1       3.332   8.676   2.752  1.00  0.00     0.242 C 
ATOM     35  O   UNL     1       2.427   9.401   3.163  1.00  0.00    -0.273 OA
ATOM     36  N   UNL     1       3.116   7.375   2.356  1.00  0.00    -0.354 N 
ATOM     37  H   UNL     1       3.922   6.787   2.141  1.00  0.00     0.163 HD
BRANCH  36  38
ATOM     38  C   UNL     1       1.786   6.845   2.136  1.00  0.00     0.116 C 
BRANCH  38  39
ATOM     39  C   UNL     1       1.870   5.556   1.322  1.00  0.00     0.023 C 
BRANCH  39  40
ATOM     40  C   UNL     1       1.217   5.690  -0.049  1.00  0.00     0.026 C 
BRANCH  40  41
ATOM     41  C   UNL     1       2.130   6.448  -1.013  1.00  0.00     0.146 C 
BRANCH  41  42
ATOM     42  N   UNL     1       1.396   6.786  -2.225  1.00  0.00    -0.254 NA
ATOM     43  C   UNL     1       1.988   6.736  -3.359  1.00  0.00     0.185 C 
ATOM     44  N   UNL     1       3.256   6.403  -3.659  1.00  0.00    -0.370 N 
ATOM     45  N   UNL     1       1.294   7.055  -4.464  1.00  0.00    -0.370 N 
ATOM     46  H   UNL     1       3.652   6.641  -4.552  1.00  0.00     0.159 HD
ATOM     47  H   UNL     1       3.917   6.121  -2.941  1.00  0.00     0.159 HD
ATOM     48  H   UNL     1       0.325   7.310  -4.327  1.00  0.00     0.159 HD
ATOM     49  H   UNL     1       1.604   6.816  -5.389  1.00  0.00     0.159 HD
ENDBRANCH  41  42
ENDBRANCH  40  41
ENDBRANCH  39  40
ENDBRANCH  38  39
ENDBRANCH  36  38
ENDBRANCH   5  34
BRANCH   8  50
ATOM     50  O   UNL     1       3.158  11.501   6.565  1.00  0.00    -0.245 OA
BRANCH  50  51
ATOM     51  S   UNL     1       1.821  12.336   6.964  1.00  0.00     0.397 S 
ATOM     52  O   UNL     1       0.677  11.627   6.435  1.00  0.00    -0.169 OA
ATOM     53  O   UNL     1       2.030  13.744   6.698  1.00  0.00    -0.169 OA
BRANCH  51  54
ATOM     54  O   UNL     1       1.763  12.135   8.558  1.00  0.00    -0.264 OA
ATOM     55  H   UNL     1       1.213  11.346   8.739  1.00  0.00     0.236 HD
ENDBRANCH  51  54
ENDBRANCH  50  51
ENDBRANCH   8  50
TORSDOF 19
ENDMDL
MODEL 33
REMARK VINA RESULT:    -6.292      7.567     13.074
REMARK INTER + INTRA:         -15.134
REMARK INTER:                 -13.392
REMARK INTRA:                  -1.743
REMARK UNBOUND:                -2.405
REMARK SMILES CC[C@@H](C)[C@@H](NC(=O)[C@@H](O)Cc1ccc(O)c(Cl)c1)C(=O)N1[C@H](C(=O)NCCCCN=C(N)N)C[C@H]2CC[C@H](OS(=O)(=O)O)C[C@@H]21
REMARK SMILES IDX 22 1 36 2 46 3 35 4 23 5 45 6 37 7 39 8 38 9 20 10 21 11
REMARK SMILES IDX 5 12 6 13 7 14 8 15 9 17 11 18 12 19 17 20 19 21 15 22 14 23
REMARK SMILES IDX 13 24 18 25 16 26 10 28 3 30 4 31 2 32 1 33 24 34 25 35
REMARK SMILES IDX 26 36 27 38 28 39 29 40 30 41 31 42 32 43 33 44 34 45 40 50
REMARK SMILES IDX 41 51 42 52 43 53 44 54
REMARK H PARENT 6 16 16 27 10 29 26 37 33 46 33 47 34 48 34 49 44 55
ROOT
ATOM      1  N   UNL     1       3.972   7.517  -1.004  1.00  0.00    -0.326 N 
ATOM      2  C   UNL     1       5.305   9.258  -1.860  1.00  0.00     0.014 C 
ATOM      3  C   UNL     1       5.089   8.385  -0.620  1.00  0.00     0.091 C 
ATOM      4  C   UNL     1       3.892   9.438  -2.393  1.00  0.00     0.041 C 
ATOM      5  C   UNL     1       3.369   7.995  -2.273  1.00  0.00     0.175 C 
ATOM      6  C   UNL     1       6.420   7.732  -0.252  1.00  0.00     0.059 C 
ATOM      7  C   UNL     1       6.134  10.482  -1.523  1.00  0.00     0.008 C 
ATOM      8  C   UNL     1       7.652   8.597  -0.594  1.00  0.00     0.143 C 
ATOM      9  C   UNL     1       7.317  10.102  -0.608  1.00  0.00     0.034 C 
ENDROOT
BRANCH   1  10
ATOM     10  C   UNL     1       3.324   6.532  -0.278  1.00  0.00     0.246 C 
ATOM     11  O   UNL     1       3.708   5.362  -0.376  1.00  0.00    -0.272 OA
BRANCH  10  12
ATOM     12  C   UNL     1       2.158   6.923   0.676  1.00  0.00     0.174 C 
BRANCH  12  13
ATOM     13  N   UNL     1       2.620   7.913   1.648  1.00  0.00    -0.342 N 
ATOM     14  C   UNL     1       3.526   7.668   2.656  1.00  0.00     0.249 C 
ATOM     15  O   UNL     1       4.072   6.586   2.833  1.00  0.00    -0.272 OA
ATOM     16  H   UNL     1       2.141   8.807   1.724  1.00  0.00     0.164 HD
BRANCH  14  17
ATOM     17  C   UNL     1       3.797   8.911   3.529  1.00  0.00     0.207 C 
BRANCH  17  18
ATOM     18  C   UNL     1       2.583   9.847   3.520  1.00  0.00     0.077 C 
BRANCH  18  19
ATOM     19  C   UNL     1       1.526   9.405   4.507  1.00  0.00    -0.043 A 
ATOM     20  C   UNL     1      -0.726   9.575   5.393  1.00  0.00     0.083 A 
ATOM     21  C   UNL     1       0.233   9.947   4.449  1.00  0.00     0.028 A 
ATOM     22  C   UNL     1      -0.400   8.663   6.397  1.00  0.00     0.134 A 
ATOM     23  C   UNL     1       0.877   8.119   6.466  1.00  0.00     0.048 A 
ATOM     24  C   UNL     1       1.840   8.491   5.525  1.00  0.00     0.008 A 
ATOM     25  Cl  UNL     1      -2.310  10.252   5.305  1.00  0.00    -0.080 Cl
BRANCH  22  26
ATOM     26  O   UNL     1      -1.303   8.276   7.350  1.00  0.00    -0.506 OA
ATOM     27  H   UNL     1      -1.334   8.991   8.013  1.00  0.00     0.293 HD
ENDBRANCH  22  26
ENDBRANCH  18  19
ENDBRANCH  17  18
BRANCH  17  28
ATOM     28  O   UNL     1       4.953   9.626   3.066  1.00  0.00    -0.383 OA
ATOM     29  H   UNL     1       5.312   9.105   2.312  1.00  0.00     0.211 HD
ENDBRANCH  17  28
ENDBRANCH  14  17
ENDBRANCH  12  13
BRANCH  12  30
ATOM     30  C   UNL     1       1.496   5.692   1.352  1.00  0.00     0.018 C 
ATOM     31  C   UNL     1       0.544   4.981   0.378  1.00  0.00     0.010 C 
BRANCH  30  32
ATOM     32  C   UNL     1       0.756   6.030   2.669  1.00  0.00     0.002 C 
ATOM     33  C   UNL     1       0.883   4.987   3.772  1.00  0.00     0.004 C 
ENDBRANCH  30  32
ENDBRANCH  12  30
ENDBRANCH  10  12
ENDBRANCH   1  10
BRANCH   5  34
ATOM     34  C   UNL     1       3.833   7.117  -3.466  1.00  0.00     0.242 C 
ATOM     35  O   UNL     1       4.085   5.919  -3.343  1.00  0.00    -0.273 OA
ATOM     36  N   UNL     1       3.993   7.788  -4.658  1.00  0.00    -0.354 N 
ATOM     37  H   UNL     1       3.885   8.803  -4.670  1.00  0.00     0.163 HD
BRANCH  36  38
ATOM     38  C   UNL     1       4.208   7.095  -5.912  1.00  0.00     0.116 C 
BRANCH  38  39
ATOM     39  C   UNL     1       4.499   8.106  -7.019  1.00  0.00     0.023 C 
BRANCH  39  40
ATOM     40  C   UNL     1       4.928   7.437  -8.320  1.00  0.00     0.026 C 
BRANCH  40  41
ATOM     41  C   UNL     1       5.097   5.930  -8.125  1.00  0.00     0.146 C 
BRANCH  41  42
ATOM     42  N   UNL     1       5.689   5.342  -9.320  1.00  0.00    -0.254 NA
ATOM     43  C   UNL     1       6.164   4.154  -9.272  1.00  0.00     0.185 C 
ATOM     44  N   UNL     1       6.220   3.285  -8.247  1.00  0.00    -0.370 N 
ATOM     45  N   UNL     1       6.709   3.632 -10.383  1.00  0.00    -0.370 N 
ATOM     46  H   UNL     1       6.834   2.489  -8.282  1.00  0.00     0.159 HD
ATOM     47  H   UNL     1       5.839   3.513  -7.334  1.00  0.00     0.159 HD
ATOM     48  H   UNL     1       6.700   4.220 -11.206  1.00  0.00     0.159 HD
ATOM     49  H   UNL     1       6.882   2.649 -10.494  1.00  0.00     0.159 HD
ENDBRANCH  41  42
ENDBRANCH  40  41
ENDBRANCH  39  40
ENDBRANCH  38  39
ENDBRANCH  36  38
ENDBRANCH   5  34
BRANCH   8  50
ATOM     50  O   UNL     1       8.165   8.235  -1.876  1.00  0.00    -0.245 OA
BRANCH  50  51
ATOM     51  S   UNL     1       9.767   8.299  -2.148  1.00  0.00     0.397 S 
ATOM     52  O   UNL     1      10.114   9.669  -2.452  1.00  0.00    -0.169 OA
ATOM     53  O   UNL     1      10.158   7.206  -3.015  1.00  0.00    -0.169 OA
BRANCH  51  54
ATOM     54  O   UNL     1      10.368   8.010  -0.685  1.00  0.00    -0.264 OA
ATOM     55  H   UNL     1      10.696   8.859  -0.324  1.00  0.00     0.236 HD
ENDBRANCH  51  54
ENDBRANCH  50  51
ENDBRANCH   8  50
TORSDOF 19
ENDMDL
MODEL 34
REMARK VINA RESULT:    -6.267      9.126     12.674
REMARK INTER + INTRA:         -15.083
REMARK INTER:                 -12.217
REMARK INTRA:                  -2.867
REMARK UNBOUND:                -2.405
REMARK SMILES CC[C@@H](C)[C@@H](NC(=O)[C@@H](O)Cc1ccc(O)c(Cl)c1)C(=O)N1[C@H](C(=O)NCCCCN=C(N)N)C[C@H]2CC[C@H](OS(=O)(=O)O)C[C@@H]21
REMARK SMILES IDX 22 1 36 2 46 3 35 4 23 5 45 6 37 7 39 8 38 9 20 10 21 11
REMARK SMILES IDX 5 12 6 13 7 14 8 15 9 17 11 18 12 19 17 20 19 21 15 22 14 23
REMARK SMILES IDX 13 24 18 25 16 26 10 28 3 30 4 31 2 32 1 33 24 34 25 35
REMARK SMILES IDX 26 36 27 38 28 39 29 40 30 41 31 42 32 43 33 44 34 45 40 50
REMARK SMILES IDX 41 51 42 52 43 53 44 54
REMARK H PARENT 6 16 16 27 10 29 26 37 33 46 33 47 34 48 34 49 44 55
ROOT
ATOM      1  N   UNL     1       0.034  -5.363  10.371  1.00  0.00    -0.326 N 
ATOM      2  C   UNL     1      -1.377  -4.440  12.014  1.00  0.00     0.014 C 
ATOM      3  C   UNL     1      -1.224  -5.637  11.071  1.00  0.00     0.091 C 
ATOM      4  C   UNL     1      -0.783  -3.297  11.205  1.00  0.00     0.041 C 
ATOM      5  C   UNL     1       0.486  -3.979  10.661  1.00  0.00     0.175 C 
ATOM      6  C   UNL     1      -1.330  -6.918  11.895  1.00  0.00     0.059 C 
ATOM      7  C   UNL     1      -2.800  -4.329  12.523  1.00  0.00     0.008 C 
ATOM      8  C   UNL     1      -2.263  -6.794  13.119  1.00  0.00     0.143 C 
ATOM      9  C   UNL     1      -3.348  -5.718  12.914  1.00  0.00     0.034 C 
ENDROOT
BRANCH   1  10
ATOM     10  C   UNL     1       0.677  -6.089   9.382  1.00  0.00     0.246 C 
ATOM     11  O   UNL     1       1.279  -7.123   9.691  1.00  0.00    -0.272 OA
BRANCH  10  12
ATOM     12  C   UNL     1       0.591  -5.613   7.903  1.00  0.00     0.174 C 
BRANCH  12  13
ATOM     13  N   UNL     1       1.761  -4.801   7.572  1.00  0.00    -0.342 N 
ATOM     14  C   UNL     1       2.722  -5.140   6.646  1.00  0.00     0.249 C 
ATOM     15  O   UNL     1       2.688  -6.160   5.970  1.00  0.00    -0.272 OA
ATOM     16  H   UNL     1       2.006  -4.008   8.159  1.00  0.00     0.164 HD
BRANCH  14  17
ATOM     17  C   UNL     1       3.842  -4.083   6.536  1.00  0.00     0.207 C 
BRANCH  17  18
ATOM     18  C   UNL     1       3.783  -3.380   5.177  1.00  0.00     0.077 C 
BRANCH  18  19
ATOM     19  C   UNL     1       4.740  -2.211   5.107  1.00  0.00    -0.043 A 
ATOM     20  C   UNL     1       5.214   0.142   5.460  1.00  0.00     0.083 A 
ATOM     21  C   UNL     1       4.347  -0.946   5.571  1.00  0.00     0.028 A 
ATOM     22  C   UNL     1       6.474  -0.026   4.884  1.00  0.00     0.134 A 
ATOM     23  C   UNL     1       6.876  -1.273   4.420  1.00  0.00     0.048 A 
ATOM     24  C   UNL     1       6.009  -2.363   4.529  1.00  0.00     0.008 A 
ATOM     25  Cl  UNL     1       4.714   1.688   6.036  1.00  0.00    -0.080 Cl
BRANCH  22  26
ATOM     26  O   UNL     1       7.355   1.013   4.744  1.00  0.00    -0.506 OA
ATOM     27  H   UNL     1       7.376   1.235   3.795  1.00  0.00     0.293 HD
ENDBRANCH  22  26
ENDBRANCH  18  19
ENDBRANCH  17  18
BRANCH  17  28
ATOM     28  O   UNL     1       5.137  -4.682   6.707  1.00  0.00    -0.383 OA
ATOM     29  H   UNL     1       5.738  -4.212   6.086  1.00  0.00     0.211 HD
ENDBRANCH  17  28
ENDBRANCH  14  17
ENDBRANCH  12  13
BRANCH  12  30
ATOM     30  C   UNL     1      -0.744  -4.888   7.582  1.00  0.00     0.018 C 
ATOM     31  C   UNL     1      -1.802  -5.886   7.086  1.00  0.00     0.010 C 
BRANCH  30  32
ATOM     32  C   UNL     1      -0.592  -3.726   6.570  1.00  0.00     0.002 C 
ATOM     33  C   UNL     1      -0.871  -2.337   7.127  1.00  0.00     0.004 C 
ENDBRANCH  30  32
ENDBRANCH  12  30
ENDBRANCH  10  12
ENDBRANCH   1  10
BRANCH   5  34
ATOM     34  C   UNL     1       1.628  -3.983  11.712  1.00  0.00     0.242 C 
ATOM     35  O   UNL     1       2.079  -5.023  12.190  1.00  0.00    -0.273 OA
ATOM     36  N   UNL     1       2.062  -2.738  12.109  1.00  0.00    -0.354 N 
ATOM     37  H   UNL     1       1.568  -1.913  11.767  1.00  0.00     0.163 HD
BRANCH  36  38
ATOM     38  C   UNL     1       3.254  -2.554  12.911  1.00  0.00     0.116 C 
BRANCH  38  39
ATOM     39  C   UNL     1       2.880  -2.494  14.390  1.00  0.00     0.023 C 
BRANCH  39  40
ATOM     40  C   UNL     1       1.412  -2.139  14.606  1.00  0.00     0.026 C 
BRANCH  40  41
ATOM     41  C   UNL     1       0.957  -2.543  16.008  1.00  0.00     0.146 C 
BRANCH  41  42
ATOM     42  N   UNL     1      -0.110  -3.530  15.914  1.00  0.00    -0.254 NA
ATOM     43  C   UNL     1      -0.963  -3.633  16.863  1.00  0.00     0.185 C 
ATOM     44  N   UNL     1      -1.062  -2.946  18.016  1.00  0.00    -0.370 N 
ATOM     45  N   UNL     1      -1.936  -4.552  16.760  1.00  0.00    -0.370 N 
ATOM     46  H   UNL     1      -1.626  -3.292  18.773  1.00  0.00     0.159 HD
ATOM     47  H   UNL     1      -0.412  -2.201  18.250  1.00  0.00     0.159 HD
ATOM     48  H   UNL     1      -1.939  -5.109  15.915  1.00  0.00     0.159 HD
ATOM     49  H   UNL     1      -2.763  -4.536  17.330  1.00  0.00     0.159 HD
ENDBRANCH  41  42
ENDBRANCH  40  41
ENDBRANCH  39  40
ENDBRANCH  38  39
ENDBRANCH  36  38
ENDBRANCH   5  34
BRANCH   8  50
ATOM     50  O   UNL     1      -1.505  -6.458  14.281  1.00  0.00    -0.245 OA
BRANCH  50  51
ATOM     51  S   UNL     1      -1.065  -7.629  15.321  1.00  0.00     0.397 S 
ATOM     52  O   UNL     1      -1.920  -7.538  16.483  1.00  0.00    -0.169 OA
ATOM     53  O   UNL     1       0.378  -7.658  15.439  1.00  0.00    -0.169 OA
BRANCH  51  54
ATOM     54  O   UNL     1      -1.525  -8.959  14.542  1.00  0.00    -0.264 OA
ATOM     55  H   UNL     1      -1.185  -9.729  15.040  1.00  0.00     0.236 HD
ENDBRANCH  51  54
ENDBRANCH  50  51
ENDBRANCH   8  50
TORSDOF 19
ENDMDL
MODEL 35
REMARK VINA RESULT:    -6.266      8.744     13.318
REMARK INTER + INTRA:         -15.081
REMARK INTER:                 -10.407
REMARK INTRA:                  -4.673
REMARK UNBOUND:                -2.405
REMARK SMILES CC[C@@H](C)[C@@H](NC(=O)[C@@H](O)Cc1ccc(O)c(Cl)c1)C(=O)N1[C@H](C(=O)NCCCCN=C(N)N)C[C@H]2CC[C@H](OS(=O)(=O)O)C[C@@H]21
REMARK SMILES IDX 22 1 36 2 46 3 35 4 23 5 45 6 37 7 39 8 38 9 20 10 21 11
REMARK SMILES IDX 5 12 6 13 7 14 8 15 9 17 11 18 12 19 17 20 19 21 15 22 14 23
REMARK SMILES IDX 13 24 18 25 16 26 10 28 3 30 4 31 2 32 1 33 24 34 25 35
REMARK SMILES IDX 26 36 27 38 28 39 29 40 30 41 31 42 32 43 33 44 34 45 40 50
REMARK SMILES IDX 41 51 42 52 43 53 44 54
REMARK H PARENT 6 16 16 27 10 29 26 37 33 46 33 47 34 48 34 49 44 55
ROOT
ATOM      1  N   UNL     1       1.714  -3.380  10.699  1.00  0.00    -0.326 N 
ATOM      2  C   UNL     1       3.486  -4.611   9.758  1.00  0.00     0.014 C 
ATOM      3  C   UNL     1       2.028  -4.726  10.212  1.00  0.00     0.091 C 
ATOM      4  C   UNL     1       4.072  -3.628  10.760  1.00  0.00     0.041 C 
ATOM      5  C   UNL     1       2.954  -2.570  10.790  1.00  0.00     0.175 C 
ATOM      6  C   UNL     1       1.205  -5.288   9.054  1.00  0.00     0.059 C 
ATOM      7  C   UNL     1       4.116  -5.981   9.605  1.00  0.00     0.008 C 
ATOM      8  C   UNL     1       1.990  -6.260   8.147  1.00  0.00     0.143 C 
ATOM      9  C   UNL     1       3.144  -6.952   8.901  1.00  0.00     0.034 C 
ENDROOT
BRANCH   1  10
ATOM     10  C   UNL     1       0.544  -2.886  11.250  1.00  0.00     0.246 C 
ATOM     11  O   UNL     1      -0.285  -2.341  10.513  1.00  0.00    -0.272 OA
BRANCH  10  12
ATOM     12  C   UNL     1       0.278  -3.064  12.773  1.00  0.00     0.174 C 
BRANCH  12  13
ATOM     13  N   UNL     1      -0.257  -4.400  13.033  1.00  0.00    -0.342 N 
ATOM     14  C   UNL     1       0.488  -5.486  13.432  1.00  0.00     0.249 C 
ATOM     15  O   UNL     1       1.694  -5.446  13.644  1.00  0.00    -0.272 OA
ATOM     16  H   UNL     1      -1.208  -4.625  12.751  1.00  0.00     0.164 HD
BRANCH  14  17
ATOM     17  C   UNL     1      -0.364  -6.761  13.607  1.00  0.00     0.207 C 
BRANCH  17  18
ATOM     18  C   UNL     1      -1.830  -6.478  13.263  1.00  0.00     0.077 C 
BRANCH  18  19
ATOM     19  C   UNL     1      -2.264  -7.208  12.012  1.00  0.00    -0.043 A 
ATOM     20  C   UNL     1      -2.372  -7.355   9.593  1.00  0.00     0.083 A 
ATOM     21  C   UNL     1      -1.927  -6.706  10.745  1.00  0.00     0.028 A 
ATOM     22  C   UNL     1      -3.155  -8.506   9.698  1.00  0.00     0.134 A 
ATOM     23  C   UNL     1      -3.496  -9.014  10.946  1.00  0.00     0.048 A 
ATOM     24  C   UNL     1      -3.054  -8.365  12.101  1.00  0.00     0.008 A 
ATOM     25  Cl  UNL     1      -1.947  -6.723   8.046  1.00  0.00    -0.080 Cl
BRANCH  22  26
ATOM     26  O   UNL     1      -3.623  -9.170   8.597  1.00  0.00    -0.506 OA
ATOM     27  H   UNL     1      -4.236  -9.855   8.923  1.00  0.00     0.293 HD
ENDBRANCH  22  26
ENDBRANCH  18  19
ENDBRANCH  17  18
BRANCH  17  28
ATOM     28  O   UNL     1      -0.279  -7.260  14.952  1.00  0.00    -0.383 OA
ATOM     29  H   UNL     1       0.604  -6.985  15.288  1.00  0.00     0.211 HD
ENDBRANCH  17  28
ENDBRANCH  14  17
ENDBRANCH  12  13
BRANCH  12  30
ATOM     30  C   UNL     1      -0.618  -1.941  13.361  1.00  0.00     0.018 C 
ATOM     31  C   UNL     1       0.222  -0.935  14.162  1.00  0.00     0.010 C 
BRANCH  30  32
ATOM     32  C   UNL     1      -1.786  -2.470  14.230  1.00  0.00     0.002 C 
ATOM     33  C   UNL     1      -3.117  -2.627  13.505  1.00  0.00     0.004 C 
ENDBRANCH  30  32
ENDBRANCH  12  30
ENDBRANCH  10  12
ENDBRANCH   1  10
BRANCH   5  34
ATOM     34  C   UNL     1       3.060  -1.591   9.590  1.00  0.00     0.242 C 
ATOM     35  O   UNL     1       2.188  -1.511   8.726  1.00  0.00    -0.273 OA
ATOM     36  N   UNL     1       4.225  -0.858   9.534  1.00  0.00    -0.354 N 
ATOM     37  H   UNL     1       4.962  -1.054  10.212  1.00  0.00     0.163 HD
BRANCH  36  38
ATOM     38  C   UNL     1       4.399   0.248   8.616  1.00  0.00     0.116 C 
BRANCH  38  39
ATOM     39  C   UNL     1       5.874   0.386   8.245  1.00  0.00     0.023 C 
BRANCH  39  40
ATOM     40  C   UNL     1       6.108   0.280   6.742  1.00  0.00     0.026 C 
BRANCH  40  41
ATOM     41  C   UNL     1       6.335  -1.175   6.330  1.00  0.00     0.146 C 
BRANCH  41  42
ATOM     42  N   UNL     1       5.467  -1.511   5.210  1.00  0.00    -0.254 NA
ATOM     43  C   UNL     1       4.456  -2.274   5.398  1.00  0.00     0.185 C 
ATOM     44  N   UNL     1       4.016  -2.865   6.524  1.00  0.00    -0.370 N 
ATOM     45  N   UNL     1       3.671  -2.575   4.351  1.00  0.00    -0.370 N 
ATOM     46  H   UNL     1       3.361  -3.626   6.481  1.00  0.00     0.159 HD
ATOM     47  H   UNL     1       4.486  -2.732   7.414  1.00  0.00     0.159 HD
ATOM     48  H   UNL     1       3.928  -2.163   3.465  1.00  0.00     0.159 HD
ATOM     49  H   UNL     1       2.748  -2.959   4.456  1.00  0.00     0.159 HD
ENDBRANCH  41  42
ENDBRANCH  40  41
ENDBRANCH  39  40
ENDBRANCH  38  39
ENDBRANCH  36  38
ENDBRANCH   5  34
BRANCH   8  50
ATOM     50  O   UNL     1       2.536  -5.555   7.031  1.00  0.00    -0.245 OA
BRANCH  50  51
ATOM     51  S   UNL     1       1.667  -5.422   5.663  1.00  0.00     0.397 S 
ATOM     52  O   UNL     1       0.502  -6.269   5.790  1.00  0.00    -0.169 OA
ATOM     53  O   UNL     1       2.548  -5.509   4.517  1.00  0.00    -0.169 OA
BRANCH  51  54
ATOM     54  O   UNL     1       1.123  -3.912   5.757  1.00  0.00    -0.264 OA
ATOM     55  H   UNL     1       0.329  -3.916   6.331  1.00  0.00     0.236 HD
ENDBRANCH  51  54
ENDBRANCH  50  51
ENDBRANCH   8  50
TORSDOF 19
ENDMDL
MODEL 36
REMARK VINA RESULT:    -6.248      9.462     14.303
REMARK INTER + INTRA:         -15.046
REMARK INTER:                 -12.012
REMARK INTRA:                  -3.034
REMARK UNBOUND:                -2.405
REMARK SMILES CC[C@@H](C)[C@@H](NC(=O)[C@@H](O)Cc1ccc(O)c(Cl)c1)C(=O)N1[C@H](C(=O)NCCCCN=C(N)N)C[C@H]2CC[C@H](OS(=O)(=O)O)C[C@@H]21
REMARK SMILES IDX 22 1 36 2 46 3 35 4 23 5 45 6 37 7 39 8 38 9 20 10 21 11
REMARK SMILES IDX 5 12 6 13 7 14 8 15 9 17 11 18 12 19 17 20 19 21 15 22 14 23
REMARK SMILES IDX 13 24 18 25 16 26 10 28 3 30 4 31 2 32 1 33 24 34 25 35
REMARK SMILES IDX 26 36 27 38 28 39 29 40 30 41 31 42 32 43 33 44 34 45 40 50
REMARK SMILES IDX 41 51 42 52 43 53 44 54
REMARK H PARENT 6 16 16 27 10 29 26 37 33 46 33 47 34 48 34 49 44 55
ROOT
ATOM      1  N   UNL     1       0.332  -5.666   9.050  1.00  0.00    -0.326 N 
ATOM      2  C   UNL     1      -0.257  -6.055  11.296  1.00  0.00     0.014 C 
ATOM      3  C   UNL     1      -0.849  -5.802   9.907  1.00  0.00     0.091 C 
ATOM      4  C   UNL     1       1.010  -5.213  11.278  1.00  0.00     0.041 C 
ATOM      5  C   UNL     1       1.556  -5.572   9.884  1.00  0.00     0.175 C 
ATOM      6  C   UNL     1      -1.844  -6.919   9.596  1.00  0.00     0.059 C 
ATOM      7  C   UNL     1      -1.292  -5.818  12.378  1.00  0.00     0.008 C 
ATOM      8  C   UNL     1      -2.566  -7.474  10.843  1.00  0.00     0.143 C 
ATOM      9  C   UNL     1      -2.650  -6.430  11.975  1.00  0.00     0.034 C 
ENDROOT
BRANCH   1  10
ATOM     10  C   UNL     1       0.419  -5.408   7.692  1.00  0.00     0.246 C 
ATOM     11  O   UNL     1       0.276  -6.340   6.893  1.00  0.00    -0.272 OA
BRANCH  10  12
ATOM     12  C   UNL     1       0.652  -3.950   7.202  1.00  0.00     0.174 C 
BRANCH  12  13
ATOM     13  N   UNL     1       2.086  -3.678   7.108  1.00  0.00    -0.342 N 
ATOM     14  C   UNL     1       2.809  -3.644   5.937  1.00  0.00     0.249 C 
ATOM     15  O   UNL     1       2.318  -3.812   4.827  1.00  0.00    -0.272 OA
ATOM     16  H   UNL     1       2.654  -3.674   7.951  1.00  0.00     0.164 HD
BRANCH  14  17
ATOM     17  C   UNL     1       4.306  -3.349   6.169  1.00  0.00     0.207 C 
BRANCH  17  18
ATOM     18  C   UNL     1       4.886  -2.561   4.990  1.00  0.00     0.077 C 
BRANCH  18  19
ATOM     19  C   UNL     1       5.788  -1.439   5.453  1.00  0.00    -0.043 A 
ATOM     20  C   UNL     1       6.839  -0.191   7.248  1.00  0.00     0.083 A 
ATOM     21  C   UNL     1       6.046  -1.256   6.821  1.00  0.00     0.028 A 
ATOM     22  C   UNL     1       7.377   0.697   6.315  1.00  0.00     0.134 A 
ATOM     23  C   UNL     1       7.130   0.528   4.958  1.00  0.00     0.048 A 
ATOM     24  C   UNL     1       6.335  -0.537   4.527  1.00  0.00     0.008 A 
ATOM     25  Cl  UNL     1       7.144   0.018   8.932  1.00  0.00    -0.080 Cl
BRANCH  22  26
ATOM     26  O   UNL     1       8.151   1.763   6.687  1.00  0.00    -0.506 OA
ATOM     27  H   UNL     1       7.606   2.311   7.282  1.00  0.00     0.293 HD
ENDBRANCH  22  26
ENDBRANCH  18  19
ENDBRANCH  17  18
BRANCH  17  28
ATOM     28  O   UNL     1       5.052  -4.564   6.343  1.00  0.00    -0.383 OA
ATOM     29  H   UNL     1       5.775  -4.537   5.677  1.00  0.00     0.211 HD
ENDBRANCH  17  28
ENDBRANCH  14  17
ENDBRANCH  12  13
BRANCH  12  30
ATOM     30  C   UNL     1      -0.094  -2.899   8.068  1.00  0.00     0.018 C 
ATOM     31  C   UNL     1      -0.899  -1.935   7.183  1.00  0.00     0.010 C 
BRANCH  30  32
ATOM     32  C   UNL     1       0.835  -2.102   9.015  1.00  0.00     0.002 C 
ATOM     33  C   UNL     1       0.193  -1.637  10.317  1.00  0.00     0.004 C 
ENDBRANCH  30  32
ENDBRANCH  12  30
ENDBRANCH  10  12
ENDBRANCH   1  10
BRANCH   5  34
ATOM     34  C   UNL     1       2.316  -6.925   9.899  1.00  0.00     0.242 C 
ATOM     35  O   UNL     1       1.845  -7.939  10.414  1.00  0.00    -0.273 OA
ATOM     36  N   UNL     1       3.576  -6.895   9.344  1.00  0.00    -0.354 N 
ATOM     37  H   UNL     1       3.959  -5.998   9.041  1.00  0.00     0.163 HD
BRANCH  36  38
ATOM     38  C   UNL     1       4.334  -8.101   9.080  1.00  0.00     0.116 C 
BRANCH  38  39
ATOM     39  C   UNL     1       5.115  -8.506  10.328  1.00  0.00     0.023 C 
BRANCH  39  40
ATOM     40  C   UNL     1       4.796  -9.927  10.778  1.00  0.00     0.026 C 
BRANCH  40  41
ATOM     41  C   UNL     1       3.968 -10.659   9.721  1.00  0.00     0.146 C 
BRANCH  41  42
ATOM     42  N   UNL     1       3.346 -11.836  10.312  1.00  0.00    -0.254 NA
ATOM     43  C   UNL     1       2.163 -11.753  10.793  1.00  0.00     0.185 C 
ATOM     44  N   UNL     1       1.327 -10.701  10.857  1.00  0.00    -0.370 N 
ATOM     45  N   UNL     1       1.608 -12.849  11.336  1.00  0.00    -0.370 N 
ATOM     46  H   UNL     1       0.533 -10.713  11.475  1.00  0.00     0.159 HD
ATOM     47  H   UNL     1       1.582  -9.793  10.480  1.00  0.00     0.159 HD
ATOM     48  H   UNL     1       2.169 -13.690  11.321  1.00  0.00     0.159 HD
ATOM     49  H   UNL     1       0.623 -12.929  11.514  1.00  0.00     0.159 HD
ENDBRANCH  41  42
ENDBRANCH  40  41
ENDBRANCH  39  40
ENDBRANCH  38  39
ENDBRANCH  36  38
ENDBRANCH   5  34
BRANCH   8  50
ATOM     50  O   UNL     1      -1.878  -8.623  11.336  1.00  0.00    -0.245 OA
BRANCH  50  51
ATOM     51  S   UNL     1      -2.601 -10.079  11.274  1.00  0.00     0.397 S 
ATOM     52  O   UNL     1      -3.617 -10.117  12.301  1.00  0.00    -0.169 OA
ATOM     53  O   UNL     1      -1.596 -11.116  11.161  1.00  0.00    -0.169 OA
BRANCH  51  54
ATOM     54  O   UNL     1      -3.392 -10.002   9.877  1.00  0.00    -0.264 OA
ATOM     55  H   UNL     1      -4.250  -9.561  10.044  1.00  0.00     0.236 HD
ENDBRANCH  51  54
ENDBRANCH  50  51
ENDBRANCH   8  50
TORSDOF 19
ENDMDL
MODEL 37
REMARK VINA RESULT:    -6.244      8.340     14.016
REMARK INTER + INTRA:         -15.038
REMARK INTER:                 -11.836
REMARK INTRA:                  -3.202
REMARK UNBOUND:                -2.405
REMARK SMILES CC[C@@H](C)[C@@H](NC(=O)[C@@H](O)Cc1ccc(O)c(Cl)c1)C(=O)N1[C@H](C(=O)NCCCCN=C(N)N)C[C@H]2CC[C@H](OS(=O)(=O)O)C[C@@H]21
REMARK SMILES IDX 22 1 36 2 46 3 35 4 23 5 45 6 37 7 39 8 38 9 20 10 21 11
REMARK SMILES IDX 5 12 6 13 7 14 8 15 9 17 11 18 12 19 17 20 19 21 15 22 14 23
REMARK SMILES IDX 13 24 18 25 16 26 10 28 3 30 4 31 2 32 1 33 24 34 25 35
REMARK SMILES IDX 26 36 27 38 28 39 29 40 30 41 31 42 32 43 33 44 34 45 40 50
REMARK SMILES IDX 41 51 42 52 43 53 44 54
REMARK H PARENT 6 16 16 27 10 29 26 37 33 46 33 47 34 48 34 49 44 55
ROOT
ATOM      1  N   UNL     1       3.684  -6.036   9.313  1.00  0.00    -0.326 N 
ATOM      2  C   UNL     1       5.895  -6.801   9.045  1.00  0.00     0.014 C 
ATOM      3  C   UNL     1       4.529  -7.195   9.615  1.00  0.00     0.091 C 
ATOM      4  C   UNL     1       5.939  -5.300   9.291  1.00  0.00     0.041 C 
ATOM      5  C   UNL     1       4.521  -4.908   8.836  1.00  0.00     0.175 C 
ATOM      6  C   UNL     1       4.136  -8.551   9.031  1.00  0.00     0.059 C 
ATOM      7  C   UNL     1       6.993  -7.679   9.611  1.00  0.00     0.008 C 
ATOM      8  C   UNL     1       5.338  -9.474   8.737  1.00  0.00     0.143 C 
ATOM      9  C   UNL     1       6.546  -9.156   9.641  1.00  0.00     0.034 C 
ENDROOT
BRANCH   1  10
ATOM     10  C   UNL     1       2.350  -5.810   9.605  1.00  0.00     0.246 C 
ATOM     11  O   UNL     1       1.796  -6.507  10.463  1.00  0.00    -0.272 OA
BRANCH  10  12
ATOM     12  C   UNL     1       1.590  -4.661   8.882  1.00  0.00     0.174 C 
BRANCH  12  13
ATOM     13  N   UNL     1       1.425  -3.525   9.787  1.00  0.00    -0.342 N 
ATOM     14  C   UNL     1       1.995  -2.284   9.610  1.00  0.00     0.249 C 
ATOM     15  O   UNL     1       2.690  -1.984   8.647  1.00  0.00    -0.272 OA
ATOM     16  H   UNL     1       1.008  -3.667  10.704  1.00  0.00     0.164 HD
BRANCH  14  17
ATOM     17  C   UNL     1       1.648  -1.301  10.748  1.00  0.00     0.207 C 
BRANCH  17  18
ATOM     18  C   UNL     1       0.134  -1.072  10.815  1.00  0.00     0.077 C 
BRANCH  18  19
ATOM     19  C   UNL     1      -0.441  -1.508  12.144  1.00  0.00    -0.043 A 
ATOM     20  C   UNL     1      -2.284  -2.396  13.447  1.00  0.00     0.083 A 
ATOM     21  C   UNL     1      -1.738  -2.042  12.213  1.00  0.00     0.028 A 
ATOM     22  C   UNL     1      -1.543  -2.219  14.616  1.00  0.00     0.134 A 
ATOM     23  C   UNL     1      -0.259  -1.691  14.561  1.00  0.00     0.048 A 
ATOM     24  C   UNL     1       0.291  -1.334  13.328  1.00  0.00     0.008 A 
ATOM     25  Cl  UNL     1      -3.879  -3.051  13.512  1.00  0.00    -0.080 Cl
BRANCH  22  26
ATOM     26  O   UNL     1      -2.041  -2.542  15.849  1.00  0.00    -0.506 OA
ATOM     27  H   UNL     1      -2.905  -2.968  15.700  1.00  0.00     0.293 HD
ENDBRANCH  22  26
ENDBRANCH  18  19
ENDBRANCH  17  18
BRANCH  17  28
ATOM     28  O   UNL     1       2.312  -0.040  10.563  1.00  0.00    -0.383 OA
ATOM     29  H   UNL     1       1.765   0.464   9.920  1.00  0.00     0.211 HD
ENDBRANCH  17  28
ENDBRANCH  14  17
ENDBRANCH  12  13
BRANCH  12  30
ATOM     30  C   UNL     1       0.243  -5.127   8.265  1.00  0.00     0.018 C 
ATOM     31  C   UNL     1       0.484  -6.020   7.038  1.00  0.00     0.010 C 
BRANCH  30  32
ATOM     32  C   UNL     1      -0.708  -3.963   7.898  1.00  0.00     0.002 C 
ATOM     33  C   UNL     1      -0.341  -3.196   6.634  1.00  0.00     0.004 C 
ENDBRANCH  30  32
ENDBRANCH  12  30
ENDBRANCH  10  12
ENDBRANCH   1  10
BRANCH   5  34
ATOM     34  C   UNL     1       4.433  -4.770   7.293  1.00  0.00     0.242 C 
ATOM     35  O   UNL     1       3.984  -5.665   6.577  1.00  0.00    -0.273 OA
ATOM     36  N   UNL     1       4.941  -3.598   6.780  1.00  0.00    -0.354 N 
ATOM     37  H   UNL     1       5.408  -2.946   7.412  1.00  0.00     0.163 HD
BRANCH  36  38
ATOM     38  C   UNL     1       4.747  -3.211   5.398  1.00  0.00     0.116 C 
BRANCH  38  39
ATOM     39  C   UNL     1       5.838  -2.229   4.976  1.00  0.00     0.023 C 
BRANCH  39  40
ATOM     40  C   UNL     1       5.421  -0.776   5.171  1.00  0.00     0.026 C 
BRANCH  40  41
ATOM     41  C   UNL     1       6.200  -0.138   6.322  1.00  0.00     0.146 C 
BRANCH  41  42
ATOM     42  N   UNL     1       5.665   1.188   6.603  1.00  0.00    -0.254 NA
ATOM     43  C   UNL     1       4.866   1.352   7.590  1.00  0.00     0.185 C 
ATOM     44  N   UNL     1       4.398   0.459   8.482  1.00  0.00    -0.370 N 
ATOM     45  N   UNL     1       4.381   2.581   7.831  1.00  0.00    -0.370 N 
ATOM     46  H   UNL     1       3.594   0.674   9.048  1.00  0.00     0.159 HD
ATOM     47  H   UNL     1       4.675  -0.517   8.455  1.00  0.00     0.159 HD
ATOM     48  H   UNL     1       4.692   3.315   7.209  1.00  0.00     0.159 HD
ATOM     49  H   UNL     1       3.952   2.835   8.703  1.00  0.00     0.159 HD
ENDBRANCH  41  42
ENDBRANCH  40  41
ENDBRANCH  39  40
ENDBRANCH  38  39
ENDBRANCH  36  38
ENDBRANCH   5  34
BRANCH   8  50
ATOM     50  O   UNL     1       5.742  -9.333   7.375  1.00  0.00    -0.245 OA
BRANCH  50  51
ATOM     51  S   UNL     1       4.817  -9.961   6.194  1.00  0.00     0.397 S 
ATOM     52  O   UNL     1       4.093 -11.085   6.744  1.00  0.00    -0.169 OA
ATOM     53  O   UNL     1       5.594 -10.080   4.978  1.00  0.00    -0.169 OA
BRANCH  51  54
ATOM     54  O   UNL     1       3.724  -8.802   5.972  1.00  0.00    -0.264 OA
ATOM     55  H   UNL     1       3.458  -8.819   5.030  1.00  0.00     0.236 HD
ENDBRANCH  51  54
ENDBRANCH  50  51
ENDBRANCH   8  50
TORSDOF 19
ENDMDL
MODEL 38
REMARK VINA RESULT:    -6.229      5.149      8.570
REMARK INTER + INTRA:         -15.007
REMARK INTER:                 -12.110
REMARK INTRA:                  -2.898
REMARK UNBOUND:                -2.405
REMARK SMILES CC[C@@H](C)[C@@H](NC(=O)[C@@H](O)Cc1ccc(O)c(Cl)c1)C(=O)N1[C@H](C(=O)NCCCCN=C(N)N)C[C@H]2CC[C@H](OS(=O)(=O)O)C[C@@H]21
REMARK SMILES IDX 22 1 36 2 46 3 35 4 23 5 45 6 37 7 39 8 38 9 20 10 21 11
REMARK SMILES IDX 5 12 6 13 7 14 8 15 9 17 11 18 12 19 17 20 19 21 15 22 14 23
REMARK SMILES IDX 13 24 18 25 16 26 10 28 3 30 4 31 2 32 1 33 24 34 25 35
REMARK SMILES IDX 26 36 27 38 28 39 29 40 30 41 31 42 32 43 33 44 34 45 40 50
REMARK SMILES IDX 41 51 42 52 43 53 44 54
REMARK H PARENT 6 16 16 27 10 29 26 37 33 46 33 47 34 48 34 49 44 55
ROOT
ATOM      1  N   UNL     1       3.552   7.903   3.238  1.00  0.00    -0.326 N 
ATOM      2  C   UNL     1       2.163   6.445   4.457  1.00  0.00     0.014 C 
ATOM      3  C   UNL     1       3.591   6.612   3.930  1.00  0.00     0.091 C 
ATOM      4  C   UNL     1       1.325   7.095   3.367  1.00  0.00     0.041 C 
ATOM      5  C   UNL     1       2.149   8.371   3.114  1.00  0.00     0.175 C 
ATOM      6  C   UNL     1       4.560   6.445   5.099  1.00  0.00     0.059 C 
ATOM      7  C   UNL     1       1.892   5.004   4.843  1.00  0.00     0.008 C 
ATOM      8  C   UNL     1       4.062   5.465   6.183  1.00  0.00     0.143 C 
ATOM      9  C   UNL     1       3.092   4.412   5.612  1.00  0.00     0.034 C 
ENDROOT
BRANCH   1  10
ATOM     10  C   UNL     1       4.549   8.571   2.547  1.00  0.00     0.246 C 
ATOM     11  O   UNL     1       5.690   8.602   3.020  1.00  0.00    -0.272 OA
BRANCH  10  12
ATOM     12  C   UNL     1       4.223   9.227   1.174  1.00  0.00     0.174 C 
BRANCH  12  13
ATOM     13  N   UNL     1       4.700   8.373   0.087  1.00  0.00    -0.342 N 
ATOM     14  C   UNL     1       4.055   7.248  -0.375  1.00  0.00     0.249 C 
ATOM     15  O   UNL     1       2.983   6.849   0.061  1.00  0.00    -0.272 OA
ATOM     16  H   UNL     1       5.648   8.487  -0.264  1.00  0.00     0.164 HD
BRANCH  14  17
ATOM     17  C   UNL     1       4.820   6.551  -1.521  1.00  0.00     0.207 C 
BRANCH  17  18
ATOM     18  C   UNL     1       5.118   7.545  -2.648  1.00  0.00     0.077 C 
BRANCH  18  19
ATOM     19  C   UNL     1       4.073   7.485  -3.740  1.00  0.00    -0.043 A 
ATOM     20  C   UNL     1       3.479   7.134  -6.065  1.00  0.00     0.083 A 
ATOM     21  C   UNL     1       4.436   7.140  -5.051  1.00  0.00     0.028 A 
ATOM     22  C   UNL     1       2.156   7.474  -5.779  1.00  0.00     0.134 A 
ATOM     23  C   UNL     1       1.782   7.818  -4.485  1.00  0.00     0.048 A 
ATOM     24  C   UNL     1       2.739   7.826  -3.468  1.00  0.00     0.008 A 
ATOM     25  Cl  UNL     1       3.945   6.707  -7.670  1.00  0.00    -0.080 Cl
BRANCH  22  26
ATOM     26  O   UNL     1       1.184   7.492  -6.742  1.00  0.00    -0.506 OA
ATOM     27  H   UNL     1       0.903   6.568  -6.875  1.00  0.00     0.293 HD
ENDBRANCH  22  26
ENDBRANCH  18  19
ENDBRANCH  17  18
BRANCH  17  28
ATOM     28  O   UNL     1       4.070   5.445  -2.046  1.00  0.00    -0.383 OA
ATOM     29  H   UNL     1       3.544   5.805  -2.796  1.00  0.00     0.211 HD
ENDBRANCH  17  28
ENDBRANCH  14  17
ENDBRANCH  12  13
BRANCH  12  30
ATOM     30  C   UNL     1       4.756  10.681   1.063  1.00  0.00     0.018 C 
ATOM     31  C   UNL     1       3.618  11.656   0.724  1.00  0.00     0.010 C 
BRANCH  30  32
ATOM     32  C   UNL     1       5.915  10.842   0.049  1.00  0.00     0.002 C 
ATOM     33  C   UNL     1       5.579  11.647  -1.200  1.00  0.00     0.004 C 
ENDBRANCH  30  32
ENDBRANCH  12  30
ENDBRANCH  10  12
ENDBRANCH   1  10
BRANCH   5  34
ATOM     34  C   UNL     1       1.840   9.469   4.167  1.00  0.00     0.242 C 
ATOM     35  O   UNL     1       2.618   9.739   5.083  1.00  0.00    -0.273 OA
ATOM     36  N   UNL     1       0.613  10.078   4.036  1.00  0.00    -0.354 N 
ATOM     37  H   UNL     1      -0.037   9.728   3.331  1.00  0.00     0.163 HD
BRANCH  36  38
ATOM     38  C   UNL     1       0.252  11.261   4.790  1.00  0.00     0.116 C 
BRANCH  38  39
ATOM     39  C   UNL     1      -0.973  10.971   5.653  1.00  0.00     0.023 C 
BRANCH  39  40
ATOM     40  C   UNL     1      -1.753   9.754   5.168  1.00  0.00     0.026 C 
BRANCH  40  41
ATOM     41  C   UNL     1      -1.627   8.599   6.161  1.00  0.00     0.146 C 
BRANCH  41  42
ATOM     42  N   UNL     1      -0.241   8.465   6.589  1.00  0.00    -0.254 NA
ATOM     43  C   UNL     1       0.023   7.947   7.729  1.00  0.00     0.185 C 
ATOM     44  N   UNL     1      -0.805   7.467   8.674  1.00  0.00    -0.370 N 
ATOM     45  N   UNL     1       1.308   7.837   8.106  1.00  0.00    -0.370 N 
ATOM     46  H   UNL     1      -0.479   7.318   9.614  1.00  0.00     0.159 HD
ATOM     47  H   UNL     1      -1.812   7.461   8.547  1.00  0.00     0.159 HD
ATOM     48  H   UNL     1       1.999   8.168   7.446  1.00  0.00     0.159 HD
ATOM     49  H   UNL     1       1.605   7.241   8.858  1.00  0.00     0.159 HD
ENDBRANCH  41  42
ENDBRANCH  40  41
ENDBRANCH  39  40
ENDBRANCH  38  39
ENDBRANCH  36  38
ENDBRANCH   5  34
BRANCH   8  50
ATOM     50  O   UNL     1       3.394   6.182   7.222  1.00  0.00    -0.245 OA
BRANCH  50  51
ATOM     51  S   UNL     1       3.497   5.654   8.757  1.00  0.00     0.397 S 
ATOM     52  O   UNL     1       2.303   4.894   9.049  1.00  0.00    -0.169 OA
ATOM     53  O   UNL     1       3.939   6.735   9.613  1.00  0.00    -0.169 OA
BRANCH  51  54
ATOM     54  O   UNL     1       4.689   4.578   8.662  1.00  0.00    -0.264 OA
ATOM     55  H   UNL     1       4.575   3.941   9.397  1.00  0.00     0.236 HD
ENDBRANCH  51  54
ENDBRANCH  50  51
ENDBRANCH   8  50
TORSDOF 19
ENDMDL
MODEL 39
REMARK VINA RESULT:    -6.228      4.481      7.783
REMARK INTER + INTRA:         -15.005
REMARK INTER:                 -12.265
REMARK INTRA:                  -2.740
REMARK UNBOUND:                -2.405
REMARK SMILES CC[C@@H](C)[C@@H](NC(=O)[C@@H](O)Cc1ccc(O)c(Cl)c1)C(=O)N1[C@H](C(=O)NCCCCN=C(N)N)C[C@H]2CC[C@H](OS(=O)(=O)O)C[C@@H]21
REMARK SMILES IDX 22 1 36 2 46 3 35 4 23 5 45 6 37 7 39 8 38 9 20 10 21 11
REMARK SMILES IDX 5 12 6 13 7 14 8 15 9 17 11 18 12 19 17 20 19 21 15 22 14 23
REMARK SMILES IDX 13 24 18 25 16 26 10 28 3 30 4 31 2 32 1 33 24 34 25 35
REMARK SMILES IDX 26 36 27 38 28 39 29 40 30 41 31 42 32 43 33 44 34 45 40 50
REMARK SMILES IDX 41 51 42 52 43 53 44 54
REMARK H PARENT 6 16 16 27 10 29 26 37 33 46 33 47 34 48 34 49 44 55
ROOT
ATOM      1  N   UNL     1       2.859   9.044   3.613  1.00  0.00    -0.326 N 
ATOM      2  C   UNL     1       1.259   7.381   4.079  1.00  0.00     0.014 C 
ATOM      3  C   UNL     1       2.602   7.620   3.383  1.00  0.00     0.091 C 
ATOM      4  C   UNL     1       0.524   8.693   3.848  1.00  0.00     0.041 C 
ATOM      5  C   UNL     1       1.648   9.695   4.172  1.00  0.00     0.175 C 
ATOM      6  C   UNL     1       3.611   6.606   3.920  1.00  0.00     0.059 C 
ATOM      7  C   UNL     1       0.629   6.084   3.612  1.00  0.00     0.008 C 
ATOM      8  C   UNL     1       2.981   5.254   4.319  1.00  0.00     0.143 C 
ATOM      9  C   UNL     1       1.686   4.963   3.532  1.00  0.00     0.034 C 
ENDROOT
BRANCH   1  10
ATOM     10  C   UNL     1       3.919   9.833   3.200  1.00  0.00     0.246 C 
ATOM     11  O   UNL     1       4.836  10.071   3.993  1.00  0.00    -0.272 OA
BRANCH  10  12
ATOM     12  C   UNL     1       3.954  10.366   1.738  1.00  0.00     0.174 C 
BRANCH  12  13
ATOM     13  N   UNL     1       4.684   9.430   0.884  1.00  0.00    -0.342 N 
ATOM     14  C   UNL     1       4.463   9.253  -0.464  1.00  0.00     0.249 C 
ATOM     15  O   UNL     1       3.638   9.889  -1.109  1.00  0.00    -0.272 OA
ATOM     16  H   UNL     1       5.286   8.727   1.305  1.00  0.00     0.164 HD
BRANCH  14  17
ATOM     17  C   UNL     1       5.383   8.179  -1.082  1.00  0.00     0.207 C 
BRANCH  17  18
ATOM     18  C   UNL     1       4.732   6.795  -0.984  1.00  0.00     0.077 C 
BRANCH  18  19
ATOM     19  C   UNL     1       3.440   6.725  -1.768  1.00  0.00    -0.043 A 
ATOM     20  C   UNL     1       2.209   7.081  -3.827  1.00  0.00     0.083 A 
ATOM     21  C   UNL     1       3.412   7.099  -3.121  1.00  0.00     0.028 A 
ATOM     22  C   UNL     1       1.030   6.691  -3.190  1.00  0.00     0.134 A 
ATOM     23  C   UNL     1       1.045   6.317  -1.851  1.00  0.00     0.048 A 
ATOM     24  C   UNL     1       2.247   6.337  -1.140  1.00  0.00     0.008 A 
ATOM     25  Cl  UNL     1       2.193   7.544  -5.488  1.00  0.00    -0.080 Cl
BRANCH  22  26
ATOM     26  O   UNL     1      -0.175   6.667  -3.839  1.00  0.00    -0.506 OA
ATOM     27  H   UNL     1      -0.836   6.363  -3.190  1.00  0.00     0.293 HD
ENDBRANCH  22  26
ENDBRANCH  18  19
ENDBRANCH  17  18
BRANCH  17  28
ATOM     28  O   UNL     1       6.660   8.152  -0.426  1.00  0.00    -0.383 OA
ATOM     29  H   UNL     1       6.927   7.205  -0.389  1.00  0.00     0.211 HD
ENDBRANCH  17  28
ENDBRANCH  14  17
ENDBRANCH  12  13
BRANCH  12  30
ATOM     30  C   UNL     1       4.508  11.813   1.640  1.00  0.00     0.018 C 
ATOM     31  C   UNL     1       3.528  12.723   0.883  1.00  0.00     0.010 C 
BRANCH  30  32
ATOM     32  C   UNL     1       5.915  11.897   1.001  1.00  0.00     0.002 C 
ATOM     33  C   UNL     1       7.081  11.816   1.978  1.00  0.00     0.004 C 
ENDBRANCH  30  32
ENDBRANCH  12  30
ENDBRANCH  10  12
ENDBRANCH   1  10
BRANCH   5  34
ATOM     34  C   UNL     1       1.796   9.914   5.701  1.00  0.00     0.242 C 
ATOM     35  O   UNL     1       0.898  10.402   6.386  1.00  0.00    -0.273 OA
ATOM     36  N   UNL     1       3.023   9.573   6.225  1.00  0.00    -0.354 N 
ATOM     37  H   UNL     1       3.767   9.286   5.588  1.00  0.00     0.163 HD
BRANCH  36  38
ATOM     38  C   UNL     1       3.264   9.508   7.652  1.00  0.00     0.116 C 
BRANCH  38  39
ATOM     39  C   UNL     1       2.920   8.114   8.172  1.00  0.00     0.023 C 
BRANCH  39  40
ATOM     40  C   UNL     1       2.067   8.158   9.435  1.00  0.00     0.026 C 
BRANCH  40  41
ATOM     41  C   UNL     1       0.803   7.315   9.265  1.00  0.00     0.146 C 
BRANCH  41  42
ATOM     42  N   UNL     1       0.530   6.583  10.495  1.00  0.00    -0.254 NA
ATOM     43  C   UNL     1      -0.310   7.053  11.338  1.00  0.00     0.185 C 
ATOM     44  N   UNL     1      -1.042   8.181  11.294  1.00  0.00    -0.370 N 
ATOM     45  N   UNL     1      -0.545   6.364  12.468  1.00  0.00    -0.370 N 
ATOM     46  H   UNL     1      -1.471   8.547  12.127  1.00  0.00     0.159 HD
ATOM     47  H   UNL     1      -0.998   8.815  10.502  1.00  0.00     0.159 HD
ATOM     48  H   UNL     1      -0.039   5.495  12.576  1.00  0.00     0.159 HD
ATOM     49  H   UNL     1      -1.343   6.535  13.053  1.00  0.00     0.159 HD
ENDBRANCH  41  42
ENDBRANCH  40  41
ENDBRANCH  39  40
ENDBRANCH  38  39
ENDBRANCH  36  38
ENDBRANCH   5  34
BRANCH   8  50
ATOM     50  O   UNL     1       2.674   5.247   5.713  1.00  0.00    -0.245 OA
BRANCH  50  51
ATOM     51  S   UNL     1       3.649   4.454   6.746  1.00  0.00     0.397 S 
ATOM     52  O   UNL     1       4.853   5.236   6.914  1.00  0.00    -0.169 OA
ATOM     53  O   UNL     1       3.697   3.051   6.388  1.00  0.00    -0.169 OA
BRANCH  51  54
ATOM     54  O   UNL     1       2.846   4.584   8.133  1.00  0.00    -0.264 OA
ATOM     55  H   UNL     1       1.896   4.690   7.919  1.00  0.00     0.236 HD
ENDBRANCH  51  54
ENDBRANCH  50  51
ENDBRANCH   8  50
TORSDOF 19
ENDMDL
MODEL 40
REMARK VINA RESULT:    -6.195      3.883      7.023
REMARK INTER + INTRA:         -14.938
REMARK INTER:                 -11.161
REMARK INTRA:                  -3.777
REMARK UNBOUND:                -2.405
REMARK SMILES CC[C@@H](C)[C@@H](NC(=O)[C@@H](O)Cc1ccc(O)c(Cl)c1)C(=O)N1[C@H](C(=O)NCCCCN=C(N)N)C[C@H]2CC[C@H](OS(=O)(=O)O)C[C@@H]21
REMARK SMILES IDX 22 1 36 2 46 3 35 4 23 5 45 6 37 7 39 8 38 9 20 10 21 11
REMARK SMILES IDX 5 12 6 13 7 14 8 15 9 17 11 18 12 19 17 20 19 21 15 22 14 23
REMARK SMILES IDX 13 24 18 25 16 26 10 28 3 30 4 31 2 32 1 33 24 34 25 35
REMARK SMILES IDX 26 36 27 38 28 39 29 40 30 41 31 42 32 43 33 44 34 45 40 50
REMARK SMILES IDX 41 51 42 52 43 53 44 54
REMARK H PARENT 6 16 16 27 10 29 26 37 33 46 33 47 34 48 34 49 44 55
ROOT
ATOM      1  N   UNL     1       3.101   7.442   5.260  1.00  0.00    -0.326 N 
ATOM      2  C   UNL     1       1.637   9.047   4.353  1.00  0.00     0.014 C 
ATOM      3  C   UNL     1       2.920   8.894   5.174  1.00  0.00     0.091 C 
ATOM      4  C   UNL     1       0.810   7.850   4.797  1.00  0.00     0.041 C 
ATOM      5  C   UNL     1       1.886   6.749   4.764  1.00  0.00     0.175 C 
ATOM      6  C   UNL     1       4.019   9.723   4.512  1.00  0.00     0.059 C 
ATOM      7  C   UNL     1       1.063  10.443   4.499  1.00  0.00     0.008 C 
ATOM      8  C   UNL     1       3.498  10.992   3.802  1.00  0.00     0.143 C 
ATOM      9  C   UNL     1       2.182  11.503   4.421  1.00  0.00     0.034 C 
ENDROOT
BRANCH   1  10
ATOM     10  C   UNL     1       4.085   6.707   5.898  1.00  0.00     0.246 C 
ATOM     11  O   UNL     1       5.168   6.531   5.331  1.00  0.00    -0.272 OA
BRANCH  10  12
ATOM     12  C   UNL     1       3.822   6.154   7.329  1.00  0.00     0.174 C 
BRANCH  12  13
ATOM     13  N   UNL     1       4.056   4.711   7.358  1.00  0.00    -0.342 N 
ATOM     14  C   UNL     1       5.185   4.103   7.861  1.00  0.00     0.249 C 
ATOM     15  O   UNL     1       6.117   4.712   8.371  1.00  0.00    -0.272 OA
ATOM     16  H   UNL     1       3.446   4.091   6.831  1.00  0.00     0.164 HD
BRANCH  14  17
ATOM     17  C   UNL     1       5.141   2.566   7.731  1.00  0.00     0.207 C 
BRANCH  17  18
ATOM     18  C   UNL     1       4.557   2.159   6.374  1.00  0.00     0.077 C 
BRANCH  18  19
ATOM     19  C   UNL     1       5.198   0.897   5.842  1.00  0.00    -0.043 A 
ATOM     20  C   UNL     1       5.020  -1.421   5.149  1.00  0.00     0.083 A 
ATOM     21  C   UNL     1       4.418  -0.243   5.593  1.00  0.00     0.028 A 
ATOM     22  C   UNL     1       6.401  -1.469   4.953  1.00  0.00     0.134 A 
ATOM     23  C   UNL     1       7.185  -0.347   5.196  1.00  0.00     0.048 A 
ATOM     24  C   UNL     1       6.586   0.833   5.642  1.00  0.00     0.008 A 
ATOM     25  Cl  UNL     1       4.045  -2.811   4.849  1.00  0.00    -0.080 Cl
BRANCH  22  26
ATOM     26  O   UNL     1       7.037  -2.604   4.530  1.00  0.00    -0.506 OA
ATOM     27  H   UNL     1       7.778  -2.315   3.965  1.00  0.00     0.293 HD
ENDBRANCH  22  26
ENDBRANCH  18  19
ENDBRANCH  17  18
BRANCH  17  28
ATOM     28  O   UNL     1       4.356   1.980   8.782  1.00  0.00    -0.383 OA
ATOM     29  H   UNL     1       3.477   1.781   8.387  1.00  0.00     0.211 HD
ENDBRANCH  17  28
ENDBRANCH  14  17
ENDBRANCH  12  13
BRANCH  12  30
ATOM     30  C   UNL     1       2.419   6.538   7.872  1.00  0.00     0.018 C 
ATOM     31  C   UNL     1       2.493   7.813   8.727  1.00  0.00     0.010 C 
BRANCH  30  32
ATOM     32  C   UNL     1       1.729   5.403   8.668  1.00  0.00     0.002 C 
ATOM     33  C   UNL     1       1.559   5.665  10.159  1.00  0.00     0.004 C 
ENDBRANCH  30  32
ENDBRANCH  12  30
ENDBRANCH  10  12
ENDBRANCH   1  10
BRANCH   5  34
ATOM     34  C   UNL     1       2.109   6.209   3.326  1.00  0.00     0.242 C 
ATOM     35  O   UNL     1       3.200   6.275   2.760  1.00  0.00    -0.273 OA
ATOM     36  N   UNL     1       0.986   5.702   2.711  1.00  0.00    -0.354 N 
ATOM     37  H   UNL     1       0.086   5.784   3.186  1.00  0.00     0.163 HD
BRANCH  36  38
ATOM     38  C   UNL     1       1.053   4.966   1.465  1.00  0.00     0.116 C 
BRANCH  38  39
ATOM     39  C   UNL     1       0.308   5.729   0.373  1.00  0.00     0.023 C 
BRANCH  39  40
ATOM     40  C   UNL     1       1.045   5.704  -0.962  1.00  0.00     0.026 C 
BRANCH  40  41
ATOM     41  C   UNL     1       2.558   5.737  -0.746  1.00  0.00     0.146 C 
BRANCH  41  42
ATOM     42  N   UNL     1       3.128   6.892  -1.428  1.00  0.00    -0.254 NA
ATOM     43  C   UNL     1       3.598   7.864  -0.741  1.00  0.00     0.185 C 
ATOM     44  N   UNL     1       3.669   8.027   0.593  1.00  0.00    -0.370 N 
ATOM     45  N   UNL     1       4.115   8.921  -1.388  1.00  0.00    -0.370 N 
ATOM     46  H   UNL     1       3.836   8.935   0.991  1.00  0.00     0.159 HD
ATOM     47  H   UNL     1       3.334   7.315   1.235  1.00  0.00     0.159 HD
ATOM     48  H   UNL     1       4.109   8.875  -2.398  1.00  0.00     0.159 HD
ATOM     49  H   UNL     1       4.706   9.598  -0.939  1.00  0.00     0.159 HD
ENDBRANCH  41  42
ENDBRANCH  40  41
ENDBRANCH  39  40
ENDBRANCH  38  39
ENDBRANCH  36  38
ENDBRANCH   5  34
BRANCH   8  50
ATOM     50  O   UNL     1       3.274  10.722   2.418  1.00  0.00    -0.245 OA
BRANCH  50  51
ATOM     51  S   UNL     1       4.198  11.453   1.297  1.00  0.00     0.397 S 
ATOM     52  O   UNL     1       4.792  12.624   1.903  1.00  0.00    -0.169 OA
ATOM     53  O   UNL     1       3.474  11.530   0.045  1.00  0.00    -0.169 OA
BRANCH  51  54
ATOM     54  O   UNL     1       5.398  10.399   1.112  1.00  0.00    -0.264 OA
ATOM     55  H   UNL     1       6.113  10.845   0.613  1.00  0.00     0.236 HD
ENDBRANCH  51  54
ENDBRANCH  50  51
ENDBRANCH   8  50
TORSDOF 19
ENDMDL
MODEL 41
REMARK VINA RESULT:    -6.137      6.238      9.551
REMARK INTER + INTRA:         -14.820
REMARK INTER:                 -11.338
REMARK INTRA:                  -3.483
REMARK UNBOUND:                -2.405
REMARK SMILES CC[C@@H](C)[C@@H](NC(=O)[C@@H](O)Cc1ccc(O)c(Cl)c1)C(=O)N1[C@H](C(=O)NCCCCN=C(N)N)C[C@H]2CC[C@H](OS(=O)(=O)O)C[C@@H]21
REMARK SMILES IDX 22 1 36 2 46 3 35 4 23 5 45 6 37 7 39 8 38 9 20 10 21 11
REMARK SMILES IDX 5 12 6 13 7 14 8 15 9 17 11 18 12 19 17 20 19 21 15 22 14 23
REMARK SMILES IDX 13 24 18 25 16 26 10 28 3 30 4 31 2 32 1 33 24 34 25 35
REMARK SMILES IDX 26 36 27 38 28 39 29 40 30 41 31 42 32 43 33 44 34 45 40 50
REMARK SMILES IDX 41 51 42 52 43 53 44 54
REMARK H PARENT 6 16 16 27 10 29 26 37 33 46 33 47 34 48 34 49 44 55
ROOT
ATOM      1  N   UNL     1       8.115   9.687   1.727  1.00  0.00    -0.326 N 
ATOM      2  C   UNL     1       8.205   8.460   3.734  1.00  0.00     0.014 C 
ATOM      3  C   UNL     1       9.080   9.038   2.618  1.00  0.00     0.091 C 
ATOM      4  C   UNL     1       6.937   8.063   2.994  1.00  0.00     0.041 C 
ATOM      5  C   UNL     1       6.733   9.312   2.115  1.00  0.00     0.175 C 
ATOM      6  C   UNL     1      10.170   9.898   3.255  1.00  0.00     0.059 C 
ATOM      7  C   UNL     1       8.961   7.413   4.528  1.00  0.00     0.008 C 
ATOM      8  C   UNL     1      10.620   9.402   4.646  1.00  0.00     0.143 C 
ATOM      9  C   UNL     1      10.401   7.885   4.818  1.00  0.00     0.034 C 
ENDROOT
BRANCH   1  10
ATOM     10  C   UNL     1       8.321  10.364   0.536  1.00  0.00     0.246 C 
ATOM     11  O   UNL     1       8.644  11.555   0.570  1.00  0.00    -0.272 OA
BRANCH  10  12
ATOM     12  C   UNL     1       8.183   9.601  -0.813  1.00  0.00     0.174 C 
BRANCH  12  13
ATOM     13  N   UNL     1       6.824   9.078  -0.954  1.00  0.00    -0.342 N 
ATOM     14  C   UNL     1       5.749   9.792  -1.435  1.00  0.00     0.249 C 
ATOM     15  O   UNL     1       5.820  10.950  -1.828  1.00  0.00    -0.272 OA
ATOM     16  H   UNL     1       6.579   8.190  -0.525  1.00  0.00     0.164 HD
BRANCH  14  17
ATOM     17  C   UNL     1       4.444   8.968  -1.445  1.00  0.00     0.207 C 
BRANCH  17  18
ATOM     18  C   UNL     1       4.707   7.541  -0.953  1.00  0.00     0.077 C 
BRANCH  18  19
ATOM     19  C   UNL     1       3.627   7.065  -0.008  1.00  0.00    -0.043 A 
ATOM     20  C   UNL     1       1.599   5.798   0.399  1.00  0.00     0.083 A 
ATOM     21  C   UNL     1       2.621   6.197  -0.462  1.00  0.00     0.028 A 
ATOM     22  C   UNL     1       1.573   6.263   1.715  1.00  0.00     0.134 A 
ATOM     23  C   UNL     1       2.563   7.122   2.177  1.00  0.00     0.048 A 
ATOM     24  C   UNL     1       3.587   7.525   1.317  1.00  0.00     0.008 A 
ATOM     25  Cl  UNL     1       0.372   4.732  -0.177  1.00  0.00    -0.080 Cl
BRANCH  22  26
ATOM     26  O   UNL     1       0.585   5.908   2.593  1.00  0.00    -0.506 OA
ATOM     27  H   UNL     1       0.523   4.935   2.567  1.00  0.00     0.293 HD
ENDBRANCH  22  26
ENDBRANCH  18  19
ENDBRANCH  17  18
BRANCH  17  28
ATOM     28  O   UNL     1       3.873   8.920  -2.763  1.00  0.00    -0.383 OA
ATOM     29  H   UNL     1       4.469   9.453  -3.337  1.00  0.00     0.211 HD
ENDBRANCH  17  28
ENDBRANCH  14  17
ENDBRANCH  12  13
BRANCH  12  30
ATOM     30  C   UNL     1       9.262   8.499  -0.993  1.00  0.00     0.018 C 
ATOM     31  C   UNL     1       9.765   8.458  -2.444  1.00  0.00     0.010 C 
BRANCH  30  32
ATOM     32  C   UNL     1       8.793   7.091  -0.552  1.00  0.00     0.002 C 
ATOM     33  C   UNL     1       9.781   6.315   0.309  1.00  0.00     0.004 C 
ENDBRANCH  30  32
ENDBRANCH  12  30
ENDBRANCH  10  12
ENDBRANCH   1  10
BRANCH   5  34
ATOM     34  C   UNL     1       6.051  10.461   2.904  1.00  0.00     0.242 C 
ATOM     35  O   UNL     1       6.617  11.531   3.127  1.00  0.00    -0.273 OA
ATOM     36  N   UNL     1       4.792  10.177   3.383  1.00  0.00    -0.354 N 
ATOM     37  H   UNL     1       4.425   9.231   3.269  1.00  0.00     0.163 HD
BRANCH  36  38
ATOM     38  C   UNL     1       3.931  11.195   3.948  1.00  0.00     0.116 C 
BRANCH  38  39
ATOM     39  C   UNL     1       2.477  10.732   3.898  1.00  0.00     0.023 C 
BRANCH  39  40
ATOM     40  C   UNL     1       1.639  11.321   5.027  1.00  0.00     0.026 C 
BRANCH  40  41
ATOM     41  C   UNL     1       0.166  10.945   4.862  1.00  0.00     0.146 C 
BRANCH  41  42
ATOM     42  N   UNL     1      -0.230  10.029   5.923  1.00  0.00    -0.254 NA
ATOM     43  C   UNL     1      -0.348   8.780   5.670  1.00  0.00     0.185 C 
ATOM     44  N   UNL     1      -0.158   8.109   4.519  1.00  0.00    -0.370 N 
ATOM     45  N   UNL     1      -0.719   7.953   6.661  1.00  0.00    -0.370 N 
ATOM     46  H   UNL     1      -0.521   7.178   4.403  1.00  0.00     0.159 HD
ATOM     47  H   UNL     1       0.139   8.580   3.670  1.00  0.00     0.159 HD
ATOM     48  H   UNL     1      -0.875   8.377   7.565  1.00  0.00     0.159 HD
ATOM     49  H   UNL     1      -0.605   6.956   6.609  1.00  0.00     0.159 HD
ENDBRANCH  41  42
ENDBRANCH  40  41
ENDBRANCH  39  40
ENDBRANCH  38  39
ENDBRANCH  36  38
ENDBRANCH   5  34
BRANCH   8  50
ATOM     50  O   UNL     1       9.893  10.084   5.669  1.00  0.00    -0.245 OA
BRANCH  50  51
ATOM     51  S   UNL     1      10.668  10.580   7.010  1.00  0.00     0.397 S 
ATOM     52  O   UNL     1      11.579  11.638   6.633  1.00  0.00    -0.169 OA
ATOM     53  O   UNL     1      11.112   9.430   7.769  1.00  0.00    -0.169 OA
BRANCH  51  54
ATOM     54  O   UNL     1       9.487  11.293   7.836  1.00  0.00    -0.264 OA
ATOM     55  H   UNL     1       9.543  12.256   7.667  1.00  0.00     0.236 HD
ENDBRANCH  51  54
ENDBRANCH  50  51
ENDBRANCH   8  50
TORSDOF 19
ENDMDL
MODEL 42
REMARK VINA RESULT:    -6.127      7.279     10.526
REMARK INTER + INTRA:         -14.801
REMARK INTER:                 -11.231
REMARK INTRA:                  -3.570
REMARK UNBOUND:                -2.405
REMARK SMILES CC[C@@H](C)[C@@H](NC(=O)[C@@H](O)Cc1ccc(O)c(Cl)c1)C(=O)N1[C@H](C(=O)NCCCCN=C(N)N)C[C@H]2CC[C@H](OS(=O)(=O)O)C[C@@H]21
REMARK SMILES IDX 22 1 36 2 46 3 35 4 23 5 45 6 37 7 39 8 38 9 20 10 21 11
REMARK SMILES IDX 5 12 6 13 7 14 8 15 9 17 11 18 12 19 17 20 19 21 15 22 14 23
REMARK SMILES IDX 13 24 18 25 16 26 10 28 3 30 4 31 2 32 1 33 24 34 25 35
REMARK SMILES IDX 26 36 27 38 28 39 29 40 30 41 31 42 32 43 33 44 34 45 40 50
REMARK SMILES IDX 41 51 42 52 43 53 44 54
REMARK H PARENT 6 16 16 27 10 29 26 37 33 46 33 47 34 48 34 49 44 55
ROOT
ATOM      1  N   UNL     1       4.504  10.328   2.706  1.00  0.00    -0.326 N 
ATOM      2  C   UNL     1       5.287   9.028   4.505  1.00  0.00     0.014 C 
ATOM      3  C   UNL     1       5.185  10.469   3.996  1.00  0.00     0.091 C 
ATOM      4  C   UNL     1       5.490   8.234   3.224  1.00  0.00     0.041 C 
ATOM      5  C   UNL     1       4.432   8.896   2.323  1.00  0.00     0.175 C 
ATOM      6  C   UNL     1       4.519  11.318   5.078  1.00  0.00     0.059 C 
ATOM      7  C   UNL     1       6.311   8.919   5.618  1.00  0.00     0.008 C 
ATOM      8  C   UNL     1       4.825  10.844   6.515  1.00  0.00     0.143 C 
ATOM      9  C   UNL     1       6.171  10.097   6.605  1.00  0.00     0.034 C 
ENDROOT
BRANCH   1  10
ATOM     10  C   UNL     1       4.153  11.293   1.777  1.00  0.00     0.246 C 
ATOM     11  O   UNL     1       3.028  11.800   1.831  1.00  0.00    -0.272 OA
BRANCH  10  12
ATOM     12  C   UNL     1       5.195  11.750   0.715  1.00  0.00     0.174 C 
BRANCH  12  13
ATOM     13  N   UNL     1       5.848  10.582   0.122  1.00  0.00    -0.342 N 
ATOM     14  C   UNL     1       5.409   9.916  -0.999  1.00  0.00     0.249 C 
ATOM     15  O   UNL     1       4.425  10.249  -1.649  1.00  0.00    -0.272 OA
ATOM     16  H   UNL     1       6.580  10.099   0.637  1.00  0.00     0.164 HD
BRANCH  14  17
ATOM     17  C   UNL     1       6.303   8.712  -1.365  1.00  0.00     0.207 C 
BRANCH  17  18
ATOM     18  C   UNL     1       7.070   8.989  -2.661  1.00  0.00     0.077 C 
BRANCH  18  19
ATOM     19  C   UNL     1       8.557   9.119  -2.417  1.00  0.00    -0.043 A 
ATOM     20  C   UNL     1      10.560  10.484  -2.317  1.00  0.00     0.083 A 
ATOM     21  C   UNL     1       9.180  10.374  -2.494  1.00  0.00     0.028 A 
ATOM     22  C   UNL     1      11.324   9.344  -2.064  1.00  0.00     0.134 A 
ATOM     23  C   UNL     1      10.720   8.095  -1.986  1.00  0.00     0.048 A 
ATOM     24  C   UNL     1       9.339   7.982  -2.164  1.00  0.00     0.008 A 
ATOM     25  Cl  UNL     1      11.308  12.035  -2.414  1.00  0.00    -0.080 Cl
BRANCH  22  26
ATOM     26  O   UNL     1      12.681   9.400  -1.894  1.00  0.00    -0.506 OA
ATOM     27  H   UNL     1      12.865   9.062  -0.998  1.00  0.00     0.293 HD
ENDBRANCH  22  26
ENDBRANCH  18  19
ENDBRANCH  17  18
BRANCH  17  28
ATOM     28  O   UNL     1       5.522   7.516  -1.520  1.00  0.00    -0.383 OA
ATOM     29  H   UNL     1       5.367   7.415  -2.487  1.00  0.00     0.211 HD
ENDBRANCH  17  28
ENDBRANCH  14  17
ENDBRANCH  12  13
BRANCH  12  30
ATOM     30  C   UNL     1       6.215  12.776   1.277  1.00  0.00     0.018 C 
ATOM     31  C   UNL     1       7.468  12.066   1.811  1.00  0.00     0.010 C 
BRANCH  30  32
ATOM     32  C   UNL     1       5.625  13.705   2.366  1.00  0.00     0.002 C 
ATOM     33  C   UNL     1       6.544  13.991   3.546  1.00  0.00     0.004 C 
ENDBRANCH  30  32
ENDBRANCH  12  30
ENDBRANCH  10  12
ENDBRANCH   1  10
BRANCH   5  34
ATOM     34  C   UNL     1       3.014   8.326   2.590  1.00  0.00     0.242 C 
ATOM     35  O   UNL     1       2.159   8.954   3.213  1.00  0.00    -0.273 OA
ATOM     36  N   UNL     1       2.801   7.046   2.128  1.00  0.00    -0.354 N 
ATOM     37  H   UNL     1       3.586   6.532   1.725  1.00  0.00     0.163 HD
BRANCH  36  38
ATOM     38  C   UNL     1       1.484   6.444   2.098  1.00  0.00     0.116 C 
BRANCH  38  39
ATOM     39  C   UNL     1       1.354   5.542   0.873  1.00  0.00     0.023 C 
BRANCH  39  40
ATOM     40  C   UNL     1       2.394   5.858  -0.196  1.00  0.00     0.026 C 
BRANCH  40  41
ATOM     41  C   UNL     1       1.732   6.455  -1.438  1.00  0.00     0.146 C 
BRANCH  41  42
ATOM     42  N   UNL     1       2.643   7.393  -2.079  1.00  0.00    -0.254 NA
ATOM     43  C   UNL     1       2.660   7.487  -3.356  1.00  0.00     0.185 C 
ATOM     44  N   UNL     1       1.937   6.831  -4.282  1.00  0.00    -0.370 N 
ATOM     45  N   UNL     1       3.511   8.355  -3.928  1.00  0.00    -0.370 N 
ATOM     46  H   UNL     1       2.223   6.825  -5.246  1.00  0.00     0.159 HD
ATOM     47  H   UNL     1       1.235   6.145  -4.022  1.00  0.00     0.159 HD
ATOM     48  H   UNL     1       4.087   8.898  -3.299  1.00  0.00     0.159 HD
ATOM     49  H   UNL     1       3.421   8.656  -4.882  1.00  0.00     0.159 HD
ENDBRANCH  41  42
ENDBRANCH  40  41
ENDBRANCH  39  40
ENDBRANCH  38  39
ENDBRANCH  36  38
ENDBRANCH   5  34
BRANCH   8  50
ATOM     50  O   UNL     1       3.791   9.973   6.975  1.00  0.00    -0.245 OA
BRANCH  50  51
ATOM     51  S   UNL     1       2.573  10.574   7.869  1.00  0.00     0.397 S 
ATOM     52  O   UNL     1       2.953  11.897   8.310  1.00  0.00    -0.169 OA
ATOM     53  O   UNL     1       2.111   9.566   8.802  1.00  0.00    -0.169 OA
BRANCH  51  54
ATOM     54  O   UNL     1       1.423  10.793   6.766  1.00  0.00    -0.264 OA
ATOM     55  H   UNL     1       1.397   9.995   6.200  1.00  0.00     0.236 HD
ENDBRANCH  51  54
ENDBRANCH  50  51
ENDBRANCH   8  50
TORSDOF 19
ENDMDL
MODEL 43
REMARK VINA RESULT:    -6.122      3.050      5.955
REMARK INTER + INTRA:         -14.791
REMARK INTER:                 -11.725
REMARK INTRA:                  -3.066
REMARK UNBOUND:                -2.405
REMARK SMILES CC[C@@H](C)[C@@H](NC(=O)[C@@H](O)Cc1ccc(O)c(Cl)c1)C(=O)N1[C@H](C(=O)NCCCCN=C(N)N)C[C@H]2CC[C@H](OS(=O)(=O)O)C[C@@H]21
REMARK SMILES IDX 22 1 36 2 46 3 35 4 23 5 45 6 37 7 39 8 38 9 20 10 21 11
REMARK SMILES IDX 5 12 6 13 7 14 8 15 9 17 11 18 12 19 17 20 19 21 15 22 14 23
REMARK SMILES IDX 13 24 18 25 16 26 10 28 3 30 4 31 2 32 1 33 24 34 25 35
REMARK SMILES IDX 26 36 27 38 28 39 29 40 30 41 31 42 32 43 33 44 34 45 40 50
REMARK SMILES IDX 41 51 42 52 43 53 44 54
REMARK H PARENT 6 16 16 27 10 29 26 37 33 46 33 47 34 48 34 49 44 55
ROOT
ATOM      1  N   UNL     1       2.462   6.878   9.044  1.00  0.00    -0.326 N 
ATOM      2  C   UNL     1       0.334   6.918  10.052  1.00  0.00     0.014 C 
ATOM      3  C   UNL     1       1.833   6.922  10.367  1.00  0.00     0.091 C 
ATOM      4  C   UNL     1       0.256   6.036   8.815  1.00  0.00     0.041 C 
ATOM      5  C   UNL     1       1.440   6.596   8.005  1.00  0.00     0.175 C 
ATOM      6  C   UNL     1       2.132   8.117  11.271  1.00  0.00     0.059 C 
ATOM      7  C   UNL     1      -0.477   6.551  11.279  1.00  0.00     0.008 C 
ATOM      8  C   UNL     1       0.968   8.490  12.214  1.00  0.00     0.143 C 
ATOM      9  C   UNL     1       0.065   7.279  12.527  1.00  0.00     0.034 C 
ENDROOT
BRANCH   1  10
ATOM     10  C   UNL     1       3.802   6.843   8.699  1.00  0.00     0.246 C 
ATOM     11  O   UNL     1       4.649   7.147   9.546  1.00  0.00    -0.272 OA
BRANCH  10  12
ATOM     12  C   UNL     1       4.215   6.383   7.271  1.00  0.00     0.174 C 
BRANCH  12  13
ATOM     13  N   UNL     1       4.813   5.049   7.330  1.00  0.00    -0.342 N 
ATOM     14  C   UNL     1       4.287   3.921   6.741  1.00  0.00     0.249 C 
ATOM     15  O   UNL     1       3.262   3.916   6.071  1.00  0.00    -0.272 OA
ATOM     16  H   UNL     1       5.576   4.868   7.977  1.00  0.00     0.164 HD
BRANCH  14  17
ATOM     17  C   UNL     1       5.142   2.662   6.998  1.00  0.00     0.207 C 
BRANCH  17  18
ATOM     18  C   UNL     1       4.266   1.405   6.969  1.00  0.00     0.077 C 
BRANCH  18  19
ATOM     19  C   UNL     1       4.931   0.274   6.218  1.00  0.00    -0.043 A 
ATOM     20  C   UNL     1       4.885  -1.995   5.360  1.00  0.00     0.083 A 
ATOM     21  C   UNL     1       4.250  -0.936   6.010  1.00  0.00     0.028 A 
ATOM     22  C   UNL     1       6.200  -1.853   4.915  1.00  0.00     0.134 A 
ATOM     23  C   UNL     1       6.886  -0.661   5.113  1.00  0.00     0.048 A 
ATOM     24  C   UNL     1       6.254   0.400   5.766  1.00  0.00     0.008 A 
ATOM     25  Cl  UNL     1       4.032  -3.473   5.114  1.00  0.00    -0.080 Cl
BRANCH  22  26
ATOM     26  O   UNL     1       6.867  -2.867   4.281  1.00  0.00    -0.506 OA
ATOM     27  H   UNL     1       6.826  -2.675   3.326  1.00  0.00     0.293 HD
ENDBRANCH  22  26
ENDBRANCH  18  19
ENDBRANCH  17  18
BRANCH  17  28
ATOM     28  O   UNL     1       5.816   2.744   8.265  1.00  0.00    -0.383 OA
ATOM     29  H   UNL     1       6.773   2.835   8.058  1.00  0.00     0.211 HD
ENDBRANCH  17  28
ENDBRANCH  14  17
ENDBRANCH  12  13
BRANCH  12  30
ATOM     30  C   UNL     1       5.129   7.410   6.550  1.00  0.00     0.018 C 
ATOM     31  C   UNL     1       4.393   8.743   6.341  1.00  0.00     0.010 C 
BRANCH  30  32
ATOM     32  C   UNL     1       5.697   6.899   5.204  1.00  0.00     0.002 C 
ATOM     33  C   UNL     1       6.202   7.981   4.258  1.00  0.00     0.004 C 
ENDBRANCH  30  32
ENDBRANCH  12  30
ENDBRANCH  10  12
ENDBRANCH   1  10
BRANCH   5  34
ATOM     34  C   UNL     1       1.053   7.893   7.248  1.00  0.00     0.242 C 
ATOM     35  O   UNL     1       1.130   9.007   7.767  1.00  0.00    -0.273 OA
ATOM     36  N   UNL     1       0.567   7.705   5.973  1.00  0.00    -0.354 N 
ATOM     37  H   UNL     1       0.413   6.751   5.642  1.00  0.00     0.163 HD
BRANCH  36  38
ATOM     38  C   UNL     1       0.363   8.804   5.053  1.00  0.00     0.116 C 
BRANCH  38  39
ATOM     39  C   UNL     1       0.758   8.378   3.641  1.00  0.00     0.023 C 
BRANCH  39  40
ATOM     40  C   UNL     1       2.250   8.546   3.378  1.00  0.00     0.026 C 
BRANCH  40  41
ATOM     41  C   UNL     1       2.855   7.251   2.836  1.00  0.00     0.146 C 
BRANCH  41  42
ATOM     42  N   UNL     1       2.379   6.119   3.620  1.00  0.00    -0.254 NA
ATOM     43  C   UNL     1       1.722   5.182   3.046  1.00  0.00     0.185 C 
ATOM     44  N   UNL     1       1.365   5.040   1.757  1.00  0.00    -0.370 N 
ATOM     45  N   UNL     1       1.288   4.150   3.788  1.00  0.00    -0.370 N 
ATOM     46  H   UNL     1       0.648   4.386   1.492  1.00  0.00     0.159 HD
ATOM     47  H   UNL     1       1.624   5.725   1.053  1.00  0.00     0.159 HD
ATOM     48  H   UNL     1       1.522   4.175   4.771  1.00  0.00     0.159 HD
ATOM     49  H   UNL     1       0.984   3.281   3.386  1.00  0.00     0.159 HD
ENDBRANCH  41  42
ENDBRANCH  40  41
ENDBRANCH  39  40
ENDBRANCH  38  39
ENDBRANCH  36  38
ENDBRANCH   5  34
BRANCH   8  50
ATOM     50  O   UNL     1       0.166   9.512  11.622  1.00  0.00    -0.245 OA
BRANCH  50  51
ATOM     51  S   UNL     1      -0.808  10.414  12.562  1.00  0.00     0.397 S 
ATOM     52  O   UNL     1      -0.240  10.449  13.891  1.00  0.00    -0.169 OA
ATOM     53  O   UNL     1      -2.188  10.036  12.336  1.00  0.00    -0.169 OA
BRANCH  51  54
ATOM     54  O   UNL     1      -0.592  11.887  11.954  1.00  0.00    -0.264 OA
ATOM     55  H   UNL     1      -0.904  11.875  11.026  1.00  0.00     0.236 HD
ENDBRANCH  51  54
ENDBRANCH  50  51
ENDBRANCH   8  50
TORSDOF 19
ENDMDL
MODEL 44
REMARK VINA RESULT:    -6.105      8.920     13.641
REMARK INTER + INTRA:         -14.756
REMARK INTER:                 -12.223
REMARK INTRA:                  -2.533
REMARK UNBOUND:                -2.405
REMARK SMILES CC[C@@H](C)[C@@H](NC(=O)[C@@H](O)Cc1ccc(O)c(Cl)c1)C(=O)N1[C@H](C(=O)NCCCCN=C(N)N)C[C@H]2CC[C@H](OS(=O)(=O)O)C[C@@H]21
REMARK SMILES IDX 22 1 36 2 46 3 35 4 23 5 45 6 37 7 39 8 38 9 20 10 21 11
REMARK SMILES IDX 5 12 6 13 7 14 8 15 9 17 11 18 12 19 17 20 19 21 15 22 14 23
REMARK SMILES IDX 13 24 18 25 16 26 10 28 3 30 4 31 2 32 1 33 24 34 25 35
REMARK SMILES IDX 26 36 27 38 28 39 29 40 30 41 31 42 32 43 33 44 34 45 40 50
REMARK SMILES IDX 41 51 42 52 43 53 44 54
REMARK H PARENT 6 16 16 27 10 29 26 37 33 46 33 47 34 48 34 49 44 55
ROOT
ATOM      1  N   UNL     1       2.844  -2.991   8.394  1.00  0.00    -0.326 N 
ATOM      2  C   UNL     1       3.972  -2.667   6.353  1.00  0.00     0.014 C 
ATOM      3  C   UNL     1       3.191  -1.929   7.444  1.00  0.00     0.091 C 
ATOM      4  C   UNL     1       3.279  -4.020   6.301  1.00  0.00     0.041 C 
ATOM      5  C   UNL     1       3.151  -4.318   7.806  1.00  0.00     0.175 C 
ATOM      6  C   UNL     1       4.041  -0.762   7.942  1.00  0.00     0.059 C 
ATOM      7  C   UNL     1       4.063  -1.829   5.092  1.00  0.00     0.008 C 
ATOM      8  C   UNL     1       4.951  -0.149   6.856  1.00  0.00     0.143 C 
ATOM      9  C   UNL     1       4.384  -0.360   5.437  1.00  0.00     0.034 C 
ENDROOT
BRANCH   1  10
ATOM     10  C   UNL     1       2.122  -2.926   9.573  1.00  0.00     0.246 C 
ATOM     11  O   UNL     1       2.729  -2.848  10.647  1.00  0.00    -0.272 OA
BRANCH  10  12
ATOM     12  C   UNL     1       0.566  -2.909   9.520  1.00  0.00     0.174 C 
BRANCH  12  13
ATOM     13  N   UNL     1       0.020  -3.587  10.695  1.00  0.00    -0.342 N 
ATOM     14  C   UNL     1      -0.967  -3.081  11.511  1.00  0.00     0.249 C 
ATOM     15  O   UNL     1      -1.522  -2.005  11.323  1.00  0.00    -0.272 OA
ATOM     16  H   UNL     1       0.487  -4.411  11.064  1.00  0.00     0.164 HD
BRANCH  14  17
ATOM     17  C   UNL     1      -1.316  -4.026  12.680  1.00  0.00     0.207 C 
BRANCH  17  18
ATOM     18  C   UNL     1      -2.600  -4.805  12.374  1.00  0.00     0.077 C 
BRANCH  18  19
ATOM     19  C   UNL     1      -2.319  -6.266  12.101  1.00  0.00    -0.043 A 
ATOM     20  C   UNL     1      -3.029  -8.416  11.232  1.00  0.00     0.083 A 
ATOM     21  C   UNL     1      -3.270  -7.057  11.438  1.00  0.00     0.028 A 
ATOM     22  C   UNL     1      -1.842  -8.992  11.686  1.00  0.00     0.134 A 
ATOM     23  C   UNL     1      -0.892  -8.219  12.343  1.00  0.00     0.048 A 
ATOM     24  C   UNL     1      -1.131  -6.859  12.553  1.00  0.00     0.008 A 
ATOM     25  Cl  UNL     1      -4.209  -9.373  10.416  1.00  0.00    -0.080 Cl
BRANCH  22  26
ATOM     26  O   UNL     1      -1.566 -10.321  11.516  1.00  0.00    -0.506 OA
ATOM     27  H   UNL     1      -2.372 -10.809  11.766  1.00  0.00     0.293 HD
ENDBRANCH  22  26
ENDBRANCH  18  19
ENDBRANCH  17  18
BRANCH  17  28
ATOM     28  O   UNL     1      -1.483  -3.295  13.905  1.00  0.00    -0.383 OA
ATOM     29  H   UNL     1      -0.606  -3.308  14.351  1.00  0.00     0.211 HD
ENDBRANCH  17  28
ENDBRANCH  14  17
ENDBRANCH  12  13
BRANCH  12  30
ATOM     30  C   UNL     1       0.006  -3.483   8.190  1.00  0.00     0.018 C 
ATOM     31  C   UNL     1      -0.850  -2.435   7.461  1.00  0.00     0.010 C 
BRANCH  30  32
ATOM     32  C   UNL     1      -0.797  -4.794   8.369  1.00  0.00     0.002 C 
ATOM     33  C   UNL     1      -0.208  -6.018   7.680  1.00  0.00     0.004 C 
ENDBRANCH  30  32
ENDBRANCH  12  30
ENDBRANCH  10  12
ENDBRANCH   1  10
BRANCH   5  34
ATOM     34  C   UNL     1       4.472  -4.887   8.390  1.00  0.00     0.242 C 
ATOM     35  O   UNL     1       5.262  -4.191   9.029  1.00  0.00    -0.273 OA
ATOM     36  N   UNL     1       4.721  -6.209   8.097  1.00  0.00    -0.354 N 
ATOM     37  H   UNL     1       4.089  -6.699   7.463  1.00  0.00     0.163 HD
BRANCH  36  38
ATOM     38  C   UNL     1       5.787  -6.955   8.734  1.00  0.00     0.116 C 
BRANCH  38  39
ATOM     39  C   UNL     1       5.873  -8.354   8.129  1.00  0.00     0.023 C 
BRANCH  39  40
ATOM     40  C   UNL     1       5.159  -9.401   8.978  1.00  0.00     0.026 C 
BRANCH  40  41
ATOM     41  C   UNL     1       5.114 -10.746   8.255  1.00  0.00     0.146 C 
BRANCH  41  42
ATOM     42  N   UNL     1       3.959 -11.510   8.707  1.00  0.00    -0.254 NA
ATOM     43  C   UNL     1       3.161 -12.022   7.846  1.00  0.00     0.185 C 
ATOM     44  N   UNL     1       3.197 -11.981   6.502  1.00  0.00    -0.370 N 
ATOM     45  N   UNL     1       2.099 -12.718   8.284  1.00  0.00    -0.370 N 
ATOM     46  H   UNL     1       2.383 -12.213   5.959  1.00  0.00     0.159 HD
ATOM     47  H   UNL     1       3.943 -11.506   6.003  1.00  0.00     0.159 HD
ATOM     48  H   UNL     1       2.002 -12.805   9.286  1.00  0.00     0.159 HD
ATOM     49  H   UNL     1       1.574 -13.337   7.692  1.00  0.00     0.159 HD
ENDBRANCH  41  42
ENDBRANCH  40  41
ENDBRANCH  39  40
ENDBRANCH  38  39
ENDBRANCH  36  38
ENDBRANCH   5  34
BRANCH   8  50
ATOM     50  O   UNL     1       6.251  -0.738   6.916  1.00  0.00    -0.245 OA
BRANCH  50  51
ATOM     51  S   UNL     1       7.494  -0.020   6.153  1.00  0.00     0.397 S 
ATOM     52  O   UNL     1       7.276   1.408   6.190  1.00  0.00    -0.169 OA
ATOM     53  O   UNL     1       7.770  -0.714   4.912  1.00  0.00    -0.169 OA
BRANCH  51  54
ATOM     54  O   UNL     1       8.715  -0.302   7.161  1.00  0.00    -0.264 OA
ATOM     55  H   UNL     1       8.897   0.527   7.648  1.00  0.00     0.236 HD
ENDBRANCH  51  54
ENDBRANCH  50  51
ENDBRANCH   8  50
TORSDOF 19
ENDMDL
MODEL 45
REMARK VINA RESULT:    -6.089      8.465     12.014
REMARK INTER + INTRA:         -14.725
REMARK INTER:                 -10.899
REMARK INTRA:                  -3.826
REMARK UNBOUND:                -2.405
REMARK SMILES CC[C@@H](C)[C@@H](NC(=O)[C@@H](O)Cc1ccc(O)c(Cl)c1)C(=O)N1[C@H](C(=O)NCCCCN=C(N)N)C[C@H]2CC[C@H](OS(=O)(=O)O)C[C@@H]21
REMARK SMILES IDX 22 1 36 2 46 3 35 4 23 5 45 6 37 7 39 8 38 9 20 10 21 11
REMARK SMILES IDX 5 12 6 13 7 14 8 15 9 17 11 18 12 19 17 20 19 21 15 22 14 23
REMARK SMILES IDX 13 24 18 25 16 26 10 28 3 30 4 31 2 32 1 33 24 34 25 35
REMARK SMILES IDX 26 36 27 38 28 39 29 40 30 41 31 42 32 43 33 44 34 45 40 50
REMARK SMILES IDX 41 51 42 52 43 53 44 54
REMARK H PARENT 6 16 16 27 10 29 26 37 33 46 33 47 34 48 34 49 44 55
ROOT
ATOM      1  N   UNL     1       2.535  -2.884   8.506  1.00  0.00    -0.326 N 
ATOM      2  C   UNL     1       4.005  -3.449   6.756  1.00  0.00     0.014 C 
ATOM      3  C   UNL     1       2.975  -2.403   7.193  1.00  0.00     0.091 C 
ATOM      4  C   UNL     1       3.441  -4.737   7.334  1.00  0.00     0.041 C 
ATOM      5  C   UNL     1       3.050  -4.255   8.744  1.00  0.00     0.175 C 
ATOM      6  C   UNL     1       3.622  -1.022   7.106  1.00  0.00     0.059 C 
ATOM      7  C   UNL     1       4.273  -3.357   5.267  1.00  0.00     0.008 C 
ATOM      8  C   UNL     1       4.675  -0.898   5.984  1.00  0.00     0.143 C 
ATOM      9  C   UNL     1       4.408  -1.884   4.828  1.00  0.00     0.034 C 
ENDROOT
BRANCH   1  10
ATOM     10  C   UNL     1       1.597  -2.355   9.376  1.00  0.00     0.246 C 
ATOM     11  O   UNL     1       1.958  -1.527  10.219  1.00  0.00    -0.272 OA
BRANCH  10  12
ATOM     12  C   UNL     1       0.106  -2.780   9.246  1.00  0.00     0.174 C 
BRANCH  12  13
ATOM     13  N   UNL     1      -0.332  -3.446  10.473  1.00  0.00    -0.342 N 
ATOM     14  C   UNL     1      -1.118  -2.871  11.446  1.00  0.00     0.249 C 
ATOM     15  O   UNL     1      -1.567  -1.734  11.377  1.00  0.00    -0.272 OA
ATOM     16  H   UNL     1       0.088  -4.332  10.742  1.00  0.00     0.164 HD
BRANCH  14  17
ATOM     17  C   UNL     1      -1.393  -3.825  12.629  1.00  0.00     0.207 C 
BRANCH  17  18
ATOM     18  C   UNL     1      -2.648  -4.662  12.361  1.00  0.00     0.077 C 
BRANCH  18  19
ATOM     19  C   UNL     1      -2.312  -6.115  12.112  1.00  0.00    -0.043 A 
ATOM     20  C   UNL     1      -3.020  -8.383  11.623  1.00  0.00     0.083 A 
ATOM     21  C   UNL     1      -3.327  -7.034  11.804  1.00  0.00     0.028 A 
ATOM     22  C   UNL     1      -1.701  -8.822  11.751  1.00  0.00     0.134 A 
ATOM     23  C   UNL     1      -0.686  -7.923  12.056  1.00  0.00     0.048 A 
ATOM     24  C   UNL     1      -0.991  -6.572  12.239  1.00  0.00     0.008 A 
ATOM     25  Cl  UNL     1      -4.280  -9.497  11.245  1.00  0.00    -0.080 Cl
BRANCH  22  26
ATOM     26  O   UNL     1      -1.353 -10.136  11.594  1.00  0.00    -0.506 OA
ATOM     27  H   UNL     1      -1.985 -10.659  12.121  1.00  0.00     0.293 HD
ENDBRANCH  22  26
ENDBRANCH  18  19
ENDBRANCH  17  18
BRANCH  17  28
ATOM     28  O   UNL     1      -1.560  -3.094  13.854  1.00  0.00    -0.383 OA
ATOM     29  H   UNL     1      -2.201  -3.610  14.394  1.00  0.00     0.211 HD
ENDBRANCH  17  28
ENDBRANCH  14  17
ENDBRANCH  12  13
BRANCH  12  30
ATOM     30  C   UNL     1      -0.166  -3.635   7.979  1.00  0.00     0.018 C 
ATOM     31  C   UNL     1      -1.113  -2.900   7.018  1.00  0.00     0.010 C 
BRANCH  30  32
ATOM     32  C   UNL     1      -0.716  -5.049   8.290  1.00  0.00     0.002 C 
ATOM     33  C   UNL     1      -0.552  -6.071   7.172  1.00  0.00     0.004 C 
ENDBRANCH  30  32
ENDBRANCH  12  30
ENDBRANCH  10  12
ENDBRANCH   1  10
BRANCH   5  34
ATOM     34  C   UNL     1       4.274  -4.226   9.698  1.00  0.00     0.242 C 
ATOM     35  O   UNL     1       5.336  -4.783   9.423  1.00  0.00    -0.273 OA
ATOM     36  N   UNL     1       4.067  -3.579  10.896  1.00  0.00    -0.354 N 
ATOM     37  H   UNL     1       3.129  -3.241  11.117  1.00  0.00     0.163 HD
BRANCH  36  38
ATOM     38  C   UNL     1       5.151  -3.271  11.805  1.00  0.00     0.116 C 
BRANCH  38  39
ATOM     39  C   UNL     1       5.524  -1.795  11.685  1.00  0.00     0.023 C 
BRANCH  39  40
ATOM     40  C   UNL     1       6.797  -1.580  10.874  1.00  0.00     0.026 C 
BRANCH  40  41
ATOM     41  C   UNL     1       7.053  -0.089  10.652  1.00  0.00     0.146 C 
BRANCH  41  42
ATOM     42  N   UNL     1       5.949   0.494   9.901  1.00  0.00    -0.254 NA
ATOM     43  C   UNL     1       6.172   1.465   9.097  1.00  0.00     0.185 C 
ATOM     44  N   UNL     1       7.325   2.091   8.796  1.00  0.00    -0.370 N 
ATOM     45  N   UNL     1       5.140   1.991   8.418  1.00  0.00    -0.370 N 
ATOM     46  H   UNL     1       7.317   2.987   8.340  1.00  0.00     0.159 HD
ATOM     47  H   UNL     1       8.208   1.810   9.210  1.00  0.00     0.159 HD
ATOM     48  H   UNL     1       4.235   1.571   8.581  1.00  0.00     0.159 HD
ATOM     49  H   UNL     1       5.262   2.577   7.612  1.00  0.00     0.159 HD
ENDBRANCH  41  42
ENDBRANCH  40  41
ENDBRANCH  39  40
ENDBRANCH  38  39
ENDBRANCH  36  38
ENDBRANCH   5  34
BRANCH   8  50
ATOM     50  O   UNL     1       5.980  -1.154   6.505  1.00  0.00    -0.245 OA
BRANCH  50  51
ATOM     51  S   UNL     1       7.222  -0.202   6.062  1.00  0.00     0.397 S 
ATOM     52  O   UNL     1       8.299  -0.407   7.004  1.00  0.00    -0.169 OA
ATOM     53  O   UNL     1       6.730   1.124   5.747  1.00  0.00    -0.169 OA
BRANCH  51  54
ATOM     54  O   UNL     1       7.702  -0.891   4.691  1.00  0.00    -0.264 OA
ATOM     55  H   UNL     1       8.599  -0.557   4.487  1.00  0.00     0.236 HD
ENDBRANCH  51  54
ENDBRANCH  50  51
ENDBRANCH   8  50
TORSDOF 19
ENDMDL
MODEL 46
REMARK VINA RESULT:    -6.042      9.660     13.554
REMARK INTER + INTRA:         -14.629
REMARK INTER:                 -11.100
REMARK INTRA:                  -3.529
REMARK UNBOUND:                -2.405
REMARK SMILES CC[C@@H](C)[C@@H](NC(=O)[C@@H](O)Cc1ccc(O)c(Cl)c1)C(=O)N1[C@H](C(=O)NCCCCN=C(N)N)C[C@H]2CC[C@H](OS(=O)(=O)O)C[C@@H]21
REMARK SMILES IDX 22 1 36 2 46 3 35 4 23 5 45 6 37 7 39 8 38 9 20 10 21 11
REMARK SMILES IDX 5 12 6 13 7 14 8 15 9 17 11 18 12 19 17 20 19 21 15 22 14 23
REMARK SMILES IDX 13 24 18 25 16 26 10 28 3 30 4 31 2 32 1 33 24 34 25 35
REMARK SMILES IDX 26 36 27 38 28 39 29 40 30 41 31 42 32 43 33 44 34 45 40 50
REMARK SMILES IDX 41 51 42 52 43 53 44 54
REMARK H PARENT 6 16 16 27 10 29 26 37 33 46 33 47 34 48 34 49 44 55
ROOT
ATOM      1  N   UNL     1       1.048  -3.434  11.806  1.00  0.00    -0.326 N 
ATOM      2  C   UNL     1       0.135  -5.563  11.384  1.00  0.00     0.014 C 
ATOM      3  C   UNL     1       1.337  -4.855  12.016  1.00  0.00     0.091 C 
ATOM      4  C   UNL     1      -0.203  -4.661  10.207  1.00  0.00     0.041 C 
ATOM      5  C   UNL     1      -0.104  -3.281  10.883  1.00  0.00     0.175 C 
ATOM      6  C   UNL     1       1.495  -5.359  13.450  1.00  0.00     0.059 C 
ATOM      7  C   UNL     1       0.437  -7.027  11.135  1.00  0.00     0.008 C 
ATOM      8  C   UNL     1       1.052  -6.825  13.646  1.00  0.00     0.143 C 
ATOM      9  C   UNL     1       1.170  -7.645  12.345  1.00  0.00     0.034 C 
ENDROOT
BRANCH   1  10
ATOM     10  C   UNL     1       1.789  -2.317  12.150  1.00  0.00     0.246 C 
ATOM     11  O   UNL     1       1.364  -1.560  13.030  1.00  0.00    -0.272 OA
BRANCH  10  12
ATOM     12  C   UNL     1       3.158  -2.061  11.455  1.00  0.00     0.174 C 
BRANCH  12  13
ATOM     13  N   UNL     1       3.012  -2.184  10.006  1.00  0.00    -0.342 N 
ATOM     14  C   UNL     1       3.290  -1.189   9.096  1.00  0.00     0.249 C 
ATOM     15  O   UNL     1       3.722  -0.085   9.403  1.00  0.00    -0.272 OA
ATOM     16  H   UNL     1       2.518  -2.983   9.615  1.00  0.00     0.164 HD
BRANCH  14  17
ATOM     17  C   UNL     1       3.017  -1.621   7.639  1.00  0.00     0.207 C 
BRANCH  17  18
ATOM     18  C   UNL     1       3.410  -3.088   7.433  1.00  0.00     0.077 C 
BRANCH  18  19
ATOM     19  C   UNL     1       2.209  -3.951   7.117  1.00  0.00    -0.043 A 
ATOM     20  C   UNL     1      -0.170  -4.173   6.702  1.00  0.00     0.083 A 
ATOM     21  C   UNL     1       0.944  -3.369   6.944  1.00  0.00     0.028 A 
ATOM     22  C   UNL     1      -0.029  -5.560   6.632  1.00  0.00     0.134 A 
ATOM     23  C   UNL     1       1.218  -6.149   6.801  1.00  0.00     0.048 A 
ATOM     24  C   UNL     1       2.335  -5.347   7.046  1.00  0.00     0.008 A 
ATOM     25  Cl  UNL     1      -1.717  -3.440   6.493  1.00  0.00    -0.080 Cl
BRANCH  22  26
ATOM     26  O   UNL     1      -1.094  -6.390   6.407  1.00  0.00    -0.506 OA
ATOM     27  H   UNL     1      -1.565  -6.036   5.630  1.00  0.00     0.293 HD
ENDBRANCH  22  26
ENDBRANCH  18  19
ENDBRANCH  17  18
BRANCH  17  28
ATOM     28  O   UNL     1       3.744  -0.799   6.711  1.00  0.00    -0.383 OA
ATOM     29  H   UNL     1       4.484  -0.400   7.223  1.00  0.00     0.211 HD
ENDBRANCH  17  28
ENDBRANCH  14  17
ENDBRANCH  12  13
BRANCH  12  30
ATOM     30  C   UNL     1       4.293  -2.960  12.015  1.00  0.00     0.018 C 
ATOM     31  C   UNL     1       4.710  -2.502  13.421  1.00  0.00     0.010 C 
BRANCH  30  32
ATOM     32  C   UNL     1       5.533  -3.042  11.093  1.00  0.00     0.002 C 
ATOM     33  C   UNL     1       6.060  -4.448  10.834  1.00  0.00     0.004 C 
ENDBRANCH  30  32
ENDBRANCH  12  30
ENDBRANCH  10  12
ENDBRANCH   1  10
BRANCH   5  34
ATOM     34  C   UNL     1      -1.397  -2.936  11.669  1.00  0.00     0.242 C 
ATOM     35  O   UNL     1      -1.872  -1.800  11.688  1.00  0.00    -0.273 OA
ATOM     36  N   UNL     1      -1.942  -3.977  12.387  1.00  0.00    -0.354 N 
ATOM     37  H   UNL     1      -1.436  -4.862  12.429  1.00  0.00     0.163 HD
BRANCH  36  38
ATOM     38  C   UNL     1      -3.253  -3.893  12.997  1.00  0.00     0.116 C 
BRANCH  38  39
ATOM     39  C   UNL     1      -3.978  -5.228  12.854  1.00  0.00     0.023 C 
BRANCH  39  40
ATOM     40  C   UNL     1      -3.123  -6.284  12.162  1.00  0.00     0.026 C 
BRANCH  40  41
ATOM     41  C   UNL     1      -3.996  -7.248  11.359  1.00  0.00     0.146 C 
BRANCH  41  42
ATOM     42  N   UNL     1      -3.495  -8.608  11.508  1.00  0.00    -0.254 NA
ATOM     43  C   UNL     1      -3.305  -9.330  10.469  1.00  0.00     0.185 C 
ATOM     44  N   UNL     1      -3.495  -9.043   9.168  1.00  0.00    -0.370 N 
ATOM     45  N   UNL     1      -2.846 -10.583  10.628  1.00  0.00    -0.370 N 
ATOM     46  H   UNL     1      -3.538  -9.776   8.482  1.00  0.00     0.159 HD
ATOM     47  H   UNL     1      -3.826  -8.131   8.867  1.00  0.00     0.159 HD
ATOM     48  H   UNL     1      -2.668 -10.877  11.579  1.00  0.00     0.159 HD
ATOM     49  H   UNL     1      -2.452 -11.118   9.875  1.00  0.00     0.159 HD
ENDBRANCH  41  42
ENDBRANCH  40  41
ENDBRANCH  39  40
ENDBRANCH  38  39
ENDBRANCH  36  38
ENDBRANCH   5  34
BRANCH   8  50
ATOM     50  O   UNL     1      -0.304  -6.872  14.089  1.00  0.00    -0.245 OA
BRANCH  50  51
ATOM     51  S   UNL     1      -0.810  -8.125  14.995  1.00  0.00     0.397 S 
ATOM     52  O   UNL     1      -1.729  -7.615  15.988  1.00  0.00    -0.169 OA
ATOM     53  O   UNL     1       0.324  -8.948  15.362  1.00  0.00    -0.169 OA
BRANCH  51  54
ATOM     54  O   UNL     1      -1.708  -8.954  13.951  1.00  0.00    -0.264 OA
ATOM     55  H   UNL     1      -2.647  -8.815  14.189  1.00  0.00     0.236 HD
ENDBRANCH  51  54
ENDBRANCH  50  51
ENDBRANCH   8  50
TORSDOF 19
ENDMDL
MODEL 47
REMARK VINA RESULT:    -6.021      9.775     14.298
REMARK INTER + INTRA:         -14.586
REMARK INTER:                 -11.699
REMARK INTRA:                  -2.887
REMARK UNBOUND:                -2.405
REMARK SMILES CC[C@@H](C)[C@@H](NC(=O)[C@@H](O)Cc1ccc(O)c(Cl)c1)C(=O)N1[C@H](C(=O)NCCCCN=C(N)N)C[C@H]2CC[C@H](OS(=O)(=O)O)C[C@@H]21
REMARK SMILES IDX 22 1 36 2 46 3 35 4 23 5 45 6 37 7 39 8 38 9 20 10 21 11
REMARK SMILES IDX 5 12 6 13 7 14 8 15 9 17 11 18 12 19 17 20 19 21 15 22 14 23
REMARK SMILES IDX 13 24 18 25 16 26 10 28 3 30 4 31 2 32 1 33 24 34 25 35
REMARK SMILES IDX 26 36 27 38 28 39 29 40 30 41 31 42 32 43 33 44 34 45 40 50
REMARK SMILES IDX 41 51 42 52 43 53 44 54
REMARK H PARENT 6 16 16 27 10 29 26 37 33 46 33 47 34 48 34 49 44 55
ROOT
ATOM      1  N   UNL     1       2.233  -4.788   8.235  1.00  0.00    -0.326 N 
ATOM      2  C   UNL     1       3.494  -3.857   6.478  1.00  0.00     0.014 C 
ATOM      3  C   UNL     1       2.655  -3.488   7.705  1.00  0.00     0.091 C 
ATOM      4  C   UNL     1       2.786  -5.095   5.949  1.00  0.00     0.041 C 
ATOM      5  C   UNL     1       2.558  -5.862   7.264  1.00  0.00     0.175 C 
ATOM      6  C   UNL     1       3.489  -2.575   8.603  1.00  0.00     0.059 C 
ATOM      7  C   UNL     1       3.679  -2.660   5.567  1.00  0.00     0.008 C 
ATOM      8  C   UNL     1       4.476  -1.676   7.829  1.00  0.00     0.143 C 
ATOM      9  C   UNL     1       3.998  -1.394   6.390  1.00  0.00     0.034 C 
ENDROOT
BRANCH   1  10
ATOM     10  C   UNL     1       1.437  -5.084   9.328  1.00  0.00     0.246 C 
ATOM     11  O   UNL     1       1.851  -5.884  10.174  1.00  0.00    -0.272 OA
BRANCH  10  12
ATOM     12  C   UNL     1       0.062  -4.375   9.490  1.00  0.00     0.174 C 
BRANCH  12  13
ATOM     13  N   UNL     1      -0.463  -4.606  10.836  1.00  0.00    -0.342 N 
ATOM     14  C   UNL     1      -1.182  -3.690  11.571  1.00  0.00     0.249 C 
ATOM     15  O   UNL     1      -1.490  -2.578  11.163  1.00  0.00    -0.272 OA
ATOM     16  H   UNL     1      -0.156  -5.419  11.364  1.00  0.00     0.164 HD
BRANCH  14  17
ATOM     17  C   UNL     1      -1.580  -4.226  12.963  1.00  0.00     0.207 C 
BRANCH  17  18
ATOM     18  C   UNL     1      -2.872  -5.044  12.873  1.00  0.00     0.077 C 
BRANCH  18  19
ATOM     19  C   UNL     1      -2.605  -6.471  12.449  1.00  0.00    -0.043 A 
ATOM     20  C   UNL     1      -3.167  -8.401  11.091  1.00  0.00     0.083 A 
ATOM     21  C   UNL     1      -3.383  -7.069  11.445  1.00  0.00     0.028 A 
ATOM     22  C   UNL     1      -2.175  -9.142  11.735  1.00  0.00     0.134 A 
ATOM     23  C   UNL     1      -1.397  -8.563  12.730  1.00  0.00     0.048 A 
ATOM     24  C   UNL     1      -1.613  -7.230  13.088  1.00  0.00     0.008 A 
ATOM     25  Cl  UNL     1      -4.133  -9.118   9.856  1.00  0.00    -0.080 Cl
BRANCH  22  26
ATOM     26  O   UNL     1      -1.933 -10.454  11.429  1.00  0.00    -0.506 OA
ATOM     27  H   UNL     1      -2.751 -10.804  11.028  1.00  0.00     0.293 HD
ENDBRANCH  22  26
ENDBRANCH  18  19
ENDBRANCH  17  18
BRANCH  17  28
ATOM     28  O   UNL     1      -1.762  -3.150  13.899  1.00  0.00    -0.383 OA
ATOM     29  H   UNL     1      -1.809  -2.327  13.361  1.00  0.00     0.211 HD
ENDBRANCH  17  28
ENDBRANCH  14  17
ENDBRANCH  12  13
BRANCH  12  30
ATOM     30  C   UNL     1      -0.952  -4.772   8.384  1.00  0.00     0.018 C 
ATOM     31  C   UNL     1      -0.967  -6.294   8.176  1.00  0.00     0.010 C 
BRANCH  30  32
ATOM     32  C   UNL     1      -0.711  -4.053   7.034  1.00  0.00     0.002 C 
ATOM     33  C   UNL     1      -0.828  -2.535   7.074  1.00  0.00     0.004 C 
ENDBRANCH  30  32
ENDBRANCH  12  30
ENDBRANCH  10  12
ENDBRANCH   1  10
BRANCH   5  34
ATOM     34  C   UNL     1       3.830  -6.635   7.704  1.00  0.00     0.242 C 
ATOM     35  O   UNL     1       4.948  -6.367   7.264  1.00  0.00    -0.273 OA
ATOM     36  N   UNL     1       3.610  -7.675   8.580  1.00  0.00    -0.354 N 
ATOM     37  H   UNL     1       2.648  -7.924   8.815  1.00  0.00     0.163 HD
BRANCH  36  38
ATOM     38  C   UNL     1       4.693  -8.359   9.256  1.00  0.00     0.116 C 
BRANCH  38  39
ATOM     39  C   UNL     1       4.592  -9.862   9.007  1.00  0.00     0.023 C 
BRANCH  39  40
ATOM     40  C   UNL     1       3.789 -10.579  10.087  1.00  0.00     0.026 C 
BRANCH  40  41
ATOM     41  C   UNL     1       3.423 -11.994   9.641  1.00  0.00     0.146 C 
BRANCH  41  42
ATOM     42  N   UNL     1       1.990 -12.076   9.387  1.00  0.00    -0.254 NA
ATOM     43  C   UNL     1       1.216 -12.566  10.281  1.00  0.00     0.185 C 
ATOM     44  N   UNL     1       1.503 -13.054  11.502  1.00  0.00    -0.370 N 
ATOM     45  N   UNL     1      -0.101 -12.636  10.026  1.00  0.00    -0.370 N 
ATOM     46  H   UNL     1       0.839 -13.626  11.994  1.00  0.00     0.159 HD
ATOM     47  H   UNL     1       2.452 -13.064  11.862  1.00  0.00     0.159 HD
ATOM     48  H   UNL     1      -0.403 -12.281   9.129  1.00  0.00     0.159 HD
ATOM     49  H   UNL     1      -0.787 -12.780  10.745  1.00  0.00     0.159 HD
ENDBRANCH  41  42
ENDBRANCH  40  41
ENDBRANCH  39  40
ENDBRANCH  38  39
ENDBRANCH  36  38
ENDBRANCH   5  34
BRANCH   8  50
ATOM     50  O   UNL     1       5.760  -2.297   7.767  1.00  0.00    -0.245 OA
BRANCH  50  51
ATOM     51  S   UNL     1       7.095  -1.414   8.056  1.00  0.00     0.397 S 
ATOM     52  O   UNL     1       8.033  -2.246   8.777  1.00  0.00    -0.169 OA
ATOM     53  O   UNL     1       6.715  -0.103   8.540  1.00  0.00    -0.169 OA
BRANCH  51  54
ATOM     54  O   UNL     1       7.709  -1.239   6.580  1.00  0.00    -0.264 OA
ATOM     55  H   UNL     1       8.573  -1.699   6.560  1.00  0.00     0.236 HD
ENDBRANCH  51  54
ENDBRANCH  50  51
ENDBRANCH   8  50
TORSDOF 19
ENDMDL
MODEL 48
REMARK VINA RESULT:    -5.984      6.266      9.229
REMARK INTER + INTRA:         -14.511
REMARK INTER:                 -10.197
REMARK INTRA:                  -4.314
REMARK UNBOUND:                -2.405
REMARK SMILES CC[C@@H](C)[C@@H](NC(=O)[C@@H](O)Cc1ccc(O)c(Cl)c1)C(=O)N1[C@H](C(=O)NCCCCN=C(N)N)C[C@H]2CC[C@H](OS(=O)(=O)O)C[C@@H]21
REMARK SMILES IDX 22 1 36 2 46 3 35 4 23 5 45 6 37 7 39 8 38 9 20 10 21 11
REMARK SMILES IDX 5 12 6 13 7 14 8 15 9 17 11 18 12 19 17 20 19 21 15 22 14 23
REMARK SMILES IDX 13 24 18 25 16 26 10 28 3 30 4 31 2 32 1 33 24 34 25 35
REMARK SMILES IDX 26 36 27 38 28 39 29 40 30 41 31 42 32 43 33 44 34 45 40 50
REMARK SMILES IDX 41 51 42 52 43 53 44 54
REMARK H PARENT 6 16 16 27 10 29 26 37 33 46 33 47 34 48 34 49 44 55
ROOT
ATOM      1  N   UNL     1       4.636  10.391   2.760  1.00  0.00    -0.326 N 
ATOM      2  C   UNL     1       5.304   9.146   4.643  1.00  0.00     0.014 C 
ATOM      3  C   UNL     1       5.260  10.567   4.075  1.00  0.00     0.091 C 
ATOM      4  C   UNL     1       5.546   8.297   3.404  1.00  0.00     0.041 C 
ATOM      5  C   UNL     1       4.547   8.947   2.429  1.00  0.00     0.175 C 
ATOM      6  C   UNL     1       4.565  11.472   5.091  1.00  0.00     0.059 C 
ATOM      7  C   UNL     1       6.272   9.056   5.806  1.00  0.00     0.008 C 
ATOM      8  C   UNL     1       4.793  11.048   6.558  1.00  0.00     0.143 C 
ATOM      9  C   UNL     1       6.115  10.276   6.739  1.00  0.00     0.034 C 
ENDROOT
BRANCH   1  10
ATOM     10  C   UNL     1       4.352  11.327   1.780  1.00  0.00     0.246 C 
ATOM     11  O   UNL     1       3.221  11.822   1.731  1.00  0.00    -0.272 OA
BRANCH  10  12
ATOM     12  C   UNL     1       5.471  11.766   0.792  1.00  0.00     0.174 C 
BRANCH  12  13
ATOM     13  N   UNL     1       6.056  10.591   0.147  1.00  0.00    -0.342 N 
ATOM     14  C   UNL     1       5.471   9.877  -0.874  1.00  0.00     0.249 C 
ATOM     15  O   UNL     1       4.394  10.167  -1.379  1.00  0.00    -0.272 OA
ATOM     16  H   UNL     1       6.869  10.141   0.562  1.00  0.00     0.164 HD
BRANCH  14  17
ATOM     17  C   UNL     1       6.330   8.678  -1.330  1.00  0.00     0.207 C 
BRANCH  17  18
ATOM     18  C   UNL     1       6.947   8.953  -2.705  1.00  0.00     0.077 C 
BRANCH  18  19
ATOM     19  C   UNL     1       8.279   9.661  -2.591  1.00  0.00    -0.043 A 
ATOM     20  C   UNL     1      10.665   9.596  -2.162  1.00  0.00     0.083 A 
ATOM     21  C   UNL     1       9.446   8.933  -2.315  1.00  0.00     0.028 A 
ATOM     22  C   UNL     1      10.725  10.984  -2.282  1.00  0.00     0.134 A 
ATOM     23  C   UNL     1       9.576  11.717  -2.556  1.00  0.00     0.048 A 
ATOM     24  C   UNL     1       8.355  11.058  -2.708  1.00  0.00     0.008 A 
ATOM     25  Cl  UNL     1      12.089   8.684  -1.822  1.00  0.00    -0.080 Cl
BRANCH  22  26
ATOM     26  O   UNL     1      11.895  11.678  -2.130  1.00  0.00    -0.506 OA
ATOM     27  H   UNL     1      12.584  11.022  -1.917  1.00  0.00     0.293 HD
ENDBRANCH  22  26
ENDBRANCH  18  19
ENDBRANCH  17  18
BRANCH  17  28
ATOM     28  O   UNL     1       5.547   7.475  -1.391  1.00  0.00    -0.383 OA
ATOM     29  H   UNL     1       5.159   7.449  -2.295  1.00  0.00     0.211 HD
ENDBRANCH  17  28
ENDBRANCH  14  17
ENDBRANCH  12  13
BRANCH  12  30
ATOM     30  C   UNL     1       6.542  12.669   1.462  1.00  0.00     0.018 C 
ATOM     31  C   UNL     1       5.918  13.988   1.947  1.00  0.00     0.010 C 
BRANCH  30  32
ATOM     32  C   UNL     1       7.764  12.960   0.557  1.00  0.00     0.002 C 
ATOM     33  C   UNL     1       7.606  14.142  -0.391  1.00  0.00     0.004 C 
ENDBRANCH  30  32
ENDBRANCH  12  30
ENDBRANCH  10  12
ENDBRANCH   1  10
BRANCH   5  34
ATOM     34  C   UNL     1       3.105   8.419   2.651  1.00  0.00     0.242 C 
ATOM     35  O   UNL     1       2.226   9.105   3.173  1.00  0.00    -0.273 OA
ATOM     36  N   UNL     1       2.895   7.113   2.272  1.00  0.00    -0.354 N 
ATOM     37  H   UNL     1       3.692   6.558   1.957  1.00  0.00     0.163 HD
BRANCH  36  38
ATOM     38  C   UNL     1       1.570   6.530   2.207  1.00  0.00     0.116 C 
BRANCH  38  39
ATOM     39  C   UNL     1       1.536   5.231   3.008  1.00  0.00     0.023 C 
BRANCH  39  40
ATOM     40  C   UNL     1       0.273   5.100   3.853  1.00  0.00     0.026 C 
BRANCH  40  41
ATOM     41  C   UNL     1       0.528   5.570   5.285  1.00  0.00     0.146 C 
BRANCH  41  42
ATOM     42  N   UNL     1      -0.214   6.798   5.541  1.00  0.00    -0.254 NA
ATOM     43  C   UNL     1       0.419   7.873   5.825  1.00  0.00     0.185 C 
ATOM     44  N   UNL     1       1.741   8.094   5.938  1.00  0.00    -0.370 N 
ATOM     45  N   UNL     1      -0.284   8.993   6.061  1.00  0.00    -0.370 N 
ATOM     46  H   UNL     1       2.086   8.918   6.402  1.00  0.00     0.159 HD
ATOM     47  H   UNL     1       2.421   7.357   5.778  1.00  0.00     0.159 HD
ATOM     48  H   UNL     1      -1.289   8.915   5.988  1.00  0.00     0.159 HD
ATOM     49  H   UNL     1       0.131   9.908   6.054  1.00  0.00     0.159 HD
ENDBRANCH  41  42
ENDBRANCH  40  41
ENDBRANCH  39  40
ENDBRANCH  38  39
ENDBRANCH  36  38
ENDBRANCH   5  34
BRANCH   8  50
ATOM     50  O   UNL     1       3.719  10.219   7.002  1.00  0.00    -0.245 OA
BRANCH  50  51
ATOM     51  S   UNL     1       2.464  10.886   7.793  1.00  0.00     0.397 S 
ATOM     52  O   UNL     1       1.473  11.271   6.813  1.00  0.00    -0.169 OA
ATOM     53  O   UNL     1       2.955  11.820   8.784  1.00  0.00    -0.169 OA
BRANCH  51  54
ATOM     54  O   UNL     1       1.845   9.620   8.568  1.00  0.00    -0.264 OA
ATOM     55  H   UNL     1       2.285   8.815   8.224  1.00  0.00     0.236 HD
ENDBRANCH  51  54
ENDBRANCH  50  51
ENDBRANCH   8  50
TORSDOF 19
ENDMDL
MODEL 49
REMARK VINA RESULT:    -5.961      5.382     10.141
REMARK INTER + INTRA:         -14.466
REMARK INTER:                 -12.019
REMARK INTRA:                  -2.446
REMARK UNBOUND:                -2.405
REMARK SMILES CC[C@@H](C)[C@@H](NC(=O)[C@@H](O)Cc1ccc(O)c(Cl)c1)C(=O)N1[C@H](C(=O)NCCCCN=C(N)N)C[C@H]2CC[C@H](OS(=O)(=O)O)C[C@@H]21
REMARK SMILES IDX 22 1 36 2 46 3 35 4 23 5 45 6 37 7 39 8 38 9 20 10 21 11
REMARK SMILES IDX 5 12 6 13 7 14 8 15 9 17 11 18 12 19 17 20 19 21 15 22 14 23
REMARK SMILES IDX 13 24 18 25 16 26 10 28 3 30 4 31 2 32 1 33 24 34 25 35
REMARK SMILES IDX 26 36 27 38 28 39 29 40 30 41 31 42 32 43 33 44 34 45 40 50
REMARK SMILES IDX 41 51 42 52 43 53 44 54
REMARK H PARENT 6 16 16 27 10 29 26 37 33 46 33 47 34 48 34 49 44 55
ROOT
ATOM      1  N   UNL     1       4.879   3.179   7.914  1.00  0.00    -0.326 N 
ATOM      2  C   UNL     1       6.798   2.153   7.016  1.00  0.00     0.014 C 
ATOM      3  C   UNL     1       6.311   3.423   7.719  1.00  0.00     0.091 C 
ATOM      4  C   UNL     1       5.608   1.774   6.148  1.00  0.00     0.041 C 
ATOM      5  C   UNL     1       4.461   1.976   7.155  1.00  0.00     0.175 C 
ATOM      6  C   UNL     1       7.181   3.656   8.953  1.00  0.00     0.059 C 
ATOM      7  C   UNL     1       8.150   2.376   6.368  1.00  0.00     0.008 C 
ATOM      8  C   UNL     1       8.637   3.166   8.789  1.00  0.00     0.143 C 
ATOM      9  C   UNL     1       9.083   3.162   7.313  1.00  0.00     0.034 C 
ENDROOT
BRANCH   1  10
ATOM     10  C   UNL     1       3.911   3.989   8.483  1.00  0.00     0.246 C 
ATOM     11  O   UNL     1       3.536   3.757   9.638  1.00  0.00    -0.272 OA
BRANCH  10  12
ATOM     12  C   UNL     1       3.348   5.194   7.677  1.00  0.00     0.174 C 
BRANCH  12  13
ATOM     13  N   UNL     1       3.132   4.805   6.283  1.00  0.00    -0.342 N 
ATOM     14  C   UNL     1       2.105   5.258   5.486  1.00  0.00     0.249 C 
ATOM     15  O   UNL     1       1.264   6.069   5.853  1.00  0.00    -0.272 OA
ATOM     16  H   UNL     1       3.653   4.024   5.892  1.00  0.00     0.164 HD
BRANCH  14  17
ATOM     17  C   UNL     1       2.138   4.649   4.068  1.00  0.00     0.207 C 
BRANCH  17  18
ATOM     18  C   UNL     1       0.985   5.198   3.222  1.00  0.00     0.077 C 
BRANCH  18  19
ATOM     19  C   UNL     1       1.444   5.592   1.836  1.00  0.00    -0.043 A 
ATOM     20  C   UNL     1       2.936   6.846   0.392  1.00  0.00     0.083 A 
ATOM     21  C   UNL     1       2.546   6.445   1.671  1.00  0.00     0.028 A 
ATOM     22  C   UNL     1       2.229   6.401  -0.725  1.00  0.00     0.134 A 
ATOM     23  C   UNL     1       1.135   5.557  -0.576  1.00  0.00     0.048 A 
ATOM     24  C   UNL     1       0.741   5.154   0.703  1.00  0.00     0.008 A 
ATOM     25  Cl  UNL     1       4.293   7.895   0.209  1.00  0.00    -0.080 Cl
BRANCH  22  26
ATOM     26  O   UNL     1       2.567   6.776  -1.997  1.00  0.00    -0.506 OA
ATOM     27  H   UNL     1       2.266   7.697  -2.107  1.00  0.00     0.293 HD
ENDBRANCH  22  26
ENDBRANCH  18  19
ENDBRANCH  17  18
BRANCH  17  28
ATOM     28  O   UNL     1       2.052   3.216   4.119  1.00  0.00    -0.383 OA
ATOM     29  H   UNL     1       2.404   2.953   5.000  1.00  0.00     0.211 HD
ENDBRANCH  17  28
ENDBRANCH  14  17
ENDBRANCH  12  13
BRANCH  12  30
ATOM     30  C   UNL     1       4.227   6.467   7.807  1.00  0.00     0.018 C 
ATOM     31  C   UNL     1       5.262   6.534   6.672  1.00  0.00     0.010 C 
BRANCH  30  32
ATOM     32  C   UNL     1       4.933   6.597   9.178  1.00  0.00     0.002 C 
ATOM     33  C   UNL     1       6.279   7.309   9.153  1.00  0.00     0.004 C 
ENDBRANCH  30  32
ENDBRANCH  12  30
ENDBRANCH  10  12
ENDBRANCH   1  10
BRANCH   5  34
ATOM     34  C   UNL     1       4.308   0.754   8.100  1.00  0.00     0.242 C 
ATOM     35  O   UNL     1       4.482   0.837   9.316  1.00  0.00    -0.273 OA
ATOM     36  N   UNL     1       4.017  -0.438   7.474  1.00  0.00    -0.354 N 
ATOM     37  H   UNL     1       4.004  -0.467   6.454  1.00  0.00     0.163 HD
BRANCH  36  38
ATOM     38  C   UNL     1       3.631  -1.623   8.211  1.00  0.00     0.116 C 
BRANCH  38  39
ATOM     39  C   UNL     1       2.510  -2.350   7.472  1.00  0.00     0.023 C 
BRANCH  39  40
ATOM     40  C   UNL     1       2.982  -3.649   6.828  1.00  0.00     0.026 C 
BRANCH  40  41
ATOM     41  C   UNL     1       3.299  -3.435   5.348  1.00  0.00     0.146 C 
BRANCH  41  42
ATOM     42  N   UNL     1       4.714  -3.686   5.106  1.00  0.00    -0.254 NA
ATOM     43  C   UNL     1       5.469  -2.730   4.714  1.00  0.00     0.185 C 
ATOM     44  N   UNL     1       5.174  -1.440   4.466  1.00  0.00    -0.370 N 
ATOM     45  N   UNL     1       6.769  -2.983   4.492  1.00  0.00    -0.370 N 
ATOM     46  H   UNL     1       5.802  -0.863   3.934  1.00  0.00     0.159 HD
ATOM     47  H   UNL     1       4.236  -1.074   4.596  1.00  0.00     0.159 HD
ATOM     48  H   UNL     1       7.077  -3.930   4.663  1.00  0.00     0.159 HD
ATOM     49  H   UNL     1       7.460  -2.257   4.417  1.00  0.00     0.159 HD
ENDBRANCH  41  42
ENDBRANCH  40  41
ENDBRANCH  39  40
ENDBRANCH  38  39
ENDBRANCH  36  38
ENDBRANCH   5  34
BRANCH   8  50
ATOM     50  O   UNL     1       8.770   1.842   9.306  1.00  0.00    -0.245 OA
BRANCH  50  51
ATOM     51  S   UNL     1       8.829   1.611  10.915  1.00  0.00     0.397 S 
ATOM     52  O   UNL     1       7.553   1.077  11.336  1.00  0.00    -0.169 OA
ATOM     53  O   UNL     1       9.414   2.772  11.552  1.00  0.00    -0.169 OA
BRANCH  51  54
ATOM     54  O   UNL     1       9.874   0.396  11.041  1.00  0.00    -0.264 OA
ATOM     55  H   UNL     1       9.970  -0.009  10.155  1.00  0.00     0.236 HD
ENDBRANCH  51  54
ENDBRANCH  50  51
ENDBRANCH   8  50
TORSDOF 19
ENDMDL
MODEL 50
REMARK VINA RESULT:    -5.961      5.614      8.152
REMARK INTER + INTRA:         -14.464
REMARK INTER:                 -10.839
REMARK INTRA:                  -3.625
REMARK UNBOUND:                -2.405
REMARK SMILES CC[C@@H](C)[C@@H](NC(=O)[C@@H](O)Cc1ccc(O)c(Cl)c1)C(=O)N1[C@H](C(=O)NCCCCN=C(N)N)C[C@H]2CC[C@H](OS(=O)(=O)O)C[C@@H]21
REMARK SMILES IDX 22 1 36 2 46 3 35 4 23 5 45 6 37 7 39 8 38 9 20 10 21 11
REMARK SMILES IDX 5 12 6 13 7 14 8 15 9 17 11 18 12 19 17 20 19 21 15 22 14 23
REMARK SMILES IDX 13 24 18 25 16 26 10 28 3 30 4 31 2 32 1 33 24 34 25 35
REMARK SMILES IDX 26 36 27 38 28 39 29 40 30 41 31 42 32 43 33 44 34 45 40 50
REMARK SMILES IDX 41 51 42 52 43 53 44 54
REMARK H PARENT 6 16 16 27 10 29 26 37 33 46 33 47 34 48 34 49 44 55
ROOT
ATOM      1  N   UNL     1       5.874  10.952   2.448  1.00  0.00    -0.326 N 
ATOM      2  C   UNL     1       5.057  12.666   3.840  1.00  0.00     0.014 C 
ATOM      3  C   UNL     1       4.716  11.837   2.598  1.00  0.00     0.091 C 
ATOM      4  C   UNL     1       6.567  12.822   3.733  1.00  0.00     0.041 C 
ATOM      5  C   UNL     1       6.963  11.382   3.360  1.00  0.00     0.175 C 
ATOM      6  C   UNL     1       3.341  11.203   2.804  1.00  0.00     0.059 C 
ATOM      7  C   UNL     1       4.186  13.905   3.921  1.00  0.00     0.008 C 
ATOM      8  C   UNL     1       2.384  12.060   3.660  1.00  0.00     0.143 C 
ATOM      9  C   UNL     1       2.721  13.563   3.579  1.00  0.00     0.034 C 
ENDROOT
BRANCH   1  10
ATOM     10  C   UNL     1       6.139   9.992   1.487  1.00  0.00     0.246 C 
ATOM     11  O   UNL     1       6.329   8.823   1.841  1.00  0.00    -0.272 OA
BRANCH  10  12
ATOM     12  C   UNL     1       6.148  10.393  -0.017  1.00  0.00     0.174 C 
BRANCH  12  13
ATOM     13  N   UNL     1       4.995   9.806  -0.697  1.00  0.00    -0.342 N 
ATOM     14  C   UNL     1       4.959   8.542  -1.243  1.00  0.00     0.249 C 
ATOM     15  O   UNL     1       5.892   7.751  -1.194  1.00  0.00    -0.272 OA
ATOM     16  H   UNL     1       4.206  10.395  -0.952  1.00  0.00     0.164 HD
BRANCH  14  17
ATOM     17  C   UNL     1       3.604   8.220  -1.909  1.00  0.00     0.207 C 
BRANCH  17  18
ATOM     18  C   UNL     1       3.294   6.723  -1.796  1.00  0.00     0.077 C 
BRANCH  18  19
ATOM     19  C   UNL     1       2.492   6.408  -0.553  1.00  0.00    -0.043 A 
ATOM     20  C   UNL     1       2.232   6.484   1.858  1.00  0.00     0.083 A 
ATOM     21  C   UNL     1       2.949   6.820   0.709  1.00  0.00     0.028 A 
ATOM     22  C   UNL     1       1.059   5.736   1.755  1.00  0.00     0.134 A 
ATOM     23  C   UNL     1       0.595   5.322   0.512  1.00  0.00     0.048 A 
ATOM     24  C   UNL     1       1.311   5.655  -0.640  1.00  0.00     0.008 A 
ATOM     25  Cl  UNL     1       2.810   7.000   3.399  1.00  0.00    -0.080 Cl
BRANCH  22  26
ATOM     26  O   UNL     1       0.328   5.374   2.854  1.00  0.00    -0.506 OA
ATOM     27  H   UNL     1       0.262   4.402   2.839  1.00  0.00     0.293 HD
ENDBRANCH  22  26
ENDBRANCH  18  19
ENDBRANCH  17  18
BRANCH  17  28
ATOM     28  O   UNL     1       3.603   8.603  -3.293  1.00  0.00    -0.383 OA
ATOM     29  H   UNL     1       3.911   7.814  -3.794  1.00  0.00     0.211 HD
ENDBRANCH  17  28
ENDBRANCH  14  17
ENDBRANCH  12  13
BRANCH  12  30
ATOM     30  C   UNL     1       7.489  10.051  -0.721  1.00  0.00     0.018 C 
ATOM     31  C   UNL     1       8.683  10.384   0.187  1.00  0.00     0.010 C 
BRANCH  30  32
ATOM     32  C   UNL     1       7.660  10.737  -2.098  1.00  0.00     0.002 C 
ATOM     33  C   UNL     1       9.082  10.755  -2.644  1.00  0.00     0.004 C 
ENDBRANCH  30  32
ENDBRANCH  12  30
ENDBRANCH  10  12
ENDBRANCH   1  10
BRANCH   5  34
ATOM     34  C   UNL     1       7.029  10.464   4.609  1.00  0.00     0.242 C 
ATOM     35  O   UNL     1       6.552  10.795   5.695  1.00  0.00    -0.273 OA
ATOM     36  N   UNL     1       7.706   9.279   4.430  1.00  0.00    -0.354 N 
ATOM     37  H   UNL     1       8.183   9.114   3.543  1.00  0.00     0.163 HD
BRANCH  36  38
ATOM     38  C   UNL     1       7.680   8.217   5.415  1.00  0.00     0.116 C 
BRANCH  38  39
ATOM     39  C   UNL     1       6.788   7.078   4.926  1.00  0.00     0.023 C 
BRANCH  39  40
ATOM     40  C   UNL     1       6.277   6.206   6.068  1.00  0.00     0.026 C 
BRANCH  40  41
ATOM     41  C   UNL     1       4.813   6.522   6.377  1.00  0.00     0.146 C 
BRANCH  41  42
ATOM     42  N   UNL     1       4.738   7.609   7.346  1.00  0.00    -0.254 NA
ATOM     43  C   UNL     1       4.328   8.762   6.972  1.00  0.00     0.185 C 
ATOM     44  N   UNL     1       3.924   9.187   5.761  1.00  0.00    -0.370 N 
ATOM     45  N   UNL     1       4.271   9.752   7.879  1.00  0.00    -0.370 N 
ATOM     46  H   UNL     1       3.863  10.170   5.556  1.00  0.00     0.159 HD
ATOM     47  H   UNL     1       3.891   8.563   4.961  1.00  0.00     0.159 HD
ATOM     48  H   UNL     1       4.551   9.513   8.821  1.00  0.00     0.159 HD
ATOM     49  H   UNL     1       3.748  10.596   7.730  1.00  0.00     0.159 HD
ENDBRANCH  41  42
ENDBRANCH  40  41
ENDBRANCH  39  40
ENDBRANCH  38  39
ENDBRANCH  36  38
ENDBRANCH   5  34
BRANCH   8  50
ATOM     50  O   UNL     1       2.451  11.654   5.027  1.00  0.00    -0.245 OA
BRANCH  50  51
ATOM     51  S   UNL     1       1.078  11.354   5.845  1.00  0.00     0.397 S 
ATOM     52  O   UNL     1       1.416  10.580   7.018  1.00  0.00    -0.169 OA
ATOM     53  O   UNL     1       0.047  10.924   4.923  1.00  0.00    -0.169 OA
BRANCH  51  54
ATOM     54  O   UNL     1       0.682  12.816   6.384  1.00  0.00    -0.264 OA
ATOM     55  H   UNL     1       1.511  13.323   6.506  1.00  0.00     0.236 HD
ENDBRANCH  51  54
ENDBRANCH  50  51
ENDBRANCH   8  50
TORSDOF 19
ENDMDL
