MODEL 1
REMARK VINA RESULT:    -6.846      0.000      0.000
REMARK INTER + INTRA:         -28.435
REMARK INTER:                 -20.454
REMARK INTRA:                  -7.981
REMARK UNBOUND:                -7.981
REMARK SMILES C=C1C(=O)N[C@H](C)C(=O)N[C@@H](CC(C)C)C(=O)N[C@@H](C(=O)O)[C@H](C)C(=O)N[C@@H](CCCN=C(N)N)C(=O)N[C@@H](/C=C/C(C)=C/[C@H](C)[C@H](Cc2ccccc2)OC)[C@H](C)C(=O)N[C@@H](C(=O)O)CCC(=O)N1C
REMARK SMILES IDX 39 1 38 2 37 3 36 4 28 6 27 7 25 8 26 9 23 11 24 12 19 13
REMARK SMILES IDX 18 14 16 15 17 16 11 18 10 19 8 20 9 21 12 24 13 25 14 26
REMARK SMILES IDX 15 27 20 28 21 29 22 30 29 32 30 33 31 34 32 35 33 36 34 37
REMARK SMILES IDX 35 38 57 43 58 44 59 45 60 46 61 47 62 49 66 50 67 51 68 52
REMARK SMILES IDX 69 53 70 54 71 55 2 56 1 57 3 58 4 59 5 60 6 62 7 63 63 65
REMARK SMILES IDX 64 66 65 67 40 69 41 70 42 71 44 72 43 73 45 74 46 75 47 76
REMARK SMILES IDX 55 77 56 78 48 79 49 80 50 81 54 82 51 83 53 84 52 85
REMARK H PARENT 38 5 27 10 18 17 10 22 22 31 34 39 34 40 35 41 35 42 61 48
REMARK H PARENT 5 61 65 68
REMARK Flexibility Score:  369.900
ROOT
ATOM      1  C   UNL     1      -5.456   3.497  -4.724  1.00  0.00     0.117 C 
ENDROOT
BRANCH   1   2
ATOM      2  N   UNL     1      -5.998   2.207  -5.150  1.00  0.00    -0.347 N 
ATOM      3  O   UNL     1      -6.026   1.185  -3.094  1.00  0.00    -0.273 OA
ATOM      4  C   UNL     1      -6.326   1.182  -4.283  1.00  0.00     0.243 C 
ATOM      5  H   UNL     1      -6.198   2.052  -6.126  1.00  0.00     0.164 HD
BRANCH   4   6
ATOM      6  C   UNL     1      -6.963  -0.046  -4.983  1.00  0.00     0.171 C 
BRANCH   6   7
ATOM      7  N   UNL     1      -8.400  -0.124  -4.678  1.00  0.00    -0.344 N 
ATOM      8  C   UNL     1      -9.027  -1.345  -4.552  1.00  0.00     0.226 C 
ATOM      9  O   UNL     1      -8.438  -2.408  -4.707  1.00  0.00    -0.275 OA
ATOM     10  H   UNL     1      -8.935   0.733  -4.610  1.00  0.00     0.164 HD
BRANCH   8  11
ATOM     11  C   UNL     1     -10.497  -1.258  -4.182  1.00  0.00     0.109 C 
ATOM     12  C   UNL     1     -11.345  -1.995  -5.220  1.00  0.00     0.021 C 
BRANCH  11  13
ATOM     13  C   UNL     1     -10.698  -1.730  -2.728  1.00  0.00     0.204 C 
BRANCH  13  14
ATOM     14  N   UNL     1      -9.982  -2.979  -2.449  1.00  0.00    -0.340 N 
ATOM     15  C   UNL     1     -10.591  -4.082  -1.892  1.00  0.00     0.243 C 
ATOM     16  O   UNL     1     -11.795  -4.118  -1.645  1.00  0.00    -0.273 OA
ATOM     17  H   UNL     1      -8.959  -2.965  -2.488  1.00  0.00     0.164 HD
BRANCH  15  18
ATOM     18  C   UNL     1      -9.598  -5.204  -1.498  1.00  0.00     0.171 C 
BRANCH  18  19
ATOM     19  N   UNL     1     -10.345  -6.154  -0.678  1.00  0.00    -0.343 N 
ATOM     20  C   UNL     1     -10.087  -6.314   0.670  1.00  0.00     0.242 CG0
ATOM     21  O   UNL     1      -9.132  -5.763   1.212  1.00  0.00    -0.273 OA
ATOM     22  H   UNL     1     -11.070  -6.719  -1.106  1.00  0.00     0.164 HD
ATOM     23  G   UNL     1     -11.029  -7.304   1.386  1.00  0.00     0.000 G0
ENDBRANCH  18  19
BRANCH  18  24
ATOM     24  C   UNL     1      -9.016  -5.875  -2.748  1.00  0.00     0.038 C 
BRANCH  24  25
ATOM     25  C   UNL     1     -10.059  -6.252  -3.822  1.00  0.00    -0.015 C 
ATOM     26  C   UNL     1     -10.335  -7.756  -3.867  1.00  0.00     0.007 C 
ATOM     27  C   UNL     1      -9.580  -5.775  -5.195  1.00  0.00     0.007 C 
ENDBRANCH  24  25
ENDBRANCH  18  24
ENDBRANCH  15  18
ENDBRANCH  13  14
BRANCH  13  28
ATOM     28  C   UNL     1     -10.237  -0.701  -1.691  1.00  0.00     0.327 C 
ATOM     29  O   UNL     1     -10.956   0.039  -1.038  1.00  0.00    -0.250 OA
BRANCH  28  30
ATOM     30  O   UNL     1      -8.895  -0.582  -1.625  1.00  0.00    -0.480 OA
ATOM     31  H   UNL     1      -8.574  -1.016  -2.443  1.00  0.00     0.296 HD
ENDBRANCH  28  30
ENDBRANCH  13  28
ENDBRANCH  11  13
ENDBRANCH   8  11
ENDBRANCH   6   7
BRANCH   6  32
ATOM     32  C   UNL     1      -6.729   0.059  -6.494  1.00  0.00     0.037 C 
BRANCH  32  33
ATOM     33  C   UNL     1      -6.050  -1.195  -7.063  1.00  0.00     0.026 C 
BRANCH  33  34
ATOM     34  C   UNL     1      -6.753  -1.725  -8.314  1.00  0.00     0.146 C 
BRANCH  34  35
ATOM     35  N   UNL     1      -7.833  -2.612  -7.905  1.00  0.00    -0.254 NA
ATOM     36  C   UNL     1      -8.963  -2.519  -8.501  1.00  0.00     0.185 C 
ATOM     37  N   UNL     1      -9.964  -3.335  -8.136  1.00  0.00    -0.370 N 
ATOM     38  N   UNL     1      -9.330  -1.687  -9.492  1.00  0.00    -0.370 N 
ATOM     39  H   UNL     1      -9.762  -4.000  -7.400  1.00  0.00     0.159 HD
ATOM     40  H   UNL     1     -10.813  -3.444  -8.663  1.00  0.00     0.159 HD
ATOM     41  H   UNL     1     -10.291  -1.615  -9.783  1.00  0.00     0.159 HD
ATOM     42  H   UNL     1      -8.681  -1.006  -9.856  1.00  0.00     0.159 HD
ENDBRANCH  34  35
ENDBRANCH  33  34
ENDBRANCH  32  33
ENDBRANCH   6  32
ENDBRANCH   4   6
ENDBRANCH   1   2
BRANCH   1  43
ATOM     43  C   UNL     1      -6.512   4.601  -5.022  1.00  0.00     0.102 C 
ATOM     44  C   UNL     1      -6.694   5.601  -3.869  1.00  0.00     0.020 C 
BRANCH  43  45
ATOM     45  C   UNL     1      -7.822   3.987  -5.525  1.00  0.00     0.225 C 
ATOM     46  O   UNL     1      -7.982   3.601  -6.680  1.00  0.00    -0.275 OA
ATOM     47  N   UNL     1      -8.858   3.977  -4.619  1.00  0.00    -0.342 N 
ATOM     48  H   UNL     1      -8.669   4.153  -3.642  1.00  0.00     0.164 HD
BRANCH  47  49
ATOM     49  C   UNL     1     -10.159   3.388  -4.949  1.00  0.00     0.192 C 
BRANCH  49  50
ATOM     50  C   UNL     1     -11.168   4.501  -5.242  1.00  0.00     0.047 C 
BRANCH  50  51
ATOM     51  C   UNL     1     -11.819   4.348  -6.623  1.00  0.00     0.103 C 
BRANCH  51  52
ATOM     52  C   UNL     1     -12.206   5.696  -7.227  1.00  0.00     0.226 C 
ATOM     53  O   UNL     1     -13.373   6.085  -7.154  1.00  0.00    -0.275 OA
BRANCH  52  54
ATOM     54  N   UNL     1     -11.160   6.460  -7.777  1.00  0.00    -0.311 N 
ATOM     55  C   UNL     1     -10.093   5.826  -8.564  1.00  0.00     0.153 C 
BRANCH  54  56
ATOM     56  C   UNL     1     -11.099   7.853  -7.601  1.00  0.00     0.102 C 
ATOM     57  C   UNL     1     -10.711   8.468  -6.472  1.00  0.00     0.043 C 
BRANCH  56  58
ATOM     58  C   UNL     1     -11.437   8.793  -8.734  1.00  0.00     0.268 C 
ATOM     59  O   UNL     1     -12.582   8.997  -9.116  1.00  0.00    -0.268 OA
ATOM     60  N   UNL     1     -10.338   9.441  -9.245  1.00  0.00    -0.339 N 
ATOM     61  H   UNL     1      -9.422   9.208  -8.880  1.00  0.00     0.164 HD
BRANCH  60  62
ATOM     62  C   UNL     1     -10.447  10.442 -10.305  1.00  0.00     0.168 CG0
ATOM     63  C   UNL     1     -10.336   9.795 -11.681  1.00  0.00     0.041 C 
ATOM     64  G   UNL     1      -9.355  11.515 -10.117  1.00  0.00     0.000 G0
ENDBRANCH  60  62
ENDBRANCH  56  58
ENDBRANCH  54  56
ENDBRANCH  52  54
ENDBRANCH  51  52
ENDBRANCH  50  51
ENDBRANCH  49  50
BRANCH  49  65
ATOM     65  C   UNL     1     -10.689   2.508  -3.807  1.00  0.00     0.326 C 
ATOM     66  O   UNL     1     -11.863   2.229  -3.611  1.00  0.00    -0.250 OA
BRANCH  65  67
ATOM     67  O   UNL     1      -9.744   2.077  -2.942  1.00  0.00    -0.480 OA
ATOM     68  H   UNL     1      -8.902   2.257  -3.411  1.00  0.00     0.296 HD
ENDBRANCH  65  67
ENDBRANCH  49  65
ENDBRANCH  47  49
ENDBRANCH  43  45
ENDBRANCH   1  43
BRANCH   1  69
ATOM     69  C   UNL     1      -4.080   3.609  -5.355  1.00  0.00    -0.001 C 
ATOM     70  C   UNL     1      -3.364   4.728  -5.562  1.00  0.00     0.001 C 
BRANCH  70  71
ATOM     71  C   UNL     1      -2.028   4.821  -6.153  1.00  0.00    -0.055 C 
ATOM     72  C   UNL     1      -1.902   4.538  -7.466  1.00  0.00    -0.018 C 
ATOM     73  C   UNL     1      -0.890   5.233  -5.256  1.00  0.00     0.044 C 
BRANCH  72  74
ATOM     74  C   UNL     1      -0.655   4.553  -8.339  1.00  0.00     0.038 C 
ATOM     75  C   UNL     1      -0.962   5.440  -9.552  1.00  0.00     0.015 C 
BRANCH  74  76
ATOM     76  C   UNL     1      -0.268   3.085  -8.686  1.00  0.00     0.128 C 
BRANCH  76  77
ATOM     77  O   UNL     1       1.042   2.789  -8.173  1.00  0.00    -0.381 OA
ATOM     78  C   UNL     1       2.089   3.046  -9.099  1.00  0.00     0.195 C 
ENDBRANCH  76  77
BRANCH  76  79
ATOM     79  C   UNL     1      -1.329   2.038  -8.262  1.00  0.00     0.068 C 
BRANCH  79  80
ATOM     80  C   UNL     1      -2.565   1.898  -9.117  1.00  0.00    -0.045 A 
ATOM     81  C   UNL     1      -2.497   2.027 -10.510  1.00  0.00     0.004 A 
ATOM     82  C   UNL     1      -3.813   1.662  -8.521  1.00  0.00     0.004 A 
ATOM     83  C   UNL     1      -3.648   1.910 -11.293  1.00  0.00     0.000 A 
ATOM     84  C   UNL     1      -4.964   1.546  -9.305  1.00  0.00     0.000 A 
ATOM     85  C   UNL     1      -4.880   1.668 -10.690  1.00  0.00     0.000 A 
ENDBRANCH  79  80
ENDBRANCH  76  79
ENDBRANCH  74  76
ENDBRANCH  72  74
ENDBRANCH  70  71
ENDBRANCH   1  69
TORSDOF 17
ENDMDL
MODEL 2
REMARK VINA RESULT:    -6.756      4.572      8.485
REMARK INTER + INTRA:         -28.165
REMARK INTER:                 -20.633
REMARK INTRA:                  -7.532
REMARK UNBOUND:                -7.981
REMARK SMILES C=C1C(=O)N[C@H](C)C(=O)N[C@@H](CC(C)C)C(=O)N[C@@H](C(=O)O)[C@H](C)C(=O)N[C@@H](CCCN=C(N)N)C(=O)N[C@@H](/C=C/C(C)=C/[C@H](C)[C@H](Cc2ccccc2)OC)[C@H](C)C(=O)N[C@@H](C(=O)O)CCC(=O)N1C
REMARK SMILES IDX 39 1 38 2 37 3 36 4 28 6 27 7 25 8 26 9 23 11 24 12 19 13
REMARK SMILES IDX 18 14 16 15 17 16 11 18 10 19 8 20 9 21 12 24 13 25 14 26
REMARK SMILES IDX 15 27 20 28 21 29 22 30 29 32 30 33 31 34 32 35 33 36 34 37
REMARK SMILES IDX 35 38 57 43 58 44 59 45 60 46 61 47 62 49 66 50 67 51 68 52
REMARK SMILES IDX 69 53 70 54 71 55 2 56 1 57 3 58 4 59 5 60 6 62 7 63 63 65
REMARK SMILES IDX 64 66 65 67 40 69 41 70 42 71 44 72 43 73 45 74 46 75 47 76
REMARK SMILES IDX 55 77 56 78 48 79 49 80 50 81 54 82 51 83 53 84 52 85
REMARK H PARENT 38 5 27 10 18 17 10 22 22 31 34 39 34 40 35 41 35 42 61 48
REMARK H PARENT 5 61 65 68
REMARK Flexibility Score:  369.900
ROOT
ATOM      1  C   UNL     1      -8.672  -2.130  -6.797  1.00  0.00     0.117 C 
ENDROOT
BRANCH   1   2
ATOM      2  N   UNL     1      -9.364  -1.992  -5.515  1.00  0.00    -0.347 N 
ATOM      3  O   UNL     1     -11.499  -1.785  -6.332  1.00  0.00    -0.273 OA
ATOM      4  C   UNL     1     -10.737  -1.922  -5.381  1.00  0.00     0.243 C 
ATOM      5  H   UNL     1      -8.827  -1.996  -4.661  1.00  0.00     0.164 HD
BRANCH   4   6
ATOM      6  C   UNL     1     -11.217  -1.867  -3.908  1.00  0.00     0.171 C 
BRANCH   6   7
ATOM      7  N   UNL     1     -10.621  -2.964  -3.131  1.00  0.00    -0.344 N 
ATOM      8  C   UNL     1     -11.367  -4.072  -2.792  1.00  0.00     0.226 C 
ATOM      9  O   UNL     1     -12.549  -4.190  -3.095  1.00  0.00    -0.275 OA
ATOM     10  H   UNL     1      -9.666  -2.873  -2.805  1.00  0.00     0.164 HD
BRANCH   8  11
ATOM     11  C   UNL     1     -10.595  -5.140  -2.038  1.00  0.00     0.109 C 
ATOM     12  C   UNL     1      -9.143  -5.177  -2.517  1.00  0.00     0.021 C 
BRANCH  11  13
ATOM     13  C   UNL     1     -10.772  -4.938  -0.520  1.00  0.00     0.204 C 
BRANCH  13  14
ATOM     14  N   UNL     1     -11.762  -3.901  -0.214  1.00  0.00    -0.340 N 
ATOM     15  C   UNL     1     -11.540  -2.905   0.712  1.00  0.00     0.243 C 
ATOM     16  O   UNL     1     -10.470  -2.780   1.304  1.00  0.00    -0.273 OA
ATOM     17  H   UNL     1     -12.718  -4.034  -0.554  1.00  0.00     0.164 HD
BRANCH  15  18
ATOM     18  C   UNL     1     -12.797  -2.054   1.019  1.00  0.00     0.171 C 
BRANCH  18  19
ATOM     19  N   UNL     1     -12.984  -2.090   2.468  1.00  0.00    -0.343 N 
ATOM     20  C   UNL     1     -14.237  -2.204   3.038  1.00  0.00     0.242 CG0
ATOM     21  O   UNL     1     -15.260  -2.146   2.360  1.00  0.00    -0.273 OA
ATOM     22  H   UNL     1     -12.175  -2.023   3.075  1.00  0.00     0.164 HD
ATOM     23  G   UNL     1     -14.229  -2.305   4.578  1.00  0.00     0.000 G0
ENDBRANCH  18  19
BRANCH  18  24
ATOM     24  C   UNL     1     -12.616  -0.618   0.511  1.00  0.00     0.038 C 
BRANCH  24  25
ATOM     25  C   UNL     1     -13.751  -0.110  -0.404  1.00  0.00    -0.015 C 
ATOM     26  C   UNL     1     -14.061  -1.078  -1.545  1.00  0.00     0.007 C 
ATOM     27  C   UNL     1     -13.376   1.260  -0.977  1.00  0.00     0.007 C 
ENDBRANCH  24  25
ENDBRANCH  18  24
ENDBRANCH  15  18
ENDBRANCH  13  14
BRANCH  13  28
ATOM     28  C   UNL     1     -11.207  -6.211   0.212  1.00  0.00     0.327 C 
ATOM     29  O   UNL     1     -10.475  -6.995   0.796  1.00  0.00    -0.250 OA
BRANCH  28  30
ATOM     30  O   UNL     1     -12.519  -6.484   0.064  1.00  0.00    -0.480 OA
ATOM     31  H   UNL     1     -12.550  -7.453  -0.077  1.00  0.00     0.296 HD
ENDBRANCH  28  30
ENDBRANCH  13  28
ENDBRANCH  11  13
ENDBRANCH   8  11
ENDBRANCH   6   7
BRANCH   6  32
ATOM     32  C   UNL     1     -10.845  -0.506  -3.309  1.00  0.00     0.037 C 
BRANCH  32  33
ATOM     33  C   UNL     1      -9.992  -0.646  -2.040  1.00  0.00     0.026 C 
BRANCH  33  34
ATOM     34  C   UNL     1      -9.717   0.700  -1.369  1.00  0.00     0.146 C 
BRANCH  34  35
ATOM     35  N   UNL     1      -8.293   0.796  -1.074  1.00  0.00    -0.254 NA
ATOM     36  C   UNL     1      -7.541   1.447  -1.881  1.00  0.00     0.185 C 
ATOM     37  N   UNL     1      -6.229   1.546  -1.617  1.00  0.00    -0.370 N 
ATOM     38  N   UNL     1      -7.874   2.086  -3.017  1.00  0.00    -0.370 N 
ATOM     39  H   UNL     1      -5.902   1.099  -0.770  1.00  0.00     0.159 HD
ATOM     40  H   UNL     1      -5.611   2.176  -2.098  1.00  0.00     0.159 HD
ATOM     41  H   UNL     1      -7.169   2.444  -3.639  1.00  0.00     0.159 HD
ATOM     42  H   UNL     1      -8.827   2.081  -3.348  1.00  0.00     0.159 HD
ENDBRANCH  34  35
ENDBRANCH  33  34
ENDBRANCH  32  33
ENDBRANCH   6  32
ENDBRANCH   4   6
ENDBRANCH   1   2
BRANCH   1  43
ATOM     43  C   UNL     1      -7.965  -3.516  -6.832  1.00  0.00     0.102 C 
ATOM     44  C   UNL     1      -6.957  -3.717  -5.688  1.00  0.00     0.020 C 
BRANCH  43  45
ATOM     45  C   UNL     1      -7.394  -3.807  -8.223  1.00  0.00     0.225 C 
ATOM     46  O   UNL     1      -6.768  -4.829  -8.490  1.00  0.00    -0.275 OA
ATOM     47  N   UNL     1      -7.544  -2.799  -9.148  1.00  0.00    -0.342 N 
ATOM     48  H   UNL     1      -8.185  -2.041  -8.962  1.00  0.00     0.164 HD
BRANCH  47  49
ATOM     49  C   UNL     1      -7.078  -2.952 -10.529  1.00  0.00     0.192 C 
BRANCH  49  50
ATOM     50  C   UNL     1      -6.251  -1.728 -10.932  1.00  0.00     0.047 C 
BRANCH  50  51
ATOM     51  C   UNL     1      -5.950  -0.812  -9.738  1.00  0.00     0.103 C 
BRANCH  51  52
ATOM     52  C   UNL     1      -4.486  -0.376  -9.705  1.00  0.00     0.226 C 
ATOM     53  O   UNL     1      -4.082   0.467 -10.509  1.00  0.00    -0.275 OA
BRANCH  52  54
ATOM     54  N   UNL     1      -3.691  -0.925  -8.682  1.00  0.00    -0.311 N 
ATOM     55  C   UNL     1      -4.269  -1.832  -7.681  1.00  0.00     0.153 C 
BRANCH  54  56
ATOM     56  C   UNL     1      -2.321  -0.635  -8.584  1.00  0.00     0.102 C 
ATOM     57  C   UNL     1      -1.753   0.065  -7.587  1.00  0.00     0.043 C 
BRANCH  56  58
ATOM     58  C   UNL     1      -1.343  -1.150  -9.613  1.00  0.00     0.268 C 
ATOM     59  O   UNL     1      -0.586  -0.422 -10.241  1.00  0.00    -0.268 OA
ATOM     60  N   UNL     1      -1.346  -2.520  -9.723  1.00  0.00    -0.339 N 
ATOM     61  H   UNL     1      -2.011  -3.051  -9.175  1.00  0.00     0.164 HD
BRANCH  60  62
ATOM     62  C   UNL     1      -0.432  -3.232 -10.616  1.00  0.00     0.168 CG0
ATOM     63  C   UNL     1       0.163  -4.454  -9.928  1.00  0.00     0.041 C 
ATOM     64  G   UNL     1       0.681  -2.274 -11.087  1.00  0.00     0.000 G0
ENDBRANCH  60  62
ENDBRANCH  56  58
ENDBRANCH  54  56
ENDBRANCH  52  54
ENDBRANCH  51  52
ENDBRANCH  50  51
ENDBRANCH  49  50
BRANCH  49  65
ATOM     65  C   UNL     1      -8.251  -3.118 -11.508  1.00  0.00     0.326 C 
ATOM     66  O   UNL     1      -8.151  -3.329 -12.708  1.00  0.00    -0.250 OA
BRANCH  65  67
ATOM     67  O   UNL     1      -9.473  -2.954 -10.956  1.00  0.00    -0.480 OA
ATOM     68  H   UNL     1      -9.354  -3.265 -10.033  1.00  0.00     0.296 HD
ENDBRANCH  65  67
ENDBRANCH  49  65
ENDBRANCH  47  49
ENDBRANCH  43  45
ENDBRANCH   1  43
BRANCH   1  69
ATOM     69  C   UNL     1      -7.835  -0.875  -6.965  1.00  0.00    -0.001 C 
ATOM     70  C   UNL     1      -7.159  -0.211  -6.011  1.00  0.00     0.001 C 
BRANCH  70  71
ATOM     71  C   UNL     1      -6.337   0.988  -6.188  1.00  0.00    -0.055 C 
ATOM     72  C   UNL     1      -5.338   1.200  -5.305  1.00  0.00    -0.018 C 
ATOM     73  C   UNL     1      -6.658   1.894  -7.348  1.00  0.00     0.044 C 
BRANCH  72  74
ATOM     74  C   UNL     1      -4.334   2.342  -5.244  1.00  0.00     0.038 C 
ATOM     75  C   UNL     1      -3.175   1.878  -4.353  1.00  0.00     0.015 C 
BRANCH  74  76
ATOM     76  C   UNL     1      -5.064   3.625  -4.748  1.00  0.00     0.128 C 
BRANCH  76  77
ATOM     77  O   UNL     1      -5.085   3.654  -3.311  1.00  0.00    -0.381 OA
ATOM     78  C   UNL     1      -5.526   4.892  -2.771  1.00  0.00     0.195 C 
ENDBRANCH  76  77
BRANCH  76  79
ATOM     79  C   UNL     1      -4.520   4.937  -5.366  1.00  0.00     0.068 C 
BRANCH  79  80
ATOM     80  C   UNL     1      -3.030   5.053  -5.581  1.00  0.00    -0.045 A 
ATOM     81  C   UNL     1      -2.193   5.553  -4.575  1.00  0.00     0.004 A 
ATOM     82  C   UNL     1      -2.462   4.686  -6.810  1.00  0.00     0.004 A 
ATOM     83  C   UNL     1      -0.817   5.670  -4.786  1.00  0.00     0.000 A 
ATOM     84  C   UNL     1      -1.086   4.805  -7.021  1.00  0.00     0.000 A 
ATOM     85  C   UNL     1      -0.265   5.295  -6.008  1.00  0.00     0.000 A 
ENDBRANCH  79  80
ENDBRANCH  76  79
ENDBRANCH  74  76
ENDBRANCH  72  74
ENDBRANCH  70  71
ENDBRANCH   1  69
TORSDOF 17
ENDMDL
MODEL 3
REMARK VINA RESULT:    -6.708      2.887      7.990
REMARK INTER + INTRA:         -28.023
REMARK INTER:                 -22.482
REMARK INTRA:                  -5.541
REMARK UNBOUND:                -7.981
REMARK SMILES C=C1C(=O)N[C@H](C)C(=O)N[C@@H](CC(C)C)C(=O)N[C@@H](C(=O)O)[C@H](C)C(=O)N[C@@H](CCCN=C(N)N)C(=O)N[C@@H](/C=C/C(C)=C/[C@H](C)[C@H](Cc2ccccc2)OC)[C@H](C)C(=O)N[C@@H](C(=O)O)CCC(=O)N1C
REMARK SMILES IDX 39 1 38 2 37 3 36 4 28 6 27 7 25 8 26 9 23 11 24 12 19 13
REMARK SMILES IDX 18 14 16 15 17 16 11 18 10 19 8 20 9 21 12 24 13 25 14 26
REMARK SMILES IDX 15 27 20 28 21 29 22 30 29 32 30 33 31 34 32 35 33 36 34 37
REMARK SMILES IDX 35 38 57 43 58 44 59 45 60 46 61 47 62 49 66 50 67 51 68 52
REMARK SMILES IDX 69 53 70 54 71 55 2 56 1 57 3 58 4 59 5 60 6 62 7 63 63 65
REMARK SMILES IDX 64 66 65 67 40 69 41 70 42 71 44 72 43 73 45 74 46 75 47 76
REMARK SMILES IDX 55 77 56 78 48 79 49 80 50 81 54 82 51 83 53 84 52 85
REMARK H PARENT 38 5 27 10 18 17 10 22 22 31 34 39 34 40 35 41 35 42 61 48
REMARK H PARENT 5 61 65 68
REMARK Flexibility Score:  369.900
ROOT
ATOM      1  C   UNL     1      -7.484   2.771  -5.467  1.00  0.00     0.117 C 
ENDROOT
BRANCH   1   2
ATOM      2  N   UNL     1      -7.636   1.316  -5.507  1.00  0.00    -0.347 N 
ATOM      3  O   UNL     1      -5.506   0.798  -6.189  1.00  0.00    -0.273 OA
ATOM      4  C   UNL     1      -6.604   0.438  -5.777  1.00  0.00     0.243 C 
ATOM      5  H   UNL     1      -8.528   0.906  -5.277  1.00  0.00     0.164 HD
BRANCH   4   6
ATOM      6  C   UNL     1      -7.011  -1.054  -5.671  1.00  0.00     0.171 C 
BRANCH   6   7
ATOM      7  N   UNL     1      -8.152  -1.211  -4.755  1.00  0.00    -0.344 N 
ATOM      8  C   UNL     1      -8.205  -2.269  -3.873  1.00  0.00     0.226 C 
ATOM      9  O   UNL     1      -7.334  -3.128  -3.820  1.00  0.00    -0.275 OA
ATOM     10  H   UNL     1      -8.924  -0.558  -4.816  1.00  0.00     0.164 HD
BRANCH   8  11
ATOM     11  C   UNL     1      -9.418  -2.261  -2.959  1.00  0.00     0.109 C 
ATOM     12  C   UNL     1     -10.522  -1.389  -3.557  1.00  0.00     0.021 C 
BRANCH  11  13
ATOM     13  C   UNL     1      -9.838  -3.710  -2.638  1.00  0.00     0.204 C 
BRANCH  13  14
ATOM     14  N   UNL     1     -10.130  -3.897  -1.214  1.00  0.00    -0.340 N 
ATOM     15  C   UNL     1      -9.964  -5.103  -0.568  1.00  0.00     0.243 C 
ATOM     16  O   UNL     1      -9.501  -6.094  -1.129  1.00  0.00    -0.273 OA
ATOM     17  H   UNL     1     -10.656  -3.163  -0.731  1.00  0.00     0.164 HD
BRANCH  15  18
ATOM     18  C   UNL     1     -10.531  -5.116   0.873  1.00  0.00     0.171 C 
BRANCH  18  19
ATOM     19  N   UNL     1     -10.288  -6.454   1.406  1.00  0.00    -0.343 N 
ATOM     20  C   UNL     1     -11.284  -7.184   2.027  1.00  0.00     0.242 CG0
ATOM     21  O   UNL     1     -12.381  -6.690   2.278  1.00  0.00    -0.273 OA
ATOM     22  H   UNL     1      -9.363  -6.862   1.326  1.00  0.00     0.164 HD
ATOM     23  G   UNL     1     -10.861  -8.605   2.453  1.00  0.00     0.000 G0
ENDBRANCH  18  19
BRANCH  18  24
ATOM     24  C   UNL     1      -9.855  -4.038   1.730  1.00  0.00     0.038 C 
BRANCH  24  25
ATOM     25  C   UNL     1     -10.823  -3.017   2.364  1.00  0.00    -0.015 C 
ATOM     26  C   UNL     1     -12.259  -3.185   1.865  1.00  0.00     0.007 C 
ATOM     27  C   UNL     1     -10.338  -1.596   2.068  1.00  0.00     0.007 C 
ENDBRANCH  24  25
ENDBRANCH  18  24
ENDBRANCH  15  18
ENDBRANCH  13  14
BRANCH  13  28
ATOM     28  C   UNL     1     -11.074  -4.166  -3.419  1.00  0.00     0.327 C 
ATOM     29  O   UNL     1     -12.230  -4.136  -3.024  1.00  0.00    -0.250 OA
BRANCH  28  30
ATOM     30  O   UNL     1     -10.771  -4.743  -4.599  1.00  0.00    -0.480 OA
ATOM     31  H   UNL     1     -11.624  -4.770  -5.081  1.00  0.00     0.296 HD
ENDBRANCH  28  30
ENDBRANCH  13  28
ENDBRANCH  11  13
ENDBRANCH   8  11
ENDBRANCH   6   7
BRANCH   6  32
ATOM     32  C   UNL     1      -7.353  -1.583  -7.068  1.00  0.00     0.037 C 
BRANCH  32  33
ATOM     33  C   UNL     1      -8.866  -1.739  -7.274  1.00  0.00     0.026 C 
BRANCH  33  34
ATOM     34  C   UNL     1      -9.280  -3.195  -7.490  1.00  0.00     0.146 C 
BRANCH  34  35
ATOM     35  N   UNL     1      -8.109  -3.961  -7.894  1.00  0.00    -0.254 NA
ATOM     36  C   UNL     1      -7.652  -4.852  -7.096  1.00  0.00     0.185 C 
ATOM     37  N   UNL     1      -6.577  -5.568  -7.461  1.00  0.00    -0.370 N 
ATOM     38  N   UNL     1      -8.103  -5.209  -5.880  1.00  0.00    -0.370 N 
ATOM     39  H   UNL     1      -6.184  -5.365  -8.371  1.00  0.00     0.159 HD
ATOM     40  H   UNL     1      -6.266  -6.392  -6.976  1.00  0.00     0.159 HD
ATOM     41  H   UNL     1      -7.573  -5.828  -5.289  1.00  0.00     0.159 HD
ATOM     42  H   UNL     1      -8.898  -4.742  -5.471  1.00  0.00     0.159 HD
ENDBRANCH  34  35
ENDBRANCH  33  34
ENDBRANCH  32  33
ENDBRANCH   6  32
ENDBRANCH   4   6
ENDBRANCH   1   2
BRANCH   1  43
ATOM     43  C   UNL     1      -6.594   3.143  -4.246  1.00  0.00     0.102 C 
ATOM     44  C   UNL     1      -7.392   3.351  -2.948  1.00  0.00     0.020 C 
BRANCH  43  45
ATOM     45  C   UNL     1      -5.649   4.300  -4.586  1.00  0.00     0.225 C 
ATOM     46  O   UNL     1      -6.043   5.393  -4.984  1.00  0.00    -0.275 OA
ATOM     47  N   UNL     1      -4.306   4.010  -4.509  1.00  0.00    -0.342 N 
ATOM     48  H   UNL     1      -4.002   3.168  -4.040  1.00  0.00     0.164 HD
BRANCH  47  49
ATOM     49  C   UNL     1      -3.286   5.029  -4.772  1.00  0.00     0.192 C 
BRANCH  49  50
ATOM     50  C   UNL     1      -2.317   4.523  -5.843  1.00  0.00     0.047 C 
BRANCH  50  51
ATOM     51  C   UNL     1      -1.517   3.300  -5.373  1.00  0.00     0.103 C 
BRANCH  51  52
ATOM     52  C   UNL     1      -0.647   2.721  -6.487  1.00  0.00     0.226 C 
ATOM     53  O   UNL     1       0.545   3.027  -6.551  1.00  0.00    -0.275 OA
BRANCH  52  54
ATOM     54  N   UNL     1      -1.264   1.792  -7.346  1.00  0.00    -0.311 N 
ATOM     55  C   UNL     1      -1.550   0.423  -6.898  1.00  0.00     0.153 C 
BRANCH  54  56
ATOM     56  C   UNL     1      -1.632   2.139  -8.656  1.00  0.00     0.102 C 
ATOM     57  C   UNL     1      -2.896   2.298  -9.083  1.00  0.00     0.043 C 
BRANCH  56  58
ATOM     58  C   UNL     1      -0.584   2.413  -9.710  1.00  0.00     0.268 C 
ATOM     59  O   UNL     1       0.537   1.924  -9.681  1.00  0.00    -0.268 OA
ATOM     60  N   UNL     1      -1.041   3.210 -10.732  1.00  0.00    -0.339 N 
ATOM     61  H   UNL     1      -1.981   3.583 -10.676  1.00  0.00     0.164 HD
BRANCH  60  62
ATOM     62  C   UNL     1      -0.210   3.548 -11.887  1.00  0.00     0.168 CG0
ATOM     63  C   UNL     1       0.157   5.027 -11.882  1.00  0.00     0.041 C 
ATOM     64  G   UNL     1      -0.953   3.174 -13.186  1.00  0.00     0.000 G0
ENDBRANCH  60  62
ENDBRANCH  56  58
ENDBRANCH  54  56
ENDBRANCH  52  54
ENDBRANCH  51  52
ENDBRANCH  50  51
ENDBRANCH  49  50
BRANCH  49  65
ATOM     65  C   UNL     1      -2.499   5.384  -3.500  1.00  0.00     0.326 C 
ATOM     66  O   UNL     1      -1.654   6.263  -3.410  1.00  0.00    -0.250 OA
BRANCH  65  67
ATOM     67  O   UNL     1      -2.760   4.593  -2.436  1.00  0.00    -0.480 OA
ATOM     68  H   UNL     1      -3.566   4.103  -2.705  1.00  0.00     0.296 HD
ENDBRANCH  65  67
ENDBRANCH  49  65
ENDBRANCH  47  49
ENDBRANCH  43  45
ENDBRANCH   1  43
BRANCH   1  69
ATOM     69  C   UNL     1      -8.886   3.346  -5.556  1.00  0.00    -0.001 C 
ATOM     70  C   UNL     1      -9.278   4.442  -6.229  1.00  0.00     0.001 C 
BRANCH  70  71
ATOM     71  C   UNL     1     -10.639   4.975  -6.325  1.00  0.00    -0.055 C 
ATOM     72  C   UNL     1     -11.026   5.498  -7.507  1.00  0.00    -0.018 C 
ATOM     73  C   UNL     1     -11.512   4.895  -5.100  1.00  0.00     0.044 C 
BRANCH  72  74
ATOM     74  C   UNL     1     -12.363   6.114  -7.897  1.00  0.00     0.038 C 
ATOM     75  C   UNL     1     -12.717   5.582  -9.291  1.00  0.00     0.015 C 
BRANCH  74  76
ATOM     76  C   UNL     1     -12.248   7.663  -7.798  1.00  0.00     0.128 C 
BRANCH  76  77
ATOM     77  O   UNL     1     -12.817   8.120  -6.560  1.00  0.00    -0.381 OA
ATOM     78  C   UNL     1     -11.859   8.638  -5.647  1.00  0.00     0.195 C 
ENDBRANCH  76  77
BRANCH  76  79
ATOM     79  C   UNL     1     -10.816   8.205  -8.035  1.00  0.00     0.068 C 
BRANCH  79  80
ATOM     80  C   UNL     1     -10.443   8.631  -9.435  1.00  0.00    -0.045 A 
ATOM     81  C   UNL     1     -10.909   9.839  -9.970  1.00  0.00     0.004 A 
ATOM     82  C   UNL     1      -9.642   7.803 -10.236  1.00  0.00     0.004 A 
ATOM     83  C   UNL     1     -10.572  10.219 -11.270  1.00  0.00     0.000 A 
ATOM     84  C   UNL     1      -9.306   8.184 -11.537  1.00  0.00     0.000 A 
ATOM     85  C   UNL     1      -9.769   9.392 -12.053  1.00  0.00     0.000 A 
ENDBRANCH  79  80
ENDBRANCH  76  79
ENDBRANCH  74  76
ENDBRANCH  72  74
ENDBRANCH  70  71
ENDBRANCH   1  69
TORSDOF 17
ENDMDL
MODEL 4
REMARK VINA RESULT:    -6.536      3.357     13.285
REMARK INTER + INTRA:         -27.508
REMARK INTER:                 -19.760
REMARK INTRA:                  -7.748
REMARK UNBOUND:                -7.981
REMARK SMILES C=C1C(=O)N[C@H](C)C(=O)N[C@@H](CC(C)C)C(=O)N[C@@H](C(=O)O)[C@H](C)C(=O)N[C@@H](CCCN=C(N)N)C(=O)N[C@@H](/C=C/C(C)=C/[C@H](C)[C@H](Cc2ccccc2)OC)[C@H](C)C(=O)N[C@@H](C(=O)O)CCC(=O)N1C
REMARK SMILES IDX 39 1 38 2 37 3 36 4 28 6 27 7 25 8 26 9 23 11 24 12 19 13
REMARK SMILES IDX 18 14 16 15 17 16 11 18 10 19 8 20 9 21 12 24 13 25 14 26
REMARK SMILES IDX 15 27 20 28 21 29 22 30 29 32 30 33 31 34 32 35 33 36 34 37
REMARK SMILES IDX 35 38 57 43 58 44 59 45 60 46 61 47 62 49 66 50 67 51 68 52
REMARK SMILES IDX 69 53 70 54 71 55 2 56 1 57 3 58 4 59 5 60 6 62 7 63 63 65
REMARK SMILES IDX 64 66 65 67 40 69 41 70 42 71 44 72 43 73 45 74 46 75 47 76
REMARK SMILES IDX 55 77 56 78 48 79 49 80 50 81 54 82 51 83 53 84 52 85
REMARK H PARENT 38 5 27 10 18 17 10 22 22 31 34 39 34 40 35 41 35 42 61 48
REMARK H PARENT 5 61 65 68
REMARK Flexibility Score:  369.900
ROOT
ATOM      1  C   UNL     1      -9.939  -2.283  -2.447  1.00  0.00     0.117 C 
ENDROOT
BRANCH   1   2
ATOM      2  N   UNL     1      -9.287  -1.221  -3.215  1.00  0.00    -0.347 N 
ATOM      3  O   UNL     1      -7.365  -2.357  -3.749  1.00  0.00    -0.273 OA
ATOM      4  C   UNL     1      -8.088  -1.375  -3.884  1.00  0.00     0.243 C 
ATOM      5  H   UNL     1      -9.748  -0.330  -3.317  1.00  0.00     0.164 HD
BRANCH   4   6
ATOM      6  C   UNL     1      -7.660  -0.124  -4.693  1.00  0.00     0.171 C 
BRANCH   6   7
ATOM      7  N   UNL     1      -7.209   0.944  -3.787  1.00  0.00    -0.344 N 
ATOM      8  C   UNL     1      -8.057   1.972  -3.436  1.00  0.00     0.226 C 
ATOM      9  O   UNL     1      -9.199   2.062  -3.868  1.00  0.00    -0.275 OA
ATOM     10  H   UNL     1      -6.250   0.940  -3.463  1.00  0.00     0.164 HD
BRANCH   8  11
ATOM     11  C   UNL     1      -7.462   2.965  -2.452  1.00  0.00     0.109 C 
ATOM     12  C   UNL     1      -6.222   2.367  -1.786  1.00  0.00     0.021 C 
BRANCH  11  13
ATOM     13  C   UNL     1      -7.232   4.319  -3.152  1.00  0.00     0.204 C 
BRANCH  13  14
ATOM     14  N   UNL     1      -8.493   4.999  -3.465  1.00  0.00    -0.340 N 
ATOM     15  C   UNL     1      -8.815   5.432  -4.733  1.00  0.00     0.243 C 
ATOM     16  O   UNL     1      -8.092   5.223  -5.706  1.00  0.00    -0.273 OA
ATOM     17  H   UNL     1      -9.064   5.336  -2.685  1.00  0.00     0.164 HD
BRANCH  15  18
ATOM     18  C   UNL     1     -10.094   6.303  -4.784  1.00  0.00     0.171 C 
BRANCH  18  19
ATOM     19  N   UNL     1     -10.309   6.651  -6.187  1.00  0.00    -0.343 N 
ATOM     20  C   UNL     1     -10.718   7.914  -6.570  1.00  0.00     0.242 CG0
ATOM     21  O   UNL     1     -11.049   8.761  -5.743  1.00  0.00    -0.273 OA
ATOM     22  H   UNL     1     -10.160   5.949  -6.902  1.00  0.00     0.164 HD
ATOM     23  G   UNL     1     -10.814   8.117  -8.096  1.00  0.00     0.000 G0
ENDBRANCH  18  19
BRANCH  18  24
ATOM     24  C   UNL     1     -11.292   5.539  -4.205  1.00  0.00     0.038 C 
BRANCH  24  25
ATOM     25  C   UNL     1     -12.239   6.391  -3.334  1.00  0.00    -0.015 C 
ATOM     26  C   UNL     1     -12.660   5.672  -2.051  1.00  0.00     0.007 C 
ATOM     27  C   UNL     1     -13.482   6.770  -4.143  1.00  0.00     0.007 C 
ENDBRANCH  24  25
ENDBRANCH  18  24
ENDBRANCH  15  18
ENDBRANCH  13  14
BRANCH  13  28
ATOM     28  C   UNL     1      -6.386   5.291  -2.324  1.00  0.00     0.327 C 
ATOM     29  O   UNL     1      -5.241   5.640  -2.567  1.00  0.00    -0.250 OA
BRANCH  28  30
ATOM     30  O   UNL     1      -6.987   5.672  -1.179  1.00  0.00    -0.480 OA
ATOM     31  H   UNL     1      -7.853   6.028  -1.468  1.00  0.00     0.296 HD
ENDBRANCH  28  30
ENDBRANCH  13  28
ENDBRANCH  11  13
ENDBRANCH   8  11
ENDBRANCH   6   7
BRANCH   6  32
ATOM     32  C   UNL     1      -6.550  -0.515  -5.674  1.00  0.00     0.037 C 
BRANCH  32  33
ATOM     33  C   UNL     1      -5.483   0.580  -5.808  1.00  0.00     0.026 C 
BRANCH  33  34
ATOM     34  C   UNL     1      -4.903   0.664  -7.220  1.00  0.00     0.146 C 
BRANCH  34  35
ATOM     35  N   UNL     1      -3.489   0.321  -7.169  1.00  0.00    -0.254 NA
ATOM     36  C   UNL     1      -2.625   1.259  -7.289  1.00  0.00     0.185 C 
ATOM     37  N   UNL     1      -1.319   0.956  -7.238  1.00  0.00    -0.370 N 
ATOM     38  N   UNL     1      -2.828   2.577  -7.467  1.00  0.00    -0.370 N 
ATOM     39  H   UNL     1      -1.084  -0.018  -7.095  1.00  0.00     0.159 HD
ATOM     40  H   UNL     1      -0.591   1.644  -7.150  1.00  0.00     0.159 HD
ATOM     41  H   UNL     1      -2.065   3.196  -7.688  1.00  0.00     0.159 HD
ATOM     42  H   UNL     1      -3.763   2.946  -7.540  1.00  0.00     0.159 HD
ENDBRANCH  34  35
ENDBRANCH  33  34
ENDBRANCH  32  33
ENDBRANCH   6  32
ENDBRANCH   4   6
ENDBRANCH   1   2
BRANCH   1  43
ATOM     43  C   UNL     1     -11.036  -2.936  -3.337  1.00  0.00     0.102 C 
ATOM     44  C   UNL     1     -12.330  -2.109  -3.419  1.00  0.00     0.020 C 
BRANCH  43  45
ATOM     45  C   UNL     1     -11.258  -4.401  -2.951  1.00  0.00     0.225 C 
ATOM     46  O   UNL     1     -12.369  -4.879  -2.741  1.00  0.00    -0.275 OA
ATOM     47  N   UNL     1     -10.114  -5.142  -2.757  1.00  0.00    -0.342 N 
ATOM     48  H   UNL     1      -9.226  -4.784  -3.078  1.00  0.00     0.164 HD
BRANCH  47  49
ATOM     49  C   UNL     1     -10.173  -6.568  -2.419  1.00  0.00     0.192 C 
BRANCH  49  50
ATOM     50  C   UNL     1      -9.089  -6.897  -1.390  1.00  0.00     0.047 C 
BRANCH  50  51
ATOM     51  C   UNL     1      -9.255  -6.094  -0.092  1.00  0.00     0.103 C 
BRANCH  51  52
ATOM     52  C   UNL     1      -8.293  -6.561   0.998  1.00  0.00     0.226 C 
ATOM     53  O   UNL     1      -7.354  -7.304   0.706  1.00  0.00    -0.275 OA
BRANCH  52  54
ATOM     54  N   UNL     1      -8.504  -6.037   2.287  1.00  0.00    -0.311 N 
ATOM     55  C   UNL     1      -7.392  -5.477   3.067  1.00  0.00     0.153 C 
BRANCH  54  56
ATOM     56  C   UNL     1      -9.781  -6.024   2.872  1.00  0.00     0.102 C 
ATOM     57  C   UNL     1     -10.535  -4.926   3.046  1.00  0.00     0.043 C 
BRANCH  56  58
ATOM     58  C   UNL     1     -10.440  -7.306   3.323  1.00  0.00     0.268 C 
ATOM     59  O   UNL     1     -11.654  -7.455   3.367  1.00  0.00    -0.268 OA
ATOM     60  N   UNL     1      -9.540  -8.303   3.613  1.00  0.00    -0.339 N 
ATOM     61  H   UNL     1      -8.550  -8.095   3.562  1.00  0.00     0.164 HD
BRANCH  60  62
ATOM     62  C   UNL     1      -9.965  -9.645   4.009  1.00  0.00     0.168 CG0
ATOM     63  C   UNL     1      -8.766 -10.569   4.185  1.00  0.00     0.041 C 
ATOM     64  G   UNL     1     -10.940 -10.210   2.956  1.00  0.00     0.000 G0
ENDBRANCH  60  62
ENDBRANCH  56  58
ENDBRANCH  54  56
ENDBRANCH  52  54
ENDBRANCH  51  52
ENDBRANCH  50  51
ENDBRANCH  49  50
BRANCH  49  65
ATOM     65  C   UNL     1      -9.982  -7.453  -3.660  1.00  0.00     0.326 C 
ATOM     66  O   UNL     1      -9.597  -7.069  -4.755  1.00  0.00    -0.250 OA
BRANCH  65  67
ATOM     67  O   UNL     1     -10.336  -8.746  -3.490  1.00  0.00    -0.480 OA
ATOM     68  H   UNL     1      -9.572  -9.244  -3.853  1.00  0.00     0.296 HD
ENDBRANCH  65  67
ENDBRANCH  49  65
ENDBRANCH  47  49
ENDBRANCH  43  45
ENDBRANCH   1  43
BRANCH   1  69
ATOM     69  C   UNL     1     -10.344  -1.661  -1.123  1.00  0.00    -0.001 C 
ATOM     70  C   UNL     1     -10.657  -2.299   0.018  1.00  0.00     0.001 C 
BRANCH  70  71
ATOM     71  C   UNL     1     -11.026  -1.687   1.296  1.00  0.00    -0.055 C 
ATOM     72  C   UNL     1     -12.294  -1.851   1.728  1.00  0.00    -0.018 C 
ATOM     73  C   UNL     1      -9.962  -0.925   2.042  1.00  0.00     0.044 C 
BRANCH  72  74
ATOM     74  C   UNL     1     -12.951  -1.339   3.001  1.00  0.00     0.038 C 
ATOM     75  C   UNL     1     -13.483  -2.561   3.759  1.00  0.00     0.015 C 
BRANCH  74  76
ATOM     76  C   UNL     1     -14.034  -0.287   2.618  1.00  0.00     0.128 C 
BRANCH  76  77
ATOM     77  O   UNL     1     -15.080  -0.278   3.604  1.00  0.00    -0.381 OA
ATOM     78  C   UNL     1     -15.269   0.987   4.224  1.00  0.00     0.195 C 
ENDBRANCH  76  77
BRANCH  76  79
ATOM     79  C   UNL     1     -13.465   1.126   2.334  1.00  0.00     0.068 C 
BRANCH  79  80
ATOM     80  C   UNL     1     -12.843   1.380   0.982  1.00  0.00    -0.045 A 
ATOM     81  C   UNL     1     -11.651   2.105   0.861  1.00  0.00     0.004 A 
ATOM     82  C   UNL     1     -13.469   0.913  -0.183  1.00  0.00     0.004 A 
ATOM     83  C   UNL     1     -11.089   2.348  -0.394  1.00  0.00     0.000 A 
ATOM     84  C   UNL     1     -12.907   1.156  -1.438  1.00  0.00     0.000 A 
ATOM     85  C   UNL     1     -11.717   1.872  -1.543  1.00  0.00     0.000 A 
ENDBRANCH  79  80
ENDBRANCH  76  79
ENDBRANCH  74  76
ENDBRANCH  72  74
ENDBRANCH  70  71
ENDBRANCH   1  69
TORSDOF 17
ENDMDL
MODEL 5
REMARK VINA RESULT:    -6.500      3.223      8.078
REMARK INTER + INTRA:         -27.401
REMARK INTER:                 -21.246
REMARK INTRA:                  -6.155
REMARK UNBOUND:                -7.981
REMARK SMILES C=C1C(=O)N[C@H](C)C(=O)N[C@@H](CC(C)C)C(=O)N[C@@H](C(=O)O)[C@H](C)C(=O)N[C@@H](CCCN=C(N)N)C(=O)N[C@@H](/C=C/C(C)=C/[C@H](C)[C@H](Cc2ccccc2)OC)[C@H](C)C(=O)N[C@@H](C(=O)O)CCC(=O)N1C
REMARK SMILES IDX 39 1 38 2 37 3 36 4 28 6 27 7 25 8 26 9 23 11 24 12 19 13
REMARK SMILES IDX 18 14 16 15 17 16 11 18 10 19 8 20 9 21 12 24 13 25 14 26
REMARK SMILES IDX 15 27 20 28 21 29 22 30 29 32 30 33 31 34 32 35 33 36 34 37
REMARK SMILES IDX 35 38 57 43 58 44 59 45 60 46 61 47 62 49 66 50 67 51 68 52
REMARK SMILES IDX 69 53 70 54 71 55 2 56 1 57 3 58 4 59 5 60 6 62 7 63 63 65
REMARK SMILES IDX 64 66 65 67 40 69 41 70 42 71 44 72 43 73 45 74 46 75 47 76
REMARK SMILES IDX 55 77 56 78 48 79 49 80 50 81 54 82 51 83 53 84 52 85
REMARK H PARENT 38 5 27 10 18 17 10 22 22 31 34 39 34 40 35 41 35 42 61 48
REMARK H PARENT 5 61 65 68
REMARK Flexibility Score:  369.900
ROOT
ATOM      1  C   UNL     1      -7.275   0.927  -5.645  1.00  0.00     0.117 C 
ENDROOT
BRANCH   1   2
ATOM      2  N   UNL     1      -7.988  -0.316  -5.350  1.00  0.00    -0.347 N 
ATOM      3  O   UNL     1      -8.152  -1.102  -7.500  1.00  0.00    -0.273 OA
ATOM      4  C   UNL     1      -8.289  -1.278  -6.294  1.00  0.00     0.243 C 
ATOM      5  H   UNL     1      -8.240  -0.526  -4.396  1.00  0.00     0.164 HD
BRANCH   4   6
ATOM      6  C   UNL     1      -8.972  -2.538  -5.705  1.00  0.00     0.171 C 
BRANCH   6   7
ATOM      7  N   UNL     1     -10.089  -2.155  -4.826  1.00  0.00    -0.344 N 
ATOM      8  C   UNL     1     -11.210  -1.542  -5.342  1.00  0.00     0.226 C 
ATOM      9  O   UNL     1     -11.325  -1.268  -6.531  1.00  0.00    -0.275 OA
ATOM     10  H   UNL     1     -10.002  -2.304  -3.829  1.00  0.00     0.164 HD
BRANCH   8  11
ATOM     11  C   UNL     1     -12.295  -1.260  -4.319  1.00  0.00     0.109 C 
ATOM     12  C   UNL     1     -13.470  -0.540  -4.982  1.00  0.00     0.021 C 
BRANCH  11  13
ATOM     13  C   UNL     1     -12.666  -2.561  -3.580  1.00  0.00     0.204 C 
BRANCH  13  14
ATOM     14  N   UNL     1     -12.540  -2.424  -2.125  1.00  0.00    -0.340 N 
ATOM     15  C   UNL     1     -11.357  -2.642  -1.453  1.00  0.00     0.243 C 
ATOM     16  O   UNL     1     -10.306  -2.908  -2.035  1.00  0.00    -0.273 OA
ATOM     17  H   UNL     1     -13.399  -2.357  -1.573  1.00  0.00     0.164 HD
BRANCH  15  18
ATOM     18  C   UNL     1     -11.511  -2.645   0.087  1.00  0.00     0.171 C 
BRANCH  18  19
ATOM     19  N   UNL     1     -11.411  -4.038   0.516  1.00  0.00    -0.343 N 
ATOM     20  C   UNL     1     -12.212  -4.552   1.518  1.00  0.00     0.242 CG0
ATOM     21  O   UNL     1     -12.950  -3.831   2.185  1.00  0.00    -0.273 OA
ATOM     22  H   UNL     1     -10.732  -4.647   0.073  1.00  0.00     0.164 HD
ATOM     23  G   UNL     1     -12.017  -6.060   1.778  1.00  0.00     0.000 G0
ENDBRANCH  18  19
BRANCH  18  24
ATOM     24  C   UNL     1     -10.430  -1.776   0.742  1.00  0.00     0.038 C 
BRANCH  24  25
ATOM     25  C   UNL     1     -10.926  -0.906   1.916  1.00  0.00    -0.015 C 
ATOM     26  C   UNL     1     -12.341  -0.373   1.693  1.00  0.00     0.007 C 
ATOM     27  C   UNL     1      -9.963   0.265   2.131  1.00  0.00     0.007 C 
ENDBRANCH  24  25
ENDBRANCH  18  24
ENDBRANCH  15  18
ENDBRANCH  13  14
BRANCH  13  28
ATOM     28  C   UNL     1     -14.095  -3.033  -3.869  1.00  0.00     0.327 C 
ATOM     29  O   UNL     1     -14.463  -3.665  -4.847  1.00  0.00    -0.250 OA
BRANCH  28  30
ATOM     30  O   UNL     1     -14.993  -2.581  -2.970  1.00  0.00    -0.480 OA
ATOM     31  H   UNL     1     -14.989  -1.609  -3.094  1.00  0.00     0.296 HD
ENDBRANCH  28  30
ENDBRANCH  13  28
ENDBRANCH  11  13
ENDBRANCH   8  11
ENDBRANCH   6   7
BRANCH   6  32
ATOM     32  C   UNL     1      -9.458  -3.430  -6.852  1.00  0.00     0.037 C 
BRANCH  32  33
ATOM     33  C   UNL     1     -10.276  -4.628  -6.348  1.00  0.00     0.026 C 
BRANCH  33  34
ATOM     34  C   UNL     1      -9.626  -5.316  -5.147  1.00  0.00     0.146 C 
BRANCH  34  35
ATOM     35  N   UNL     1     -10.621  -5.461  -4.093  1.00  0.00    -0.254 NA
ATOM     36  C   UNL     1     -10.711  -6.583  -3.482  1.00  0.00     0.185 C 
ATOM     37  N   UNL     1     -11.621  -6.726  -2.506  1.00  0.00    -0.370 N 
ATOM     38  N   UNL     1      -9.997  -7.707  -3.671  1.00  0.00    -0.370 N 
ATOM     39  H   UNL     1     -12.192  -5.917  -2.296  1.00  0.00     0.159 HD
ATOM     40  H   UNL     1     -11.636  -7.504  -1.870  1.00  0.00     0.159 HD
ATOM     41  H   UNL     1     -10.255  -8.570  -3.222  1.00  0.00     0.159 HD
ATOM     42  H   UNL     1      -9.287  -7.749  -4.386  1.00  0.00     0.159 HD
ENDBRANCH  34  35
ENDBRANCH  33  34
ENDBRANCH  32  33
ENDBRANCH   6  32
ENDBRANCH   4   6
ENDBRANCH   1   2
BRANCH   1  43
ATOM     43  C   UNL     1      -6.225   1.175  -4.523  1.00  0.00     0.102 C 
ATOM     44  C   UNL     1      -6.850   1.342  -3.128  1.00  0.00     0.020 C 
BRANCH  43  45
ATOM     45  C   UNL     1      -5.261   2.300  -4.911  1.00  0.00     0.225 C 
ATOM     46  O   UNL     1      -5.056   2.637  -6.073  1.00  0.00    -0.275 OA
ATOM     47  N   UNL     1      -4.555   2.860  -3.870  1.00  0.00    -0.342 N 
ATOM     48  H   UNL     1      -4.842   2.682  -2.918  1.00  0.00     0.164 HD
BRANCH  47  49
ATOM     49  C   UNL     1      -3.623   3.971  -4.087  1.00  0.00     0.192 C 
BRANCH  49  50
ATOM     50  C   UNL     1      -2.227   3.419  -4.390  1.00  0.00     0.047 C 
BRANCH  50  51
ATOM     51  C   UNL     1      -1.611   4.052  -5.645  1.00  0.00     0.103 C 
BRANCH  51  52
ATOM     52  C   UNL     1      -0.388   3.280  -6.135  1.00  0.00     0.226 C 
ATOM     53  O   UNL     1       0.538   3.046  -5.356  1.00  0.00    -0.275 OA
BRANCH  52  54
ATOM     54  N   UNL     1      -0.432   2.810  -7.461  1.00  0.00    -0.311 N 
ATOM     55  C   UNL     1      -1.246   1.642  -7.821  1.00  0.00     0.153 C 
BRANCH  54  56
ATOM     56  C   UNL     1       0.291   3.441  -8.486  1.00  0.00     0.102 C 
ATOM     57  C   UNL     1       1.595   3.244  -8.740  1.00  0.00     0.043 C 
BRANCH  56  58
ATOM     58  C   UNL     1      -0.389   4.392  -9.443  1.00  0.00     0.268 C 
ATOM     59  O   UNL     1      -1.129   5.294  -9.077  1.00  0.00    -0.268 OA
ATOM     60  N   UNL     1      -0.039   4.179 -10.755  1.00  0.00    -0.339 N 
ATOM     61  H   UNL     1       0.572   3.403 -10.977  1.00  0.00     0.164 HD
BRANCH  60  62
ATOM     62  C   UNL     1      -0.534   5.026 -11.840  1.00  0.00     0.168 CG0
ATOM     63  C   UNL     1      -1.719   4.376 -12.544  1.00  0.00     0.041 C 
ATOM     64  G   UNL     1       0.608   5.306 -12.839  1.00  0.00     0.000 G0
ENDBRANCH  60  62
ENDBRANCH  56  58
ENDBRANCH  54  56
ENDBRANCH  52  54
ENDBRANCH  51  52
ENDBRANCH  50  51
ENDBRANCH  49  50
BRANCH  49  65
ATOM     65  C   UNL     1      -3.550   4.896  -2.862  1.00  0.00     0.326 C 
ATOM     66  O   UNL     1      -2.800   5.854  -2.740  1.00  0.00    -0.250 OA
BRANCH  65  67
ATOM     67  O   UNL     1      -4.363   4.546  -1.842  1.00  0.00    -0.480 OA
ATOM     68  H   UNL     1      -3.769   4.553  -1.060  1.00  0.00     0.296 HD
ENDBRANCH  65  67
ENDBRANCH  49  65
ENDBRANCH  47  49
ENDBRANCH  43  45
ENDBRANCH   1  43
BRANCH   1  69
ATOM     69  C   UNL     1      -8.341   1.978  -5.898  1.00  0.00    -0.001 C 
ATOM     70  C   UNL     1      -9.670   1.846  -5.744  1.00  0.00     0.001 C 
BRANCH  70  71
ATOM     71  C   UNL     1     -10.688   2.874  -5.970  1.00  0.00    -0.055 C 
ATOM     72  C   UNL     1     -10.394   3.869  -6.833  1.00  0.00    -0.018 C 
ATOM     73  C   UNL     1     -11.994   2.745  -5.230  1.00  0.00     0.044 C 
BRANCH  72  74
ATOM     74  C   UNL     1     -11.245   5.056  -7.262  1.00  0.00     0.038 C 
ATOM     75  C   UNL     1     -11.429   4.956  -8.781  1.00  0.00     0.015 C 
BRANCH  74  76
ATOM     76  C   UNL     1     -10.562   6.366  -6.771  1.00  0.00     0.128 C 
BRANCH  76  77
ATOM     77  O   UNL     1     -11.044   7.486  -7.532  1.00  0.00    -0.381 OA
ATOM     78  C   UNL     1     -12.132   8.166  -6.921  1.00  0.00     0.195 C 
ENDBRANCH  76  77
BRANCH  76  79
ATOM     79  C   UNL     1     -10.661   6.593  -5.241  1.00  0.00     0.068 C 
BRANCH  79  80
ATOM     80  C   UNL     1      -9.681   5.865  -4.353  1.00  0.00    -0.045 A 
ATOM     81  C   UNL     1     -10.119   5.138  -3.238  1.00  0.00     0.004 A 
ATOM     82  C   UNL     1      -8.305   5.930  -4.617  1.00  0.00     0.004 A 
ATOM     83  C   UNL     1      -9.205   4.480  -2.413  1.00  0.00     0.000 A 
ATOM     84  C   UNL     1      -7.391   5.272  -3.791  1.00  0.00     0.000 A 
ATOM     85  C   UNL     1      -7.841   4.546  -2.691  1.00  0.00     0.000 A 
ENDBRANCH  79  80
ENDBRANCH  76  79
ENDBRANCH  74  76
ENDBRANCH  72  74
ENDBRANCH  70  71
ENDBRANCH   1  69
TORSDOF 17
ENDMDL
MODEL 6
REMARK VINA RESULT:    -6.438      4.834     12.774
REMARK INTER + INTRA:         -27.215
REMARK INTER:                 -20.441
REMARK INTRA:                  -6.774
REMARK UNBOUND:                -7.981
REMARK SMILES C=C1C(=O)N[C@H](C)C(=O)N[C@@H](CC(C)C)C(=O)N[C@@H](C(=O)O)[C@H](C)C(=O)N[C@@H](CCCN=C(N)N)C(=O)N[C@@H](/C=C/C(C)=C/[C@H](C)[C@H](Cc2ccccc2)OC)[C@H](C)C(=O)N[C@@H](C(=O)O)CCC(=O)N1C
REMARK SMILES IDX 39 1 38 2 37 3 36 4 28 6 27 7 25 8 26 9 23 11 24 12 19 13
REMARK SMILES IDX 18 14 16 15 17 16 11 18 10 19 8 20 9 21 12 24 13 25 14 26
REMARK SMILES IDX 15 27 20 28 21 29 22 30 29 32 30 33 31 34 32 35 33 36 34 37
REMARK SMILES IDX 35 38 57 43 58 44 59 45 60 46 61 47 62 49 66 50 67 51 68 52
REMARK SMILES IDX 69 53 70 54 71 55 2 56 1 57 3 58 4 59 5 60 6 62 7 63 63 65
REMARK SMILES IDX 64 66 65 67 40 69 41 70 42 71 44 72 43 73 45 74 46 75 47 76
REMARK SMILES IDX 55 77 56 78 48 79 49 80 50 81 54 82 51 83 53 84 52 85
REMARK H PARENT 38 5 27 10 18 17 10 22 22 31 34 39 34 40 35 41 35 42 61 48
REMARK H PARENT 5 61 65 68
REMARK Flexibility Score:  369.900
ROOT
ATOM      1  C   UNL     1      -7.581  -3.240  -5.053  1.00  0.00     0.117 C 
ENDROOT
BRANCH   1   2
ATOM      2  N   UNL     1      -7.393  -2.621  -6.366  1.00  0.00    -0.347 N 
ATOM      3  O   UNL     1      -5.648  -1.236  -5.811  1.00  0.00    -0.273 OA
ATOM      4  C   UNL     1      -6.378  -1.733  -6.663  1.00  0.00     0.243 C 
ATOM      5  H   UNL     1      -8.000  -2.883  -7.127  1.00  0.00     0.164 HD
BRANCH   4   6
ATOM      6  C   UNL     1      -6.351  -1.292  -8.149  1.00  0.00     0.171 C 
BRANCH   6   7
ATOM      7  N   UNL     1      -5.073  -1.670  -8.774  1.00  0.00    -0.344 N 
ATOM      8  C   UNL     1      -4.256  -0.713  -9.336  1.00  0.00     0.226 C 
ATOM      9  O   UNL     1      -4.554   0.475  -9.366  1.00  0.00    -0.275 OA
ATOM     10  H   UNL     1      -4.825  -2.650  -8.829  1.00  0.00     0.164 HD
BRANCH   8  11
ATOM     11  C   UNL     1      -2.950  -1.254  -9.891  1.00  0.00     0.109 C 
ATOM     12  C   UNL     1      -2.911  -1.080 -11.409  1.00  0.00     0.021 C 
BRANCH  11  13
ATOM     13  C   UNL     1      -1.762  -0.625  -9.136  1.00  0.00     0.204 C 
BRANCH  13  14
ATOM     14  N   UNL     1      -1.762   0.839  -9.229  1.00  0.00    -0.340 N 
ATOM     15  C   UNL     1      -0.766   1.548  -9.864  1.00  0.00     0.243 C 
ATOM     16  O   UNL     1       0.164   0.998 -10.452  1.00  0.00    -0.273 OA
ATOM     17  H   UNL     1      -2.417   1.358  -8.638  1.00  0.00     0.164 HD
BRANCH  15  18
ATOM     18  C   UNL     1      -0.868   3.079  -9.656  1.00  0.00     0.171 C 
BRANCH  18  19
ATOM     19  N   UNL     1      -1.245   3.653 -10.946  1.00  0.00    -0.343 N 
ATOM     20  C   UNL     1      -0.300   4.098 -11.850  1.00  0.00     0.242 CG0
ATOM     21  O   UNL     1       0.892   4.155 -11.559  1.00  0.00    -0.273 OA
ATOM     22  H   UNL     1      -2.227   3.734 -11.186  1.00  0.00     0.164 HD
ATOM     23  G   UNL     1      -0.884   4.598 -13.188  1.00  0.00     0.000 G0
ENDBRANCH  18  19
BRANCH  18  24
ATOM     24  C   UNL     1      -1.899   3.410  -8.570  1.00  0.00     0.038 C 
BRANCH  24  25
ATOM     25  C   UNL     1      -1.460   4.509  -7.579  1.00  0.00    -0.015 C 
ATOM     26  C   UNL     1       0.002   4.915  -7.765  1.00  0.00     0.007 C 
ATOM     27  C   UNL     1      -1.682   4.026  -6.143  1.00  0.00     0.007 C 
ENDBRANCH  24  25
ENDBRANCH  18  24
ENDBRANCH  15  18
ENDBRANCH  13  14
BRANCH  13  28
ATOM     28  C   UNL     1      -1.735  -0.985  -7.647  1.00  0.00     0.327 C 
ATOM     29  O   UNL     1      -0.850  -1.595  -7.067  1.00  0.00    -0.250 OA
BRANCH  28  30
ATOM     30  O   UNL     1      -2.874  -0.660  -7.004  1.00  0.00    -0.480 OA
ATOM     31  H   UNL     1      -3.455  -0.302  -7.707  1.00  0.00     0.296 HD
ENDBRANCH  28  30
ENDBRANCH  13  28
ENDBRANCH  11  13
ENDBRANCH   8  11
ENDBRANCH   6   7
BRANCH   6  32
ATOM     32  C   UNL     1      -7.532  -1.934  -8.886  1.00  0.00     0.037 C 
BRANCH  32  33
ATOM     33  C   UNL     1      -7.100  -3.140  -9.732  1.00  0.00     0.026 C 
BRANCH  33  34
ATOM     34  C   UNL     1      -7.425  -2.961 -11.215  1.00  0.00     0.146 C 
BRANCH  34  35
ATOM     35  N   UNL     1      -8.374  -1.866 -11.359  1.00  0.00    -0.254 NA
ATOM     36  C   UNL     1      -9.555  -2.127 -11.782  1.00  0.00     0.185 C 
ATOM     37  N   UNL     1     -10.439  -1.126 -11.914  1.00  0.00    -0.370 N 
ATOM     38  N   UNL     1     -10.082  -3.313 -12.136  1.00  0.00    -0.370 N 
ATOM     39  H   UNL     1     -10.119  -0.201 -11.656  1.00  0.00     0.159 HD
ATOM     40  H   UNL     1     -11.422  -1.269 -12.070  1.00  0.00     0.159 HD
ATOM     41  H   UNL     1     -10.981  -3.369 -12.587  1.00  0.00     0.159 HD
ATOM     42  H   UNL     1      -9.525  -4.152 -12.103  1.00  0.00     0.159 HD
ENDBRANCH  34  35
ENDBRANCH  33  34
ENDBRANCH  32  33
ENDBRANCH   6  32
ENDBRANCH   4   6
ENDBRANCH   1   2
BRANCH   1  43
ATOM     43  C   UNL     1      -7.898  -4.750  -5.258  1.00  0.00     0.102 C 
ATOM     44  C   UNL     1      -7.678  -5.231  -6.702  1.00  0.00     0.020 C 
BRANCH  43  45
ATOM     45  C   UNL     1      -9.275  -5.105  -4.688  1.00  0.00     0.225 C 
ATOM     46  O   UNL     1     -10.319  -4.961  -5.317  1.00  0.00    -0.275 OA
ATOM     47  N   UNL     1      -9.285  -5.513  -3.374  1.00  0.00    -0.342 N 
ATOM     48  H   UNL     1      -8.417  -5.769  -2.923  1.00  0.00     0.164 HD
BRANCH  47  49
ATOM     49  C   UNL     1     -10.525  -5.919  -2.707  1.00  0.00     0.192 C 
BRANCH  49  50
ATOM     50  C   UNL     1     -10.319  -5.914  -1.190  1.00  0.00     0.047 C 
BRANCH  50  51
ATOM     51  C   UNL     1      -8.835  -5.964  -0.804  1.00  0.00     0.103 C 
BRANCH  51  52
ATOM     52  C   UNL     1      -8.417  -7.348  -0.311  1.00  0.00     0.226 C 
ATOM     53  O   UNL     1      -8.463  -8.309  -1.082  1.00  0.00    -0.275 OA
BRANCH  52  54
ATOM     54  N   UNL     1      -7.924  -7.423   1.005  1.00  0.00    -0.311 N 
ATOM     55  C   UNL     1      -6.975  -8.473   1.398  1.00  0.00     0.153 C 
BRANCH  54  56
ATOM     56  C   UNL     1      -8.313  -6.497   1.986  1.00  0.00     0.102 C 
ATOM     57  C   UNL     1      -7.503  -5.580   2.542  1.00  0.00     0.043 C 
BRANCH  56  58
ATOM     58  C   UNL     1      -9.742  -6.437   2.472  1.00  0.00     0.268 C 
ATOM     59  O   UNL     1     -10.400  -7.433   2.742  1.00  0.00    -0.268 OA
ATOM     60  N   UNL     1     -10.201  -5.152   2.643  1.00  0.00    -0.339 N 
ATOM     61  H   UNL     1      -9.597  -4.381   2.386  1.00  0.00     0.164 HD
BRANCH  60  62
ATOM     62  C   UNL     1     -11.536  -4.866   3.165  1.00  0.00     0.168 CG0
ATOM     63  C   UNL     1     -12.390  -4.154   2.123  1.00  0.00     0.041 C 
ATOM     64  G   UNL     1     -11.419  -4.016   4.447  1.00  0.00     0.000 G0
ENDBRANCH  60  62
ENDBRANCH  56  58
ENDBRANCH  54  56
ENDBRANCH  52  54
ENDBRANCH  51  52
ENDBRANCH  50  51
ENDBRANCH  49  50
BRANCH  49  65
ATOM     65  C   UNL     1     -10.977  -7.318  -3.154  1.00  0.00     0.326 C 
ATOM     66  O   UNL     1     -10.340  -8.076  -3.871  1.00  0.00    -0.250 OA
BRANCH  65  67
ATOM     67  O   UNL     1     -12.214  -7.671  -2.738  1.00  0.00    -0.480 OA
ATOM     68  H   UNL     1     -12.519  -8.300  -3.426  1.00  0.00     0.296 HD
ENDBRANCH  65  67
ENDBRANCH  49  65
ENDBRANCH  47  49
ENDBRANCH  43  45
ENDBRANCH   1  43
BRANCH   1  69
ATOM     69  C   UNL     1      -8.585  -2.373  -4.316  1.00  0.00    -0.001 C 
ATOM     70  C   UNL     1      -8.350  -1.214  -3.675  1.00  0.00     0.001 C 
BRANCH  70  71
ATOM     71  C   UNL     1      -9.331  -0.375  -2.985  1.00  0.00    -0.055 C 
ATOM     72  C   UNL     1      -9.593  -0.651  -1.690  1.00  0.00    -0.018 C 
ATOM     73  C   UNL     1      -9.974   0.741  -3.767  1.00  0.00     0.044 C 
BRANCH  72  74
ATOM     74  C   UNL     1     -10.549   0.044  -0.732  1.00  0.00     0.038 C 
ATOM     75  C   UNL     1      -9.695   0.810   0.285  1.00  0.00     0.015 C 
BRANCH  74  76
ATOM     76  C   UNL     1     -11.501  -1.022  -0.114  1.00  0.00     0.128 C 
BRANCH  76  77
ATOM     77  O   UNL     1     -11.624  -0.809   1.303  1.00  0.00    -0.381 OA
ATOM     78  C   UNL     1     -12.943  -0.481   1.719  1.00  0.00     0.195 C 
ENDBRANCH  76  77
BRANCH  76  79
ATOM     79  C   UNL     1     -12.873  -1.129  -0.825  1.00  0.00     0.068 C 
BRANCH  79  80
ATOM     80  C   UNL     1     -12.881  -1.426  -2.305  1.00  0.00    -0.045 A 
ATOM     81  C   UNL     1     -12.340  -2.617  -2.806  1.00  0.00     0.004 A 
ATOM     82  C   UNL     1     -13.410  -0.493  -3.210  1.00  0.00     0.004 A 
ATOM     83  C   UNL     1     -12.338  -2.877  -4.178  1.00  0.00     0.000 A 
ATOM     84  C   UNL     1     -13.407  -0.754  -4.582  1.00  0.00     0.000 A 
ATOM     85  C   UNL     1     -12.873  -1.946  -5.065  1.00  0.00     0.000 A 
ENDBRANCH  79  80
ENDBRANCH  76  79
ENDBRANCH  74  76
ENDBRANCH  72  74
ENDBRANCH  70  71
ENDBRANCH   1  69
TORSDOF 17
ENDMDL
MODEL 7
REMARK VINA RESULT:    -6.416      2.941      7.946
REMARK INTER + INTRA:         -27.150
REMARK INTER:                 -21.383
REMARK INTRA:                  -5.768
REMARK UNBOUND:                -7.981
REMARK SMILES C=C1C(=O)N[C@H](C)C(=O)N[C@@H](CC(C)C)C(=O)N[C@@H](C(=O)O)[C@H](C)C(=O)N[C@@H](CCCN=C(N)N)C(=O)N[C@@H](/C=C/C(C)=C/[C@H](C)[C@H](Cc2ccccc2)OC)[C@H](C)C(=O)N[C@@H](C(=O)O)CCC(=O)N1C
REMARK SMILES IDX 39 1 38 2 37 3 36 4 28 6 27 7 25 8 26 9 23 11 24 12 19 13
REMARK SMILES IDX 18 14 16 15 17 16 11 18 10 19 8 20 9 21 12 24 13 25 14 26
REMARK SMILES IDX 15 27 20 28 21 29 22 30 29 32 30 33 31 34 32 35 33 36 34 37
REMARK SMILES IDX 35 38 57 43 58 44 59 45 60 46 61 47 62 49 66 50 67 51 68 52
REMARK SMILES IDX 69 53 70 54 71 55 2 56 1 57 3 58 4 59 5 60 6 62 7 63 63 65
REMARK SMILES IDX 64 66 65 67 40 69 41 70 42 71 44 72 43 73 45 74 46 75 47 76
REMARK SMILES IDX 55 77 56 78 48 79 49 80 50 81 54 82 51 83 53 84 52 85
REMARK H PARENT 38 5 27 10 18 17 10 22 22 31 34 39 34 40 35 41 35 42 61 48
REMARK H PARENT 5 61 65 68
REMARK Flexibility Score:  369.900
ROOT
ATOM      1  C   UNL     1      -7.213   2.651  -5.326  1.00  0.00     0.117 C 
ENDROOT
BRANCH   1   2
ATOM      2  N   UNL     1      -7.312   1.192  -5.382  1.00  0.00    -0.347 N 
ATOM      3  O   UNL     1      -5.316   0.783  -6.438  1.00  0.00    -0.273 OA
ATOM      4  C   UNL     1      -6.310   0.366  -5.853  1.00  0.00     0.243 C 
ATOM      5  H   UNL     1      -8.134   0.738  -5.013  1.00  0.00     0.164 HD
BRANCH   4   6
ATOM      6  C   UNL     1      -6.633  -1.144  -5.722  1.00  0.00     0.171 C 
BRANCH   6   7
ATOM      7  N   UNL     1      -7.856  -1.341  -4.926  1.00  0.00    -0.344 N 
ATOM      8  C   UNL     1      -7.951  -2.385  -4.032  1.00  0.00     0.226 C 
ATOM      9  O   UNL     1      -7.052  -3.201  -3.871  1.00  0.00    -0.275 OA
ATOM     10  H   UNL     1      -8.646  -0.727  -5.080  1.00  0.00     0.164 HD
BRANCH   8  11
ATOM     11  C   UNL     1      -9.252  -2.420  -3.249  1.00  0.00     0.109 C 
ATOM     12  C   UNL     1     -10.279  -1.487  -3.891  1.00  0.00     0.021 C 
BRANCH  11  13
ATOM     13  C   UNL     1      -9.719  -3.880  -3.080  1.00  0.00     0.204 C 
BRANCH  13  14
ATOM     14  N   UNL     1      -9.467  -4.387  -1.727  1.00  0.00    -0.340 N 
ATOM     15  C   UNL     1      -9.233  -5.718  -1.458  1.00  0.00     0.243 C 
ATOM     16  O   UNL     1      -9.159  -6.568  -2.344  1.00  0.00    -0.273 OA
ATOM     17  H   UNL     1      -9.663  -3.766  -0.937  1.00  0.00     0.164 HD
BRANCH  15  18
ATOM     18  C   UNL     1      -9.202  -6.047   0.055  1.00  0.00     0.171 C 
BRANCH  18  19
ATOM     19  N   UNL     1     -10.469  -6.704   0.366  1.00  0.00    -0.343 N 
ATOM     20  C   UNL     1     -11.631  -5.986   0.575  1.00  0.00     0.242 CG0
ATOM     21  O   UNL     1     -11.626  -4.759   0.639  1.00  0.00    -0.273 OA
ATOM     22  H   UNL     1     -10.501  -7.715   0.439  1.00  0.00     0.164 HD
ATOM     23  G   UNL     1     -12.883  -6.855   0.813  1.00  0.00     0.000 G0
ENDBRANCH  18  19
BRANCH  18  24
ATOM     24  C   UNL     1      -8.005  -6.947   0.388  1.00  0.00     0.038 C 
BRANCH  24  25
ATOM     25  C   UNL     1      -7.736  -7.127   1.897  1.00  0.00    -0.015 C 
ATOM     26  C   UNL     1      -6.962  -5.954   2.498  1.00  0.00     0.007 C 
ATOM     27  C   UNL     1      -6.962  -8.428   2.130  1.00  0.00     0.007 C 
ENDBRANCH  24  25
ENDBRANCH  18  24
ENDBRANCH  15  18
ENDBRANCH  13  14
BRANCH  13  28
ATOM     28  C   UNL     1     -11.211  -4.073  -3.366  1.00  0.00     0.327 C 
ATOM     29  O   UNL     1     -12.118  -4.007  -2.550  1.00  0.00    -0.250 OA
BRANCH  28  30
ATOM     30  O   UNL     1     -11.462  -4.454  -4.635  1.00  0.00    -0.480 OA
ATOM     31  H   UNL     1     -12.408  -4.708  -4.628  1.00  0.00     0.296 HD
ENDBRANCH  28  30
ENDBRANCH  13  28
ENDBRANCH  11  13
ENDBRANCH   8  11
ENDBRANCH   6   7
BRANCH   6  32
ATOM     32  C   UNL     1      -6.788  -1.749  -7.122  1.00  0.00     0.037 C 
BRANCH  32  33
ATOM     33  C   UNL     1      -8.223  -1.620  -7.653  1.00  0.00     0.026 C 
BRANCH  33  34
ATOM     34  C   UNL     1      -8.271  -1.068  -9.078  1.00  0.00     0.146 C 
BRANCH  34  35
ATOM     35  N   UNL     1      -7.487   0.158  -9.135  1.00  0.00    -0.254 NA
ATOM     36  C   UNL     1      -8.078   1.275  -8.929  1.00  0.00     0.185 C 
ATOM     37  N   UNL     1      -7.364   2.411  -8.973  1.00  0.00    -0.370 N 
ATOM     38  N   UNL     1      -9.375   1.508  -8.659  1.00  0.00    -0.370 N 
ATOM     39  H   UNL     1      -6.374   2.317  -9.162  1.00  0.00     0.159 HD
ATOM     40  H   UNL     1      -7.711   3.299  -8.656  1.00  0.00     0.159 HD
ATOM     41  H   UNL     1      -9.746   2.444  -8.655  1.00  0.00     0.159 HD
ATOM     42  H   UNL     1     -10.033   0.746  -8.611  1.00  0.00     0.159 HD
ENDBRANCH  34  35
ENDBRANCH  33  34
ENDBRANCH  32  33
ENDBRANCH   6  32
ENDBRANCH   4   6
ENDBRANCH   1   2
BRANCH   1  43
ATOM     43  C   UNL     1      -6.241   3.038  -4.175  1.00  0.00     0.102 C 
ATOM     44  C   UNL     1      -6.933   3.170  -2.807  1.00  0.00     0.020 C 
BRANCH  43  45
ATOM     45  C   UNL     1      -5.388   4.251  -4.559  1.00  0.00     0.225 C 
ATOM     46  O   UNL     1      -5.864   5.296  -4.992  1.00  0.00    -0.275 OA
ATOM     47  N   UNL     1      -4.026   4.067  -4.477  1.00  0.00    -0.342 N 
ATOM     48  H   UNL     1      -3.658   3.267  -3.981  1.00  0.00     0.164 HD
BRANCH  47  49
ATOM     49  C   UNL     1      -3.087   5.151  -4.780  1.00  0.00     0.192 C 
BRANCH  49  50
ATOM     50  C   UNL     1      -2.003   4.642  -5.732  1.00  0.00     0.047 C 
BRANCH  50  51
ATOM     51  C   UNL     1      -1.485   3.253  -5.336  1.00  0.00     0.103 C 
BRANCH  51  52
ATOM     52  C   UNL     1      -0.665   2.606  -6.451  1.00  0.00     0.226 C 
ATOM     53  O   UNL     1       0.563   2.707  -6.441  1.00  0.00    -0.275 OA
BRANCH  52  54
ATOM     54  N   UNL     1      -1.382   1.855  -7.400  1.00  0.00    -0.311 N 
ATOM     55  C   UNL     1      -1.552   0.404  -7.244  1.00  0.00     0.153 C 
BRANCH  54  56
ATOM     56  C   UNL     1      -1.964   2.461  -8.526  1.00  0.00     0.102 C 
ATOM     57  C   UNL     1      -3.207   2.218  -8.973  1.00  0.00     0.043 C 
BRANCH  56  58
ATOM     58  C   UNL     1      -1.214   3.506  -9.318  1.00  0.00     0.268 C 
ATOM     59  O   UNL     1      -1.337   4.708  -9.125  1.00  0.00    -0.268 OA
ATOM     60  N   UNL     1      -0.336   2.967 -10.228  1.00  0.00    -0.339 N 
ATOM     61  H   UNL     1      -0.301   1.961 -10.335  1.00  0.00     0.164 HD
BRANCH  60  62
ATOM     62  C   UNL     1       0.536   3.800 -11.056  1.00  0.00     0.168 CG0
ATOM     63  C   UNL     1      -0.091   4.062 -12.419  1.00  0.00     0.041 C 
ATOM     64  G   UNL     1       1.910   3.116 -11.209  1.00  0.00     0.000 G0
ENDBRANCH  60  62
ENDBRANCH  56  58
ENDBRANCH  54  56
ENDBRANCH  52  54
ENDBRANCH  51  52
ENDBRANCH  50  51
ENDBRANCH  49  50
BRANCH  49  65
ATOM     65  C   UNL     1      -2.428   5.702  -3.506  1.00  0.00     0.326 C 
ATOM     66  O   UNL     1      -2.840   5.541  -2.366  1.00  0.00    -0.250 OA
BRANCH  65  67
ATOM     67  O   UNL     1      -1.336   6.468  -3.722  1.00  0.00    -0.480 OA
ATOM     68  H   UNL     1      -1.120   6.303  -4.665  1.00  0.00     0.296 HD
ENDBRANCH  65  67
ENDBRANCH  49  65
ENDBRANCH  47  49
ENDBRANCH  43  45
ENDBRANCH   1  43
BRANCH   1  69
ATOM     69  C   UNL     1      -8.638   3.172  -5.289  1.00  0.00    -0.001 C 
ATOM     70  C   UNL     1      -9.117   4.284  -5.873  1.00  0.00     0.001 C 
BRANCH  70  71
ATOM     71  C   UNL     1     -10.499   4.765  -5.848  1.00  0.00    -0.055 C 
ATOM     72  C   UNL     1     -10.985   5.339  -6.969  1.00  0.00    -0.018 C 
ATOM     73  C   UNL     1     -11.285   4.579  -4.577  1.00  0.00     0.044 C 
BRANCH  72  74
ATOM     74  C   UNL     1     -12.366   5.920  -7.234  1.00  0.00     0.038 C 
ATOM     75  C   UNL     1     -13.097   4.945  -8.164  1.00  0.00     0.015 C 
BRANCH  74  76
ATOM     76  C   UNL     1     -12.204   7.363  -7.797  1.00  0.00     0.128 C 
BRANCH  76  77
ATOM     77  O   UNL     1     -12.949   8.291  -6.990  1.00  0.00    -0.381 OA
ATOM     78  C   UNL     1     -12.565   8.295  -5.622  1.00  0.00     0.195 C 
ENDBRANCH  76  77
BRANCH  76  79
ATOM     79  C   UNL     1     -10.730   7.796  -8.003  1.00  0.00     0.068 C 
BRANCH  79  80
ATOM     80  C   UNL     1     -10.339   8.352  -9.351  1.00  0.00    -0.045 A 
ATOM     81  C   UNL     1      -9.589   7.591 -10.256  1.00  0.00     0.004 A 
ATOM     82  C   UNL     1     -10.700   9.660  -9.707  1.00  0.00     0.004 A 
ATOM     83  C   UNL     1      -9.219   8.118 -11.495  1.00  0.00     0.000 A 
ATOM     84  C   UNL     1     -10.329  10.187 -10.946  1.00  0.00     0.000 A 
ATOM     85  C   UNL     1      -9.590   9.416 -11.840  1.00  0.00     0.000 A 
ENDBRANCH  79  80
ENDBRANCH  76  79
ENDBRANCH  74  76
ENDBRANCH  72  74
ENDBRANCH  70  71
ENDBRANCH   1  69
TORSDOF 17
ENDMDL
MODEL 8
REMARK VINA RESULT:    -6.267      3.624     13.608
REMARK INTER + INTRA:         -26.705
REMARK INTER:                 -20.078
REMARK INTRA:                  -6.627
REMARK UNBOUND:                -7.981
REMARK SMILES C=C1C(=O)N[C@H](C)C(=O)N[C@@H](CC(C)C)C(=O)N[C@@H](C(=O)O)[C@H](C)C(=O)N[C@@H](CCCN=C(N)N)C(=O)N[C@@H](/C=C/C(C)=C/[C@H](C)[C@H](Cc2ccccc2)OC)[C@H](C)C(=O)N[C@@H](C(=O)O)CCC(=O)N1C
REMARK SMILES IDX 39 1 38 2 37 3 36 4 28 6 27 7 25 8 26 9 23 11 24 12 19 13
REMARK SMILES IDX 18 14 16 15 17 16 11 18 10 19 8 20 9 21 12 24 13 25 14 26
REMARK SMILES IDX 15 27 20 28 21 29 22 30 29 32 30 33 31 34 32 35 33 36 34 37
REMARK SMILES IDX 35 38 57 43 58 44 59 45 60 46 61 47 62 49 66 50 67 51 68 52
REMARK SMILES IDX 69 53 70 54 71 55 2 56 1 57 3 58 4 59 5 60 6 62 7 63 63 65
REMARK SMILES IDX 64 66 65 67 40 69 41 70 42 71 44 72 43 73 45 74 46 75 47 76
REMARK SMILES IDX 55 77 56 78 48 79 49 80 50 81 54 82 51 83 53 84 52 85
REMARK H PARENT 38 5 27 10 18 17 10 22 22 31 34 39 34 40 35 41 35 42 61 48
REMARK H PARENT 5 61 65 68
REMARK Flexibility Score:  369.900
ROOT
ATOM      1  C   UNL     1      -9.383  -2.585  -3.077  1.00  0.00     0.117 C 
ENDROOT
BRANCH   1   2
ATOM      2  N   UNL     1      -9.068  -1.332  -3.763  1.00  0.00    -0.347 N 
ATOM      3  O   UNL     1      -7.058  -1.969  -4.671  1.00  0.00    -0.273 OA
ATOM      4  C   UNL     1      -7.971  -1.154  -4.583  1.00  0.00     0.243 C 
ATOM      5  H   UNL     1      -9.704  -0.553  -3.686  1.00  0.00     0.164 HD
BRANCH   4   6
ATOM      6  C   UNL     1      -7.916   0.241  -5.257  1.00  0.00     0.171 C 
BRANCH   6   7
ATOM      7  N   UNL     1      -7.491   1.264  -4.288  1.00  0.00    -0.344 N 
ATOM      8  C   UNL     1      -8.419   1.933  -3.521  1.00  0.00     0.226 C 
ATOM      9  O   UNL     1      -9.624   1.733  -3.618  1.00  0.00    -0.275 OA
ATOM     10  H   UNL     1      -6.510   1.504  -4.228  1.00  0.00     0.164 HD
BRANCH   8  11
ATOM     11  C   UNL     1      -7.820   2.917  -2.531  1.00  0.00     0.109 C 
ATOM     12  C   UNL     1      -6.564   2.323  -1.894  1.00  0.00     0.021 C 
BRANCH  11  13
ATOM     13  C   UNL     1      -7.615   4.284  -3.214  1.00  0.00     0.204 C 
BRANCH  13  14
ATOM     14  N   UNL     1      -8.889   4.922  -3.563  1.00  0.00    -0.340 N 
ATOM     15  C   UNL     1      -9.181   5.362  -4.836  1.00  0.00     0.243 C 
ATOM     16  O   UNL     1      -8.416   5.195  -5.785  1.00  0.00    -0.273 OA
ATOM     17  H   UNL     1      -9.499   5.226  -2.800  1.00  0.00     0.164 HD
BRANCH  15  18
ATOM     18  C   UNL     1     -10.489   6.186  -4.921  1.00  0.00     0.171 C 
BRANCH  18  19
ATOM     19  N   UNL     1     -10.337   7.098  -6.052  1.00  0.00    -0.343 N 
ATOM     20  C   UNL     1     -11.009   8.304  -6.112  1.00  0.00     0.242 CG0
ATOM     21  O   UNL     1     -11.865   8.605  -5.284  1.00  0.00    -0.273 OA
ATOM     22  H   UNL     1      -9.727   6.841  -6.820  1.00  0.00     0.164 HD
ATOM     23  G   UNL     1     -10.661   9.166  -7.343  1.00  0.00     0.000 G0
ENDBRANCH  18  19
BRANCH  18  24
ATOM     24  C   UNL     1     -11.700   5.262  -5.103  1.00  0.00     0.038 C 
BRANCH  24  25
ATOM     25  C   UNL     1     -12.712   5.289  -3.938  1.00  0.00    -0.015 C 
ATOM     26  C   UNL     1     -12.228   6.138  -2.762  1.00  0.00     0.007 C 
ATOM     27  C   UNL     1     -12.987   3.860  -3.462  1.00  0.00     0.007 C 
ENDBRANCH  24  25
ENDBRANCH  18  24
ENDBRANCH  15  18
ENDBRANCH  13  14
BRANCH  13  28
ATOM     28  C   UNL     1      -6.831   5.278  -2.352  1.00  0.00     0.327 C 
ATOM     29  O   UNL     1      -7.141   5.670  -1.238  1.00  0.00    -0.250 OA
BRANCH  28  30
ATOM     30  O   UNL     1      -5.769   5.809  -2.992  1.00  0.00    -0.480 OA
ATOM     31  H   UNL     1      -5.924   5.596  -3.935  1.00  0.00     0.296 HD
ENDBRANCH  28  30
ENDBRANCH  13  28
ENDBRANCH  11  13
ENDBRANCH   8  11
ENDBRANCH   6   7
BRANCH   6  32
ATOM     32  C   UNL     1      -6.957   0.185  -6.451  1.00  0.00     0.037 C 
BRANCH  32  33
ATOM     33  C   UNL     1      -6.500   1.583  -6.892  1.00  0.00     0.026 C 
BRANCH  33  34
ATOM     34  C   UNL     1      -4.999   1.798  -6.693  1.00  0.00     0.146 C 
BRANCH  34  35
ATOM     35  N   UNL     1      -4.803   2.888  -5.747  1.00  0.00    -0.254 NA
ATOM     36  C   UNL     1      -4.153   2.654  -4.668  1.00  0.00     0.185 C 
ATOM     37  N   UNL     1      -3.961   3.652  -3.791  1.00  0.00    -0.370 N 
ATOM     38  N   UNL     1      -3.598   1.503  -4.248  1.00  0.00    -0.370 N 
ATOM     39  H   UNL     1      -4.341   4.556  -4.041  1.00  0.00     0.159 HD
ATOM     40  H   UNL     1      -3.323   3.597  -3.016  1.00  0.00     0.159 HD
ATOM     41  H   UNL     1      -3.233   1.411  -3.314  1.00  0.00     0.159 HD
ATOM     42  H   UNL     1      -3.678   0.664  -4.800  1.00  0.00     0.159 HD
ENDBRANCH  34  35
ENDBRANCH  33  34
ENDBRANCH  32  33
ENDBRANCH   6  32
ENDBRANCH   4   6
ENDBRANCH   1   2
BRANCH   1  43
ATOM     43  C   UNL     1     -10.532  -3.297  -3.847  1.00  0.00     0.102 C 
ATOM     44  C   UNL     1     -11.702  -2.363  -4.201  1.00  0.00     0.020 C 
BRANCH  43  45
ATOM     45  C   UNL     1     -10.958  -4.584  -3.134  1.00  0.00     0.225 C 
ATOM     46  O   UNL     1     -12.103  -4.783  -2.737  1.00  0.00    -0.275 OA
ATOM     47  N   UNL     1      -9.947  -5.481  -2.878  1.00  0.00    -0.342 N 
ATOM     48  H   UNL     1      -9.055  -5.375  -3.339  1.00  0.00     0.164 HD
BRANCH  47  49
ATOM     49  C   UNL     1     -10.213  -6.771  -2.234  1.00  0.00     0.192 C 
BRANCH  49  50
ATOM     50  C   UNL     1      -8.890  -7.480  -1.935  1.00  0.00     0.047 C 
BRANCH  50  51
ATOM     51  C   UNL     1      -8.060  -6.739  -0.877  1.00  0.00     0.103 C 
BRANCH  51  52
ATOM     52  C   UNL     1      -8.168  -7.395   0.499  1.00  0.00     0.226 C 
ATOM     53  O   UNL     1      -7.668  -8.506   0.686  1.00  0.00    -0.275 OA
BRANCH  52  54
ATOM     54  N   UNL     1      -8.783  -6.633   1.509  1.00  0.00    -0.311 N 
ATOM     55  C   UNL     1      -8.044  -5.581   2.219  1.00  0.00     0.153 C 
BRANCH  54  56
ATOM     56  C   UNL     1     -10.123  -6.846   1.873  1.00  0.00     0.102 C 
ATOM     57  C   UNL     1     -11.184  -6.321   1.239  1.00  0.00     0.043 C 
BRANCH  56  58
ATOM     58  C   UNL     1     -10.479  -7.756   3.025  1.00  0.00     0.268 C 
ATOM     59  O   UNL     1     -10.710  -8.950   2.889  1.00  0.00    -0.268 OA
ATOM     60  N   UNL     1     -10.451  -7.121   4.244  1.00  0.00    -0.339 N 
ATOM     61  H   UNL     1     -10.261  -6.126   4.271  1.00  0.00     0.164 HD
BRANCH  60  62
ATOM     62  C   UNL     1     -10.702  -7.829   5.498  1.00  0.00     0.168 CG0
ATOM     63  C   UNL     1     -11.454  -6.945   6.485  1.00  0.00     0.041 C 
ATOM     64  G   UNL     1      -9.364  -8.304   6.101  1.00  0.00     0.000 G0
ENDBRANCH  60  62
ENDBRANCH  56  58
ENDBRANCH  54  56
ENDBRANCH  52  54
ENDBRANCH  51  52
ENDBRANCH  50  51
ENDBRANCH  49  50
BRANCH  49  65
ATOM     65  C   UNL     1     -11.086  -7.676  -3.117  1.00  0.00     0.326 C 
ATOM     66  O   UNL     1     -10.712  -8.264  -4.122  1.00  0.00    -0.250 OA
BRANCH  65  67
ATOM     67  O   UNL     1     -12.382  -7.751  -2.741  1.00  0.00    -0.480 OA
ATOM     68  H   UNL     1     -12.439  -8.614  -2.277  1.00  0.00     0.296 HD
ENDBRANCH  65  67
ENDBRANCH  49  65
ENDBRANCH  47  49
ENDBRANCH  43  45
ENDBRANCH   1  43
BRANCH   1  69
ATOM     69  C   UNL     1      -9.590  -2.228  -1.616  1.00  0.00    -0.001 C 
ATOM     70  C   UNL     1      -9.892  -1.022  -1.105  1.00  0.00     0.001 C 
BRANCH  70  71
ATOM     71  C   UNL     1     -10.111  -0.694   0.305  1.00  0.00    -0.055 C 
ATOM     72  C   UNL     1     -11.028  -1.416   0.982  1.00  0.00    -0.018 C 
ATOM     73  C   UNL     1      -9.292   0.420   0.903  1.00  0.00     0.044 C 
BRANCH  72  74
ATOM     74  C   UNL     1     -11.459  -1.304   2.438  1.00  0.00     0.038 C 
ATOM     75  C   UNL     1     -11.380  -2.711   3.043  1.00  0.00     0.015 C 
BRANCH  74  76
ATOM     76  C   UNL     1     -12.870  -0.648   2.493  1.00  0.00     0.128 C 
BRANCH  76  77
ATOM     77  O   UNL     1     -12.845   0.627   1.829  1.00  0.00    -0.381 OA
ATOM     78  C   UNL     1     -13.712   1.591   2.412  1.00  0.00     0.195 C 
ENDBRANCH  76  77
BRANCH  76  79
ATOM     79  C   UNL     1     -14.012  -1.565   1.987  1.00  0.00     0.068 C 
BRANCH  79  80
ATOM     80  C   UNL     1     -15.114  -1.923   2.955  1.00  0.00    -0.045 A 
ATOM     81  C   UNL     1     -16.452  -1.959   2.543  1.00  0.00     0.004 A 
ATOM     82  C   UNL     1     -14.813  -2.200   4.297  1.00  0.00     0.004 A 
ATOM     83  C   UNL     1     -17.467  -2.278   3.448  1.00  0.00     0.000 A 
ATOM     84  C   UNL     1     -15.829  -2.517   5.202  1.00  0.00     0.000 A 
ATOM     85  C   UNL     1     -17.155  -2.558   4.777  1.00  0.00     0.000 A 
ENDBRANCH  79  80
ENDBRANCH  76  79
ENDBRANCH  74  76
ENDBRANCH  72  74
ENDBRANCH  70  71
ENDBRANCH   1  69
TORSDOF 17
ENDMDL
MODEL 9
REMARK VINA RESULT:    -6.260      4.136     12.661
REMARK INTER + INTRA:         -26.685
REMARK INTER:                 -20.415
REMARK INTRA:                  -6.270
REMARK UNBOUND:                -7.981
REMARK SMILES C=C1C(=O)N[C@H](C)C(=O)N[C@@H](CC(C)C)C(=O)N[C@@H](C(=O)O)[C@H](C)C(=O)N[C@@H](CCCN=C(N)N)C(=O)N[C@@H](/C=C/C(C)=C/[C@H](C)[C@H](Cc2ccccc2)OC)[C@H](C)C(=O)N[C@@H](C(=O)O)CCC(=O)N1C
REMARK SMILES IDX 39 1 38 2 37 3 36 4 28 6 27 7 25 8 26 9 23 11 24 12 19 13
REMARK SMILES IDX 18 14 16 15 17 16 11 18 10 19 8 20 9 21 12 24 13 25 14 26
REMARK SMILES IDX 15 27 20 28 21 29 22 30 29 32 30 33 31 34 32 35 33 36 34 37
REMARK SMILES IDX 35 38 57 43 58 44 59 45 60 46 61 47 62 49 66 50 67 51 68 52
REMARK SMILES IDX 69 53 70 54 71 55 2 56 1 57 3 58 4 59 5 60 6 62 7 63 63 65
REMARK SMILES IDX 64 66 65 67 40 69 41 70 42 71 44 72 43 73 45 74 46 75 47 76
REMARK SMILES IDX 55 77 56 78 48 79 49 80 50 81 54 82 51 83 53 84 52 85
REMARK H PARENT 38 5 27 10 18 17 10 22 22 31 34 39 34 40 35 41 35 42 61 48
REMARK H PARENT 5 61 65 68
REMARK Flexibility Score:  369.900
ROOT
ATOM      1  C   UNL     1      -7.846  -3.143  -5.019  1.00  0.00     0.117 C 
ENDROOT
BRANCH   1   2
ATOM      2  N   UNL     1      -7.341  -2.270  -6.079  1.00  0.00    -0.347 N 
ATOM      3  O   UNL     1      -5.294  -3.272  -6.360  1.00  0.00    -0.273 OA
ATOM      4  C   UNL     1      -6.137  -2.462  -6.731  1.00  0.00     0.243 C 
ATOM      5  H   UNL     1      -7.912  -1.505  -6.403  1.00  0.00     0.164 HD
BRANCH   4   6
ATOM      6  C   UNL     1      -5.879  -1.446  -7.873  1.00  0.00     0.171 C 
BRANCH   6   7
ATOM      7  N   UNL     1      -5.595  -0.112  -7.320  1.00  0.00    -0.344 N 
ATOM      8  C   UNL     1      -6.328   0.984  -7.720  1.00  0.00     0.226 C 
ATOM      9  O   UNL     1      -7.221   0.913  -8.555  1.00  0.00    -0.275 OA
ATOM     10  H   UNL     1      -4.820  -0.002  -6.678  1.00  0.00     0.164 HD
BRANCH   8  11
ATOM     11  C   UNL     1      -5.951   2.278  -7.019  1.00  0.00     0.109 C 
ATOM     12  C   UNL     1      -7.185   2.903  -6.369  1.00  0.00     0.021 C 
BRANCH  11  13
ATOM     13  C   UNL     1      -4.770   2.026  -6.060  1.00  0.00     0.204 C 
BRANCH  13  14
ATOM     14  N   UNL     1      -3.727   3.049  -6.189  1.00  0.00    -0.340 N 
ATOM     15  C   UNL     1      -2.552   2.838  -6.877  1.00  0.00     0.243 C 
ATOM     16  O   UNL     1      -2.321   1.794  -7.485  1.00  0.00    -0.273 OA
ATOM     17  H   UNL     1      -3.788   3.875  -5.587  1.00  0.00     0.164 HD
BRANCH  15  18
ATOM     18  C   UNL     1      -1.519   3.978  -6.702  1.00  0.00     0.171 C 
BRANCH  18  19
ATOM     19  N   UNL     1      -1.285   4.538  -8.031  1.00  0.00    -0.343 N 
ATOM     20  C   UNL     1      -0.032   4.532  -8.615  1.00  0.00     0.242 CG0
ATOM     21  O   UNL     1       0.965   4.177  -7.992  1.00  0.00    -0.273 OA
ATOM     22  H   UNL     1      -2.058   4.950  -8.541  1.00  0.00     0.164 HD
ATOM     23  G   UNL     1       0.004   5.094 -10.051  1.00  0.00     0.000 G0
ENDBRANCH  18  19
BRANCH  18  24
ATOM     24  C   UNL     1      -2.045   5.041  -5.729  1.00  0.00     0.038 C 
BRANCH  24  25
ATOM     25  C   UNL     1      -1.274   5.131  -4.395  1.00  0.00    -0.015 C 
ATOM     26  C   UNL     1      -1.208   3.789  -3.665  1.00  0.00     0.007 C 
ATOM     27  C   UNL     1      -1.931   6.177  -3.491  1.00  0.00     0.007 C 
ENDBRANCH  24  25
ENDBRANCH  18  24
ENDBRANCH  15  18
ENDBRANCH  13  14
BRANCH  13  28
ATOM     28  C   UNL     1      -5.187   1.986  -4.587  1.00  0.00     0.327 C 
ATOM     29  O   UNL     1      -5.022   2.874  -3.764  1.00  0.00    -0.250 OA
BRANCH  28  30
ATOM     30  O   UNL     1      -5.677   0.788  -4.209  1.00  0.00    -0.480 OA
ATOM     31  H   UNL     1      -6.646   0.875  -4.328  1.00  0.00     0.296 HD
ENDBRANCH  28  30
ENDBRANCH  13  28
ENDBRANCH  11  13
ENDBRANCH   8  11
ENDBRANCH   6   7
BRANCH   6  32
ATOM     32  C   UNL     1      -4.711  -1.943  -8.732  1.00  0.00     0.037 C 
BRANCH  32  33
ATOM     33  C   UNL     1      -3.458  -1.071  -8.566  1.00  0.00     0.026 C 
BRANCH  33  34
ATOM     34  C   UNL     1      -2.437  -1.691  -7.611  1.00  0.00     0.146 C 
BRANCH  34  35
ATOM     35  N   UNL     1      -1.263  -2.091  -8.374  1.00  0.00    -0.254 NA
ATOM     36  C   UNL     1      -0.876  -3.311  -8.312  1.00  0.00     0.185 C 
ATOM     37  N   UNL     1       0.202  -3.691  -9.015  1.00  0.00    -0.370 N 
ATOM     38  N   UNL     1      -1.409  -4.332  -7.617  1.00  0.00    -0.370 N 
ATOM     39  H   UNL     1       0.654  -2.979  -9.575  1.00  0.00     0.159 HD
ATOM     40  H   UNL     1       0.462  -4.652  -9.158  1.00  0.00     0.159 HD
ATOM     41  H   UNL     1      -0.931  -5.215  -7.540  1.00  0.00     0.159 HD
ATOM     42  H   UNL     1      -2.215  -4.187  -7.030  1.00  0.00     0.159 HD
ENDBRANCH  34  35
ENDBRANCH  33  34
ENDBRANCH  32  33
ENDBRANCH   6  32
ENDBRANCH   4   6
ENDBRANCH   1   2
BRANCH   1  43
ATOM     43  C   UNL     1      -8.534  -4.374  -5.677  1.00  0.00     0.102 C 
ATOM     44  C   UNL     1      -9.233  -4.046  -7.007  1.00  0.00     0.020 C 
BRANCH  43  45
ATOM     45  C   UNL     1      -9.425  -5.109  -4.671  1.00  0.00     0.225 C 
ATOM     46  O   UNL     1     -10.611  -5.349  -4.875  1.00  0.00    -0.275 OA
ATOM     47  N   UNL     1      -8.834  -5.409  -3.465  1.00  0.00    -0.342 N 
ATOM     48  H   UNL     1      -7.830  -5.344  -3.369  1.00  0.00     0.164 HD
BRANCH  47  49
ATOM     49  C   UNL     1      -9.555  -6.142  -2.420  1.00  0.00     0.192 C 
BRANCH  49  50
ATOM     50  C   UNL     1     -10.457  -5.178  -1.644  1.00  0.00     0.047 C 
BRANCH  50  51
ATOM     51  C   UNL     1     -10.178  -5.208  -0.135  1.00  0.00     0.103 C 
BRANCH  51  52
ATOM     52  C   UNL     1     -11.427  -5.561   0.672  1.00  0.00     0.226 C 
ATOM     53  O   UNL     1     -12.247  -6.355   0.210  1.00  0.00    -0.275 OA
BRANCH  52  54
ATOM     54  N   UNL     1     -11.522  -4.996   1.957  1.00  0.00    -0.311 N 
ATOM     55  C   UNL     1     -12.522  -3.962   2.257  1.00  0.00     0.153 C 
BRANCH  54  56
ATOM     56  C   UNL     1     -10.673  -5.402   3.000  1.00  0.00     0.102 C 
ATOM     57  C   UNL     1      -9.684  -4.657   3.520  1.00  0.00     0.043 C 
BRANCH  56  58
ATOM     58  C   UNL     1     -10.853  -6.746   3.667  1.00  0.00     0.268 C 
ATOM     59  O   UNL     1     -11.837  -7.452   3.496  1.00  0.00    -0.268 OA
ATOM     60  N   UNL     1      -9.772  -7.119   4.430  1.00  0.00    -0.339 N 
ATOM     61  H   UNL     1      -8.999  -6.471   4.530  1.00  0.00     0.164 HD
BRANCH  60  62
ATOM     62  C   UNL     1      -9.709  -8.410   5.114  1.00  0.00     0.168 CG0
ATOM     63  C   UNL     1     -10.148  -8.281   6.567  1.00  0.00     0.041 C 
ATOM     64  G   UNL     1      -8.276  -8.974   5.024  1.00  0.00     0.000 G0
ENDBRANCH  60  62
ENDBRANCH  56  58
ENDBRANCH  54  56
ENDBRANCH  52  54
ENDBRANCH  51  52
ENDBRANCH  50  51
ENDBRANCH  49  50
BRANCH  49  65
ATOM     65  C   UNL     1      -8.590  -6.833  -1.444  1.00  0.00     0.326 C 
ATOM     66  O   UNL     1      -8.843  -7.828  -0.779  1.00  0.00    -0.250 OA
BRANCH  65  67
ATOM     67  O   UNL     1      -7.395  -6.219  -1.303  1.00  0.00    -0.480 OA
ATOM     68  H   UNL     1      -7.418  -5.875  -0.384  1.00  0.00     0.296 HD
ENDBRANCH  65  67
ENDBRANCH  49  65
ENDBRANCH  47  49
ENDBRANCH  43  45
ENDBRANCH   1  43
BRANCH   1  69
ATOM     69  C   UNL     1      -8.658  -2.258  -4.092  1.00  0.00    -0.001 C 
ATOM     70  C   UNL     1      -8.518  -0.935  -3.895  1.00  0.00     0.001 C 
BRANCH  70  71
ATOM     71  C   UNL     1      -9.322  -0.087  -3.013  1.00  0.00    -0.055 C 
ATOM     72  C   UNL     1      -9.443  -0.460  -1.722  1.00  0.00    -0.018 C 
ATOM     73  C   UNL     1      -9.950   1.147  -3.607  1.00  0.00     0.044 C 
BRANCH  72  74
ATOM     74  C   UNL     1     -10.203   0.217  -0.590  1.00  0.00     0.038 C 
ATOM     75  C   UNL     1      -9.213   0.417   0.564  1.00  0.00     0.015 C 
BRANCH  74  76
ATOM     76  C   UNL     1     -11.451  -0.645  -0.238  1.00  0.00     0.128 C 
BRANCH  76  77
ATOM     77  O   UNL     1     -11.684  -0.616   1.180  1.00  0.00    -0.381 OA
ATOM     78  C   UNL     1     -12.762   0.227   1.564  1.00  0.00     0.195 C 
ENDBRANCH  76  77
BRANCH  76  79
ATOM     79  C   UNL     1     -12.715  -0.288  -1.061  1.00  0.00     0.068 C 
BRANCH  79  80
ATOM     80  C   UNL     1     -12.865  -0.906  -2.430  1.00  0.00    -0.045 A 
ATOM     81  C   UNL     1     -12.428  -2.213  -2.684  1.00  0.00     0.004 A 
ATOM     82  C   UNL     1     -13.422  -0.165  -3.483  1.00  0.00     0.004 A 
ATOM     83  C   UNL     1     -12.558  -2.772  -3.957  1.00  0.00     0.000 A 
ATOM     84  C   UNL     1     -13.551  -0.725  -4.756  1.00  0.00     0.000 A 
ATOM     85  C   UNL     1     -13.120  -2.029  -4.992  1.00  0.00     0.000 A 
ENDBRANCH  79  80
ENDBRANCH  76  79
ENDBRANCH  74  76
ENDBRANCH  72  74
ENDBRANCH  70  71
ENDBRANCH   1  69
TORSDOF 17
ENDMDL
MODEL 10
REMARK VINA RESULT:    -6.243      3.571     13.231
REMARK INTER + INTRA:         -26.631
REMARK INTER:                 -18.887
REMARK INTRA:                  -7.745
REMARK UNBOUND:                -7.981
REMARK SMILES C=C1C(=O)N[C@H](C)C(=O)N[C@@H](CC(C)C)C(=O)N[C@@H](C(=O)O)[C@H](C)C(=O)N[C@@H](CCCN=C(N)N)C(=O)N[C@@H](/C=C/C(C)=C/[C@H](C)[C@H](Cc2ccccc2)OC)[C@H](C)C(=O)N[C@@H](C(=O)O)CCC(=O)N1C
REMARK SMILES IDX 39 1 38 2 37 3 36 4 28 6 27 7 25 8 26 9 23 11 24 12 19 13
REMARK SMILES IDX 18 14 16 15 17 16 11 18 10 19 8 20 9 21 12 24 13 25 14 26
REMARK SMILES IDX 15 27 20 28 21 29 22 30 29 32 30 33 31 34 32 35 33 36 34 37
REMARK SMILES IDX 35 38 57 43 58 44 59 45 60 46 61 47 62 49 66 50 67 51 68 52
REMARK SMILES IDX 69 53 70 54 71 55 2 56 1 57 3 58 4 59 5 60 6 62 7 63 63 65
REMARK SMILES IDX 64 66 65 67 40 69 41 70 42 71 44 72 43 73 45 74 46 75 47 76
REMARK SMILES IDX 55 77 56 78 48 79 49 80 50 81 54 82 51 83 53 84 52 85
REMARK H PARENT 38 5 27 10 18 17 10 22 22 31 34 39 34 40 35 41 35 42 61 48
REMARK H PARENT 5 61 65 68
REMARK Flexibility Score:  369.900
ROOT
ATOM      1  C   UNL     1      -8.121  -1.822  -3.491  1.00  0.00     0.117 C 
ENDROOT
BRANCH   1   2
ATOM      2  N   UNL     1      -8.142  -0.674  -4.398  1.00  0.00    -0.347 N 
ATOM      3  O   UNL     1      -6.995   0.800  -3.063  1.00  0.00    -0.273 OA
ATOM      4  C   UNL     1      -7.495   0.521  -4.148  1.00  0.00     0.243 C 
ATOM      5  H   UNL     1      -8.609  -0.756  -5.288  1.00  0.00     0.164 HD
BRANCH   4   6
ATOM      6  C   UNL     1      -7.602   1.542  -5.308  1.00  0.00     0.171 C 
BRANCH   6   7
ATOM      7  N   UNL     1      -8.697   2.492  -5.059  1.00  0.00    -0.344 N 
ATOM      8  C   UNL     1      -9.992   2.181  -5.414  1.00  0.00     0.226 C 
ATOM      9  O   UNL     1     -10.290   1.128  -5.966  1.00  0.00    -0.275 OA
ATOM     10  H   UNL     1      -8.480   3.399  -4.666  1.00  0.00     0.164 HD
BRANCH   8  11
ATOM     11  C   UNL     1     -11.015   3.239  -5.041  1.00  0.00     0.109 C 
ATOM     12  C   UNL     1     -11.708   2.863  -3.731  1.00  0.00     0.021 C 
BRANCH  11  13
ATOM     13  C   UNL     1     -10.351   4.631  -5.047  1.00  0.00     0.204 C 
BRANCH  13  14
ATOM     14  N   UNL     1     -11.104   5.598  -5.851  1.00  0.00    -0.340 N 
ATOM     15  C   UNL     1     -10.642   6.096  -7.049  1.00  0.00     0.243 C 
ATOM     16  O   UNL     1      -9.589   5.717  -7.560  1.00  0.00    -0.273 OA
ATOM     17  H   UNL     1     -11.905   6.064  -5.416  1.00  0.00     0.164 HD
BRANCH  15  18
ATOM     18  C   UNL     1     -11.503   7.253  -7.612  1.00  0.00     0.171 C 
BRANCH  18  19
ATOM     19  N   UNL     1     -12.488   7.581  -6.583  1.00  0.00    -0.343 N 
ATOM     20  C   UNL     1     -13.671   8.226  -6.886  1.00  0.00     0.242 CG0
ATOM     21  O   UNL     1     -13.892   8.671  -8.010  1.00  0.00    -0.273 OA
ATOM     22  H   UNL     1     -12.298   7.336  -5.618  1.00  0.00     0.164 HD
ATOM     23  G   UNL     1     -14.619   8.416  -5.683  1.00  0.00     0.000 G0
ENDBRANCH  18  19
BRANCH  18  24
ATOM     24  C   UNL     1     -10.626   8.463  -7.957  1.00  0.00     0.038 C 
BRANCH  24  25
ATOM     25  C   UNL     1     -10.425   8.704  -9.468  1.00  0.00    -0.015 C 
ATOM     26  C   UNL     1     -10.655  10.162  -9.864  1.00  0.00     0.007 C 
ATOM     27  C   UNL     1     -11.368   7.798 -10.264  1.00  0.00     0.007 C 
ENDBRANCH  24  25
ENDBRANCH  18  24
ENDBRANCH  15  18
ENDBRANCH  13  14
BRANCH  13  28
ATOM     28  C   UNL     1     -10.193   5.230  -3.646  1.00  0.00     0.327 C 
ATOM     29  O   UNL     1     -10.933   6.049  -3.123  1.00  0.00    -0.250 OA
BRANCH  28  30
ATOM     30  O   UNL     1      -9.051   4.854  -3.035  1.00  0.00    -0.480 OA
ATOM     31  H   UNL     1      -8.555   5.690  -2.915  1.00  0.00     0.296 HD
ENDBRANCH  28  30
ENDBRANCH  13  28
ENDBRANCH  11  13
ENDBRANCH   8  11
ENDBRANCH   6   7
BRANCH   6  32
ATOM     32  C   UNL     1      -6.264   2.276  -5.457  1.00  0.00     0.037 C 
BRANCH  32  33
ATOM     33  C   UNL     1      -6.452   3.786  -5.661  1.00  0.00     0.026 C 
BRANCH  33  34
ATOM     34  C   UNL     1      -5.558   4.616  -4.739  1.00  0.00     0.146 C 
BRANCH  34  35
ATOM     35  N   UNL     1      -6.272   4.867  -3.494  1.00  0.00    -0.254 NA
ATOM     36  C   UNL     1      -5.621   4.813  -2.392  1.00  0.00     0.185 C 
ATOM     37  N   UNL     1      -6.268   5.047  -1.239  1.00  0.00    -0.370 N 
ATOM     38  N   UNL     1      -4.319   4.546  -2.192  1.00  0.00    -0.370 N 
ATOM     39  H   UNL     1      -7.253   5.267  -1.308  1.00  0.00     0.159 HD
ATOM     40  H   UNL     1      -5.802   5.195  -0.360  1.00  0.00     0.159 HD
ATOM     41  H   UNL     1      -3.954   4.395  -1.265  1.00  0.00     0.159 HD
ATOM     42  H   UNL     1      -3.713   4.335  -2.969  1.00  0.00     0.159 HD
ENDBRANCH  34  35
ENDBRANCH  33  34
ENDBRANCH  32  33
ENDBRANCH   6  32
ENDBRANCH   4   6
ENDBRANCH   1   2
BRANCH   1  43
ATOM     43  C   UNL     1      -7.405  -3.005  -4.205  1.00  0.00     0.102 C 
ATOM     44  C   UNL     1      -7.007  -2.692  -5.657  1.00  0.00     0.020 C 
BRANCH  43  45
ATOM     45  C   UNL     1      -8.198  -4.306  -4.044  1.00  0.00     0.225 C 
ATOM     46  O   UNL     1      -8.852  -4.809  -4.953  1.00  0.00    -0.275 OA
ATOM     47  N   UNL     1      -8.212  -4.838  -2.775  1.00  0.00    -0.342 N 
ATOM     48  H   UNL     1      -7.555  -4.503  -2.085  1.00  0.00     0.164 HD
BRANCH  47  49
ATOM     49  C   UNL     1      -8.900  -6.099  -2.481  1.00  0.00     0.192 C 
BRANCH  49  50
ATOM     50  C   UNL     1     -10.277  -5.805  -1.879  1.00  0.00     0.047 C 
BRANCH  50  51
ATOM     51  C   UNL     1     -10.191  -4.899  -0.644  1.00  0.00     0.103 C 
BRANCH  51  52
ATOM     52  C   UNL     1     -10.390  -5.679   0.654  1.00  0.00     0.226 C 
ATOM     53  O   UNL     1     -11.086  -6.696   0.655  1.00  0.00    -0.275 OA
BRANCH  52  54
ATOM     54  N   UNL     1      -9.684  -5.213   1.780  1.00  0.00    -0.311 N 
ATOM     55  C   UNL     1      -9.952  -3.884   2.343  1.00  0.00     0.153 C 
BRANCH  54  56
ATOM     56  C   UNL     1      -8.705  -6.001   2.407  1.00  0.00     0.102 C 
ATOM     57  C   UNL     1      -7.386  -5.926   2.165  1.00  0.00     0.043 C 
BRANCH  56  58
ATOM     58  C   UNL     1      -9.082  -7.000   3.477  1.00  0.00     0.268 C 
ATOM     59  O   UNL     1      -9.078  -6.735   4.671  1.00  0.00    -0.268 OA
ATOM     60  N   UNL     1      -9.491  -8.209   2.967  1.00  0.00    -0.339 N 
ATOM     61  H   UNL     1      -9.456  -8.352   1.964  1.00  0.00     0.164 HD
BRANCH  60  62
ATOM     62  C   UNL     1      -9.960  -9.297   3.824  1.00  0.00     0.168 CG0
ATOM     63  C   UNL     1      -8.852 -10.313   4.071  1.00  0.00     0.041 C 
ATOM     64  G   UNL     1     -11.186  -9.973   3.177  1.00  0.00     0.000 G0
ENDBRANCH  60  62
ENDBRANCH  56  58
ENDBRANCH  54  56
ENDBRANCH  52  54
ENDBRANCH  51  52
ENDBRANCH  50  51
ENDBRANCH  49  50
BRANCH  49  65
ATOM     65  C   UNL     1      -8.094  -6.970  -1.505  1.00  0.00     0.326 C 
ATOM     66  O   UNL     1      -8.458  -8.041  -1.042  1.00  0.00    -0.250 OA
BRANCH  65  67
ATOM     67  O   UNL     1      -6.915  -6.437  -1.116  1.00  0.00    -0.480 OA
ATOM     68  H   UNL     1      -7.004  -5.487  -1.345  1.00  0.00     0.296 HD
ENDBRANCH  65  67
ENDBRANCH  49  65
ENDBRANCH  47  49
ENDBRANCH  43  45
ENDBRANCH   1  43
BRANCH   1  69
ATOM     69  C   UNL     1      -9.550  -2.010  -3.013  1.00  0.00    -0.001 C 
ATOM     70  C   UNL     1     -10.678  -1.634  -3.642  1.00  0.00     0.001 C 
BRANCH  70  71
ATOM     71  C   UNL     1     -12.052  -1.840  -3.181  1.00  0.00    -0.055 C 
ATOM     72  C   UNL     1     -12.731  -0.764  -2.730  1.00  0.00    -0.018 C 
ATOM     73  C   UNL     1     -12.614  -3.236  -3.249  1.00  0.00     0.044 C 
BRANCH  72  74
ATOM     74  C   UNL     1     -14.155  -0.677  -2.199  1.00  0.00     0.038 C 
ATOM     75  C   UNL     1     -14.964   0.147  -3.207  1.00  0.00     0.015 C 
BRANCH  74  76
ATOM     76  C   UNL     1     -14.116  -0.090  -0.757  1.00  0.00     0.128 C 
BRANCH  76  77
ATOM     77  O   UNL     1     -15.451   0.198  -0.309  1.00  0.00    -0.381 OA
ATOM     78  C   UNL     1     -15.654   1.560   0.043  1.00  0.00     0.195 C 
ENDBRANCH  76  77
BRANCH  76  79
ATOM     79  C   UNL     1     -13.317  -0.952   0.252  1.00  0.00     0.068 C 
BRANCH  79  80
ATOM     80  C   UNL     1     -12.020  -0.395   0.787  1.00  0.00    -0.045 A 
ATOM     81  C   UNL     1     -12.013   0.627   1.745  1.00  0.00     0.004 A 
ATOM     82  C   UNL     1     -10.793  -0.877   0.307  1.00  0.00     0.004 A 
ATOM     83  C   UNL     1     -10.808   1.147   2.224  1.00  0.00     0.000 A 
ATOM     84  C   UNL     1      -9.588  -0.356   0.785  1.00  0.00     0.000 A 
ATOM     85  C   UNL     1      -9.597   0.654   1.745  1.00  0.00     0.000 A 
ENDBRANCH  79  80
ENDBRANCH  76  79
ENDBRANCH  74  76
ENDBRANCH  72  74
ENDBRANCH  70  71
ENDBRANCH   1  69
TORSDOF 17
ENDMDL
