MODEL 1
REMARK VINA RESULT:    -5.266      0.000      0.000
REMARK INTER + INTRA:         -21.860
REMARK INTER:                 -15.117
REMARK INTRA:                  -6.743
REMARK UNBOUND:                -6.743
REMARK SMILES CCCCCC(=O)N[C@H](CC(=O)O)C(=O)N[C@H]1C(=O)N[C@H](CCCN=C(N)N)C(=O)N[C@@H]2CC[C@H](O)N(C2=O)[C@@H](CC(C)C)C(=O)N(C)[C@@H](Cc2ccccc2)C(=O)N[C@H](C(C)C)C(=O)O[C@@H]1C
REMARK SMILES IDX 30 1 31 2 29 3 32 5 35 6 37 7 34 8 38 9 33 10 39 11 36 12
REMARK SMILES IDX 40 14 41 15 42 16 43 17 44 18 45 19 46 20 47 21 48 22 49 23
REMARK SMILES IDX 50 24 51 25 52 26 56 27 53 28 55 29 54 30 57 31 58 32 59 33
REMARK SMILES IDX 60 35 61 36 62 37 63 38 64 39 65 40 66 41 67 42 68 43 21 45
REMARK SMILES IDX 20 46 18 47 19 48 17 50 16 52 14 53 15 54 9 56 8 57 6 58
REMARK SMILES IDX 7 59 5 61 4 62 3 63 2 64 1 65 10 66 11 67 12 68 13 69 22 71
REMARK SMILES IDX 23 72 24 73 25 74 26 75 27 76 28 77
REMARK H PARENT 31 4 36 13 59 34 20 49 16 55 8 60 13 70 27 78 27 79 28 80
REMARK H PARENT 28 81
REMARK Flexibility Score:  259.900
ROOT
ATOM      1  O   UNL     1       2.278   5.565  11.290  1.00  0.00    -0.273 OA
ATOM      2  N   UNL     1       3.389   3.971  10.084  1.00  0.00    -0.343 N 
ATOM      3  C   UNL     1       2.809   4.455  11.237  1.00  0.00     0.243 C 
ATOM      4  H   UNL     1       3.803   3.047  10.073  1.00  0.00     0.164 HD
ENDROOT
BRANCH   2   5
ATOM      5  C   UNL     1       3.502   4.814   8.899  1.00  0.00     0.171 C 
ATOM      6  C   UNL     1       4.258   4.256   6.156  1.00  0.00     0.214 C 
ATOM      7  N   UNL     1       5.272   4.652   7.106  1.00  0.00    -0.303 N 
ATOM      8  C   UNL     1       2.888   4.840   6.461  1.00  0.00     0.057 C 
ATOM      9  C   UNL     1       4.988   4.884   8.442  1.00  0.00     0.247 C 
ATOM     10  C   UNL     1       2.456   4.434   7.853  1.00  0.00     0.040 C 
ATOM     11  O   UNL     1       5.875   5.139   9.267  1.00  0.00    -0.272 OA
BRANCH   6  12
ATOM     12  O   UNL     1       4.203   2.848   6.147  1.00  0.00    -0.373 OA
ATOM     13  H   UNL     1       3.363   2.591   6.583  1.00  0.00     0.213 HD
ENDBRANCH   6  12
BRANCH   7  14
ATOM     14  C   UNL     1       6.671   4.661   6.628  1.00  0.00     0.177 C 
BRANCH  14  15
ATOM     15  C   UNL     1       7.395   3.302   6.695  1.00  0.00     0.038 C 
BRANCH  15  16
ATOM     16  C   UNL     1       8.530   3.094   7.722  1.00  0.00    -0.015 C 
ATOM     17  C   UNL     1       9.706   2.303   7.142  1.00  0.00     0.007 C 
ATOM     18  C   UNL     1       7.993   2.332   8.941  1.00  0.00     0.007 C 
ENDBRANCH  15  16
ENDBRANCH  14  15
BRANCH  14  19
ATOM     19  C   UNL     1       6.853   5.732   5.498  1.00  0.00     0.245 C 
ATOM     20  O   UNL     1       6.017   6.650   5.457  1.00  0.00    -0.272 OA
BRANCH  19  21
ATOM     21  N   UNL     1       7.807   5.645   4.500  1.00  0.00    -0.332 N 
ATOM     22  C   UNL     1       7.726   4.791   3.328  1.00  0.00     0.147 C 
BRANCH  21  23
ATOM     23  C   UNL     1       9.031   6.483   4.632  1.00  0.00     0.178 C 
BRANCH  23  24
ATOM     24  C   UNL     1      10.254   5.752   5.223  1.00  0.00     0.070 C 
BRANCH  24  25
ATOM     25  C   UNL     1      11.023   6.465   6.311  1.00  0.00    -0.045 A 
ATOM     26  C   UNL     1      10.880   6.093   7.653  1.00  0.00     0.004 A 
ATOM     27  C   UNL     1      11.891   7.519   5.988  1.00  0.00     0.004 A 
ATOM     28  C   UNL     1      11.582   6.769   8.654  1.00  0.00     0.000 A 
ATOM     29  C   UNL     1      12.593   8.193   6.989  1.00  0.00     0.000 A 
ATOM     30  C   UNL     1      12.435   7.819   8.322  1.00  0.00     0.000 A 
ENDBRANCH  24  25
ENDBRANCH  23  24
BRANCH  23  31
ATOM     31  C   UNL     1       9.325   7.326   3.368  1.00  0.00     0.243 C 
ATOM     32  O   UNL     1       8.564   8.180   2.921  1.00  0.00    -0.273 OA
ATOM     33  N   UNL     1      10.444   6.905   2.671  1.00  0.00    -0.341 N 
ATOM     34  H   UNL     1      11.036   6.185   3.092  1.00  0.00     0.164 HD
BRANCH  33  35
ATOM     35  C   UNL     1      10.845   7.479   1.383  1.00  0.00     0.194 C 
BRANCH  35  36
ATOM     36  C   UNL     1      10.489   6.595   0.155  1.00  0.00     0.017 C 
ATOM     37  C   UNL     1       9.186   7.066  -0.515  1.00  0.00     0.010 C 
ATOM     38  C   UNL     1      10.313   5.113   0.508  1.00  0.00     0.010 C 
ENDBRANCH  35  36
BRANCH  35  39
ATOM     39  C   UNL     1      12.334   7.925   1.365  1.00  0.00     0.329 C 
ATOM     40  O   UNL     1      12.872   8.559   2.265  1.00  0.00    -0.250 OA
BRANCH  39  41
ATOM     41  O   UNL     1      13.004   7.454   0.270  1.00  0.00    -0.458 OA
BRANCH  41  42
ATOM     42  C   UNL     1      14.376   7.892   0.121  1.00  0.00     0.205 CG0
ATOM     43  C   UNL     1      15.270   6.683   0.387  1.00  0.00     0.056 C 
ATOM     44  G   UNL     1      14.634   9.046   1.110  1.00  0.00     0.000 G0
ENDBRANCH  41  42
ENDBRANCH  39  41
ENDBRANCH  35  39
ENDBRANCH  33  35
ENDBRANCH  23  31
ENDBRANCH  21  23
ENDBRANCH  19  21
ENDBRANCH  14  19
ENDBRANCH   7  14
ENDBRANCH   2   5
BRANCH   3  45
ATOM     45  C   UNL     1       2.852   3.507  12.442  1.00  0.00     0.171 C 
BRANCH  45  46
ATOM     46  N   UNL     1       1.464   3.168  12.726  1.00  0.00    -0.342 N 
ATOM     47  C   UNL     1       1.100   1.979  13.307  1.00  0.00     0.247 C 
ATOM     48  O   UNL     1       1.920   1.147  13.695  1.00  0.00    -0.273 OA
ATOM     49  H   UNL     1       0.755   3.855  12.472  1.00  0.00     0.164 HD
BRANCH  47  50
ATOM     50  C   UNL     1      -0.414   1.745  13.415  1.00  0.00     0.212 CG0
ATOM     51  G   UNL     1      -0.926   2.547  14.628  1.00  0.00     0.000 G0
BRANCH  50  52
ATOM     52  N   UNL     1      -0.970   2.202  12.144  1.00  0.00    -0.339 N 
ATOM     53  C   UNL     1      -2.316   2.208  11.867  1.00  0.00     0.243 C 
ATOM     54  O   UNL     1      -3.155   1.778  12.653  1.00  0.00    -0.273 OA
ATOM     55  H   UNL     1      -0.317   2.467  11.410  1.00  0.00     0.164 HD
BRANCH  53  56
ATOM     56  C   UNL     1      -2.658   2.652  10.430  1.00  0.00     0.182 C 
BRANCH  56  57
ATOM     57  N   UNL     1      -1.746   2.040   9.459  1.00  0.00    -0.344 N 
ATOM     58  C   UNL     1      -1.985   0.809   8.898  1.00  0.00     0.220 C 
ATOM     59  O   UNL     1      -2.936   0.106   9.223  1.00  0.00    -0.275 OA
ATOM     60  H   UNL     1      -1.006   2.630   9.088  1.00  0.00     0.164 HD
BRANCH  58  61
ATOM     61  C   UNL     1      -0.941   0.401   7.876  1.00  0.00     0.100 C 
BRANCH  61  62
ATOM     62  C   UNL     1       0.182  -0.461   8.454  1.00  0.00     0.010 C 
BRANCH  62  63
ATOM     63  C   UNL     1       1.403   0.336   8.930  1.00  0.00     0.000 C 
BRANCH  63  64
ATOM     64  C   UNL     1       2.568  -0.528   9.409  1.00  0.00    -0.003 C 
ATOM     65  C   UNL     1       3.002  -1.518   8.337  1.00  0.00     0.004 C 
ENDBRANCH  63  64
ENDBRANCH  62  63
ENDBRANCH  61  62
ENDBRANCH  58  61
ENDBRANCH  56  57
BRANCH  56  66
ATOM     66  C   UNL     1      -2.695   4.174  10.308  1.00  0.00     0.157 C 
BRANCH  66  67
ATOM     67  C   UNL     1      -1.481   4.691   9.590  1.00  0.00     0.305 C 
ATOM     68  O   UNL     1      -1.431   5.110   8.444  1.00  0.00    -0.252 OA
BRANCH  67  69
ATOM     69  O   UNL     1      -0.388   4.704  10.377  1.00  0.00    -0.481 OA
ATOM     70  H   UNL     1       0.292   4.216   9.868  1.00  0.00     0.296 HD
ENDBRANCH  67  69
ENDBRANCH  66  67
ENDBRANCH  56  66
ENDBRANCH  53  56
ENDBRANCH  50  52
ENDBRANCH  47  50
ENDBRANCH  45  46
BRANCH  45  71
ATOM     71  C   UNL     1       3.523   4.193  13.637  1.00  0.00     0.037 C 
BRANCH  71  72
ATOM     72  C   UNL     1       5.002   4.488  13.376  1.00  0.00     0.026 C 
BRANCH  72  73
ATOM     73  C   UNL     1       5.306   5.980  13.502  1.00  0.00     0.146 C 
BRANCH  73  74
ATOM     74  N   UNL     1       5.758   6.455  12.198  1.00  0.00    -0.254 NA
ATOM     75  C   UNL     1       5.294   7.573  11.775  1.00  0.00     0.185 C 
ATOM     76  N   UNL     1       5.691   8.037  10.579  1.00  0.00    -0.370 N 
ATOM     77  N   UNL     1       4.421   8.405  12.369  1.00  0.00    -0.370 N 
ATOM     78  H   UNL     1       6.344   7.467  10.061  1.00  0.00     0.159 HD
ATOM     79  H   UNL     1       5.266   8.824  10.121  1.00  0.00     0.159 HD
ATOM     80  H   UNL     1       4.039   8.186  13.277  1.00  0.00     0.159 HD
ATOM     81  H   UNL     1       4.217   9.315  11.990  1.00  0.00     0.159 HD
ENDBRANCH  73  74
ENDBRANCH  72  73
ENDBRANCH  71  72
ENDBRANCH  45  71
ENDBRANCH   3  45
TORSDOF 20
ENDMDL
MODEL 2
REMARK VINA RESULT:    -5.239      2.316      3.153
REMARK INTER + INTRA:         -21.784
REMARK INTER:                 -14.672
REMARK INTRA:                  -7.112
REMARK UNBOUND:                -6.743
REMARK SMILES CCCCCC(=O)N[C@H](CC(=O)O)C(=O)N[C@H]1C(=O)N[C@H](CCCN=C(N)N)C(=O)N[C@@H]2CC[C@H](O)N(C2=O)[C@@H](CC(C)C)C(=O)N(C)[C@@H](Cc2ccccc2)C(=O)N[C@H](C(C)C)C(=O)O[C@@H]1C
REMARK SMILES IDX 30 1 31 2 29 3 32 5 35 6 37 7 34 8 38 9 33 10 39 11 36 12
REMARK SMILES IDX 40 14 41 15 42 16 43 17 44 18 45 19 46 20 47 21 48 22 49 23
REMARK SMILES IDX 50 24 51 25 52 26 56 27 53 28 55 29 54 30 57 31 58 32 59 33
REMARK SMILES IDX 60 35 61 36 62 37 63 38 64 39 65 40 66 41 67 42 68 43 21 45
REMARK SMILES IDX 20 46 18 47 19 48 17 50 16 52 14 53 15 54 9 56 8 57 6 58
REMARK SMILES IDX 7 59 5 61 4 62 3 63 2 64 1 65 10 66 11 67 12 68 13 69 22 71
REMARK SMILES IDX 23 72 24 73 25 74 26 75 27 76 28 77
REMARK H PARENT 31 4 36 13 59 34 20 49 16 55 8 60 13 70 27 78 27 79 28 80
REMARK H PARENT 28 81
REMARK Flexibility Score:  259.900
ROOT
ATOM      1  O   UNL     1       4.951   6.980  10.175  1.00  0.00    -0.273 OA
ATOM      2  N   UNL     1       4.682   4.929   9.200  1.00  0.00    -0.343 N 
ATOM      3  C   UNL     1       4.939   5.753  10.275  1.00  0.00     0.243 C 
ATOM      4  H   UNL     1       4.666   3.924   9.322  1.00  0.00     0.164 HD
ENDROOT
BRANCH   2   5
ATOM      5  C   UNL     1       4.530   5.484   7.859  1.00  0.00     0.171 C 
ATOM      6  C   UNL     1       4.233   4.258   5.249  1.00  0.00     0.214 C 
ATOM      7  N   UNL     1       5.554   4.580   5.736  1.00  0.00    -0.303 N 
ATOM      8  C   UNL     1       3.154   5.191   5.775  1.00  0.00     0.057 C 
ATOM      9  C   UNL     1       5.771   5.119   6.994  1.00  0.00     0.247 C 
ATOM     10  C   UNL     1       3.149   5.167   7.288  1.00  0.00     0.040 C 
ATOM     11  O   UNL     1       6.910   5.311   7.438  1.00  0.00    -0.272 OA
BRANCH   6  12
ATOM     12  O   UNL     1       3.953   2.926   5.612  1.00  0.00    -0.373 OA
ATOM     13  H   UNL     1       2.985   2.867   5.760  1.00  0.00     0.213 HD
ENDBRANCH   6  12
BRANCH   7  14
ATOM     14  C   UNL     1       6.698   4.172   4.892  1.00  0.00     0.177 C 
BRANCH  14  15
ATOM     15  C   UNL     1       7.091   2.686   4.994  1.00  0.00     0.038 C 
BRANCH  15  16
ATOM     16  C   UNL     1       8.447   2.299   5.624  1.00  0.00    -0.015 C 
ATOM     17  C   UNL     1       8.284   1.416   6.865  1.00  0.00     0.007 C 
ATOM     18  C   UNL     1       9.210   3.566   6.033  1.00  0.00     0.007 C 
ENDBRANCH  15  16
ENDBRANCH  14  15
BRANCH  14  19
ATOM     19  C   UNL     1       6.743   5.035   3.585  1.00  0.00     0.245 C 
ATOM     20  O   UNL     1       6.469   4.454   2.521  1.00  0.00    -0.272 OA
BRANCH  19  21
ATOM     21  N   UNL     1       7.172   6.350   3.543  1.00  0.00    -0.332 N 
ATOM     22  C   UNL     1       6.483   7.481   4.140  1.00  0.00     0.147 C 
BRANCH  21  23
ATOM     23  C   UNL     1       8.438   6.646   2.818  1.00  0.00     0.178 C 
BRANCH  23  24
ATOM     24  C   UNL     1       9.651   5.805   3.267  1.00  0.00     0.070 C 
BRANCH  24  25
ATOM     25  C   UNL     1      10.705   6.504   4.094  1.00  0.00    -0.045 A 
ATOM     26  C   UNL     1      12.049   6.492   3.701  1.00  0.00     0.004 A 
ATOM     27  C   UNL     1      10.349   7.173   5.275  1.00  0.00     0.004 A 
ATOM     28  C   UNL     1      13.020   7.126   4.480  1.00  0.00     0.000 A 
ATOM     29  C   UNL     1      11.321   7.807   6.051  1.00  0.00     0.000 A 
ATOM     30  C   UNL     1      12.656   7.780   5.654  1.00  0.00     0.000 A 
ENDBRANCH  24  25
ENDBRANCH  23  24
BRANCH  23  31
ATOM     31  C   UNL     1       8.248   6.748   1.286  1.00  0.00     0.243 C 
ATOM     32  O   UNL     1       7.189   7.057   0.744  1.00  0.00    -0.273 OA
ATOM     33  N   UNL     1       9.330   6.278   0.562  1.00  0.00    -0.341 N 
ATOM     34  H   UNL     1      10.183   6.030   1.069  1.00  0.00     0.164 HD
BRANCH  33  35
ATOM     35  C   UNL     1       9.326   6.168  -0.900  1.00  0.00     0.194 C 
BRANCH  35  36
ATOM     36  C   UNL     1       8.934   4.760  -1.430  1.00  0.00     0.017 C 
ATOM     37  C   UNL     1       7.470   4.728  -1.902  1.00  0.00     0.010 C 
ATOM     38  C   UNL     1       9.102   3.652  -0.383  1.00  0.00     0.010 C 
ENDBRANCH  35  36
BRANCH  35  39
ATOM     39  C   UNL     1      10.645   6.683  -1.542  1.00  0.00     0.329 C 
ATOM     40  O   UNL     1      11.710   6.773  -0.942  1.00  0.00    -0.250 OA
BRANCH  39  41
ATOM     41  O   UNL     1      10.507   6.942  -2.877  1.00  0.00    -0.458 OA
BRANCH  41  42
ATOM     42  C   UNL     1      11.653   6.645  -3.710  1.00  0.00     0.205 CG0
ATOM     43  C   UNL     1      11.562   5.171  -4.098  1.00  0.00     0.056 C 
ATOM     44  G   UNL     1      12.935   6.968  -2.916  1.00  0.00     0.000 G0
ENDBRANCH  41  42
ENDBRANCH  39  41
ENDBRANCH  35  39
ENDBRANCH  33  35
ENDBRANCH  23  31
ENDBRANCH  21  23
ENDBRANCH  19  21
ENDBRANCH  14  19
ENDBRANCH   7  14
ENDBRANCH   2   5
BRANCH   3  45
ATOM     45  C   UNL     1       5.186   5.035  11.608  1.00  0.00     0.171 C 
BRANCH  45  46
ATOM     46  N   UNL     1       3.954   5.185  12.371  1.00  0.00    -0.342 N 
ATOM     47  C   UNL     1       3.347   4.130  13.004  1.00  0.00     0.247 C 
ATOM     48  O   UNL     1       3.834   2.999  13.035  1.00  0.00    -0.273 OA
ATOM     49  H   UNL     1       3.547   6.117  12.419  1.00  0.00     0.164 HD
BRANCH  47  50
ATOM     50  C   UNL     1       1.993   4.453  13.653  1.00  0.00     0.212 CG0
ATOM     51  G   UNL     1       1.866   5.988  13.730  1.00  0.00     0.000 G0
BRANCH  50  52
ATOM     52  N   UNL     1       0.990   3.834  12.790  1.00  0.00    -0.339 N 
ATOM     53  C   UNL     1       0.495   4.431  11.657  1.00  0.00     0.243 C 
ATOM     54  O   UNL     1       0.821   5.563  11.309  1.00  0.00    -0.273 OA
ATOM     55  H   UNL     1       0.598   2.942  13.087  1.00  0.00     0.164 HD
BRANCH  53  56
ATOM     56  C   UNL     1      -0.617   3.624  10.957  1.00  0.00     0.182 C 
BRANCH  56  57
ATOM     57  N   UNL     1      -0.052   2.535  10.155  1.00  0.00    -0.344 N 
ATOM     58  C   UNL     1       0.140   1.272  10.660  1.00  0.00     0.220 C 
ATOM     59  O   UNL     1      -0.077   0.986  11.832  1.00  0.00    -0.275 OA
ATOM     60  H   UNL     1       0.046   2.701   9.157  1.00  0.00     0.164 HD
BRANCH  58  61
ATOM     61  C   UNL     1       0.681   0.291   9.636  1.00  0.00     0.100 C 
BRANCH  61  62
ATOM     62  C   UNL     1       1.923  -0.467  10.105  1.00  0.00     0.010 C 
BRANCH  62  63
ATOM     63  C   UNL     1       3.095  -0.424   9.117  1.00  0.00     0.000 C 
BRANCH  63  64
ATOM     64  C   UNL     1       3.584   0.985   8.785  1.00  0.00    -0.003 C 
ATOM     65  C   UNL     1       4.954   1.253   9.390  1.00  0.00     0.004 C 
ENDBRANCH  63  64
ENDBRANCH  62  63
ENDBRANCH  61  62
ENDBRANCH  58  61
ENDBRANCH  56  57
BRANCH  56  66
ATOM     66  C   UNL     1      -1.534   4.530  10.136  1.00  0.00     0.157 C 
BRANCH  66  67
ATOM     67  C   UNL     1      -1.406   4.244   8.667  1.00  0.00     0.305 C 
ATOM     68  O   UNL     1      -0.668   4.806   7.873  1.00  0.00    -0.252 OA
BRANCH  67  69
ATOM     69  O   UNL     1      -2.186   3.219   8.276  1.00  0.00    -0.481 OA
ATOM     70  H   UNL     1      -2.879   3.630   7.718  1.00  0.00     0.296 HD
ENDBRANCH  67  69
ENDBRANCH  66  67
ENDBRANCH  56  66
ENDBRANCH  53  56
ENDBRANCH  50  52
ENDBRANCH  47  50
ENDBRANCH  45  46
BRANCH  45  71
ATOM     71  C   UNL     1       6.382   5.659  12.336  1.00  0.00     0.037 C 
BRANCH  71  72
ATOM     72  C   UNL     1       7.190   4.617  13.114  1.00  0.00     0.026 C 
BRANCH  72  73
ATOM     73  C   UNL     1       7.292   3.300  12.346  1.00  0.00     0.146 C 
BRANCH  73  74
ATOM     74  N   UNL     1       8.624   3.231  11.753  1.00  0.00    -0.254 NA
ATOM     75  C   UNL     1       8.716   3.313  10.477  1.00  0.00     0.185 C 
ATOM     76  N   UNL     1       9.928   3.254   9.901  1.00  0.00    -0.370 N 
ATOM     77  N   UNL     1       7.737   3.458   9.567  1.00  0.00    -0.370 N 
ATOM     78  H   UNL     1      10.721   3.138  10.515  1.00  0.00     0.159 HD
ATOM     79  H   UNL     1      10.066   3.166   8.910  1.00  0.00     0.159 HD
ATOM     80  H   UNL     1       6.772   3.521   9.855  1.00  0.00     0.159 HD
ATOM     81  H   UNL     1       7.940   3.628   8.595  1.00  0.00     0.159 HD
ENDBRANCH  73  74
ENDBRANCH  72  73
ENDBRANCH  71  72
ENDBRANCH  45  71
ENDBRANCH   3  45
TORSDOF 20
ENDMDL
MODEL 3
REMARK VINA RESULT:    -5.016      2.594      3.619
REMARK INTER + INTRA:         -21.143
REMARK INTER:                 -14.738
REMARK INTRA:                  -6.405
REMARK UNBOUND:                -6.743
REMARK SMILES CCCCCC(=O)N[C@H](CC(=O)O)C(=O)N[C@H]1C(=O)N[C@H](CCCN=C(N)N)C(=O)N[C@@H]2CC[C@H](O)N(C2=O)[C@@H](CC(C)C)C(=O)N(C)[C@@H](Cc2ccccc2)C(=O)N[C@H](C(C)C)C(=O)O[C@@H]1C
REMARK SMILES IDX 30 1 31 2 29 3 32 5 35 6 37 7 34 8 38 9 33 10 39 11 36 12
REMARK SMILES IDX 40 14 41 15 42 16 43 17 44 18 45 19 46 20 47 21 48 22 49 23
REMARK SMILES IDX 50 24 51 25 52 26 56 27 53 28 55 29 54 30 57 31 58 32 59 33
REMARK SMILES IDX 60 35 61 36 62 37 63 38 64 39 65 40 66 41 67 42 68 43 21 45
REMARK SMILES IDX 20 46 18 47 19 48 17 50 16 52 14 53 15 54 9 56 8 57 6 58
REMARK SMILES IDX 7 59 5 61 4 62 3 63 2 64 1 65 10 66 11 67 12 68 13 69 22 71
REMARK SMILES IDX 23 72 24 73 25 74 26 75 27 76 28 77
REMARK H PARENT 31 4 36 13 59 34 20 49 16 55 8 60 13 70 27 78 27 79 28 80
REMARK H PARENT 28 81
REMARK Flexibility Score:  259.900
ROOT
ATOM      1  O   UNL     1       5.291   6.910   9.973  1.00  0.00    -0.273 OA
ATOM      2  N   UNL     1       4.611   4.982   8.948  1.00  0.00    -0.343 N 
ATOM      3  C   UNL     1       5.048   5.704  10.037  1.00  0.00     0.243 C 
ATOM      4  H   UNL     1       4.407   3.995   9.041  1.00  0.00     0.164 HD
ENDROOT
BRANCH   2   5
ATOM      5  C   UNL     1       4.530   5.602   7.630  1.00  0.00     0.171 C 
ATOM      6  C   UNL     1       4.216   4.511   4.962  1.00  0.00     0.214 C 
ATOM      7  N   UNL     1       5.543   4.721   5.492  1.00  0.00    -0.303 N 
ATOM      8  C   UNL     1       3.189   5.492   5.505  1.00  0.00     0.057 C 
ATOM      9  C   UNL     1       5.764   5.190   6.777  1.00  0.00     0.247 C 
ATOM     10  C   UNL     1       3.145   5.405   7.015  1.00  0.00     0.040 C 
ATOM     11  O   UNL     1       6.902   5.285   7.254  1.00  0.00    -0.272 OA
BRANCH   6  12
ATOM     12  O   UNL     1       3.838   3.187   5.260  1.00  0.00    -0.373 OA
ATOM     13  H   UNL     1       2.973   3.031   4.824  1.00  0.00     0.213 HD
ENDBRANCH   6  12
BRANCH   7  14
ATOM     14  C   UNL     1       6.677   4.273   4.657  1.00  0.00     0.177 C 
BRANCH  14  15
ATOM     15  C   UNL     1       7.070   2.792   4.823  1.00  0.00     0.038 C 
BRANCH  15  16
ATOM     16  C   UNL     1       8.433   2.301   4.287  1.00  0.00    -0.015 C 
ATOM     17  C   UNL     1       8.295   1.491   2.995  1.00  0.00     0.007 C 
ATOM     18  C   UNL     1       9.116   1.416   5.338  1.00  0.00     0.007 C 
ENDBRANCH  15  16
ENDBRANCH  14  15
BRANCH  14  19
ATOM     19  C   UNL     1       6.710   5.074   3.310  1.00  0.00     0.245 C 
ATOM     20  O   UNL     1       6.431   4.442   2.277  1.00  0.00    -0.272 OA
BRANCH  19  21
ATOM     21  N   UNL     1       7.134   6.386   3.203  1.00  0.00    -0.332 N 
ATOM     22  C   UNL     1       6.354   7.556   3.566  1.00  0.00     0.147 C 
BRANCH  21  23
ATOM     23  C   UNL     1       8.499   6.635   2.662  1.00  0.00     0.178 C 
BRANCH  23  24
ATOM     24  C   UNL     1       9.608   5.761   3.283  1.00  0.00     0.070 C 
BRANCH  24  25
ATOM     25  C   UNL     1      10.103   6.150   4.657  1.00  0.00    -0.045 A 
ATOM     26  C   UNL     1      10.044   5.244   5.724  1.00  0.00     0.004 A 
ATOM     27  C   UNL     1      10.625   7.432   4.884  1.00  0.00     0.004 A 
ATOM     28  C   UNL     1      10.487   5.617   6.994  1.00  0.00     0.000 A 
ATOM     29  C   UNL     1      11.069   7.803   6.155  1.00  0.00     0.000 A 
ATOM     30  C   UNL     1      10.996   6.896   7.209  1.00  0.00     0.000 A 
ENDBRANCH  24  25
ENDBRANCH  23  24
BRANCH  23  31
ATOM     31  C   UNL     1       8.529   6.727   1.118  1.00  0.00     0.243 C 
ATOM     32  O   UNL     1       7.564   7.050   0.430  1.00  0.00    -0.273 OA
ATOM     33  N   UNL     1       9.694   6.230   0.557  1.00  0.00    -0.341 N 
ATOM     34  H   UNL     1      10.461   5.971   1.182  1.00  0.00     0.164 HD
BRANCH  33  35
ATOM     35  C   UNL     1       9.894   6.107  -0.889  1.00  0.00     0.194 C 
BRANCH  35  36
ATOM     36  C   UNL     1       9.649   4.676  -1.445  1.00  0.00     0.017 C 
ATOM     37  C   UNL     1       8.212   4.520  -1.974  1.00  0.00     0.010 C 
ATOM     38  C   UNL     1       9.875   3.575  -0.401  1.00  0.00     0.010 C 
ENDBRANCH  35  36
BRANCH  35  39
ATOM     39  C   UNL     1      11.261   6.683  -1.354  1.00  0.00     0.329 C 
ATOM     40  O   UNL     1      12.255   6.751  -0.642  1.00  0.00    -0.250 OA
BRANCH  39  41
ATOM     41  O   UNL     1      11.256   7.028  -2.678  1.00  0.00    -0.458 OA
BRANCH  41  42
ATOM     42  C   UNL     1      12.545   7.056  -3.337  1.00  0.00     0.205 CG0
ATOM     43  C   UNL     1      12.348   7.737  -4.690  1.00  0.00     0.056 C 
ATOM     44  G   UNL     1      13.057   5.608  -3.476  1.00  0.00     0.000 G0
ENDBRANCH  41  42
ENDBRANCH  39  41
ENDBRANCH  35  39
ENDBRANCH  33  35
ENDBRANCH  23  31
ENDBRANCH  21  23
ENDBRANCH  19  21
ENDBRANCH  14  19
ENDBRANCH   7  14
ENDBRANCH   2   5
BRANCH   3  45
ATOM     45  C   UNL     1       5.192   4.906  11.340  1.00  0.00     0.171 C 
BRANCH  45  46
ATOM     46  N   UNL     1       3.897   4.997  12.002  1.00  0.00    -0.342 N 
ATOM     47  C   UNL     1       3.383   3.972  12.756  1.00  0.00     0.247 C 
ATOM     48  O   UNL     1       4.006   2.935  12.989  1.00  0.00    -0.273 OA
ATOM     49  H   UNL     1       3.372   5.861  11.882  1.00  0.00     0.164 HD
BRANCH  47  50
ATOM     50  C   UNL     1       1.955   4.198  13.272  1.00  0.00     0.212 CG0
ATOM     51  G   UNL     1       1.763   5.715  13.469  1.00  0.00     0.000 G0
BRANCH  50  52
ATOM     52  N   UNL     1       1.078   3.633  12.249  1.00  0.00    -0.339 N 
ATOM     53  C   UNL     1       0.590   4.357  11.188  1.00  0.00     0.243 C 
ATOM     54  O   UNL     1       0.813   5.556  11.047  1.00  0.00    -0.273 OA
ATOM     55  H   UNL     1       0.766   2.672  12.372  1.00  0.00     0.164 HD
BRANCH  53  56
ATOM     56  C   UNL     1      -0.385   3.572  10.288  1.00  0.00     0.182 C 
BRANCH  56  57
ATOM     57  N   UNL     1      -0.910   2.393  10.984  1.00  0.00    -0.344 N 
ATOM     58  C   UNL     1      -2.179   2.351  11.508  1.00  0.00     0.220 C 
ATOM     59  O   UNL     1      -2.934   3.317  11.495  1.00  0.00    -0.275 OA
ATOM     60  H   UNL     1      -0.358   1.541  10.927  1.00  0.00     0.164 HD
BRANCH  58  61
ATOM     61  C   UNL     1      -2.529   1.012  12.130  1.00  0.00     0.100 C 
BRANCH  61  62
ATOM     62  C   UNL     1      -1.754   0.707  13.412  1.00  0.00     0.010 C 
BRANCH  62  63
ATOM     63  C   UNL     1      -0.966  -0.609  13.371  1.00  0.00     0.000 C 
BRANCH  63  64
ATOM     64  C   UNL     1      -0.922  -1.270  11.994  1.00  0.00    -0.003 C 
ATOM     65  C   UNL     1       0.441  -1.097  11.339  1.00  0.00     0.004 C 
ENDBRANCH  63  64
ENDBRANCH  62  63
ENDBRANCH  61  62
ENDBRANCH  58  61
ENDBRANCH  56  57
BRANCH  56  66
ATOM     66  C   UNL     1       0.254   3.214   8.948  1.00  0.00     0.157 C 
BRANCH  66  67
ATOM     67  C   UNL     1       0.969   1.895   9.022  1.00  0.00     0.305 C 
ATOM     68  O   UNL     1       1.953   1.631   9.696  1.00  0.00    -0.252 OA
BRANCH  67  69
ATOM     69  O   UNL     1       0.373   0.947   8.274  1.00  0.00    -0.481 OA
ATOM     70  H   UNL     1      -0.385   0.641   8.815  1.00  0.00     0.296 HD
ENDBRANCH  67  69
ENDBRANCH  66  67
ENDBRANCH  56  66
ENDBRANCH  53  56
ENDBRANCH  50  52
ENDBRANCH  47  50
ENDBRANCH  45  46
BRANCH  45  71
ATOM     71  C   UNL     1       6.312   5.495  12.206  1.00  0.00     0.037 C 
BRANCH  71  72
ATOM     72  C   UNL     1       7.372   4.450  12.564  1.00  0.00     0.026 C 
BRANCH  72  73
ATOM     73  C   UNL     1       7.804   3.647  11.339  1.00  0.00     0.146 C 
BRANCH  73  74
ATOM     74  N   UNL     1       9.061   2.980  11.662  1.00  0.00    -0.254 NA
ATOM     75  C   UNL     1       9.464   2.048  10.879  1.00  0.00     0.185 C 
ATOM     76  N   UNL     1      10.617   1.417  11.150  1.00  0.00    -0.370 N 
ATOM     77  N   UNL     1       8.883   1.572   9.764  1.00  0.00    -0.370 N 
ATOM     78  H   UNL     1      11.116   1.710  11.978  1.00  0.00     0.159 HD
ATOM     79  H   UNL     1      10.921   0.588  10.670  1.00  0.00     0.159 HD
ATOM     80  H   UNL     1       8.010   1.956   9.436  1.00  0.00     0.159 HD
ATOM     81  H   UNL     1       9.352   0.913   9.164  1.00  0.00     0.159 HD
ENDBRANCH  73  74
ENDBRANCH  72  73
ENDBRANCH  71  72
ENDBRANCH  45  71
ENDBRANCH   3  45
TORSDOF 20
ENDMDL
MODEL 4
REMARK VINA RESULT:    -4.894      6.645     14.435
REMARK INTER + INTRA:         -20.791
REMARK INTER:                 -12.695
REMARK INTRA:                  -8.096
REMARK UNBOUND:                -6.743
REMARK SMILES CCCCCC(=O)N[C@H](CC(=O)O)C(=O)N[C@H]1C(=O)N[C@H](CCCN=C(N)N)C(=O)N[C@@H]2CC[C@H](O)N(C2=O)[C@@H](CC(C)C)C(=O)N(C)[C@@H](Cc2ccccc2)C(=O)N[C@H](C(C)C)C(=O)O[C@@H]1C
REMARK SMILES IDX 30 1 31 2 29 3 32 5 35 6 37 7 34 8 38 9 33 10 39 11 36 12
REMARK SMILES IDX 40 14 41 15 42 16 43 17 44 18 45 19 46 20 47 21 48 22 49 23
REMARK SMILES IDX 50 24 51 25 52 26 56 27 53 28 55 29 54 30 57 31 58 32 59 33
REMARK SMILES IDX 60 35 61 36 62 37 63 38 64 39 65 40 66 41 67 42 68 43 21 45
REMARK SMILES IDX 20 46 18 47 19 48 17 50 16 52 14 53 15 54 9 56 8 57 6 58
REMARK SMILES IDX 7 59 5 61 4 62 3 63 2 64 1 65 10 66 11 67 12 68 13 69 22 71
REMARK SMILES IDX 23 72 24 73 25 74 26 75 27 76 28 77
REMARK H PARENT 31 4 36 13 59 34 20 49 16 55 8 60 13 70 27 78 27 79 28 80
REMARK H PARENT 28 81
REMARK Flexibility Score:  259.900
ROOT
ATOM      1  O   UNL     1       6.176   0.852   3.845  1.00  0.00    -0.273 OA
ATOM      2  N   UNL     1       4.359   0.593   5.210  1.00  0.00    -0.343 N 
ATOM      3  C   UNL     1       5.548   1.189   4.849  1.00  0.00     0.243 C 
ATOM      4  H   UNL     1       3.863   0.906   6.035  1.00  0.00     0.164 HD
ENDROOT
BRANCH   2   5
ATOM      5  C   UNL     1       3.851  -0.557   4.470  1.00  0.00     0.171 C 
ATOM      6  C   UNL     1       1.228  -1.780   4.300  1.00  0.00     0.214 C 
ATOM      7  N   UNL     1       2.166  -2.247   5.294  1.00  0.00    -0.303 N 
ATOM      8  C   UNL     1       1.898  -1.247   3.043  1.00  0.00     0.057 C 
ATOM      9  C   UNL     1       3.416  -1.673   5.463  1.00  0.00     0.247 C 
ATOM     10  C   UNL     1       2.845  -0.123   3.405  1.00  0.00     0.040 C 
ATOM     11  O   UNL     1       4.179  -2.020   6.373  1.00  0.00    -0.272 OA
BRANCH   6  12
ATOM     12  O   UNL     1       0.431  -0.782   4.894  1.00  0.00    -0.373 OA
ATOM     13  H   UNL     1      -0.404  -0.738   4.382  1.00  0.00     0.213 HD
ENDBRANCH   6  12
BRANCH   7  14
ATOM     14  C   UNL     1       1.685  -3.278   6.238  1.00  0.00     0.177 C 
BRANCH  14  15
ATOM     15  C   UNL     1       1.426  -2.783   7.674  1.00  0.00     0.038 C 
BRANCH  15  16
ATOM     16  C   UNL     1       1.537  -3.776   8.853  1.00  0.00    -0.015 C 
ATOM     17  C   UNL     1       1.098  -3.156  10.182  1.00  0.00     0.007 C 
ATOM     18  C   UNL     1       2.990  -4.246   8.999  1.00  0.00     0.007 C 
ENDBRANCH  15  16
ENDBRANCH  14  15
BRANCH  14  19
ATOM     19  C   UNL     1       0.830  -4.351   5.480  1.00  0.00     0.245 C 
ATOM     20  O   UNL     1       1.293  -4.783   4.412  1.00  0.00    -0.272 OA
BRANCH  19  21
ATOM     21  N   UNL     1      -0.436  -4.747   5.875  1.00  0.00    -0.332 N 
ATOM     22  C   UNL     1      -1.564  -3.861   6.100  1.00  0.00     0.147 C 
BRANCH  21  23
ATOM     23  C   UNL     1      -0.672  -6.200   6.102  1.00  0.00     0.178 C 
BRANCH  23  24
ATOM     24  C   UNL     1      -0.731  -6.621   7.584  1.00  0.00     0.070 C 
BRANCH  24  25
ATOM     25  C   UNL     1       0.557  -7.093   8.218  1.00  0.00    -0.045 A 
ATOM     26  C   UNL     1       0.685  -7.172   9.610  1.00  0.00     0.004 A 
ATOM     27  C   UNL     1       1.648  -7.457   7.415  1.00  0.00     0.004 A 
ATOM     28  C   UNL     1       1.884  -7.593  10.188  1.00  0.00     0.000 A 
ATOM     29  C   UNL     1       2.846  -7.879   7.994  1.00  0.00     0.000 A 
ATOM     30  C   UNL     1       2.964  -7.944   9.381  1.00  0.00     0.000 A 
ENDBRANCH  24  25
ENDBRANCH  23  24
BRANCH  23  31
ATOM     31  C   UNL     1      -1.804  -6.773   5.216  1.00  0.00     0.243 C 
ATOM     32  O   UNL     1      -1.915  -6.550   4.013  1.00  0.00    -0.273 OA
ATOM     33  N   UNL     1      -2.796  -7.417   5.935  1.00  0.00    -0.341 N 
ATOM     34  H   UNL     1      -2.650  -7.569   6.936  1.00  0.00     0.164 HD
BRANCH  33  35
ATOM     35  C   UNL     1      -4.022  -7.934   5.319  1.00  0.00     0.194 C 
BRANCH  35  36
ATOM     36  C   UNL     1      -5.280  -7.832   6.226  1.00  0.00     0.017 C 
ATOM     37  C   UNL     1      -6.276  -6.792   5.686  1.00  0.00     0.010 C 
ATOM     38  C   UNL     1      -4.952  -7.445   7.674  1.00  0.00     0.010 C 
ENDBRANCH  35  36
BRANCH  35  39
ATOM     39  C   UNL     1      -3.840  -9.363   4.736  1.00  0.00     0.329 C 
ATOM     40  O   UNL     1      -3.828 -10.384   5.413  1.00  0.00    -0.250 OA
BRANCH  39  41
ATOM     41  O   UNL     1      -3.783  -9.364   3.370  1.00  0.00    -0.458 OA
BRANCH  41  42
ATOM     42  C   UNL     1      -5.026  -9.101   2.676  1.00  0.00     0.205 CG0
ATOM     43  C   UNL     1      -4.855  -7.785   1.920  1.00  0.00     0.056 C 
ATOM     44  G   UNL     1      -6.165  -9.042   3.713  1.00  0.00     0.000 G0
ENDBRANCH  41  42
ENDBRANCH  39  41
ENDBRANCH  35  39
ENDBRANCH  33  35
ENDBRANCH  23  31
ENDBRANCH  21  23
ENDBRANCH  19  21
ENDBRANCH  14  19
ENDBRANCH   7  14
ENDBRANCH   2   5
BRANCH   3  45
ATOM     45  C   UNL     1       6.025   2.316   5.775  1.00  0.00     0.171 C 
BRANCH  45  46
ATOM     46  N   UNL     1       7.475   2.188   5.837  1.00  0.00    -0.342 N 
ATOM     47  C   UNL     1       8.321   3.211   5.490  1.00  0.00     0.247 C 
ATOM     48  O   UNL     1       7.919   4.331   5.172  1.00  0.00    -0.273 OA
ATOM     49  H   UNL     1       7.851   1.294   6.149  1.00  0.00     0.164 HD
BRANCH  47  50
ATOM     50  C   UNL     1       9.813   2.853   5.499  1.00  0.00     0.212 CG0
ATOM     51  G   UNL     1      10.333   3.052   6.936  1.00  0.00     0.000 G0
BRANCH  50  52
ATOM     52  N   UNL     1       9.884   1.466   5.046  1.00  0.00    -0.339 N 
ATOM     53  C   UNL     1      10.017   1.108   3.727  1.00  0.00     0.243 C 
ATOM     54  O   UNL     1      10.034   1.930   2.816  1.00  0.00    -0.273 OA
ATOM     55  H   UNL     1       9.763   0.735   5.744  1.00  0.00     0.164 HD
BRANCH  53  56
ATOM     56  C   UNL     1       9.981  -0.415   3.484  1.00  0.00     0.182 C 
BRANCH  56  57
ATOM     57  N   UNL     1       8.661  -0.841   3.008  1.00  0.00    -0.344 N 
ATOM     58  C   UNL     1       8.425  -1.182   1.699  1.00  0.00     0.220 C 
ATOM     59  O   UNL     1       9.279  -1.084   0.824  1.00  0.00    -0.275 OA
ATOM     60  H   UNL     1       7.957  -1.033   3.716  1.00  0.00     0.164 HD
BRANCH  58  61
ATOM     61  C   UNL     1       7.004  -1.649   1.446  1.00  0.00     0.100 C 
BRANCH  61  62
ATOM     62  C   UNL     1       6.370  -2.368   2.637  1.00  0.00     0.010 C 
BRANCH  62  63
ATOM     63  C   UNL     1       5.910  -3.799   2.333  1.00  0.00     0.000 C 
BRANCH  63  64
ATOM     64  C   UNL     1       4.523  -4.140   2.875  1.00  0.00    -0.003 C 
ATOM     65  C   UNL     1       3.501  -4.252   1.752  1.00  0.00     0.004 C 
ENDBRANCH  63  64
ENDBRANCH  62  63
ENDBRANCH  61  62
ENDBRANCH  58  61
ENDBRANCH  56  57
BRANCH  56  66
ATOM     66  C   UNL     1      10.427  -1.190   4.723  1.00  0.00     0.157 C 
BRANCH  66  67
ATOM     67  C   UNL     1       9.258  -1.524   5.604  1.00  0.00     0.305 C 
ATOM     68  O   UNL     1       8.230  -0.877   5.734  1.00  0.00    -0.252 OA
BRANCH  67  69
ATOM     69  O   UNL     1       9.420  -2.696   6.247  1.00  0.00    -0.481 OA
ATOM     70  H   UNL     1      10.360  -2.701   6.525  1.00  0.00     0.296 HD
ENDBRANCH  67  69
ENDBRANCH  66  67
ENDBRANCH  56  66
ENDBRANCH  53  56
ENDBRANCH  50  52
ENDBRANCH  47  50
ENDBRANCH  45  46
BRANCH  45  71
ATOM     71  C   UNL     1       5.385   2.176   7.160  1.00  0.00     0.037 C 
BRANCH  71  72
ATOM     72  C   UNL     1       6.407   2.351   8.287  1.00  0.00     0.026 C 
BRANCH  72  73
ATOM     73  C   UNL     1       6.272   1.254   9.341  1.00  0.00     0.146 C 
BRANCH  73  74
ATOM     74  N   UNL     1       7.265   0.226   9.045  1.00  0.00    -0.254 NA
ATOM     75  C   UNL     1       6.857  -0.983   8.920  1.00  0.00     0.185 C 
ATOM     76  N   UNL     1       7.747  -1.951   8.647  1.00  0.00    -0.370 N 
ATOM     77  N   UNL     1       5.608  -1.468   9.024  1.00  0.00    -0.370 N 
ATOM     78  H   UNL     1       8.714  -1.672   8.560  1.00  0.00     0.159 HD
ATOM     79  H   UNL     1       7.527  -2.930   8.679  1.00  0.00     0.159 HD
ATOM     80  H   UNL     1       4.833  -0.853   9.224  1.00  0.00     0.159 HD
ATOM     81  H   UNL     1       5.391  -2.423   8.791  1.00  0.00     0.159 HD
ENDBRANCH  73  74
ENDBRANCH  72  73
ENDBRANCH  71  72
ENDBRANCH  45  71
ENDBRANCH   3  45
TORSDOF 20
ENDMDL
MODEL 5
REMARK VINA RESULT:    -4.848      3.102     13.348
REMARK INTER + INTRA:         -20.661
REMARK INTER:                 -14.116
REMARK INTRA:                  -6.545
REMARK UNBOUND:                -6.743
REMARK SMILES CCCCCC(=O)N[C@H](CC(=O)O)C(=O)N[C@H]1C(=O)N[C@H](CCCN=C(N)N)C(=O)N[C@@H]2CC[C@H](O)N(C2=O)[C@@H](CC(C)C)C(=O)N(C)[C@@H](Cc2ccccc2)C(=O)N[C@H](C(C)C)C(=O)O[C@@H]1C
REMARK SMILES IDX 30 1 31 2 29 3 32 5 35 6 37 7 34 8 38 9 33 10 39 11 36 12
REMARK SMILES IDX 40 14 41 15 42 16 43 17 44 18 45 19 46 20 47 21 48 22 49 23
REMARK SMILES IDX 50 24 51 25 52 26 56 27 53 28 55 29 54 30 57 31 58 32 59 33
REMARK SMILES IDX 60 35 61 36 62 37 63 38 64 39 65 40 66 41 67 42 68 43 21 45
REMARK SMILES IDX 20 46 18 47 19 48 17 50 16 52 14 53 15 54 9 56 8 57 6 58
REMARK SMILES IDX 7 59 5 61 4 62 3 63 2 64 1 65 10 66 11 67 12 68 13 69 22 71
REMARK SMILES IDX 23 72 24 73 25 74 26 75 27 76 28 77
REMARK H PARENT 31 4 36 13 59 34 20 49 16 55 8 60 13 70 27 78 27 79 28 80
REMARK H PARENT 28 81
REMARK Flexibility Score:  259.900
ROOT
ATOM      1  O   UNL     1       8.866   5.201   3.037  1.00  0.00    -0.273 OA
ATOM      2  N   UNL     1       7.914   6.715   4.463  1.00  0.00    -0.343 N 
ATOM      3  C   UNL     1       8.980   6.187   3.765  1.00  0.00     0.243 C 
ATOM      4  H   UNL     1       8.042   7.536   5.041  1.00  0.00     0.164 HD
ENDROOT
BRANCH   2   5
ATOM      5  C   UNL     1       6.619   6.044   4.458  1.00  0.00     0.171 C 
ATOM      6  C   UNL     1       4.263   6.311   6.126  1.00  0.00     0.214 C 
ATOM      7  N   UNL     1       5.280   5.350   6.483  1.00  0.00    -0.303 N 
ATOM      8  C   UNL     1       4.162   6.553   4.629  1.00  0.00     0.057 C 
ATOM      9  C   UNL     1       6.453   5.208   5.759  1.00  0.00     0.247 C 
ATOM     10  C   UNL     1       5.499   7.018   4.093  1.00  0.00     0.040 C 
ATOM     11  O   UNL     1       7.358   4.444   6.120  1.00  0.00    -0.272 OA
BRANCH   6  12
ATOM     12  O   UNL     1       4.551   7.514   6.801  1.00  0.00    -0.373 OA
ATOM     13  H   UNL     1       3.741   7.770   7.291  1.00  0.00     0.213 HD
ENDBRANCH   6  12
BRANCH   7  14
ATOM     14  C   UNL     1       5.092   4.614   7.751  1.00  0.00     0.177 C 
BRANCH  14  15
ATOM     15  C   UNL     1       5.371   5.427   9.030  1.00  0.00     0.038 C 
BRANCH  15  16
ATOM     16  C   UNL     1       6.712   5.239   9.774  1.00  0.00    -0.015 C 
ATOM     17  C   UNL     1       6.557   5.349  11.293  1.00  0.00     0.007 C 
ATOM     18  C   UNL     1       7.713   6.307   9.315  1.00  0.00     0.007 C 
ENDBRANCH  15  16
ENDBRANCH  14  15
BRANCH  14  19
ATOM     19  C   UNL     1       3.967   3.534   7.590  1.00  0.00     0.245 C 
ATOM     20  O   UNL     1       3.983   2.862   6.545  1.00  0.00    -0.272 OA
BRANCH  19  21
ATOM     21  N   UNL     1       2.919   3.374   8.479  1.00  0.00    -0.332 N 
ATOM     22  C   UNL     1       1.979   4.410   8.869  1.00  0.00     0.147 C 
BRANCH  21  23
ATOM     23  C   UNL     1       2.734   2.035   9.103  1.00  0.00     0.178 C 
BRANCH  23  24
ATOM     24  C   UNL     1       3.759   1.688  10.202  1.00  0.00     0.070 C 
BRANCH  24  25
ATOM     25  C   UNL     1       5.103   1.165   9.749  1.00  0.00    -0.045 A 
ATOM     26  C   UNL     1       6.281   1.865  10.041  1.00  0.00     0.004 A 
ATOM     27  C   UNL     1       5.188  -0.032   9.023  1.00  0.00     0.004 A 
ATOM     28  C   UNL     1       7.517   1.384   9.605  1.00  0.00     0.000 A 
ATOM     29  C   UNL     1       6.424  -0.512   8.588  1.00  0.00     0.000 A 
ATOM     30  C   UNL     1       7.588   0.198   8.877  1.00  0.00     0.000 A 
ENDBRANCH  24  25
ENDBRANCH  23  24
BRANCH  23  31
ATOM     31  C   UNL     1       1.261   1.738   9.470  1.00  0.00     0.243 C 
ATOM     32  O   UNL     1       0.353   1.644   8.647  1.00  0.00    -0.273 OA
ATOM     33  N   UNL     1       1.012   1.770  10.832  1.00  0.00    -0.341 N 
ATOM     34  H   UNL     1       1.809   1.856  11.468  1.00  0.00     0.164 HD
BRANCH  33  35
ATOM     35  C   UNL     1      -0.331   1.634  11.402  1.00  0.00     0.194 C 
BRANCH  35  36
ATOM     36  C   UNL     1      -1.023   2.989  11.725  1.00  0.00     0.017 C 
ATOM     37  C   UNL     1      -0.686   3.464  13.149  1.00  0.00     0.010 C 
ATOM     38  C   UNL     1      -2.551   2.928  11.611  1.00  0.00     0.010 C 
ENDBRANCH  35  36
BRANCH  35  39
ATOM     39  C   UNL     1      -0.371   0.659  12.612  1.00  0.00     0.329 C 
ATOM     40  O   UNL     1       0.559   0.498  13.395  1.00  0.00    -0.250 OA
BRANCH  39  41
ATOM     41  O   UNL     1      -1.593   0.063  12.759  1.00  0.00    -0.458 OA
BRANCH  41  42
ATOM     42  C   UNL     1      -2.178   0.118  14.082  1.00  0.00     0.205 CG0
ATOM     43  C   UNL     1      -3.688   0.257  13.905  1.00  0.00     0.056 C 
ATOM     44  G   UNL     1      -1.561   1.309  14.844  1.00  0.00     0.000 G0
ENDBRANCH  41  42
ENDBRANCH  39  41
ENDBRANCH  35  39
ENDBRANCH  33  35
ENDBRANCH  23  31
ENDBRANCH  21  23
ENDBRANCH  19  21
ENDBRANCH  14  19
ENDBRANCH   7  14
ENDBRANCH   2   5
BRANCH   3  45
ATOM     45  C   UNL     1      10.312   6.927   3.942  1.00  0.00     0.171 C 
BRANCH  45  46
ATOM     46  N   UNL     1      11.236   6.305   3.004  1.00  0.00    -0.342 N 
ATOM     47  C   UNL     1      12.252   7.001   2.399  1.00  0.00     0.247 C 
ATOM     48  O   UNL     1      12.502   8.179   2.658  1.00  0.00    -0.273 OA
ATOM     49  H   UNL     1      11.100   5.315   2.804  1.00  0.00     0.164 HD
BRANCH  47  50
ATOM     50  C   UNL     1      13.045   6.212   1.347  1.00  0.00     0.212 CG0
ATOM     51  G   UNL     1      14.329   7.007   1.037  1.00  0.00     0.000 G0
BRANCH  50  52
ATOM     52  N   UNL     1      13.305   4.909   1.953  1.00  0.00    -0.339 N 
ATOM     53  C   UNL     1      14.408   4.642   2.727  1.00  0.00     0.243 C 
ATOM     54  O   UNL     1      15.293   5.470   2.927  1.00  0.00    -0.273 OA
ATOM     55  H   UNL     1      12.665   4.149   1.733  1.00  0.00     0.164 HD
BRANCH  53  56
ATOM     56  C   UNL     1      14.513   3.173   3.185  1.00  0.00     0.182 C 
BRANCH  56  57
ATOM     57  N   UNL     1      14.249   3.049   4.622  1.00  0.00    -0.344 N 
ATOM     58  C   UNL     1      13.304   2.188   5.125  1.00  0.00     0.220 C 
ATOM     59  O   UNL     1      12.567   1.520   4.409  1.00  0.00    -0.275 OA
ATOM     60  H   UNL     1      14.903   3.507   5.251  1.00  0.00     0.164 HD
BRANCH  58  61
ATOM     61  C   UNL     1      13.243   2.183   6.642  1.00  0.00     0.100 C 
BRANCH  61  62
ATOM     62  C   UNL     1      12.487   3.373   7.232  1.00  0.00     0.010 C 
BRANCH  62  63
ATOM     63  C   UNL     1      10.990   3.397   6.894  1.00  0.00     0.000 C 
BRANCH  63  64
ATOM     64  C   UNL     1      10.081   3.661   8.093  1.00  0.00    -0.003 C 
ATOM     65  C   UNL     1      10.766   3.294   9.401  1.00  0.00     0.004 C 
ENDBRANCH  63  64
ENDBRANCH  62  63
ENDBRANCH  61  62
ENDBRANCH  58  61
ENDBRANCH  56  57
BRANCH  56  66
ATOM     66  C   UNL     1      15.854   2.557   2.790  1.00  0.00     0.157 C 
BRANCH  66  67
ATOM     67  C   UNL     1      16.555   1.970   3.981  1.00  0.00     0.305 C 
ATOM     68  O   UNL     1      16.574   0.795   4.315  1.00  0.00    -0.252 OA
BRANCH  67  69
ATOM     69  O   UNL     1      17.248   2.894   4.674  1.00  0.00    -0.481 OA
ATOM     70  H   UNL     1      18.186   2.735   4.434  1.00  0.00     0.296 HD
ENDBRANCH  67  69
ENDBRANCH  66  67
ENDBRANCH  56  66
ENDBRANCH  53  56
ENDBRANCH  50  52
ENDBRANCH  47  50
ENDBRANCH  45  46
BRANCH  45  71
ATOM     71  C   UNL     1      10.804   6.802   5.388  1.00  0.00     0.037 C 
BRANCH  71  72
ATOM     72  C   UNL     1      11.111   8.166   6.012  1.00  0.00     0.026 C 
BRANCH  72  73
ATOM     73  C   UNL     1      12.455   8.160   6.739  1.00  0.00     0.146 C 
BRANCH  73  74
ATOM     74  N   UNL     1      13.264   9.244   6.192  1.00  0.00    -0.254 NA
ATOM     75  C   UNL     1      14.238   8.933   5.418  1.00  0.00     0.185 C 
ATOM     76  N   UNL     1      15.000   9.909   4.898  1.00  0.00    -0.370 N 
ATOM     77  N   UNL     1      14.644   7.715   5.019  1.00  0.00    -0.370 N 
ATOM     78  H   UNL     1      14.766  10.857   5.154  1.00  0.00     0.159 HD
ATOM     79  H   UNL     1      15.859   9.738   4.406  1.00  0.00     0.159 HD
ATOM     80  H   UNL     1      14.161   6.886   5.328  1.00  0.00     0.159 HD
ATOM     81  H   UNL     1      15.353   7.600   4.314  1.00  0.00     0.159 HD
ENDBRANCH  73  74
ENDBRANCH  72  73
ENDBRANCH  71  72
ENDBRANCH  45  71
ENDBRANCH   3  45
TORSDOF 20
ENDMDL
MODEL 6
REMARK VINA RESULT:    -4.830      4.032      7.638
REMARK INTER + INTRA:         -20.610
REMARK INTER:                 -14.772
REMARK INTRA:                  -5.838
REMARK UNBOUND:                -6.743
REMARK SMILES CCCCCC(=O)N[C@H](CC(=O)O)C(=O)N[C@H]1C(=O)N[C@H](CCCN=C(N)N)C(=O)N[C@@H]2CC[C@H](O)N(C2=O)[C@@H](CC(C)C)C(=O)N(C)[C@@H](Cc2ccccc2)C(=O)N[C@H](C(C)C)C(=O)O[C@@H]1C
REMARK SMILES IDX 30 1 31 2 29 3 32 5 35 6 37 7 34 8 38 9 33 10 39 11 36 12
REMARK SMILES IDX 40 14 41 15 42 16 43 17 44 18 45 19 46 20 47 21 48 22 49 23
REMARK SMILES IDX 50 24 51 25 52 26 56 27 53 28 55 29 54 30 57 31 58 32 59 33
REMARK SMILES IDX 60 35 61 36 62 37 63 38 64 39 65 40 66 41 67 42 68 43 21 45
REMARK SMILES IDX 20 46 18 47 19 48 17 50 16 52 14 53 15 54 9 56 8 57 6 58
REMARK SMILES IDX 7 59 5 61 4 62 3 63 2 64 1 65 10 66 11 67 12 68 13 69 22 71
REMARK SMILES IDX 23 72 24 73 25 74 26 75 27 76 28 77
REMARK H PARENT 31 4 36 13 59 34 20 49 16 55 8 60 13 70 27 78 27 79 28 80
REMARK H PARENT 28 81
REMARK Flexibility Score:  259.900
ROOT
ATOM      1  O   UNL     1       6.356   2.970   5.621  1.00  0.00    -0.273 OA
ATOM      2  N   UNL     1       8.369   2.585   4.604  1.00  0.00    -0.343 N 
ATOM      3  C   UNL     1       7.279   2.199   5.355  1.00  0.00     0.243 C 
ATOM      4  H   UNL     1       9.102   1.919   4.393  1.00  0.00     0.164 HD
ENDROOT
BRANCH   2   5
ATOM      5  C   UNL     1       8.530   3.974   4.188  1.00  0.00     0.171 C 
ATOM      6  C   UNL     1      10.129   5.234   2.125  1.00  0.00     0.214 C 
ATOM      7  N   UNL     1      10.676   5.082   3.453  1.00  0.00    -0.303 N 
ATOM      8  C   UNL     1       8.617   5.387   2.110  1.00  0.00     0.057 C 
ATOM      9  C   UNL     1       9.985   4.444   4.471  1.00  0.00     0.247 C 
ATOM     10  C   UNL     1       7.974   4.193   2.782  1.00  0.00     0.040 C 
ATOM     11  O   UNL     1      10.494   4.241   5.582  1.00  0.00    -0.272 OA
BRANCH   6  12
ATOM     12  O   UNL     1      10.518   4.111   1.368  1.00  0.00    -0.373 OA
ATOM     13  H   UNL     1      10.465   4.369   0.423  1.00  0.00     0.213 HD
ENDBRANCH   6  12
BRANCH   7  14
ATOM     14  C   UNL     1      12.077   5.506   3.655  1.00  0.00     0.177 C 
BRANCH  14  15
ATOM     15  C   UNL     1      13.139   4.432   3.347  1.00  0.00     0.038 C 
BRANCH  15  16
ATOM     16  C   UNL     1      14.085   3.954   4.471  1.00  0.00    -0.015 C 
ATOM     17  C   UNL     1      13.883   2.476   4.815  1.00  0.00     0.007 C 
ATOM     18  C   UNL     1      13.842   4.781   5.740  1.00  0.00     0.007 C 
ENDBRANCH  15  16
ENDBRANCH  14  15
BRANCH  14  19
ATOM     19  C   UNL     1      12.228   7.039   3.365  1.00  0.00     0.245 C 
ATOM     20  O   UNL     1      11.516   7.808   4.033  1.00  0.00    -0.272 OA
BRANCH  19  21
ATOM     21  N   UNL     1      13.010   7.559   2.349  1.00  0.00    -0.332 N 
ATOM     22  C   UNL     1      12.579   7.773   0.978  1.00  0.00     0.147 C 
BRANCH  21  23
ATOM     23  C   UNL     1      14.417   7.923   2.671  1.00  0.00     0.178 C 
BRANCH  23  24
ATOM     24  C   UNL     1      14.764   7.892   4.173  1.00  0.00     0.070 C 
BRANCH  24  25
ATOM     25  C   UNL     1      16.158   8.322   4.566  1.00  0.00    -0.045 A 
ATOM     26  C   UNL     1      16.528   9.673   4.538  1.00  0.00     0.004 A 
ATOM     27  C   UNL     1      17.107   7.368   4.963  1.00  0.00     0.004 A 
ATOM     28  C   UNL     1      17.824  10.060   4.887  1.00  0.00     0.000 A 
ATOM     29  C   UNL     1      18.402   7.756   5.312  1.00  0.00     0.000 A 
ATOM     30  C   UNL     1      18.760   9.102   5.271  1.00  0.00     0.000 A 
ENDBRANCH  24  25
ENDBRANCH  23  24
BRANCH  23  31
ATOM     31  C   UNL     1      15.447   7.227   1.750  1.00  0.00     0.243 C 
ATOM     32  O   UNL     1      15.666   6.018   1.755  1.00  0.00    -0.273 OA
ATOM     33  N   UNL     1      16.243   8.111   1.041  1.00  0.00    -0.341 N 
ATOM     34  H   UNL     1      16.015   9.108   1.081  1.00  0.00     0.164 HD
BRANCH  33  35
ATOM     35  C   UNL     1      17.362   7.680   0.199  1.00  0.00     0.194 C 
BRANCH  35  36
ATOM     36  C   UNL     1      18.763   7.968   0.808  1.00  0.00     0.017 C 
ATOM     37  C   UNL     1      19.178   6.869   1.801  1.00  0.00     0.010 C 
ATOM     38  C   UNL     1      18.835   9.308   1.550  1.00  0.00     0.010 C 
ENDBRANCH  35  36
BRANCH  35  39
ATOM     39  C   UNL     1      17.246   8.200  -1.262  1.00  0.00     0.329 C 
ATOM     40  O   UNL     1      16.182   8.371  -1.846  1.00  0.00    -0.250 OA
BRANCH  39  41
ATOM     41  O   UNL     1      18.461   8.529  -1.794  1.00  0.00    -0.458 OA
BRANCH  41  42
ATOM     42  C   UNL     1      18.572   9.853  -2.370  1.00  0.00     0.205 CG0
ATOM     43  C   UNL     1      18.604   9.687  -3.888  1.00  0.00     0.056 C 
ATOM     44  G   UNL     1      19.848  10.522  -1.822  1.00  0.00     0.000 G0
ENDBRANCH  41  42
ENDBRANCH  39  41
ENDBRANCH  35  39
ENDBRANCH  33  35
ENDBRANCH  23  31
ENDBRANCH  21  23
ENDBRANCH  19  21
ENDBRANCH  14  19
ENDBRANCH   7  14
ENDBRANCH   2   5
BRANCH   3  45
ATOM     45  C   UNL     1       7.286   0.737   5.819  1.00  0.00     0.171 C 
BRANCH  45  46
ATOM     46  N   UNL     1       6.659   0.738   7.134  1.00  0.00    -0.342 N 
ATOM     47  C   UNL     1       5.991  -0.353   7.633  1.00  0.00     0.247 C 
ATOM     48  O   UNL     1       5.936  -1.431   7.040  1.00  0.00    -0.273 OA
ATOM     49  H   UNL     1       6.729   1.593   7.683  1.00  0.00     0.164 HD
BRANCH  47  50
ATOM     50  C   UNL     1       5.288  -0.126   8.979  1.00  0.00     0.212 CG0
ATOM     51  G   UNL     1       6.344  -0.287  10.090  1.00  0.00     0.000 G0
BRANCH  50  52
ATOM     52  N   UNL     1       4.730   1.222   8.904  1.00  0.00    -0.339 N 
ATOM     53  C   UNL     1       3.953   1.774   9.893  1.00  0.00     0.243 C 
ATOM     54  O   UNL     1       3.622   1.152  10.899  1.00  0.00    -0.273 OA
ATOM     55  H   UNL     1       4.876   1.747   8.045  1.00  0.00     0.164 HD
BRANCH  53  56
ATOM     56  C   UNL     1       3.406   3.175   9.553  1.00  0.00     0.182 C 
BRANCH  56  57
ATOM     57  N   UNL     1       2.237   3.498  10.378  1.00  0.00    -0.344 N 
ATOM     58  C   UNL     1       2.154   4.653  11.117  1.00  0.00     0.220 C 
ATOM     59  O   UNL     1       3.077   5.456  11.197  1.00  0.00    -0.275 OA
ATOM     60  H   UNL     1       1.414   2.913  10.260  1.00  0.00     0.164 HD
BRANCH  58  61
ATOM     61  C   UNL     1       0.832   4.807  11.845  1.00  0.00     0.100 C 
BRANCH  61  62
ATOM     62  C   UNL     1       0.090   3.488  12.063  1.00  0.00     0.010 C 
BRANCH  62  63
ATOM     63  C   UNL     1      -1.290   3.426  11.396  1.00  0.00     0.000 C 
BRANCH  63  64
ATOM     64  C   UNL     1      -1.540   4.532  10.371  1.00  0.00    -0.003 C 
ATOM     65  C   UNL     1      -2.936   4.428   9.773  1.00  0.00     0.004 C 
ENDBRANCH  63  64
ENDBRANCH  62  63
ENDBRANCH  61  62
ENDBRANCH  58  61
ENDBRANCH  56  57
BRANCH  56  66
ATOM     66  C   UNL     1       3.115   3.315   8.060  1.00  0.00     0.157 C 
BRANCH  66  67
ATOM     67  C   UNL     1       2.959   4.757   7.670  1.00  0.00     0.305 C 
ATOM     68  O   UNL     1       2.142   5.221   6.889  1.00  0.00    -0.252 OA
BRANCH  67  69
ATOM     69  O   UNL     1       3.816   5.561   8.327  1.00  0.00    -0.481 OA
ATOM     70  H   UNL     1       4.466   5.843   7.649  1.00  0.00     0.296 HD
ENDBRANCH  67  69
ENDBRANCH  66  67
ENDBRANCH  56  66
ENDBRANCH  53  56
ENDBRANCH  50  52
ENDBRANCH  47  50
ENDBRANCH  45  46
BRANCH  45  71
ATOM     71  C   UNL     1       8.721   0.202   5.878  1.00  0.00     0.037 C 
BRANCH  71  72
ATOM     72  C   UNL     1       8.983  -0.864   4.811  1.00  0.00     0.026 C 
BRANCH  72  73
ATOM     73  C   UNL     1      10.144  -0.471   3.900  1.00  0.00     0.146 C 
BRANCH  73  74
ATOM     74  N   UNL     1      11.199  -1.466   4.066  1.00  0.00    -0.254 NA
ATOM     75  C   UNL     1      12.201  -1.415   3.269  1.00  0.00     0.185 C 
ATOM     76  N   UNL     1      13.189  -2.316   3.397  1.00  0.00    -0.370 N 
ATOM     77  N   UNL     1      12.439  -0.554   2.264  1.00  0.00    -0.370 N 
ATOM     78  H   UNL     1      13.085  -3.007   4.127  1.00  0.00     0.159 HD
ATOM     79  H   UNL     1      13.927  -2.429   2.725  1.00  0.00     0.159 HD
ATOM     80  H   UNL     1      11.783   0.182   2.053  1.00  0.00     0.159 HD
ATOM     81  H   UNL     1      13.320  -0.540   1.777  1.00  0.00     0.159 HD
ENDBRANCH  73  74
ENDBRANCH  72  73
ENDBRANCH  71  72
ENDBRANCH  45  71
ENDBRANCH   3  45
TORSDOF 20
ENDMDL
MODEL 7
REMARK VINA RESULT:    -4.802      5.312     13.385
REMARK INTER + INTRA:         -20.529
REMARK INTER:                 -14.474
REMARK INTRA:                  -6.055
REMARK UNBOUND:                -6.743
REMARK SMILES CCCCCC(=O)N[C@H](CC(=O)O)C(=O)N[C@H]1C(=O)N[C@H](CCCN=C(N)N)C(=O)N[C@@H]2CC[C@H](O)N(C2=O)[C@@H](CC(C)C)C(=O)N(C)[C@@H](Cc2ccccc2)C(=O)N[C@H](C(C)C)C(=O)O[C@@H]1C
REMARK SMILES IDX 30 1 31 2 29 3 32 5 35 6 37 7 34 8 38 9 33 10 39 11 36 12
REMARK SMILES IDX 40 14 41 15 42 16 43 17 44 18 45 19 46 20 47 21 48 22 49 23
REMARK SMILES IDX 50 24 51 25 52 26 56 27 53 28 55 29 54 30 57 31 58 32 59 33
REMARK SMILES IDX 60 35 61 36 62 37 63 38 64 39 65 40 66 41 67 42 68 43 21 45
REMARK SMILES IDX 20 46 18 47 19 48 17 50 16 52 14 53 15 54 9 56 8 57 6 58
REMARK SMILES IDX 7 59 5 61 4 62 3 63 2 64 1 65 10 66 11 67 12 68 13 69 22 71
REMARK SMILES IDX 23 72 24 73 25 74 26 75 27 76 28 77
REMARK H PARENT 31 4 36 13 59 34 20 49 16 55 8 60 13 70 27 78 27 79 28 80
REMARK H PARENT 28 81
REMARK Flexibility Score:  259.900
ROOT
ATOM      1  O   UNL     1       6.443   3.345   4.071  1.00  0.00    -0.273 OA
ATOM      2  N   UNL     1       4.269   2.678   4.318  1.00  0.00    -0.343 N 
ATOM      3  C   UNL     1       5.288   3.602   4.412  1.00  0.00     0.243 C 
ATOM      4  H   UNL     1       3.328   2.930   4.595  1.00  0.00     0.164 HD
ENDROOT
BRANCH   2   5
ATOM      5  C   UNL     1       4.547   1.304   3.915  1.00  0.00     0.171 C 
ATOM      6  C   UNL     1       2.841  -0.999   3.480  1.00  0.00     0.214 C 
ATOM      7  N   UNL     1       3.411  -0.775   4.788  1.00  0.00    -0.303 N 
ATOM      8  C   UNL     1       3.709  -0.474   2.347  1.00  0.00     0.057 C 
ATOM      9  C   UNL     1       4.193   0.332   5.077  1.00  0.00     0.247 C 
ATOM     10  C   UNL     1       3.959   1.006   2.537  1.00  0.00     0.040 C 
ATOM     11  O   UNL     1       4.606   0.562   6.221  1.00  0.00    -0.272 OA
BRANCH   6  12
ATOM     12  O   UNL     1       1.572  -0.387   3.453  1.00  0.00    -0.373 OA
ATOM     13  H   UNL     1       1.717   0.567   3.279  1.00  0.00     0.213 HD
ENDBRANCH   6  12
BRANCH   7  14
ATOM     14  C   UNL     1       3.007  -1.704   5.864  1.00  0.00     0.177 C 
BRANCH  14  15
ATOM     15  C   UNL     1       1.643  -1.403   6.513  1.00  0.00     0.038 C 
BRANCH  15  16
ATOM     16  C   UNL     1       1.576  -1.054   8.017  1.00  0.00    -0.015 C 
ATOM     17  C   UNL     1       2.926  -1.231   8.718  1.00  0.00     0.007 C 
ATOM     18  C   UNL     1       0.550  -1.957   8.713  1.00  0.00     0.007 C 
ENDBRANCH  15  16
ENDBRANCH  14  15
BRANCH  14  19
ATOM     19  C   UNL     1       3.585  -3.136   5.591  1.00  0.00     0.245 C 
ATOM     20  O   UNL     1       4.820  -3.262   5.652  1.00  0.00    -0.272 OA
BRANCH  19  21
ATOM     21  N   UNL     1       2.818  -4.213   5.184  1.00  0.00    -0.332 N 
ATOM     22  C   UNL     1       2.527  -4.568   3.807  1.00  0.00     0.147 C 
BRANCH  21  23
ATOM     23  C   UNL     1       2.226  -5.083   6.238  1.00  0.00     0.178 C 
BRANCH  23  24
ATOM     24  C   UNL     1       2.689  -4.764   7.674  1.00  0.00     0.070 C 
BRANCH  24  25
ATOM     25  C   UNL     1       2.810  -5.926   8.632  1.00  0.00    -0.045 A 
ATOM     26  C   UNL     1       2.606  -5.746  10.007  1.00  0.00     0.004 A 
ATOM     27  C   UNL     1       3.133  -7.205   8.156  1.00  0.00     0.004 A 
ATOM     28  C   UNL     1       2.736  -6.822  10.888  1.00  0.00     0.000 A 
ATOM     29  C   UNL     1       3.261  -8.279   9.038  1.00  0.00     0.000 A 
ATOM     30  C   UNL     1       3.066  -8.086  10.404  1.00  0.00     0.000 A 
ENDBRANCH  24  25
ENDBRANCH  23  24
BRANCH  23  31
ATOM     31  C   UNL     1       0.699  -5.276   6.074  1.00  0.00     0.243 C 
ATOM     32  O   UNL     1      -0.112  -4.354   6.060  1.00  0.00    -0.273 OA
ATOM     33  N   UNL     1       0.300  -6.601   6.129  1.00  0.00    -0.341 N 
ATOM     34  H   UNL     1       1.023  -7.325   6.146  1.00  0.00     0.164 HD
BRANCH  33  35
ATOM     35  C   UNL     1      -1.106  -7.013   6.115  1.00  0.00     0.194 C 
BRANCH  35  36
ATOM     36  C   UNL     1      -1.718  -7.233   7.527  1.00  0.00     0.017 C 
ATOM     37  C   UNL     1      -2.781  -6.169   7.849  1.00  0.00     0.010 C 
ATOM     38  C   UNL     1      -0.674  -7.193   8.651  1.00  0.00     0.010 C 
ENDBRANCH  35  36
BRANCH  35  39
ATOM     39  C   UNL     1      -1.365  -8.223   5.175  1.00  0.00     0.329 C 
ATOM     40  O   UNL     1      -0.521  -9.068   4.896  1.00  0.00    -0.250 OA
BRANCH  39  41
ATOM     41  O   UNL     1      -2.666  -8.292   4.762  1.00  0.00    -0.458 OA
BRANCH  41  42
ATOM     42  C   UNL     1      -2.919  -9.068   3.566  1.00  0.00     0.205 CG0
ATOM     43  C   UNL     1      -4.429  -9.066   3.334  1.00  0.00     0.056 C 
ATOM     44  G   UNL     1      -2.357 -10.489   3.774  1.00  0.00     0.000 G0
ENDBRANCH  41  42
ENDBRANCH  39  41
ENDBRANCH  35  39
ENDBRANCH  33  35
ENDBRANCH  23  31
ENDBRANCH  21  23
ENDBRANCH  19  21
ENDBRANCH  14  19
ENDBRANCH   7  14
ENDBRANCH   2   5
BRANCH   3  45
ATOM     45  C   UNL     1       4.879   4.979   4.952  1.00  0.00     0.171 C 
BRANCH  45  46
ATOM     46  N   UNL     1       5.980   5.874   4.621  1.00  0.00    -0.342 N 
ATOM     47  C   UNL     1       5.791   7.057   3.951  1.00  0.00     0.247 C 
ATOM     48  O   UNL     1       4.676   7.482   3.647  1.00  0.00    -0.273 OA
ATOM     49  H   UNL     1       6.915   5.587   4.905  1.00  0.00     0.164 HD
BRANCH  47  50
ATOM     50  C   UNL     1       7.078   7.807   3.581  1.00  0.00     0.212 CG0
ATOM     51  G   UNL     1       6.792   9.316   3.704  1.00  0.00     0.000 G0
BRANCH  50  52
ATOM     52  N   UNL     1       8.090   7.333   4.521  1.00  0.00    -0.339 N 
ATOM     53  C   UNL     1       9.441   7.431   4.291  1.00  0.00     0.243 C 
ATOM     54  O   UNL     1       9.903   7.881   3.247  1.00  0.00    -0.273 OA
ATOM     55  H   UNL     1       7.768   6.849   5.357  1.00  0.00     0.164 HD
BRANCH  53  56
ATOM     56  C   UNL     1      10.312   6.784   5.387  1.00  0.00     0.182 C 
BRANCH  56  57
ATOM     57  N   UNL     1       9.481   6.165   6.424  1.00  0.00    -0.344 N 
ATOM     58  C   UNL     1       9.255   4.811   6.474  1.00  0.00     0.220 C 
ATOM     59  O   UNL     1       9.670   4.037   5.619  1.00  0.00    -0.275 OA
ATOM     60  H   UNL     1       9.204   6.754   7.205  1.00  0.00     0.164 HD
BRANCH  58  61
ATOM     61  C   UNL     1       8.415   4.385   7.665  1.00  0.00     0.100 C 
BRANCH  61  62
ATOM     62  C   UNL     1       8.308   2.870   7.833  1.00  0.00     0.010 C 
BRANCH  62  63
ATOM     63  C   UNL     1       6.871   2.356   7.991  1.00  0.00     0.000 C 
BRANCH  63  64
ATOM     64  C   UNL     1       6.161   2.858   9.248  1.00  0.00    -0.003 C 
ATOM     65  C   UNL     1       6.863   2.380  10.510  1.00  0.00     0.004 C 
ENDBRANCH  63  64
ENDBRANCH  62  63
ENDBRANCH  61  62
ENDBRANCH  58  61
ENDBRANCH  56  57
BRANCH  56  66
ATOM     66  C   UNL     1      11.312   7.782   5.969  1.00  0.00     0.157 C 
BRANCH  66  67
ATOM     67  C   UNL     1      11.741   7.379   7.351  1.00  0.00     0.305 C 
ATOM     68  O   UNL     1      11.128   7.563   8.391  1.00  0.00    -0.252 OA
BRANCH  67  69
ATOM     69  O   UNL     1      12.909   6.710   7.349  1.00  0.00    -0.481 OA
ATOM     70  H   UNL     1      13.149   6.628   6.402  1.00  0.00     0.296 HD
ENDBRANCH  67  69
ENDBRANCH  66  67
ENDBRANCH  56  66
ENDBRANCH  53  56
ENDBRANCH  50  52
ENDBRANCH  47  50
ENDBRANCH  45  46
BRANCH  45  71
ATOM     71  C   UNL     1       4.641   4.910   6.464  1.00  0.00     0.037 C 
BRANCH  71  72
ATOM     72  C   UNL     1       3.208   5.296   6.840  1.00  0.00     0.026 C 
BRANCH  72  73
ATOM     73  C   UNL     1       2.675   4.431   7.980  1.00  0.00     0.146 C 
BRANCH  73  74
ATOM     74  N   UNL     1       1.218   4.432   7.898  1.00  0.00    -0.254 NA
ATOM     75  C   UNL     1       0.560   4.030   8.922  1.00  0.00     0.185 C 
ATOM     76  N   UNL     1      -0.782   4.021   8.878  1.00  0.00    -0.370 N 
ATOM     77  N   UNL     1       1.024   3.590  10.105  1.00  0.00    -0.370 N 
ATOM     78  H   UNL     1      -1.214   4.331   8.019  1.00  0.00     0.159 HD
ATOM     79  H   UNL     1      -1.356   3.588   9.579  1.00  0.00     0.159 HD
ATOM     80  H   UNL     1       2.016   3.546  10.283  1.00  0.00     0.159 HD
ATOM     81  H   UNL     1       0.407   3.410  10.880  1.00  0.00     0.159 HD
ENDBRANCH  73  74
ENDBRANCH  72  73
ENDBRANCH  71  72
ENDBRANCH  45  71
ENDBRANCH   3  45
TORSDOF 20
ENDMDL
MODEL 8
REMARK VINA RESULT:    -4.763      8.390     11.979
REMARK INTER + INTRA:         -20.415
REMARK INTER:                 -12.444
REMARK INTRA:                  -7.971
REMARK UNBOUND:                -6.743
REMARK SMILES CCCCCC(=O)N[C@H](CC(=O)O)C(=O)N[C@H]1C(=O)N[C@H](CCCN=C(N)N)C(=O)N[C@@H]2CC[C@H](O)N(C2=O)[C@@H](CC(C)C)C(=O)N(C)[C@@H](Cc2ccccc2)C(=O)N[C@H](C(C)C)C(=O)O[C@@H]1C
REMARK SMILES IDX 30 1 31 2 29 3 32 5 35 6 37 7 34 8 38 9 33 10 39 11 36 12
REMARK SMILES IDX 40 14 41 15 42 16 43 17 44 18 45 19 46 20 47 21 48 22 49 23
REMARK SMILES IDX 50 24 51 25 52 26 56 27 53 28 55 29 54 30 57 31 58 32 59 33
REMARK SMILES IDX 60 35 61 36 62 37 63 38 64 39 65 40 66 41 67 42 68 43 21 45
REMARK SMILES IDX 20 46 18 47 19 48 17 50 16 52 14 53 15 54 9 56 8 57 6 58
REMARK SMILES IDX 7 59 5 61 4 62 3 63 2 64 1 65 10 66 11 67 12 68 13 69 22 71
REMARK SMILES IDX 23 72 24 73 25 74 26 75 27 76 28 77
REMARK H PARENT 31 4 36 13 59 34 20 49 16 55 8 60 13 70 27 78 27 79 28 80
REMARK H PARENT 28 81
REMARK Flexibility Score:  259.900
ROOT
ATOM      1  O   UNL     1      14.044   1.894   5.390  1.00  0.00    -0.273 OA
ATOM      2  N   UNL     1      14.261   1.057   3.272  1.00  0.00    -0.343 N 
ATOM      3  C   UNL     1      14.744   1.364   4.526  1.00  0.00     0.243 C 
ATOM      4  H   UNL     1      14.861   0.608   2.592  1.00  0.00     0.164 HD
ENDROOT
BRANCH   2   5
ATOM      5  C   UNL     1      12.917   1.462   2.875  1.00  0.00     0.171 C 
ATOM      6  C   UNL     1      11.324   0.931   0.511  1.00  0.00     0.214 C 
ATOM      7  N   UNL     1      12.168   2.102   0.551  1.00  0.00    -0.303 N 
ATOM      8  C   UNL     1      10.811   0.512   1.880  1.00  0.00     0.057 C 
ATOM      9  C   UNL     1      12.992   2.388   1.627  1.00  0.00     0.247 C 
ATOM     10  C   UNL     1      11.978   0.258   2.809  1.00  0.00     0.040 C 
ATOM     11  O   UNL     1      13.776   3.346   1.617  1.00  0.00    -0.272 OA
BRANCH   6  12
ATOM     12  O   UNL     1      12.063  -0.113  -0.078  1.00  0.00    -0.373 OA
ATOM     13  H   UNL     1      12.420  -0.661   0.654  1.00  0.00     0.213 HD
ENDBRANCH   6  12
BRANCH   7  14
ATOM     14  C   UNL     1      12.233   2.923  -0.677  1.00  0.00     0.177 C 
BRANCH  14  15
ATOM     15  C   UNL     1      12.677   2.170  -1.946  1.00  0.00     0.038 C 
BRANCH  15  16
ATOM     16  C   UNL     1      14.178   2.098  -2.303  1.00  0.00    -0.015 C 
ATOM     17  C   UNL     1      14.693   3.399  -2.927  1.00  0.00     0.007 C 
ATOM     18  C   UNL     1      14.421   0.959  -3.301  1.00  0.00     0.007 C 
ENDBRANCH  15  16
ENDBRANCH  14  15
BRANCH  14  19
ATOM     19  C   UNL     1      11.158   4.062  -0.628  1.00  0.00     0.245 C 
ATOM     20  O   UNL     1      10.162   3.861   0.088  1.00  0.00    -0.272 OA
BRANCH  19  21
ATOM     21  N   UNL     1      11.206   5.203  -1.410  1.00  0.00    -0.332 N 
ATOM     22  C   UNL     1      12.396   5.989  -1.680  1.00  0.00     0.147 C 
BRANCH  21  23
ATOM     23  C   UNL     1       9.936   5.680  -2.023  1.00  0.00     0.178 C 
BRANCH  23  24
ATOM     24  C   UNL     1       9.439   7.043  -1.499  1.00  0.00     0.070 C 
BRANCH  24  25
ATOM     25  C   UNL     1       9.171   7.154  -0.016  1.00  0.00    -0.045 A 
ATOM     26  C   UNL     1      10.119   7.724   0.844  1.00  0.00     0.004 A 
ATOM     27  C   UNL     1       7.965   6.682   0.522  1.00  0.00     0.004 A 
ATOM     28  C   UNL     1       9.870   7.807   2.216  1.00  0.00     0.000 A 
ATOM     29  C   UNL     1       7.717   6.767   1.893  1.00  0.00     0.000 A 
ATOM     30  C   UNL     1       8.672   7.327   2.740  1.00  0.00     0.000 A 
ENDBRANCH  24  25
ENDBRANCH  23  24
BRANCH  23  31
ATOM     31  C   UNL     1       9.913   5.527  -3.562  1.00  0.00     0.243 C 
ATOM     32  O   UNL     1      10.254   4.506  -4.156  1.00  0.00    -0.273 OA
ATOM     33  N   UNL     1       9.650   6.709  -4.232  1.00  0.00    -0.341 N 
ATOM     34  H   UNL     1       9.378   7.528  -3.683  1.00  0.00     0.164 HD
BRANCH  33  35
ATOM     35  C   UNL     1       9.695   6.827  -5.692  1.00  0.00     0.194 C 
BRANCH  35  36
ATOM     36  C   UNL     1      10.397   8.117  -6.204  1.00  0.00     0.017 C 
ATOM     37  C   UNL     1      11.098   7.875  -7.552  1.00  0.00     0.010 C 
ATOM     38  C   UNL     1      11.450   8.659  -5.230  1.00  0.00     0.010 C 
ENDBRANCH  35  36
BRANCH  35  39
ATOM     39  C   UNL     1       8.302   6.624  -6.352  1.00  0.00     0.329 C 
ATOM     40  O   UNL     1       7.745   5.538  -6.458  1.00  0.00    -0.250 OA
BRANCH  39  41
ATOM     41  O   UNL     1       7.726   7.807  -6.724  1.00  0.00    -0.458 OA
BRANCH  41  42
ATOM     42  C   UNL     1       6.851   7.759  -7.876  1.00  0.00     0.205 CG0
ATOM     43  C   UNL     1       7.639   8.299  -9.068  1.00  0.00     0.056 C 
ATOM     44  G   UNL     1       5.593   8.597  -7.573  1.00  0.00     0.000 G0
ENDBRANCH  41  42
ENDBRANCH  39  41
ENDBRANCH  35  39
ENDBRANCH  33  35
ENDBRANCH  23  31
ENDBRANCH  21  23
ENDBRANCH  19  21
ENDBRANCH  14  19
ENDBRANCH   7  14
ENDBRANCH   2   5
BRANCH   3  45
ATOM     45  C   UNL     1      16.208   0.979   4.778  1.00  0.00     0.171 C 
BRANCH  45  46
ATOM     46  N   UNL     1      16.475   1.334   6.166  1.00  0.00    -0.342 N 
ATOM     47  C   UNL     1      16.597   0.393   7.156  1.00  0.00     0.247 C 
ATOM     48  O   UNL     1      16.564  -0.818   6.935  1.00  0.00    -0.273 OA
ATOM     49  H   UNL     1      16.566   2.325   6.384  1.00  0.00     0.164 HD
BRANCH  47  50
ATOM     50  C   UNL     1      16.753   0.958   8.575  1.00  0.00     0.212 CG0
ATOM     51  G   UNL     1      18.055   1.782   8.610  1.00  0.00     0.000 G0
BRANCH  50  52
ATOM     52  N   UNL     1      15.556   1.762   8.808  1.00  0.00    -0.339 N 
ATOM     53  C   UNL     1      14.482   1.323   9.544  1.00  0.00     0.243 C 
ATOM     54  O   UNL     1      14.424   0.193  10.021  1.00  0.00    -0.273 OA
ATOM     55  H   UNL     1      15.496   2.666   8.344  1.00  0.00     0.164 HD
BRANCH  53  56
ATOM     56  C   UNL     1      13.299   2.311   9.579  1.00  0.00     0.182 C 
BRANCH  56  57
ATOM     57  N   UNL     1      12.233   1.889   8.665  1.00  0.00    -0.344 N 
ATOM     58  C   UNL     1      11.063   1.322   9.110  1.00  0.00     0.220 C 
ATOM     59  O   UNL     1      10.860   1.063  10.291  1.00  0.00    -0.275 OA
ATOM     60  H   UNL     1      12.317   2.177   7.694  1.00  0.00     0.164 HD
BRANCH  58  61
ATOM     61  C   UNL     1      10.080   1.017   7.996  1.00  0.00     0.100 C 
BRANCH  61  62
ATOM     62  C   UNL     1      10.700   1.056   6.599  1.00  0.00     0.010 C 
BRANCH  62  63
ATOM     63  C   UNL     1       9.899   1.876   5.579  1.00  0.00     0.000 C 
BRANCH  63  64
ATOM     64  C   UNL     1      10.569   3.184   5.162  1.00  0.00    -0.003 C 
ATOM     65  C   UNL     1       9.825   4.390   5.716  1.00  0.00     0.004 C 
ENDBRANCH  63  64
ENDBRANCH  62  63
ENDBRANCH  61  62
ENDBRANCH  58  61
ENDBRANCH  56  57
BRANCH  56  66
ATOM     66  C   UNL     1      13.757   3.743   9.307  1.00  0.00     0.157 C 
BRANCH  66  67
ATOM     67  C   UNL     1      12.855   4.425   8.319  1.00  0.00     0.305 C 
ATOM     68  O   UNL     1      11.829   5.041   8.568  1.00  0.00    -0.252 OA
BRANCH  67  69
ATOM     69  O   UNL     1      13.320   4.342   7.059  1.00  0.00    -0.481 OA
ATOM     70  H   UNL     1      14.030   3.667   7.098  1.00  0.00     0.296 HD
ENDBRANCH  67  69
ENDBRANCH  66  67
ENDBRANCH  56  66
ENDBRANCH  53  56
ENDBRANCH  50  52
ENDBRANCH  47  50
ENDBRANCH  45  46
BRANCH  45  71
ATOM     71  C   UNL     1      17.131   1.732   3.814  1.00  0.00     0.037 C 
BRANCH  71  72
ATOM     72  C   UNL     1      17.963   2.800   4.529  1.00  0.00     0.026 C 
BRANCH  72  73
ATOM     73  C   UNL     1      17.722   4.187   3.938  1.00  0.00     0.146 C 
BRANCH  73  74
ATOM     74  N   UNL     1      16.303   4.294   3.612  1.00  0.00    -0.254 NA
ATOM     75  C   UNL     1      15.535   4.869   4.461  1.00  0.00     0.185 C 
ATOM     76  N   UNL     1      14.225   4.983   4.189  1.00  0.00    -0.370 N 
ATOM     77  N   UNL     1      15.847   5.410   5.652  1.00  0.00    -0.370 N 
ATOM     78  H   UNL     1      13.904   4.595   3.314  1.00  0.00     0.159 HD
ATOM     79  H   UNL     1      13.544   5.288   4.862  1.00  0.00     0.159 HD
ATOM     80  H   UNL     1      16.798   5.401   5.987  1.00  0.00     0.159 HD
ATOM     81  H   UNL     1      15.176   5.940   6.184  1.00  0.00     0.159 HD
ENDBRANCH  73  74
ENDBRANCH  72  73
ENDBRANCH  71  72
ENDBRANCH  45  71
ENDBRANCH   3  45
TORSDOF 20
ENDMDL
MODEL 9
REMARK VINA RESULT:    -4.643     10.836     15.437
REMARK INTER + INTRA:         -20.071
REMARK INTER:                 -12.568
REMARK INTRA:                  -7.503
REMARK UNBOUND:                -6.743
REMARK SMILES CCCCCC(=O)N[C@H](CC(=O)O)C(=O)N[C@H]1C(=O)N[C@H](CCCN=C(N)N)C(=O)N[C@@H]2CC[C@H](O)N(C2=O)[C@@H](CC(C)C)C(=O)N(C)[C@@H](Cc2ccccc2)C(=O)N[C@H](C(C)C)C(=O)O[C@@H]1C
REMARK SMILES IDX 30 1 31 2 29 3 32 5 35 6 37 7 34 8 38 9 33 10 39 11 36 12
REMARK SMILES IDX 40 14 41 15 42 16 43 17 44 18 45 19 46 20 47 21 48 22 49 23
REMARK SMILES IDX 50 24 51 25 52 26 56 27 53 28 55 29 54 30 57 31 58 32 59 33
REMARK SMILES IDX 60 35 61 36 62 37 63 38 64 39 65 40 66 41 67 42 68 43 21 45
REMARK SMILES IDX 20 46 18 47 19 48 17 50 16 52 14 53 15 54 9 56 8 57 6 58
REMARK SMILES IDX 7 59 5 61 4 62 3 63 2 64 1 65 10 66 11 67 12 68 13 69 22 71
REMARK SMILES IDX 23 72 24 73 25 74 26 75 27 76 28 77
REMARK H PARENT 31 4 36 13 59 34 20 49 16 55 8 60 13 70 27 78 27 79 28 80
REMARK H PARENT 28 81
REMARK Flexibility Score:  259.900
ROOT
ATOM      1  O   UNL     1      15.418   4.118   0.091  1.00  0.00    -0.273 OA
ATOM      2  N   UNL     1      14.698   4.513  -2.044  1.00  0.00    -0.343 N 
ATOM      3  C   UNL     1      15.336   4.875  -0.877  1.00  0.00     0.243 C 
ATOM      4  H   UNL     1      14.663   5.156  -2.825  1.00  0.00     0.164 HD
ENDROOT
BRANCH   2   5
ATOM      5  C   UNL     1      13.984   3.244  -2.137  1.00  0.00     0.171 C 
ATOM      6  C   UNL     1      13.177   1.604  -4.387  1.00  0.00     0.214 C 
ATOM      7  N   UNL     1      12.272   2.609  -3.880  1.00  0.00    -0.303 N 
ATOM      8  C   UNL     1      14.095   1.028  -3.320  1.00  0.00     0.057 C 
ATOM      9  C   UNL     1      12.614   3.461  -2.842  1.00  0.00     0.247 C 
ATOM     10  C   UNL     1      14.893   2.141  -2.676  1.00  0.00     0.040 C 
ATOM     11  O   UNL     1      11.868   4.376  -2.471  1.00  0.00    -0.272 OA
BRANCH   6  12
ATOM     12  O   UNL     1      13.931   2.187  -5.424  1.00  0.00    -0.373 OA
ATOM     13  H   UNL     1      13.568   3.086  -5.573  1.00  0.00     0.213 HD
ENDBRANCH   6  12
BRANCH   7  14
ATOM     14  C   UNL     1      11.003   2.801  -4.614  1.00  0.00     0.177 C 
BRANCH  14  15
ATOM     15  C   UNL     1      11.143   3.431  -6.013  1.00  0.00     0.038 C 
BRANCH  15  16
ATOM     16  C   UNL     1      11.022   4.963  -6.174  1.00  0.00    -0.015 C 
ATOM     17  C   UNL     1      12.334   5.689  -5.861  1.00  0.00     0.007 C 
ATOM     18  C   UNL     1       9.939   5.499  -5.229  1.00  0.00     0.007 C 
ENDBRANCH  15  16
ENDBRANCH  14  15
BRANCH  14  19
ATOM     19  C   UNL     1       9.974   1.686  -4.221  1.00  0.00     0.245 C 
ATOM     20  O   UNL     1       9.489   1.019  -5.150  1.00  0.00    -0.272 OA
BRANCH  19  21
ATOM     21  N   UNL     1       9.505   1.488  -2.934  1.00  0.00    -0.332 N 
ATOM     22  C   UNL     1       8.711   2.435  -2.172  1.00  0.00     0.147 C 
BRANCH  21  23
ATOM     23  C   UNL     1       9.846   0.206  -2.258  1.00  0.00     0.178 C 
BRANCH  23  24
ATOM     24  C   UNL     1      10.666   0.357  -0.961  1.00  0.00     0.070 C 
BRANCH  24  25
ATOM     25  C   UNL     1      11.424  -0.859  -0.480  1.00  0.00    -0.045 A 
ATOM     26  C   UNL     1      11.322  -1.288   0.850  1.00  0.00     0.004 A 
ATOM     27  C   UNL     1      12.247  -1.575  -1.362  1.00  0.00     0.004 A 
ATOM     28  C   UNL     1      12.038  -2.402   1.291  1.00  0.00     0.000 A 
ATOM     29  C   UNL     1      12.961  -2.689  -0.920  1.00  0.00     0.000 A 
ATOM     30  C   UNL     1      12.859  -3.100   0.407  1.00  0.00     0.000 A 
ENDBRANCH  24  25
ENDBRANCH  23  24
BRANCH  23  31
ATOM     31  C   UNL     1       8.643  -0.762  -2.159  1.00  0.00     0.243 C 
ATOM     32  O   UNL     1       7.742  -0.656  -1.330  1.00  0.00    -0.273 OA
ATOM     33  N   UNL     1       8.761  -1.877  -2.971  1.00  0.00    -0.341 N 
ATOM     34  H   UNL     1       9.536  -1.912  -3.637  1.00  0.00     0.164 HD
BRANCH  33  35
ATOM     35  C   UNL     1       7.800  -2.984  -2.954  1.00  0.00     0.194 C 
BRANCH  35  36
ATOM     36  C   UNL     1       8.236  -4.190  -2.075  1.00  0.00     0.017 C 
ATOM     37  C   UNL     1       7.494  -4.198  -0.728  1.00  0.00     0.010 C 
ATOM     38  C   UNL     1       9.739  -4.204  -1.771  1.00  0.00     0.010 C 
ENDBRANCH  35  36
BRANCH  35  39
ATOM     39  C   UNL     1       7.376  -3.429  -4.381  1.00  0.00     0.329 C 
ATOM     40  O   UNL     1       7.458  -2.717  -5.375  1.00  0.00    -0.250 OA
BRANCH  39  41
ATOM     41  O   UNL     1       6.980  -4.737  -4.422  1.00  0.00    -0.458 OA
BRANCH  41  42
ATOM     42  C   UNL     1       5.615  -4.981  -4.837  1.00  0.00     0.205 CG0
ATOM     43  C   UNL     1       4.733  -4.856  -3.596  1.00  0.00     0.056 C 
ATOM     44  G   UNL     1       5.538  -6.382  -5.476  1.00  0.00     0.000 G0
ENDBRANCH  41  42
ENDBRANCH  39  41
ENDBRANCH  35  39
ENDBRANCH  33  35
ENDBRANCH  23  31
ENDBRANCH  21  23
ENDBRANCH  19  21
ENDBRANCH  14  19
ENDBRANCH   7  14
ENDBRANCH   2   5
BRANCH   3  45
ATOM     45  C   UNL     1      15.954   6.280  -0.875  1.00  0.00     0.171 C 
BRANCH  45  46
ATOM     46  N   UNL     1      16.573   6.436   0.434  1.00  0.00    -0.342 N 
ATOM     47  C   UNL     1      17.777   7.071   0.609  1.00  0.00     0.247 C 
ATOM     48  O   UNL     1      18.384   7.617  -0.313  1.00  0.00    -0.273 OA
ATOM     49  H   UNL     1      16.076   6.047   1.234  1.00  0.00     0.164 HD
BRANCH  47  50
ATOM     50  C   UNL     1      18.333   7.029   2.039  1.00  0.00     0.212 CG0
ATOM     51  G   UNL     1      19.002   8.389   2.320  1.00  0.00     0.000 G0
BRANCH  50  52
ATOM     52  N   UNL     1      17.181   6.764   2.897  1.00  0.00    -0.339 N 
ATOM     53  C   UNL     1      16.497   7.748   3.569  1.00  0.00     0.243 C 
ATOM     54  O   UNL     1      16.837   8.928   3.541  1.00  0.00    -0.273 OA
ATOM     55  H   UNL     1      16.918   5.793   3.049  1.00  0.00     0.164 HD
BRANCH  53  56
ATOM     56  C   UNL     1      15.372   7.219   4.481  1.00  0.00     0.182 C 
BRANCH  56  57
ATOM     57  N   UNL     1      15.091   5.807   4.205  1.00  0.00    -0.344 N 
ATOM     58  C   UNL     1      15.167   4.838   5.176  1.00  0.00     0.220 C 
ATOM     59  O   UNL     1      15.546   5.072   6.318  1.00  0.00    -0.275 OA
ATOM     60  H   UNL     1      14.678   5.587   3.302  1.00  0.00     0.164 HD
BRANCH  58  61
ATOM     61  C   UNL     1      14.778   3.457   4.679  1.00  0.00     0.100 C 
BRANCH  61  62
ATOM     62  C   UNL     1      15.647   2.948   3.530  1.00  0.00     0.010 C 
BRANCH  62  63
ATOM     63  C   UNL     1      17.142   2.865   3.862  1.00  0.00     0.000 C 
BRANCH  63  64
ATOM     64  C   UNL     1      17.670   1.441   4.026  1.00  0.00    -0.003 C 
ATOM     65  C   UNL     1      16.584   0.500   4.527  1.00  0.00     0.004 C 
ENDBRANCH  63  64
ENDBRANCH  62  63
ENDBRANCH  61  62
ENDBRANCH  58  61
ENDBRANCH  56  57
BRANCH  56  66
ATOM     66  C   UNL     1      14.118   8.086   4.384  1.00  0.00     0.157 C 
BRANCH  66  67
ATOM     67  C   UNL     1      13.582   8.423   5.746  1.00  0.00     0.305 C 
ATOM     68  O   UNL     1      12.786   9.307   6.022  1.00  0.00    -0.252 OA
BRANCH  67  69
ATOM     69  O   UNL     1      14.042   7.588   6.697  1.00  0.00    -0.481 OA
ATOM     70  H   UNL     1      14.260   6.760   6.219  1.00  0.00     0.296 HD
ENDBRANCH  67  69
ENDBRANCH  66  67
ENDBRANCH  56  66
ENDBRANCH  53  56
ENDBRANCH  50  52
ENDBRANCH  47  50
ENDBRANCH  45  46
BRANCH  45  71
ATOM     71  C   UNL     1      14.874   7.339  -1.119  1.00  0.00     0.037 C 
BRANCH  71  72
ATOM     72  C   UNL     1      14.365   7.954   0.187  1.00  0.00     0.026 C 
BRANCH  72  73
ATOM     73  C   UNL     1      12.949   7.482   0.514  1.00  0.00     0.146 C 
BRANCH  73  74
ATOM     74  N   UNL     1      13.053   6.404   1.493  1.00  0.00    -0.254 NA
ATOM     75  C   UNL     1      12.327   5.363   1.317  1.00  0.00     0.185 C 
ATOM     76  N   UNL     1      12.401   4.354   2.201  1.00  0.00    -0.370 N 
ATOM     77  N   UNL     1      11.450   5.101   0.332  1.00  0.00    -0.370 N 
ATOM     78  H   UNL     1      13.033   4.474   2.979  1.00  0.00     0.159 HD
ATOM     79  H   UNL     1      11.764   3.578   2.209  1.00  0.00     0.159 HD
ATOM     80  H   UNL     1      11.293   5.769  -0.407  1.00  0.00     0.159 HD
ATOM     81  H   UNL     1      11.020   4.196   0.235  1.00  0.00     0.159 HD
ENDBRANCH  73  74
ENDBRANCH  72  73
ENDBRANCH  71  72
ENDBRANCH  45  71
ENDBRANCH   3  45
TORSDOF 20
ENDMDL
MODEL 10
REMARK VINA RESULT:    -4.607      5.146     13.772
REMARK INTER + INTRA:         -19.970
REMARK INTER:                 -13.557
REMARK INTRA:                  -6.412
REMARK UNBOUND:                -6.743
REMARK SMILES CCCCCC(=O)N[C@H](CC(=O)O)C(=O)N[C@H]1C(=O)N[C@H](CCCN=C(N)N)C(=O)N[C@@H]2CC[C@H](O)N(C2=O)[C@@H](CC(C)C)C(=O)N(C)[C@@H](Cc2ccccc2)C(=O)N[C@H](C(C)C)C(=O)O[C@@H]1C
REMARK SMILES IDX 30 1 31 2 29 3 32 5 35 6 37 7 34 8 38 9 33 10 39 11 36 12
REMARK SMILES IDX 40 14 41 15 42 16 43 17 44 18 45 19 46 20 47 21 48 22 49 23
REMARK SMILES IDX 50 24 51 25 52 26 56 27 53 28 55 29 54 30 57 31 58 32 59 33
REMARK SMILES IDX 60 35 61 36 62 37 63 38 64 39 65 40 66 41 67 42 68 43 21 45
REMARK SMILES IDX 20 46 18 47 19 48 17 50 16 52 14 53 15 54 9 56 8 57 6 58
REMARK SMILES IDX 7 59 5 61 4 62 3 63 2 64 1 65 10 66 11 67 12 68 13 69 22 71
REMARK SMILES IDX 23 72 24 73 25 74 26 75 27 76 28 77
REMARK H PARENT 31 4 36 13 59 34 20 49 16 55 8 60 13 70 27 78 27 79 28 80
REMARK H PARENT 28 81
REMARK Flexibility Score:  259.900
ROOT
ATOM      1  O   UNL     1       6.770   3.898   5.521  1.00  0.00    -0.273 OA
ATOM      2  N   UNL     1       4.657   3.029   5.618  1.00  0.00    -0.343 N 
ATOM      3  C   UNL     1       5.579   4.035   5.805  1.00  0.00     0.243 C 
ATOM      4  H   UNL     1       3.683   3.182   5.849  1.00  0.00     0.164 HD
ENDROOT
BRANCH   2   5
ATOM      5  C   UNL     1       5.082   1.704   5.181  1.00  0.00     0.171 C 
ATOM      6  C   UNL     1       3.627  -0.595   4.178  1.00  0.00     0.214 C 
ATOM      7  N   UNL     1       3.874  -0.474   5.596  1.00  0.00    -0.303 N 
ATOM      8  C   UNL     1       4.705   0.052   3.322  1.00  0.00     0.057 C 
ATOM      9  C   UNL     1       4.517   0.623   6.146  1.00  0.00     0.247 C 
ATOM     10  C   UNL     1       4.837   1.515   3.684  1.00  0.00     0.040 C 
ATOM     11  O   UNL     1       4.648   0.761   7.370  1.00  0.00    -0.272 OA
BRANCH   6  12
ATOM     12  O   UNL     1       2.371  -0.016   3.908  1.00  0.00    -0.373 OA
ATOM     13  H   UNL     1       2.316   0.110   2.937  1.00  0.00     0.213 HD
ENDBRANCH   6  12
BRANCH   7  14
ATOM     14  C   UNL     1       3.278  -1.506   6.470  1.00  0.00     0.177 C 
BRANCH  14  15
ATOM     15  C   UNL     1       1.902  -1.147   7.065  1.00  0.00     0.038 C 
BRANCH  15  16
ATOM     16  C   UNL     1       1.730  -1.081   8.599  1.00  0.00    -0.015 C 
ATOM     17  C   UNL     1       0.543  -1.914   9.091  1.00  0.00     0.007 C 
ATOM     18  C   UNL     1       1.510   0.374   9.034  1.00  0.00     0.007 C 
ENDBRANCH  15  16
ENDBRANCH  14  15
BRANCH  14  19
ATOM     19  C   UNL     1       3.719  -2.935   6.002  1.00  0.00     0.245 C 
ATOM     20  O   UNL     1       4.940  -3.156   5.954  1.00  0.00    -0.272 OA
BRANCH  19  21
ATOM     21  N   UNL     1       2.841  -3.902   5.544  1.00  0.00    -0.332 N 
ATOM     22  C   UNL     1       2.401  -4.057   4.169  1.00  0.00     0.147 C 
BRANCH  21  23
ATOM     23  C   UNL     1       2.284  -4.863   6.536  1.00  0.00     0.178 C 
BRANCH  23  24
ATOM     24  C   UNL     1       2.839  -4.708   7.967  1.00  0.00     0.070 C 
BRANCH  24  25
ATOM     25  C   UNL     1       3.061  -5.975   8.760  1.00  0.00    -0.045 A 
ATOM     26  C   UNL     1       3.283  -7.197   8.112  1.00  0.00     0.004 A 
ATOM     27  C   UNL     1       3.042  -5.944  10.162  1.00  0.00     0.004 A 
ATOM     28  C   UNL     1       3.470  -8.367   8.852  1.00  0.00     0.000 A 
ATOM     29  C   UNL     1       3.230  -7.114  10.901  1.00  0.00     0.000 A 
ATOM     30  C   UNL     1       3.441  -8.325  10.245  1.00  0.00     0.000 A 
ENDBRANCH  24  25
ENDBRANCH  23  24
BRANCH  23  31
ATOM     31  C   UNL     1       0.746  -5.000   6.446  1.00  0.00     0.243 C 
ATOM     32  O   UNL     1      -0.027  -4.047   6.392  1.00  0.00    -0.273 OA
ATOM     33  N   UNL     1       0.295  -6.298   6.618  1.00  0.00    -0.341 N 
ATOM     34  H   UNL     1       0.987  -7.050   6.663  1.00  0.00     0.164 HD
BRANCH  33  35
ATOM     35  C   UNL     1      -1.126  -6.647   6.690  1.00  0.00     0.194 C 
BRANCH  35  36
ATOM     36  C   UNL     1      -1.584  -7.164   8.083  1.00  0.00     0.017 C 
ATOM     37  C   UNL     1      -2.813  -6.390   8.590  1.00  0.00     0.010 C 
ATOM     38  C   UNL     1      -0.496  -7.052   9.157  1.00  0.00     0.010 C 
ENDBRANCH  35  36
BRANCH  35  39
ATOM     39  C   UNL     1      -1.566  -7.601   5.544  1.00  0.00     0.329 C 
ATOM     40  O   UNL     1      -1.354  -7.389   4.355  1.00  0.00    -0.250 OA
BRANCH  39  41
ATOM     41  O   UNL     1      -2.139  -8.750   6.014  1.00  0.00    -0.458 OA
BRANCH  41  42
ATOM     42  C   UNL     1      -2.503  -9.738   5.021  1.00  0.00     0.205 CG0
ATOM     43  C   UNL     1      -4.028  -9.813   4.993  1.00  0.00     0.056 C 
ATOM     44  G   UNL     1      -1.854 -11.083   5.405  1.00  0.00     0.000 G0
ENDBRANCH  41  42
ENDBRANCH  39  41
ENDBRANCH  35  39
ENDBRANCH  33  35
ENDBRANCH  23  31
ENDBRANCH  21  23
ENDBRANCH  19  21
ENDBRANCH  14  19
ENDBRANCH   7  14
ENDBRANCH   2   5
BRANCH   3  45
ATOM     45  C   UNL     1       5.017   5.345   6.372  1.00  0.00     0.171 C 
BRANCH  45  46
ATOM     46  N   UNL     1       5.385   6.379   5.414  1.00  0.00    -0.342 N 
ATOM     47  C   UNL     1       4.573   6.736   4.367  1.00  0.00     0.247 C 
ATOM     48  O   UNL     1       3.448   6.264   4.202  1.00  0.00    -0.273 OA
ATOM     49  H   UNL     1       6.286   6.837   5.546  1.00  0.00     0.164 HD
BRANCH  47  50
ATOM     50  C   UNL     1       5.181   7.754   3.391  1.00  0.00     0.212 CG0
ATOM     51  G   UNL     1       4.569   9.132   3.711  1.00  0.00     0.000 G0
BRANCH  50  52
ATOM     52  N   UNL     1       6.623   7.696   3.615  1.00  0.00    -0.339 N 
ATOM     53  C   UNL     1       7.528   7.372   2.634  1.00  0.00     0.243 C 
ATOM     54  O   UNL     1       7.188   7.052   1.499  1.00  0.00    -0.273 OA
ATOM     55  H   UNL     1       6.959   7.843   4.565  1.00  0.00     0.164 HD
BRANCH  53  56
ATOM     56  C   UNL     1       8.987   7.292   3.129  1.00  0.00     0.182 C 
BRANCH  56  57
ATOM     57  N   UNL     1       9.858   6.708   2.104  1.00  0.00    -0.344 N 
ATOM     58  C   UNL     1      10.772   7.455   1.402  1.00  0.00     0.220 C 
ATOM     59  O   UNL     1      10.872   8.671   1.529  1.00  0.00    -0.275 OA
ATOM     60  H   UNL     1       9.879   5.693   2.041  1.00  0.00     0.164 HD
BRANCH  58  61
ATOM     61  C   UNL     1      11.606   6.634   0.436  1.00  0.00     0.100 C 
BRANCH  61  62
ATOM     62  C   UNL     1      13.096   6.607   0.777  1.00  0.00     0.010 C 
BRANCH  62  63
ATOM     63  C   UNL     1      13.415   5.998   2.149  1.00  0.00     0.000 C 
BRANCH  63  64
ATOM     64  C   UNL     1      14.540   6.706   2.902  1.00  0.00    -0.003 C 
ATOM     65  C   UNL     1      14.222   8.178   3.118  1.00  0.00     0.004 C 
ENDBRANCH  63  64
ENDBRANCH  62  63
ENDBRANCH  61  62
ENDBRANCH  58  61
ENDBRANCH  56  57
BRANCH  56  66
ATOM     66  C   UNL     1       9.086   6.551   4.461  1.00  0.00     0.157 C 
BRANCH  66  67
ATOM     67  C   UNL     1       9.819   5.249   4.306  1.00  0.00     0.305 C 
ATOM     68  O   UNL     1      10.980   5.021   4.611  1.00  0.00    -0.252 OA
BRANCH  67  69
ATOM     69  O   UNL     1       9.031   4.273   3.818  1.00  0.00    -0.481 OA
ATOM     70  H   UNL     1       9.298   3.467   4.308  1.00  0.00     0.296 HD
ENDBRANCH  67  69
ENDBRANCH  66  67
ENDBRANCH  56  66
ENDBRANCH  53  56
ENDBRANCH  50  52
ENDBRANCH  47  50
ENDBRANCH  45  46
BRANCH  45  71
ATOM     71  C   UNL     1       5.606   5.624   7.759  1.00  0.00     0.037 C 
BRANCH  71  72
ATOM     72  C   UNL     1       5.753   4.346   8.589  1.00  0.00     0.026 C 
BRANCH  72  73
ATOM     73  C   UNL     1       7.019   4.375   9.443  1.00  0.00     0.146 C 
BRANCH  73  74
ATOM     74  N   UNL     1       8.100   3.788   8.659  1.00  0.00    -0.254 NA
ATOM     75  C   UNL     1       8.984   4.579   8.172  1.00  0.00     0.185 C 
ATOM     76  N   UNL     1       9.993   4.068   7.446  1.00  0.00    -0.370 N 
ATOM     77  N   UNL     1       9.071   5.916   8.276  1.00  0.00    -0.370 N 
ATOM     78  H   UNL     1       9.999   3.067   7.312  1.00  0.00     0.159 HD
ATOM     79  H   UNL     1      10.634   4.631   6.917  1.00  0.00     0.159 HD
ATOM     80  H   UNL     1       8.382   6.436   8.797  1.00  0.00     0.159 HD
ATOM     81  H   UNL     1       9.878   6.420   7.947  1.00  0.00     0.159 HD
ENDBRANCH  73  74
ENDBRANCH  72  73
ENDBRANCH  71  72
ENDBRANCH  45  71
ENDBRANCH   3  45
TORSDOF 20
ENDMDL
