MODEL 1
REMARK VINA RESULT:    -4.439      0.000      0.000
REMARK INTER + INTRA:          -9.522
REMARK INTER:                  -7.554
REMARK INTRA:                  -1.968
REMARK UNBOUND:                -1.968
REMARK SMILES CC[C@H](C)[C@@H]1NC(=O)[C@H]2CSC(=N2)[C@@H]([C@@H](C)CC)NC(=O)c2csc(n2)CNC(=O)[C@H]2N=C1O[C@@H]2C
REMARK SMILES IDX 27 1 25 2 22 3 26 4 23 5 24 6 20 7 19 8 21 9 14 11 12 12
REMARK SMILES IDX 11 13 10 14 13 15 9 16 15 18 16 19 17 20 18 21 28 22 29 23
REMARK SMILES IDX 30 24 31 26 32 27 35 28 33 29 34 30 36 31 5 32 6 33 7 34
REMARK SMILES IDX 8 35 3 38 4 39 2 40 1 41
REMARK H PARENT 19 10 28 25 6 36
REMARK Flexibility Score:   91.900
ROOT
ATOM      1  C   UNL     1      -3.827   2.488  -4.555  1.00  0.00     0.183 C 
ENDROOT
BRANCH   1   2
ATOM      2  C   UNL     1      -2.560   2.503  -5.361  1.00  0.00     0.113 A 
ATOM      3  C   UNL     1      -1.098   3.090  -6.937  1.00  0.00     0.139 A 
ATOM      4  N   UNL     1      -2.291   3.407  -6.285  1.00  0.00    -0.234 NA
ATOM      5  C   UNL     1      -0.456   1.972  -6.444  1.00  0.00     0.101 A 
ATOM      6  S   UNL     1      -1.366   1.285  -5.161  1.00  0.00    -0.125 S 
BRANCH   3   7
ATOM      7  C   UNL     1      -0.646   3.899  -8.072  1.00  0.00     0.271 C 
ATOM      8  N   UNL     1       0.093   4.980  -7.660  1.00  0.00    -0.341 N 
ATOM      9  O   UNL     1      -0.926   3.652  -9.238  1.00  0.00    -0.267 OA
ATOM     10  H   UNL     1       0.264   5.041  -6.657  1.00  0.00     0.164 HD
BRANCH   8  11
ATOM     11  C   UNL     1       0.519   6.060  -8.535  1.00  0.00     0.140 C 
BRANCH  11  12
ATOM     12  C   UNL     1      -0.327   7.294  -8.204  1.00  0.00     0.091 C 
ATOM     13  S   UNL     1       0.376   8.649  -7.352  1.00  0.00    -0.106 SA
ATOM     14  C   UNL     1      -1.078   9.653  -7.724  1.00  0.00     0.113 C 
ATOM     15  N   UNL     1      -1.593   7.350  -8.472  1.00  0.00    -0.267 NA
ATOM     16  C   UNL     1      -2.175   8.623  -7.940  1.00  0.00     0.205 CG0
ATOM     17  G   UNL     1      -2.948   8.370  -6.636  1.00  0.00     0.000 G0
ENDBRANCH  11  12
BRANCH  11  18
ATOM     18  C   UNL     1       2.054   6.269  -8.578  1.00  0.00     0.015 C 
ATOM     19  C   UNL     1       2.737   5.447  -7.477  1.00  0.00     0.010 C 
BRANCH  18  20
ATOM     20  C   UNL     1       2.701   6.014  -9.955  1.00  0.00     0.002 C 
ATOM     21  C   UNL     1       1.883   6.579 -11.110  1.00  0.00     0.004 C 
ENDBRANCH  18  20
ENDBRANCH  11  18
ENDBRANCH   8  11
ENDBRANCH   3   7
ENDBRANCH   1   2
BRANCH   1  22
ATOM     22  N   UNL     1      -4.740   3.427  -5.168  1.00  0.00    -0.348 N 
ATOM     23  C   UNL     1      -6.007   3.687  -4.720  1.00  0.00     0.249 C 
ATOM     24  O   UNL     1      -6.469   3.206  -3.691  1.00  0.00    -0.272 OA
ATOM     25  H   UNL     1      -4.465   3.868  -6.044  1.00  0.00     0.163 HD
BRANCH  23  26
ATOM     26  C   UNL     1      -6.758   4.690  -5.609  1.00  0.00     0.238 C 
ATOM     27  N   UNL     1      -6.612   6.058  -5.038  1.00  0.00    -0.236 NA
ATOM     28  C   UNL     1      -6.166   4.766  -7.006  1.00  0.00     0.206 C 
ATOM     29  C   UNL     1      -5.853   6.661  -5.903  1.00  0.00     0.208 C 
ATOM     30  O   UNL     1      -5.435   5.992  -7.005  1.00  0.00    -0.474 OA
ATOM     31  C   UNL     1      -7.233   4.837  -8.090  1.00  0.00     0.056 C 
BRANCH  29  32
ATOM     32  C   UNL     1      -5.311   8.084  -5.793  1.00  0.00     0.171 C 
BRANCH  32  33
ATOM     33  N   UNL     1      -4.357   8.360  -6.856  1.00  0.00    -0.342 N 
ATOM     34  C   UNL     1      -2.999   8.372  -6.648  1.00  0.00     0.246 CG0
ATOM     35  O   UNL     1      -2.488   8.177  -5.549  1.00  0.00    -0.273 OA
ATOM     36  H   UNL     1      -4.669   8.592  -7.793  1.00  0.00     0.164 HD
ATOM     37  G   UNL     1      -2.163   8.626  -7.914  1.00  0.00     0.000 G0
ENDBRANCH  32  33
BRANCH  32  38
ATOM     38  C   UNL     1      -6.476   9.108  -5.759  1.00  0.00     0.017 C 
ATOM     39  C   UNL     1      -6.125  10.274  -4.827  1.00  0.00     0.010 C 
BRANCH  38  40
ATOM     40  C   UNL     1      -6.883   9.605  -7.165  1.00  0.00     0.002 C 
ATOM     41  C   UNL     1      -8.099   8.887  -7.737  1.00  0.00     0.004 C 
ENDBRANCH  38  40
ENDBRANCH  32  38
ENDBRANCH  29  32
ENDBRANCH  23  26
ENDBRANCH   1  22
TORSDOF 4
ENDMDL
MODEL 2
REMARK VINA RESULT:    -4.396     13.797     18.351
REMARK INTER + INTRA:          -9.449
REMARK INTER:                  -7.955
REMARK INTRA:                  -1.493
REMARK UNBOUND:                -1.968
REMARK SMILES CC[C@H](C)[C@@H]1NC(=O)[C@H]2CSC(=N2)[C@@H]([C@@H](C)CC)NC(=O)c2csc(n2)CNC(=O)[C@H]2N=C1O[C@@H]2C
REMARK SMILES IDX 27 1 25 2 22 3 26 4 23 5 24 6 20 7 19 8 21 9 14 11 12 12
REMARK SMILES IDX 11 13 10 14 13 15 9 16 15 18 16 19 17 20 18 21 28 22 29 23
REMARK SMILES IDX 30 24 31 26 32 27 35 28 33 29 34 30 36 31 5 32 6 33 7 34
REMARK SMILES IDX 8 35 3 38 4 39 2 40 1 41
REMARK H PARENT 19 10 28 25 6 36
REMARK Flexibility Score:   91.900
ROOT
ATOM      1  C   UNL     1      -8.600  -2.426  -0.029  1.00  0.00     0.183 C 
ENDROOT
BRANCH   1   2
ATOM      2  C   UNL     1      -9.918  -3.143   0.036  1.00  0.00     0.113 A 
ATOM      3  C   UNL     1     -11.393  -4.761   0.452  1.00  0.00     0.139 A 
ATOM      4  N   UNL     1     -10.096  -4.291   0.664  1.00  0.00    -0.234 NA
ATOM      5  C   UNL     1     -12.193  -3.916  -0.293  1.00  0.00     0.101 A 
ATOM      6  S   UNL     1     -11.306  -2.522  -0.760  1.00  0.00    -0.125 S 
BRANCH   3   7
ATOM      7  C   UNL     1     -11.792  -6.071   0.970  1.00  0.00     0.271 C 
ATOM      8  N   UNL     1     -12.638  -5.954   2.046  1.00  0.00    -0.341 N 
ATOM      9  O   UNL     1     -11.389  -7.135   0.516  1.00  0.00    -0.267 OA
ATOM     10  H   UNL     1     -12.904  -5.002   2.295  1.00  0.00     0.164 HD
BRANCH   8  11
ATOM     11  C   UNL     1     -13.053  -7.066   2.884  1.00  0.00     0.140 C 
BRANCH  11  12
ATOM     12  C   UNL     1     -12.349  -6.923   4.237  1.00  0.00     0.091 C 
ATOM     13  S   UNL     1     -13.232  -7.165   5.726  1.00  0.00    -0.106 SA
ATOM     14  C   UNL     1     -11.684  -7.180   6.656  1.00  0.00     0.113 C 
ATOM     15  N   UNL     1     -11.112  -6.549   4.331  1.00  0.00    -0.267 NA
ATOM     16  C   UNL     1     -10.730  -6.393   5.770  1.00  0.00     0.205 CG0
ATOM     17  G   UNL     1     -10.711  -4.910   6.175  1.00  0.00     0.000 G0
ENDBRANCH  11  12
BRANCH  11  18
ATOM     18  C   UNL     1     -14.586  -7.287   2.925  1.00  0.00     0.015 C 
ATOM     19  C   UNL     1     -15.317  -6.079   2.324  1.00  0.00     0.010 C 
BRANCH  18  20
ATOM     20  C   UNL     1     -15.065  -8.609   2.290  1.00  0.00     0.002 C 
ATOM     21  C   UNL     1     -14.756  -9.829   3.150  1.00  0.00     0.004 C 
ENDBRANCH  18  20
ENDBRANCH  11  18
ENDBRANCH   8  11
ENDBRANCH   3   7
ENDBRANCH   1   2
BRANCH   1  22
ATOM     22  N   UNL     1      -8.392  -1.785   1.250  1.00  0.00    -0.348 N 
ATOM     23  C   UNL     1      -7.408  -2.121   2.139  1.00  0.00     0.249 C 
ATOM     24  O   UNL     1      -6.541  -2.954   1.900  1.00  0.00    -0.272 OA
ATOM     25  H   UNL     1      -9.071  -1.090   1.559  1.00  0.00     0.163 HD
BRANCH  23  26
ATOM     26  C   UNL     1      -7.473  -1.300   3.436  1.00  0.00     0.238 C 
ATOM     27  N   UNL     1      -8.747  -1.603   4.146  1.00  0.00    -0.236 NA
ATOM     28  C   UNL     1      -6.367  -1.680   4.406  1.00  0.00     0.206 C 
ATOM     29  C   UNL     1      -8.353  -2.256   5.199  1.00  0.00     0.208 C 
ATOM     30  O   UNL     1      -7.028  -2.468   5.394  1.00  0.00    -0.474 OA
ATOM     31  C   UNL     1      -5.744  -0.469   5.086  1.00  0.00     0.056 C 
BRANCH  29  32
ATOM     32  C   UNL     1      -9.250  -2.885   6.261  1.00  0.00     0.171 C 
BRANCH  32  33
ATOM     33  N   UNL     1      -9.478  -4.293   5.981  1.00  0.00    -0.342 N 
ATOM     34  C   UNL     1     -10.690  -4.905   6.198  1.00  0.00     0.246 CG0
ATOM     35  O   UNL     1     -11.662  -4.319   6.666  1.00  0.00    -0.273 OA
ATOM     36  H   UNL     1      -8.729  -4.889   5.646  1.00  0.00     0.164 HD
ATOM     37  G   UNL     1     -10.740  -6.384   5.781  1.00  0.00     0.000 G0
ENDBRANCH  32  33
BRANCH  32  38
ATOM     38  C   UNL     1      -8.662  -2.647   7.677  1.00  0.00     0.017 C 
ATOM     39  C   UNL     1      -9.353  -1.449   8.341  1.00  0.00     0.010 C 
BRANCH  38  40
ATOM     40  C   UNL     1      -8.721  -3.906   8.573  1.00  0.00     0.002 C 
ATOM     41  C   UNL     1      -9.494  -3.696   9.868  1.00  0.00     0.004 C 
ENDBRANCH  38  40
ENDBRANCH  32  38
ENDBRANCH  29  32
ENDBRANCH  23  26
ENDBRANCH   1  22
TORSDOF 4
ENDMDL
MODEL 3
REMARK VINA RESULT:    -4.294     14.086     18.269
REMARK INTER + INTRA:          -9.274
REMARK INTER:                  -7.556
REMARK INTRA:                  -1.718
REMARK UNBOUND:                -1.968
REMARK SMILES CC[C@H](C)[C@@H]1NC(=O)[C@H]2CSC(=N2)[C@@H]([C@@H](C)CC)NC(=O)c2csc(n2)CNC(=O)[C@H]2N=C1O[C@@H]2C
REMARK SMILES IDX 27 1 25 2 22 3 26 4 23 5 24 6 20 7 19 8 21 9 14 11 12 12
REMARK SMILES IDX 11 13 10 14 13 15 9 16 15 18 16 19 17 20 18 21 28 22 29 23
REMARK SMILES IDX 30 24 31 26 32 27 35 28 33 29 34 30 36 31 5 32 6 33 7 34
REMARK SMILES IDX 8 35 3 38 4 39 2 40 1 41
REMARK H PARENT 19 10 28 25 6 36
REMARK Flexibility Score:   91.900
ROOT
ATOM      1  C   UNL     1     -11.861  -5.704   0.329  1.00  0.00     0.183 C 
ENDROOT
BRANCH   1   2
ATOM      2  C   UNL     1     -12.128  -6.353   1.657  1.00  0.00     0.113 A 
ATOM      3  C   UNL     1     -11.736  -7.190   3.684  1.00  0.00     0.139 A 
ATOM      4  N   UNL     1     -11.232  -6.435   2.623  1.00  0.00    -0.234 NA
ATOM      5  C   UNL     1     -13.038  -7.617   3.515  1.00  0.00     0.101 A 
ATOM      6  S   UNL     1     -13.640  -7.090   1.996  1.00  0.00    -0.125 S 
BRANCH   3   7
ATOM      7  C   UNL     1     -10.882  -7.501   4.833  1.00  0.00     0.271 C 
ATOM      8  N   UNL     1     -11.391  -6.982   5.997  1.00  0.00    -0.341 N 
ATOM      9  O   UNL     1      -9.828  -8.119   4.749  1.00  0.00    -0.267 OA
ATOM     10  H   UNL     1     -12.291  -6.511   5.913  1.00  0.00     0.164 HD
BRANCH   8  11
ATOM     11  C   UNL     1     -10.679  -6.965   7.265  1.00  0.00     0.140 C 
BRANCH  11  12
ATOM     12  C   UNL     1     -10.231  -5.525   7.532  1.00  0.00     0.091 C 
ATOM     13  S   UNL     1     -10.892  -4.626   8.878  1.00  0.00    -0.106 SA
ATOM     14  C   UNL     1      -9.637  -3.347   8.656  1.00  0.00     0.113 C 
ATOM     15  N   UNL     1      -9.414  -4.902   6.742  1.00  0.00    -0.267 NA
ATOM     16  C   UNL     1      -9.244  -3.485   7.193  1.00  0.00     0.205 CG0
ATOM     17  G   UNL     1     -10.069  -2.528   6.317  1.00  0.00     0.000 G0
ENDBRANCH  11  12
BRANCH  11  18
ATOM     18  C   UNL     1     -11.428  -7.679   8.418  1.00  0.00     0.015 C 
ATOM     19  C   UNL     1     -12.799  -8.176   7.940  1.00  0.00     0.010 C 
BRANCH  18  20
ATOM     20  C   UNL     1     -10.629  -8.805   9.106  1.00  0.00     0.002 C 
ATOM     21  C   UNL     1     -11.494 -10.002   9.486  1.00  0.00     0.004 C 
ENDBRANCH  18  20
ENDBRANCH  11  18
ENDBRANCH   8  11
ENDBRANCH   3   7
ENDBRANCH   1   2
BRANCH   1  22
ATOM     22  N   UNL     1     -11.018  -4.555   0.570  1.00  0.00    -0.348 N 
ATOM     23  C   UNL     1     -11.474  -3.276   0.742  1.00  0.00     0.249 C 
ATOM     24  O   UNL     1     -12.664  -2.988   0.793  1.00  0.00    -0.272 OA
ATOM     25  H   UNL     1     -10.007  -4.678   0.527  1.00  0.00     0.163 HD
BRANCH  23  26
ATOM     26  C   UNL     1     -10.337  -2.259   0.924  1.00  0.00     0.238 C 
ATOM     27  N   UNL     1     -10.706  -1.298   2.001  1.00  0.00    -0.236 NA
ATOM     28  C   UNL     1      -9.052  -2.920   1.393  1.00  0.00     0.206 C 
ATOM     29  C   UNL     1      -9.885  -1.598   2.962  1.00  0.00     0.208 C 
ATOM     30  O   UNL     1      -8.975  -2.586   2.778  1.00  0.00    -0.474 OA
ATOM     31  C   UNL     1      -7.820  -2.365   0.690  1.00  0.00     0.056 C 
BRANCH  29  32
ATOM     32  C   UNL     1      -9.856  -0.975   4.355  1.00  0.00     0.171 C 
BRANCH  32  33
ATOM     33  N   UNL     1      -9.285  -1.896   5.325  1.00  0.00    -0.342 N 
ATOM     34  C   UNL     1     -10.034  -2.494   6.310  1.00  0.00     0.246 CG0
ATOM     35  O   UNL     1     -11.234  -2.278   6.464  1.00  0.00    -0.273 OA
ATOM     36  H   UNL     1      -8.292  -2.103   5.329  1.00  0.00     0.164 HD
ATOM     37  G   UNL     1      -9.253  -3.479   7.195  1.00  0.00     0.000 G0
ENDBRANCH  32  33
BRANCH  32  38
ATOM     38  C   UNL     1      -9.118   0.389   4.324  1.00  0.00     0.017 C 
ATOM     39  C   UNL     1      -9.140   1.032   5.717  1.00  0.00     0.010 C 
BRANCH  38  40
ATOM     40  C   UNL     1      -7.679   0.283   3.769  1.00  0.00     0.002 C 
ATOM     41  C   UNL     1      -7.534   0.806   2.346  1.00  0.00     0.004 C 
ENDBRANCH  38  40
ENDBRANCH  32  38
ENDBRANCH  29  32
ENDBRANCH  23  26
ENDBRANCH   1  22
TORSDOF 4
ENDMDL
MODEL 4
REMARK VINA RESULT:    -4.215     14.339     18.226
REMARK INTER + INTRA:          -9.141
REMARK INTER:                  -7.521
REMARK INTRA:                  -1.620
REMARK UNBOUND:                -1.968
REMARK SMILES CC[C@H](C)[C@@H]1NC(=O)[C@H]2CSC(=N2)[C@@H]([C@@H](C)CC)NC(=O)c2csc(n2)CNC(=O)[C@H]2N=C1O[C@@H]2C
REMARK SMILES IDX 27 1 25 2 22 3 26 4 23 5 24 6 20 7 19 8 21 9 14 11 12 12
REMARK SMILES IDX 11 13 10 14 13 15 9 16 15 18 16 19 17 20 18 21 28 22 29 23
REMARK SMILES IDX 30 24 31 26 32 27 35 28 33 29 34 30 36 31 5 32 6 33 7 34
REMARK SMILES IDX 8 35 3 38 4 39 2 40 1 41
REMARK H PARENT 19 10 28 25 6 36
REMARK Flexibility Score:   91.900
ROOT
ATOM      1  C   UNL     1     -12.894  -7.103   0.239  1.00  0.00     0.183 C 
ENDROOT
BRANCH   1   2
ATOM      2  C   UNL     1     -12.900  -7.489   1.690  1.00  0.00     0.113 A 
ATOM      3  C   UNL     1     -12.149  -7.824   3.762  1.00  0.00     0.139 A 
ATOM      4  N   UNL     1     -11.897  -7.248   2.515  1.00  0.00    -0.234 NA
ATOM      5  C   UNL     1     -13.378  -8.444   3.867  1.00  0.00     0.101 A 
ATOM      6  S   UNL     1     -14.227  -8.331   2.380  1.00  0.00    -0.125 S 
BRANCH   3   7
ATOM      7  C   UNL     1     -11.129  -7.772   4.812  1.00  0.00     0.271 C 
ATOM      8  N   UNL     1     -11.560  -7.056   5.901  1.00  0.00    -0.341 N 
ATOM      9  O   UNL     1     -10.019  -8.280   4.708  1.00  0.00    -0.267 OA
ATOM     10  H   UNL     1     -12.519  -6.714   5.852  1.00  0.00     0.164 HD
BRANCH   8  11
ATOM     11  C   UNL     1     -10.710  -6.675   7.017  1.00  0.00     0.140 C 
BRANCH  11  12
ATOM     12  C   UNL     1     -10.365  -5.191   6.859  1.00  0.00     0.091 C 
ATOM     13  S   UNL     1     -10.752  -4.050   8.125  1.00  0.00    -0.106 SA
ATOM     14  C   UNL     1      -9.739  -2.792   7.319  1.00  0.00     0.113 C 
ATOM     15  N   UNL     1      -9.848  -4.719   5.768  1.00  0.00    -0.267 NA
ATOM     16  C   UNL     1      -9.720  -3.231   5.863  1.00  0.00     0.205 CG0
ATOM     17  G   UNL     1     -10.838  -2.533   5.070  1.00  0.00     0.000 G0
ENDBRANCH  11  12
BRANCH  11  18
ATOM     18  C   UNL     1     -11.254  -7.112   8.401  1.00  0.00     0.015 C 
ATOM     19  C   UNL     1     -12.782  -7.247   8.358  1.00  0.00     0.010 C 
BRANCH  18  20
ATOM     20  C   UNL     1     -10.593  -8.378   8.983  1.00  0.00     0.002 C 
ATOM     21  C   UNL     1     -11.596  -9.482   9.300  1.00  0.00     0.004 C 
ENDBRANCH  18  20
ENDBRANCH  11  18
ENDBRANCH   8  11
ENDBRANCH   3   7
ENDBRANCH   1   2
BRANCH   1  22
ATOM     22  N   UNL     1     -12.281  -5.798   0.140  1.00  0.00    -0.348 N 
ATOM     23  C   UNL     1     -12.794  -4.746  -0.569  1.00  0.00     0.249 C 
ATOM     24  O   UNL     1     -13.884  -4.782  -1.131  1.00  0.00    -0.272 OA
ATOM     25  H   UNL     1     -11.358  -5.663   0.553  1.00  0.00     0.163 HD
BRANCH  23  26
ATOM     26  C   UNL     1     -11.890  -3.505  -0.533  1.00  0.00     0.238 C 
ATOM     27  N   UNL     1     -12.403  -2.553   0.490  1.00  0.00    -0.236 NA
ATOM     28  C   UNL     1     -10.475  -3.845  -0.098  1.00  0.00     0.206 C 
ATOM     29  C   UNL     1     -11.495  -2.594   1.418  1.00  0.00     0.208 C 
ATOM     30  O   UNL     1     -10.407  -3.387   1.251  1.00  0.00    -0.474 OA
ATOM     31  C   UNL     1      -9.420  -3.111  -0.915  1.00  0.00     0.056 C 
BRANCH  29  32
ATOM     32  C   UNL     1     -11.535  -1.862   2.757  1.00  0.00     0.171 C 
BRANCH  32  33
ATOM     33  N   UNL     1     -10.596  -2.451   3.699  1.00  0.00    -0.342 N 
ATOM     34  C   UNL     1     -10.837  -2.502   5.051  1.00  0.00     0.246 CG0
ATOM     35  O   UNL     1     -11.847  -2.034   5.570  1.00  0.00    -0.273 OA
ATOM     36  H   UNL     1      -9.701  -2.816   3.389  1.00  0.00     0.164 HD
ATOM     37  G   UNL     1      -9.747  -3.218   5.866  1.00  0.00     0.000 G0
ENDBRANCH  32  33
BRANCH  32  38
ATOM     38  C   UNL     1     -11.297  -0.343   2.551  1.00  0.00     0.017 C 
ATOM     39  C   UNL     1     -10.349  -0.113   1.368  1.00  0.00     0.010 C 
BRANCH  38  40
ATOM     40  C   UNL     1     -12.611   0.456   2.392  1.00  0.00     0.002 C 
ATOM     41  C   UNL     1     -12.444   1.954   2.617  1.00  0.00     0.004 C 
ENDBRANCH  38  40
ENDBRANCH  32  38
ENDBRANCH  29  32
ENDBRANCH  23  26
ENDBRANCH   1  22
TORSDOF 4
ENDMDL
MODEL 5
REMARK VINA RESULT:    -3.881      1.756      2.376
REMARK INTER + INTRA:          -8.572
REMARK INTER:                  -6.954
REMARK INTRA:                  -1.618
REMARK UNBOUND:                -1.968
REMARK SMILES CC[C@H](C)[C@@H]1NC(=O)[C@H]2CSC(=N2)[C@@H]([C@@H](C)CC)NC(=O)c2csc(n2)CNC(=O)[C@H]2N=C1O[C@@H]2C
REMARK SMILES IDX 27 1 25 2 22 3 26 4 23 5 24 6 20 7 19 8 21 9 14 11 12 12
REMARK SMILES IDX 11 13 10 14 13 15 9 16 15 18 16 19 17 20 18 21 28 22 29 23
REMARK SMILES IDX 30 24 31 26 32 27 35 28 33 29 34 30 36 31 5 32 6 33 7 34
REMARK SMILES IDX 8 35 3 38 4 39 2 40 1 41
REMARK H PARENT 19 10 28 25 6 36
REMARK Flexibility Score:   91.900
ROOT
ATOM      1  C   UNL     1      -2.499   2.363  -3.271  1.00  0.00     0.183 C 
ENDROOT
BRANCH   1   2
ATOM      2  C   UNL     1      -1.555   2.330  -4.438  1.00  0.00     0.113 A 
ATOM      3  C   UNL     1      -0.573   2.940  -6.344  1.00  0.00     0.139 A 
ATOM      4  N   UNL     1      -1.444   3.309  -5.317  1.00  0.00    -0.234 NA
ATOM      5  C   UNL     1       0.005   1.696  -6.183  1.00  0.00     0.101 A 
ATOM      6  S   UNL     1      -0.564   0.961  -4.740  1.00  0.00    -0.125 S 
BRANCH   3   7
ATOM      7  C   UNL     1      -0.369   3.830  -7.488  1.00  0.00     0.271 C 
ATOM      8  N   UNL     1       0.344   4.950  -7.137  1.00  0.00    -0.341 N 
ATOM      9  O   UNL     1      -0.814   3.611  -8.608  1.00  0.00    -0.267 OA
ATOM     10  H   UNL     1       0.667   4.982  -6.171  1.00  0.00     0.164 HD
BRANCH   8  11
ATOM     11  C   UNL     1       0.542   6.098  -8.007  1.00  0.00     0.140 C 
BRANCH  11  12
ATOM     12  C   UNL     1      -0.302   7.253  -7.461  1.00  0.00     0.091 C 
ATOM     13  S   UNL     1      -0.462   7.498  -5.737  1.00  0.00    -0.106 SA
ATOM     14  C   UNL     1      -1.210   9.116  -6.023  1.00  0.00     0.113 C 
ATOM     15  N   UNL     1      -0.981   8.036  -8.239  1.00  0.00    -0.267 NA
ATOM     16  C   UNL     1      -1.790   8.996  -7.424  1.00  0.00     0.205 CG0
ATOM     17  G   UNL     1      -3.263   8.562  -7.368  1.00  0.00     0.000 G0
ENDBRANCH  11  12
BRANCH  11  18
ATOM     18  C   UNL     1       2.030   6.413  -8.304  1.00  0.00     0.015 C 
ATOM     19  C   UNL     1       2.946   5.562  -7.415  1.00  0.00     0.010 C 
BRANCH  18  20
ATOM     20  C   UNL     1       2.428   6.304  -9.791  1.00  0.00     0.002 C 
ATOM     21  C   UNL     1       1.291   5.806 -10.676  1.00  0.00     0.004 C 
ENDBRANCH  18  20
ENDBRANCH  11  18
ENDBRANCH   8  11
ENDBRANCH   3   7
ENDBRANCH   1   2
BRANCH   1  22
ATOM     22  N   UNL     1      -3.113   3.672  -3.248  1.00  0.00    -0.348 N 
ATOM     23  C   UNL     1      -4.457   3.900  -3.131  1.00  0.00     0.249 C 
ATOM     24  O   UNL     1      -5.278   3.008  -2.948  1.00  0.00    -0.272 OA
ATOM     25  H   UNL     1      -2.524   4.486  -3.415  1.00  0.00     0.163 HD
BRANCH  23  26
ATOM     26  C   UNL     1      -4.815   5.393  -3.193  1.00  0.00     0.238 C 
ATOM     27  N   UNL     1      -4.098   6.022  -4.337  1.00  0.00    -0.236 NA
ATOM     28  C   UNL     1      -6.292   5.613  -3.469  1.00  0.00     0.206 C 
ATOM     29  C   UNL     1      -5.055   6.297  -5.173  1.00  0.00     0.208 C 
ATOM     30  O   UNL     1      -6.335   6.000  -4.841  1.00  0.00    -0.474 OA
ATOM     31  C   UNL     1      -6.883   6.737  -2.628  1.00  0.00     0.056 C 
BRANCH  29  32
ATOM     32  C   UNL     1      -4.893   6.894  -6.568  1.00  0.00     0.171 C 
BRANCH  32  33
ATOM     33  N   UNL     1      -3.547   7.410  -6.760  1.00  0.00    -0.342 N 
ATOM     34  C   UNL     1      -3.293   8.603  -7.392  1.00  0.00     0.246 CG0
ATOM     35  O   UNL     1      -4.178   9.312  -7.865  1.00  0.00    -0.273 OA
ATOM     36  H   UNL     1      -2.735   6.880  -6.461  1.00  0.00     0.164 HD
ATOM     37  G   UNL     1      -1.808   8.997  -7.439  1.00  0.00     0.000 G0
ENDBRANCH  32  33
BRANCH  32  38
ATOM     38  C   UNL     1      -5.293   5.858  -7.652  1.00  0.00     0.017 C 
ATOM     39  C   UNL     1      -6.636   6.247  -8.282  1.00  0.00     0.010 C 
BRANCH  38  40
ATOM     40  C   UNL     1      -4.198   5.655  -8.724  1.00  0.00     0.002 C 
ATOM     41  C   UNL     1      -4.465   6.412 -10.018  1.00  0.00     0.004 C 
ENDBRANCH  38  40
ENDBRANCH  32  38
ENDBRANCH  29  32
ENDBRANCH  23  26
ENDBRANCH   1  22
TORSDOF 4
ENDMDL
MODEL 6
REMARK VINA RESULT:    -3.803      3.099      4.834
REMARK INTER + INTRA:          -8.439
REMARK INTER:                  -7.336
REMARK INTRA:                  -1.103
REMARK UNBOUND:                -1.968
REMARK SMILES CC[C@H](C)[C@@H]1NC(=O)[C@H]2CSC(=N2)[C@@H]([C@@H](C)CC)NC(=O)c2csc(n2)CNC(=O)[C@H]2N=C1O[C@@H]2C
REMARK SMILES IDX 27 1 25 2 22 3 26 4 23 5 24 6 20 7 19 8 21 9 14 11 12 12
REMARK SMILES IDX 11 13 10 14 13 15 9 16 15 18 16 19 17 20 18 21 28 22 29 23
REMARK SMILES IDX 30 24 31 26 32 27 35 28 33 29 34 30 36 31 5 32 6 33 7 34
REMARK SMILES IDX 8 35 3 38 4 39 2 40 1 41
REMARK H PARENT 19 10 28 25 6 36
REMARK Flexibility Score:   91.900
ROOT
ATOM      1  C   UNL     1       0.807   5.228  -1.239  1.00  0.00     0.183 C 
ENDROOT
BRANCH   1   2
ATOM      2  C   UNL     1       1.697   5.825  -2.291  1.00  0.00     0.113 A 
ATOM      3  C   UNL     1       2.431   6.416  -4.311  1.00  0.00     0.139 A 
ATOM      4  N   UNL     1       1.357   5.928  -3.563  1.00  0.00    -0.234 NA
ATOM      5  C   UNL     1       3.551   6.729  -3.566  1.00  0.00     0.101 A 
ATOM      6  S   UNL     1       3.273   6.386  -1.907  1.00  0.00    -0.125 S 
BRANCH   3   7
ATOM      7  C   UNL     1       2.323   6.522  -5.767  1.00  0.00     0.271 C 
ATOM      8  N   UNL     1       1.777   5.388  -6.317  1.00  0.00    -0.341 N 
ATOM      9  O   UNL     1       2.706   7.491  -6.410  1.00  0.00    -0.267 OA
ATOM     10  H   UNL     1       1.483   4.673  -5.653  1.00  0.00     0.164 HD
BRANCH   8  11
ATOM     11  C   UNL     1       1.714   5.121  -7.745  1.00  0.00     0.140 C 
BRANCH  11  12
ATOM     12  C   UNL     1       0.354   5.606  -8.255  1.00  0.00     0.091 C 
ATOM     13  S   UNL     1      -0.002   7.315  -8.343  1.00  0.00    -0.106 SA
ATOM     14  C   UNL     1      -1.486   6.969  -9.311  1.00  0.00     0.113 C 
ATOM     15  N   UNL     1      -0.596   4.782  -8.566  1.00  0.00    -0.267 NA
ATOM     16  C   UNL     1      -1.836   5.540  -8.926  1.00  0.00     0.205 CG0
ATOM     17  G   UNL     1      -2.846   5.521  -7.767  1.00  0.00     0.000 G0
ENDBRANCH  11  12
BRANCH  11  18
ATOM     18  C   UNL     1       2.959   5.606  -8.532  1.00  0.00     0.015 C 
ATOM     19  C   UNL     1       4.157   4.688  -8.257  1.00  0.00     0.010 C 
BRANCH  18  20
ATOM     20  C   UNL     1       2.730   5.798 -10.045  1.00  0.00     0.002 C 
ATOM     21  C   UNL     1       3.613   6.885 -10.647  1.00  0.00     0.004 C 
ENDBRANCH  18  20
ENDBRANCH  11  18
ENDBRANCH   8  11
ENDBRANCH   3   7
ENDBRANCH   1   2
BRANCH   1  22
ATOM     22  N   UNL     1      -0.095   4.313  -1.903  1.00  0.00    -0.348 N 
ATOM     23  C   UNL     1      -1.452   4.472  -1.978  1.00  0.00     0.249 C 
ATOM     24  O   UNL     1      -2.036   5.464  -1.557  1.00  0.00    -0.272 OA
ATOM     25  H   UNL     1       0.285   3.441  -2.270  1.00  0.00     0.163 HD
BRANCH  23  26
ATOM     26  C   UNL     1      -2.149   3.308  -2.698  1.00  0.00     0.238 C 
ATOM     27  N   UNL     1      -3.330   3.828  -3.442  1.00  0.00    -0.236 NA
ATOM     28  C   UNL     1      -1.254   2.672  -3.748  1.00  0.00     0.206 C 
ATOM     29  C   UNL     1      -2.979   3.697  -4.686  1.00  0.00     0.208 C 
ATOM     30  O   UNL     1      -1.769   3.163  -4.985  1.00  0.00    -0.474 OA
ATOM     31  C   UNL     1      -1.347   1.152  -3.752  1.00  0.00     0.056 C 
BRANCH  29  32
ATOM     32  C   UNL     1      -3.783   4.142  -5.905  1.00  0.00     0.171 C 
BRANCH  32  33
ATOM     33  N   UNL     1      -2.917   4.334  -7.057  1.00  0.00    -0.342 N 
ATOM     34  C   UNL     1      -2.865   5.516  -7.756  1.00  0.00     0.246 CG0
ATOM     35  O   UNL     1      -3.561   6.490  -7.479  1.00  0.00    -0.273 OA
ATOM     36  H   UNL     1      -2.342   3.578  -7.412  1.00  0.00     0.164 HD
ATOM     37  G   UNL     1      -1.843   5.532  -8.904  1.00  0.00     0.000 G0
ENDBRANCH  32  33
BRANCH  32  38
ATOM     38  C   UNL     1      -4.937   3.143  -6.187  1.00  0.00     0.017 C 
ATOM     39  C   UNL     1      -4.532   1.732  -5.744  1.00  0.00     0.010 C 
BRANCH  38  40
ATOM     40  C   UNL     1      -6.278   3.577  -5.552  1.00  0.00     0.002 C 
ATOM     41  C   UNL     1      -6.532   5.077  -5.627  1.00  0.00     0.004 C 
ENDBRANCH  38  40
ENDBRANCH  32  38
ENDBRANCH  29  32
ENDBRANCH  23  26
ENDBRANCH   1  22
TORSDOF 4
ENDMDL
MODEL 7
REMARK VINA RESULT:    -3.767     12.633     17.145
REMARK INTER + INTRA:          -8.378
REMARK INTER:                  -6.996
REMARK INTRA:                  -1.383
REMARK UNBOUND:                -1.968
REMARK SMILES CC[C@H](C)[C@@H]1NC(=O)[C@H]2CSC(=N2)[C@@H]([C@@H](C)CC)NC(=O)c2csc(n2)CNC(=O)[C@H]2N=C1O[C@@H]2C
REMARK SMILES IDX 27 1 25 2 22 3 26 4 23 5 24 6 20 7 19 8 21 9 14 11 12 12
REMARK SMILES IDX 11 13 10 14 13 15 9 16 15 18 16 19 17 20 18 21 28 22 29 23
REMARK SMILES IDX 30 24 31 26 32 27 35 28 33 29 34 30 36 31 5 32 6 33 7 34
REMARK SMILES IDX 8 35 3 38 4 39 2 40 1 41
REMARK H PARENT 19 10 28 25 6 36
REMARK Flexibility Score:   91.900
ROOT
ATOM      1  C   UNL     1     -10.653  -1.578  -0.042  1.00  0.00     0.183 C 
ENDROOT
BRANCH   1   2
ATOM      2  C   UNL     1     -11.502  -2.358   0.920  1.00  0.00     0.113 A 
ATOM      3  C   UNL     1     -12.081  -3.932   2.387  1.00  0.00     0.139 A 
ATOM      4  N   UNL     1     -11.035  -3.321   1.692  1.00  0.00    -0.234 NA
ATOM      5  C   UNL     1     -13.322  -3.370   2.163  1.00  0.00     0.101 A 
ATOM      6  S   UNL     1     -13.190  -2.072   1.048  1.00  0.00    -0.125 S 
BRANCH   3   7
ATOM      7  C   UNL     1     -11.816  -5.097   3.235  1.00  0.00     0.271 C 
ATOM      8  N   UNL     1     -11.751  -4.753   4.562  1.00  0.00    -0.341 N 
ATOM      9  O   UNL     1     -11.641  -6.229   2.800  1.00  0.00    -0.267 OA
ATOM     10  H   UNL     1     -11.941  -3.774   4.774  1.00  0.00     0.164 HD
BRANCH   8  11
ATOM     11  C   UNL     1     -11.320  -5.653   5.620  1.00  0.00     0.140 C 
BRANCH  11  12
ATOM     12  C   UNL     1     -10.229  -4.942   6.426  1.00  0.00     0.091 C 
ATOM     13  S   UNL     1     -10.579  -4.292   8.011  1.00  0.00    -0.106 SA
ATOM     14  C   UNL     1      -8.816  -4.036   8.308  1.00  0.00     0.113 C 
ATOM     15  N   UNL     1      -9.045  -4.732   5.943  1.00  0.00    -0.267 NA
ATOM     16  C   UNL     1      -8.232  -3.927   6.908  1.00  0.00     0.205 CG0
ATOM     17  G   UNL     1      -8.154  -2.456   6.466  1.00  0.00     0.000 G0
ENDBRANCH  11  12
BRANCH  11  18
ATOM     18  C   UNL     1     -12.485  -6.273   6.433  1.00  0.00     0.015 C 
ATOM     19  C   UNL     1     -13.745  -5.405   6.310  1.00  0.00     0.010 C 
BRANCH  18  20
ATOM     20  C   UNL     1     -12.785  -7.750   6.107  1.00  0.00     0.002 C 
ATOM     21  C   UNL     1     -11.908  -8.722   6.888  1.00  0.00     0.004 C 
ENDBRANCH  18  20
ENDBRANCH  11  18
ENDBRANCH   8  11
ENDBRANCH   3   7
ENDBRANCH   1   2
BRANCH   1  22
ATOM     22  N   UNL     1      -9.327  -1.486   0.527  1.00  0.00    -0.348 N 
ATOM     23  C   UNL     1      -8.581  -0.340   0.585  1.00  0.00     0.249 C 
ATOM     24  O   UNL     1      -9.003   0.755   0.231  1.00  0.00    -0.272 OA
ATOM     25  H   UNL     1      -8.871  -2.345   0.833  1.00  0.00     0.163 HD
BRANCH  23  26
ATOM     26  C   UNL     1      -7.190  -0.566   1.195  1.00  0.00     0.238 C 
ATOM     27  N   UNL     1      -7.134   0.071   2.540  1.00  0.00    -0.236 NA
ATOM     28  C   UNL     1      -6.905  -2.039   1.432  1.00  0.00     0.206 C 
ATOM     29  C   UNL     1      -7.076  -0.944   3.349  1.00  0.00     0.208 C 
ATOM     30  O   UNL     1      -7.061  -2.201   2.841  1.00  0.00    -0.474 OA
ATOM     31  C   UNL     1      -5.481  -2.427   1.053  1.00  0.00     0.056 C 
BRANCH  29  32
ATOM     32  C   UNL     1      -7.074  -0.887   4.874  1.00  0.00     0.171 C 
BRANCH  32  33
ATOM     33  N   UNL     1      -7.267  -2.211   5.444  1.00  0.00    -0.342 N 
ATOM     34  C   UNL     1      -8.133  -2.452   6.483  1.00  0.00     0.246 CG0
ATOM     35  O   UNL     1      -8.790  -1.568   7.027  1.00  0.00    -0.273 OA
ATOM     36  H   UNL     1      -6.733  -3.008   5.112  1.00  0.00     0.164 HD
ATOM     37  G   UNL     1      -8.235  -3.929   6.899  1.00  0.00     0.000 G0
ENDBRANCH  32  33
BRANCH  32  38
ATOM     38  C   UNL     1      -5.782  -0.200   5.390  1.00  0.00     0.017 C 
ATOM     39  C   UNL     1      -4.550  -0.833   4.731  1.00  0.00     0.010 C 
BRANCH  38  40
ATOM     40  C   UNL     1      -5.801   1.335   5.206  1.00  0.00     0.002 C 
ATOM     41  C   UNL     1      -7.203   1.930   5.200  1.00  0.00     0.004 C 
ENDBRANCH  38  40
ENDBRANCH  32  38
ENDBRANCH  29  32
ENDBRANCH  23  26
ENDBRANCH   1  22
TORSDOF 4
ENDMDL
MODEL 8
REMARK VINA RESULT:    -3.663     14.933     18.596
REMARK INTER + INTRA:          -8.201
REMARK INTER:                  -6.574
REMARK INTRA:                  -1.628
REMARK UNBOUND:                -1.968
REMARK SMILES CC[C@H](C)[C@@H]1NC(=O)[C@H]2CSC(=N2)[C@@H]([C@@H](C)CC)NC(=O)c2csc(n2)CNC(=O)[C@H]2N=C1O[C@@H]2C
REMARK SMILES IDX 27 1 25 2 22 3 26 4 23 5 24 6 20 7 19 8 21 9 14 11 12 12
REMARK SMILES IDX 11 13 10 14 13 15 9 16 15 18 16 19 17 20 18 21 28 22 29 23
REMARK SMILES IDX 30 24 31 26 32 27 35 28 33 29 34 30 36 31 5 32 6 33 7 34
REMARK SMILES IDX 8 35 3 38 4 39 2 40 1 41
REMARK H PARENT 19 10 28 25 6 36
REMARK Flexibility Score:   91.900
ROOT
ATOM      1  C   UNL     1       1.324 -11.012  -4.284  1.00  0.00     0.183 C 
ENDROOT
BRANCH   1   2
ATOM      2  C   UNL     1       0.942 -12.344  -4.864  1.00  0.00     0.113 A 
ATOM      3  C   UNL     1       0.356 -13.867  -6.381  1.00  0.00     0.139 A 
ATOM      4  N   UNL     1       0.836 -12.575  -6.159  1.00  0.00    -0.234 NA
ATOM      5  C   UNL     1       0.163 -14.611  -5.234  1.00  0.00     0.101 A 
ATOM      6  S   UNL     1       0.564 -13.677  -3.850  1.00  0.00    -0.125 S 
BRANCH   3   7
ATOM      7  C   UNL     1       0.062 -14.316  -7.744  1.00  0.00     0.271 C 
ATOM      8  N   UNL     1       1.170 -14.239  -8.552  1.00  0.00    -0.341 N 
ATOM      9  O   UNL     1      -1.046 -14.680  -8.117  1.00  0.00    -0.267 OA
ATOM     10  H   UNL     1       2.030 -13.939  -8.093  1.00  0.00     0.164 HD
BRANCH   8  11
ATOM     11  C   UNL     1       1.147 -14.437  -9.992  1.00  0.00     0.140 C 
BRANCH  11  12
ATOM     12  C   UNL     1       2.029 -13.359 -10.628  1.00  0.00     0.091 C 
ATOM     13  S   UNL     1       3.708 -13.686 -10.989  1.00  0.00    -0.106 SA
ATOM     14  C   UNL     1       3.809 -12.166 -11.958  1.00  0.00     0.113 C 
ATOM     15  N   UNL     1       1.594 -12.159 -10.852  1.00  0.00    -0.267 NA
ATOM     16  C   UNL     1       2.702 -11.300 -11.377  1.00  0.00     0.205 CG0
ATOM     17  G   UNL     1       3.252 -10.381 -10.274  1.00  0.00     0.000 G0
ENDBRANCH  11  12
BRANCH  11  18
ATOM     18  C   UNL     1       1.418 -15.898 -10.432  1.00  0.00     0.015 C 
ATOM     19  C   UNL     1       1.446 -16.828  -9.211  1.00  0.00     0.010 C 
BRANCH  18  20
ATOM     20  C   UNL     1       0.468 -16.430 -11.524  1.00  0.00     0.002 C 
ATOM     21  C   UNL     1      -0.969 -15.953 -11.346  1.00  0.00     0.004 C 
ENDBRANCH  18  20
ENDBRANCH  11  18
ENDBRANCH   8  11
ENDBRANCH   3   7
ENDBRANCH   1   2
BRANCH   1  22
ATOM     22  N   UNL     1       1.031 -10.006  -5.281  1.00  0.00    -0.348 N 
ATOM     23  C   UNL     1       0.902  -8.669  -5.024  1.00  0.00     0.249 C 
ATOM     24  O   UNL     1       1.110  -8.172  -3.923  1.00  0.00    -0.272 OA
ATOM     25  H   UNL     1       0.818 -10.312  -6.230  1.00  0.00     0.163 HD
BRANCH  23  26
ATOM     26  C   UNL     1       0.533  -7.855  -6.274  1.00  0.00     0.238 C 
ATOM     27  N   UNL     1       1.779  -7.444  -6.979  1.00  0.00    -0.236 NA
ATOM     28  C   UNL     1      -0.249  -8.682  -7.280  1.00  0.00     0.206 C 
ATOM     29  C   UNL     1       1.749  -8.148  -8.071  1.00  0.00     0.208 C 
ATOM     30  O   UNL     1       0.704  -8.980  -8.299  1.00  0.00    -0.474 OA
ATOM     31  C   UNL     1      -1.402  -7.907  -7.904  1.00  0.00     0.056 C 
BRANCH  29  32
ATOM     32  C   UNL     1       2.827  -8.187  -9.151  1.00  0.00     0.171 C 
BRANCH  32  33
ATOM     33  N   UNL     1       2.519  -9.192 -10.156  1.00  0.00    -0.342 N 
ATOM     34  C   UNL     1       3.238 -10.357 -10.284  1.00  0.00     0.246 CG0
ATOM     35  O   UNL     1       4.208 -10.626  -9.580  1.00  0.00    -0.273 OA
ATOM     36  H   UNL     1       1.774  -9.049 -10.830  1.00  0.00     0.164 HD
ATOM     37  G   UNL     1       2.714 -11.313 -11.368  1.00  0.00     0.000 G0
ENDBRANCH  32  33
BRANCH  32  38
ATOM     38  C   UNL     1       3.031  -6.776  -9.765  1.00  0.00     0.017 C 
ATOM     39  C   UNL     1       4.380  -6.708 -10.491  1.00  0.00     0.010 C 
BRANCH  38  40
ATOM     40  C   UNL     1       1.866  -6.345 -10.686  1.00  0.00     0.002 C 
ATOM     41  C   UNL     1       2.236  -5.228 -11.653  1.00  0.00     0.004 C 
ENDBRANCH  38  40
ENDBRANCH  32  38
ENDBRANCH  29  32
ENDBRANCH  23  26
ENDBRANCH   1  22
TORSDOF 4
ENDMDL
MODEL 9
REMARK VINA RESULT:    -3.589     11.380     15.964
REMARK INTER + INTRA:          -8.074
REMARK INTER:                  -5.955
REMARK INTRA:                  -2.119
REMARK UNBOUND:                -1.968
REMARK SMILES CC[C@H](C)[C@@H]1NC(=O)[C@H]2CSC(=N2)[C@@H]([C@@H](C)CC)NC(=O)c2csc(n2)CNC(=O)[C@H]2N=C1O[C@@H]2C
REMARK SMILES IDX 27 1 25 2 22 3 26 4 23 5 24 6 20 7 19 8 21 9 14 11 12 12
REMARK SMILES IDX 11 13 10 14 13 15 9 16 15 18 16 19 17 20 18 21 28 22 29 23
REMARK SMILES IDX 30 24 31 26 32 27 35 28 33 29 34 30 36 31 5 32 6 33 7 34
REMARK SMILES IDX 8 35 3 38 4 39 2 40 1 41
REMARK H PARENT 19 10 28 25 6 36
REMARK Flexibility Score:   91.900
ROOT
ATOM      1  C   UNL     1     -10.944  -0.366  -0.376  1.00  0.00     0.183 C 
ENDROOT
BRANCH   1   2
ATOM      2  C   UNL     1     -11.155  -1.819  -0.060  1.00  0.00     0.113 A 
ATOM      3  C   UNL     1     -11.523  -3.660   1.141  1.00  0.00     0.139 A 
ATOM      4  N   UNL     1     -11.520  -2.263   1.128  1.00  0.00    -0.234 NA
ATOM      5  C   UNL     1     -11.212  -4.243  -0.072  1.00  0.00     0.101 A 
ATOM      6  S   UNL     1     -10.886  -3.032  -1.244  1.00  0.00    -0.125 S 
BRANCH   3   7
ATOM      7  C   UNL     1     -11.800  -4.381   2.385  1.00  0.00     0.271 C 
ATOM      8  N   UNL     1     -11.601  -3.585   3.486  1.00  0.00    -0.341 N 
ATOM      9  O   UNL     1     -12.134  -5.558   2.429  1.00  0.00    -0.267 OA
ATOM     10  H   UNL     1     -11.346  -2.618   3.291  1.00  0.00     0.164 HD
BRANCH   8  11
ATOM     11  C   UNL     1     -11.615  -4.069   4.857  1.00  0.00     0.140 C 
BRANCH  11  12
ATOM     12  C   UNL     1     -10.331  -3.587   5.538  1.00  0.00     0.091 C 
ATOM     13  S   UNL     1     -10.311  -3.244   7.252  1.00  0.00    -0.106 SA
ATOM     14  C   UNL     1      -8.509  -3.141   7.223  1.00  0.00     0.113 C 
ATOM     15  N   UNL     1      -9.247  -3.346   4.870  1.00  0.00    -0.267 NA
ATOM     16  C   UNL     1      -8.196  -2.788   5.778  1.00  0.00     0.205 CG0
ATOM     17  G   UNL     1      -8.073  -1.266   5.603  1.00  0.00     0.000 G0
ENDBRANCH  11  12
BRANCH  11  18
ATOM     18  C   UNL     1     -12.941  -3.791   5.610  1.00  0.00     0.015 C 
ATOM     19  C   UNL     1     -13.538  -2.449   5.165  1.00  0.00     0.010 C 
BRANCH  18  20
ATOM     20  C   UNL     1     -13.982  -4.926   5.524  1.00  0.00     0.002 C 
ATOM     21  C   UNL     1     -13.365  -6.312   5.678  1.00  0.00     0.004 C 
ENDBRANCH  18  20
ENDBRANCH  11  18
ENDBRANCH   8  11
ENDBRANCH   3   7
ENDBRANCH   1   2
BRANCH   1  22
ATOM     22  N   UNL     1      -9.609  -0.019   0.059  1.00  0.00    -0.348 N 
ATOM     23  C   UNL     1      -9.134   1.260   0.172  1.00  0.00     0.249 C 
ATOM     24  O   UNL     1      -9.829   2.254  -0.005  1.00  0.00    -0.272 OA
ATOM     25  H   UNL     1      -8.939  -0.771   0.213  1.00  0.00     0.163 HD
BRANCH  23  26
ATOM     26  C   UNL     1      -7.661   1.311   0.604  1.00  0.00     0.238 C 
ATOM     27  N   UNL     1      -7.582   1.724   2.033  1.00  0.00    -0.236 NA
ATOM     28  C   UNL     1      -7.001  -0.056   0.538  1.00  0.00     0.206 C 
ATOM     29  C   UNL     1      -7.174   0.645   2.632  1.00  0.00     0.208 C 
ATOM     30  O   UNL     1      -6.925  -0.470   1.901  1.00  0.00    -0.474 OA
ATOM     31  C   UNL     1      -5.590   0.004  -0.031  1.00  0.00     0.056 C 
BRANCH  29  32
ATOM     32  C   UNL     1      -6.983   0.462   4.135  1.00  0.00     0.171 C 
BRANCH  32  33
ATOM     33  N   UNL     1      -7.222  -0.918   4.525  1.00  0.00    -0.342 N 
ATOM     34  C   UNL     1      -8.044  -1.260   5.573  1.00  0.00     0.246 CG0
ATOM     35  O   UNL     1      -8.617  -0.430   6.274  1.00  0.00    -0.273 OA
ATOM     36  H   UNL     1      -6.755  -1.685   4.053  1.00  0.00     0.164 HD
ATOM     37  G   UNL     1      -8.210  -2.774   5.784  1.00  0.00     0.000 G0
ENDBRANCH  32  33
BRANCH  32  38
ATOM     38  C   UNL     1      -5.582   0.968   4.570  1.00  0.00     0.017 C 
ATOM     39  C   UNL     1      -5.678   1.688   5.921  1.00  0.00     0.010 C 
BRANCH  38  40
ATOM     40  C   UNL     1      -4.517  -0.152   4.595  1.00  0.00     0.002 C 
ATOM     41  C   UNL     1      -3.835  -0.375   3.252  1.00  0.00     0.004 C 
ENDBRANCH  38  40
ENDBRANCH  32  38
ENDBRANCH  29  32
ENDBRANCH  23  26
ENDBRANCH   1  22
TORSDOF 4
ENDMDL
MODEL 10
REMARK VINA RESULT:    -3.331     16.354     19.749
REMARK INTER + INTRA:          -7.636
REMARK INTER:                  -6.271
REMARK INTRA:                  -1.366
REMARK UNBOUND:                -1.968
REMARK SMILES CC[C@H](C)[C@@H]1NC(=O)[C@H]2CSC(=N2)[C@@H]([C@@H](C)CC)NC(=O)c2csc(n2)CNC(=O)[C@H]2N=C1O[C@@H]2C
REMARK SMILES IDX 27 1 25 2 22 3 26 4 23 5 24 6 20 7 19 8 21 9 14 11 12 12
REMARK SMILES IDX 11 13 10 14 13 15 9 16 15 18 16 19 17 20 18 21 28 22 29 23
REMARK SMILES IDX 30 24 31 26 32 27 35 28 33 29 34 30 36 31 5 32 6 33 7 34
REMARK SMILES IDX 8 35 3 38 4 39 2 40 1 41
REMARK H PARENT 19 10 28 25 6 36
REMARK Flexibility Score:   91.900
ROOT
ATOM      1  C   UNL     1       1.560 -11.273  -6.823  1.00  0.00     0.183 C 
ENDROOT
BRANCH   1   2
ATOM      2  C   UNL     1       0.782 -11.237  -5.539  1.00  0.00     0.113 A 
ATOM      3  C   UNL     1      -0.755 -11.772  -4.016  1.00  0.00     0.139 A 
ATOM      4  N   UNL     1      -0.125 -12.138  -5.208  1.00  0.00    -0.234 NA
ATOM      5  C   UNL     1      -0.261 -10.619  -3.438  1.00  0.00     0.101 A 
ATOM      6  S   UNL     1       0.994  -9.963  -4.408  1.00  0.00    -0.125 S 
BRANCH   3   7
ATOM      7  C   UNL     1      -1.870 -12.571  -3.502  1.00  0.00     0.271 C 
ATOM      8  N   UNL     1      -2.009 -13.749  -4.192  1.00  0.00    -0.341 N 
ATOM      9  O   UNL     1      -2.603 -12.208  -2.590  1.00  0.00    -0.267 OA
ATOM     10  H   UNL     1      -1.308 -13.924  -4.911  1.00  0.00     0.164 HD
BRANCH   8  11
ATOM     11  C   UNL     1      -3.132 -14.659  -4.038  1.00  0.00     0.140 C 
BRANCH  11  12
ATOM     12  C   UNL     1      -4.067 -14.459  -5.234  1.00  0.00     0.091 C 
ATOM     13  S   UNL     1      -4.901 -15.820  -5.946  1.00  0.00    -0.106 SA
ATOM     14  C   UNL     1      -5.940 -14.698  -6.905  1.00  0.00     0.113 C 
ATOM     15  N   UNL     1      -4.217 -13.304  -5.803  1.00  0.00    -0.267 NA
ATOM     16  C   UNL     1      -5.101 -13.433  -7.003  1.00  0.00     0.205 CG0
ATOM     17  G   UNL     1      -4.272 -13.430  -8.298  1.00  0.00     0.000 G0
ENDBRANCH  11  12
BRANCH  11  18
ATOM     18  C   UNL     1      -2.721 -16.120  -3.722  1.00  0.00     0.015 C 
ATOM     19  C   UNL     1      -1.194 -16.235  -3.614  1.00  0.00     0.010 C 
BRANCH  18  20
ATOM     20  C   UNL     1      -3.420 -16.735  -2.492  1.00  0.00     0.002 C 
ATOM     21  C   UNL     1      -2.522 -17.687  -1.711  1.00  0.00     0.004 C 
ENDBRANCH  18  20
ENDBRANCH  11  18
ENDBRANCH   8  11
ENDBRANCH   3   7
ENDBRANCH   1   2
BRANCH   1  22
ATOM     22  N   UNL     1       0.682 -10.812  -7.875  1.00  0.00    -0.348 N 
ATOM     23  C   UNL     1       0.464 -11.471  -9.054  1.00  0.00     0.249 C 
ATOM     24  O   UNL     1       0.934 -12.576  -9.303  1.00  0.00    -0.272 OA
ATOM     25  H   UNL     1       0.255  -9.891  -7.780  1.00  0.00     0.163 HD
BRANCH  23  26
ATOM     26  C   UNL     1      -0.477 -10.708  -9.998  1.00  0.00     0.238 C 
ATOM     27  N   UNL     1      -1.394 -11.674 -10.663  1.00  0.00    -0.236 NA
ATOM     28  C   UNL     1      -1.377  -9.743  -9.246  1.00  0.00     0.206 C 
ATOM     29  C   UNL     1      -2.550 -11.396 -10.138  1.00  0.00     0.208 C 
ATOM     30  O   UNL     1      -2.646 -10.396  -9.228  1.00  0.00    -0.474 OA
ATOM     31  C   UNL     1      -1.528  -8.407  -9.960  1.00  0.00     0.056 C 
BRANCH  29  32
ATOM     32  C   UNL     1      -3.862 -12.131 -10.399  1.00  0.00     0.171 C 
BRANCH  32  33
ATOM     33  N   UNL     1      -4.579 -12.371  -9.157  1.00  0.00    -0.342 N 
ATOM     34  C   UNL     1      -4.264 -13.405  -8.308  1.00  0.00     0.246 CG0
ATOM     35  O   UNL     1      -3.374 -14.218  -8.543  1.00  0.00    -0.273 OA
ATOM     36  H   UNL     1      -5.372 -11.797  -8.890  1.00  0.00     0.164 HD
ATOM     37  G   UNL     1      -5.103 -13.449  -7.020  1.00  0.00     0.000 G0
ENDBRANCH  32  33
BRANCH  32  38
ATOM     38  C   UNL     1      -4.718 -11.360 -11.440  1.00  0.00     0.017 C 
ATOM     39  C   UNL     1      -5.906 -10.683 -10.747  1.00  0.00     0.010 C 
BRANCH  38  40
ATOM     40  C   UNL     1      -3.892 -10.351 -12.270  1.00  0.00     0.002 C 
ATOM     41  C   UNL     1      -4.211  -8.896 -11.953  1.00  0.00     0.004 C 
ENDBRANCH  38  40
ENDBRANCH  32  38
ENDBRANCH  29  32
ENDBRANCH  23  26
ENDBRANCH   1  22
TORSDOF 4
ENDMDL
