MODEL 1
REMARK VINA RESULT:    -6.281      0.000      0.000
REMARK INTER + INTRA:         -13.688
REMARK INTER:                 -11.238
REMARK INTRA:                  -2.451
REMARK UNBOUND:                -2.451
REMARK SMILES CC[C@H](C)[C@H]1NC(=O)c2coc(n2)[C@H](C(C)C)NC(=O)[C@H]([C@@H](C)O)NC(=O)[C@H](C)NC(=O)c2csc1n2
REMARK SMILES IDX 11 1 13 2 12 3 9 4 10 5 7 6 6 7 8 8 5 10 36 11 35 12 34 13
REMARK SMILES IDX 37 14 33 15 31 16 32 17 30 18 28 20 29 21 3 23 4 24 2 25
REMARK SMILES IDX 1 26 14 27 18 28 19 29 20 30 21 32 25 33 26 34 27 35 22 38
REMARK SMILES IDX 23 39 24 40 15 42 16 43 17 44
REMARK H PARENT 6 9 30 19 18 31 25 36 24 41
REMARK Flexibility Score:   94.900
ROOT
ATOM      1  O   UNL     1      -3.995  -1.956   6.421  1.00  0.00    -0.446 OA
ATOM      2  N   UNL     1      -2.884  -3.701   7.317  1.00  0.00    -0.207 NA
ATOM      3  C   UNL     1      -3.744  -3.302   6.396  1.00  0.00     0.217 A 
ATOM      4  C   UNL     1      -2.527  -2.536   7.974  1.00  0.00     0.167 A 
ATOM      5  C   UNL     1      -3.206  -1.477   7.423  1.00  0.00     0.231 A 
ENDROOT
BRANCH   4   6
ATOM      6  C   UNL     1      -1.596  -2.508   9.089  1.00  0.00     0.273 C 
ATOM      7  N   UNL     1      -0.784  -3.614   9.103  1.00  0.00    -0.341 N 
ATOM      8  O   UNL     1      -1.566  -1.613   9.925  1.00  0.00    -0.267 OA
ATOM      9  H   UNL     1      -0.986  -4.318   8.399  1.00  0.00     0.164 HD
BRANCH   7  10
ATOM     10  C   UNL     1       0.059  -3.963  10.229  1.00  0.00     0.145 C 
BRANCH  10  11
ATOM     11  C   UNL     1      -0.546  -5.191  10.894  1.00  0.00     0.116 A 
ATOM     12  S   UNL     1       0.460  -6.254  11.804  1.00  0.00    -0.124 S 
ATOM     13  C   UNL     1      -0.905  -7.213  12.178  1.00  0.00     0.101 A 
ATOM     14  N   UNL     1      -1.826  -5.523  10.849  1.00  0.00    -0.234 NA
ATOM     15  C   UNL     1      -2.042  -6.680  11.602  1.00  0.00     0.139 A 
BRANCH  15  16
ATOM     16  C   UNL     1      -3.379  -7.257  11.760  1.00  0.00     0.271 C 
ATOM     17  O   UNL     1      -3.722  -7.876  12.761  1.00  0.00    -0.267 OA
ATOM     18  N   UNL     1      -4.206  -7.035  10.679  1.00  0.00    -0.339 N 
ATOM     19  H   UNL     1      -3.770  -6.606   9.867  1.00  0.00     0.164 HD
BRANCH  18  20
ATOM     20  C   UNL     1      -5.551  -7.593  10.630  1.00  0.00     0.168 CG0
ATOM     21  C   UNL     1      -6.579  -6.618  11.208  1.00  0.00     0.041 C 
ATOM     22  G   UNL     1      -5.993  -7.951   9.203  1.00  0.00     0.000 G0
ENDBRANCH  18  20
ENDBRANCH  15  16
ENDBRANCH  10  11
BRANCH  10  23
ATOM     23  C   UNL     1       1.536  -4.186   9.809  1.00  0.00     0.015 C 
ATOM     24  C   UNL     1       1.699  -4.539   8.321  1.00  0.00     0.010 C 
BRANCH  23  25
ATOM     25  C   UNL     1       2.440  -2.975  10.132  1.00  0.00     0.002 C 
ATOM     26  C   UNL     1       3.744  -3.343  10.826  1.00  0.00     0.004 C 
ENDBRANCH  23  25
ENDBRANCH  10  23
ENDBRANCH   7  10
ENDBRANCH   4   6
BRANCH   3  27
ATOM     27  C   UNL     1      -4.476  -4.164   5.405  1.00  0.00     0.171 C 
BRANCH  27  28
ATOM     28  N   UNL     1      -5.370  -5.042   6.153  1.00  0.00    -0.342 N 
ATOM     29  C   UNL     1      -5.471  -6.393   5.905  1.00  0.00     0.245 C 
ATOM     30  O   UNL     1      -4.803  -6.963   5.043  1.00  0.00    -0.273 OA
ATOM     31  H   UNL     1      -5.870  -4.663   6.957  1.00  0.00     0.164 HD
BRANCH  29  32
ATOM     32  C   UNL     1      -6.372  -7.178   6.882  1.00  0.00     0.200 C 
BRANCH  32  33
ATOM     33  N   UNL     1      -5.851  -6.989   8.241  1.00  0.00    -0.340 N 
ATOM     34  C   UNL     1      -5.993  -7.966   9.204  1.00  0.00     0.243 CG0
ATOM     35  O   UNL     1      -6.613  -9.005   8.989  1.00  0.00    -0.273 OA
ATOM     36  H   UNL     1      -5.361  -6.129   8.458  1.00  0.00     0.164 HD
ATOM     37  G   UNL     1      -5.525  -7.582  10.617  1.00  0.00     0.000 G0
ENDBRANCH  32  33
BRANCH  32  38
ATOM     38  C   UNL     1      -7.855  -6.762   6.741  1.00  0.00     0.143 C 
ATOM     39  C   UNL     1      -8.300  -5.696   7.735  1.00  0.00     0.041 C 
BRANCH  38  40
ATOM     40  O   UNL     1      -8.110  -6.290   5.404  1.00  0.00    -0.391 OA
ATOM     41  H   UNL     1      -8.801  -5.605   5.477  1.00  0.00     0.211 HD
ENDBRANCH  38  40
ENDBRANCH  32  38
ENDBRANCH  29  32
ENDBRANCH  27  28
BRANCH  27  42
ATOM     42  C   UNL     1      -5.216  -3.450   4.248  1.00  0.00     0.015 C 
ATOM     43  C   UNL     1      -5.138  -4.146   2.884  1.00  0.00     0.010 C 
ATOM     44  C   UNL     1      -6.674  -3.142   4.604  1.00  0.00     0.010 C 
ENDBRANCH  27  42
ENDBRANCH   3  27
TORSDOF 5
ENDMDL
MODEL 2
REMARK VINA RESULT:    -6.016      1.734      2.005
REMARK INTER + INTRA:         -13.214
REMARK INTER:                 -11.142
REMARK INTRA:                  -2.072
REMARK UNBOUND:                -2.451
REMARK SMILES CC[C@H](C)[C@H]1NC(=O)c2coc(n2)[C@H](C(C)C)NC(=O)[C@H]([C@@H](C)O)NC(=O)[C@H](C)NC(=O)c2csc1n2
REMARK SMILES IDX 11 1 13 2 12 3 9 4 10 5 7 6 6 7 8 8 5 10 36 11 35 12 34 13
REMARK SMILES IDX 37 14 33 15 31 16 32 17 30 18 28 20 29 21 3 23 4 24 2 25
REMARK SMILES IDX 1 26 14 27 18 28 19 29 20 30 21 32 25 33 26 34 27 35 22 38
REMARK SMILES IDX 23 39 24 40 15 42 16 43 17 44
REMARK H PARENT 6 9 30 19 18 31 25 36 24 41
REMARK Flexibility Score:   94.900
ROOT
ATOM      1  O   UNL     1      -2.143  -4.960   5.054  1.00  0.00    -0.446 OA
ATOM      2  N   UNL     1      -3.325  -4.315   6.861  1.00  0.00    -0.207 NA
ATOM      3  C   UNL     1      -3.374  -4.770   5.622  1.00  0.00     0.217 A 
ATOM      4  C   UNL     1      -1.972  -4.224   7.136  1.00  0.00     0.167 A 
ATOM      5  C   UNL     1      -1.257  -4.618   6.031  1.00  0.00     0.231 A 
ENDROOT
BRANCH   4   6
ATOM      6  C   UNL     1      -1.450  -3.745   8.404  1.00  0.00     0.273 C 
ATOM      7  N   UNL     1      -1.366  -4.751   9.333  1.00  0.00    -0.341 N 
ATOM      8  O   UNL     1      -1.149  -2.576   8.615  1.00  0.00    -0.267 OA
ATOM      9  H   UNL     1      -1.740  -5.650   9.043  1.00  0.00     0.164 HD
BRANCH   7  10
ATOM     10  C   UNL     1      -1.117  -4.510  10.741  1.00  0.00     0.145 C 
BRANCH  10  11
ATOM     11  C   UNL     1      -2.163  -5.282  11.532  1.00  0.00     0.116 A 
ATOM     12  S   UNL     1      -2.407  -4.925  13.201  1.00  0.00    -0.124 S 
ATOM     13  C   UNL     1      -3.649  -6.099  13.262  1.00  0.00     0.101 A 
ATOM     14  N   UNL     1      -2.944  -6.228  11.036  1.00  0.00    -0.234 NA
ATOM     15  C   UNL     1      -3.815  -6.691  12.025  1.00  0.00     0.139 A 
BRANCH  15  16
ATOM     16  C   UNL     1      -4.820  -7.719  11.745  1.00  0.00     0.271 C 
ATOM     17  O   UNL     1      -4.736  -8.865  12.170  1.00  0.00    -0.267 OA
ATOM     18  N   UNL     1      -5.863  -7.269  10.963  1.00  0.00    -0.339 N 
ATOM     19  H   UNL     1      -5.762  -6.332  10.582  1.00  0.00     0.164 HD
BRANCH  18  20
ATOM     20  C   UNL     1      -6.922  -8.170  10.527  1.00  0.00     0.168 CG0
ATOM     21  C   UNL     1      -8.028  -8.279  11.579  1.00  0.00     0.041 C 
ATOM     22  G   UNL     1      -7.572  -7.728   9.206  1.00  0.00     0.000 G0
ENDBRANCH  18  20
ENDBRANCH  15  16
ENDBRANCH  10  11
BRANCH  10  23
ATOM     23  C   UNL     1       0.331  -4.886  11.152  1.00  0.00     0.015 C 
ATOM     24  C   UNL     1       0.913  -6.053  10.336  1.00  0.00     0.010 C 
BRANCH  23  25
ATOM     25  C   UNL     1       1.306  -3.690  11.068  1.00  0.00     0.002 C 
ATOM     26  C   UNL     1       0.836  -2.455  11.825  1.00  0.00     0.004 C 
ENDBRANCH  23  25
ENDBRANCH  10  23
ENDBRANCH   7  10
ENDBRANCH   4   6
BRANCH   3  27
ATOM     27  C   UNL     1      -4.607  -5.035   4.801  1.00  0.00     0.171 C 
BRANCH  27  28
ATOM     28  N   UNL     1      -5.730  -5.188   5.719  1.00  0.00    -0.342 N 
ATOM     29  C   UNL     1      -6.272  -6.413   6.038  1.00  0.00     0.245 C 
ATOM     30  O   UNL     1      -5.839  -7.471   5.585  1.00  0.00    -0.273 OA
ATOM     31  H   UNL     1      -6.068  -4.368   6.222  1.00  0.00     0.164 HD
BRANCH  29  32
ATOM     32  C   UNL     1      -7.369  -6.386   7.124  1.00  0.00     0.200 C 
BRANCH  32  33
ATOM     33  N   UNL     1      -6.811  -6.957   8.356  1.00  0.00    -0.340 N 
ATOM     34  C   UNL     1      -7.580  -7.735   9.197  1.00  0.00     0.243 CG0
ATOM     35  O   UNL     1      -8.775  -7.932   8.987  1.00  0.00    -0.273 OA
ATOM     36  H   UNL     1      -5.836  -6.786   8.572  1.00  0.00     0.164 HD
ATOM     37  G   UNL     1      -6.911  -8.152  10.517  1.00  0.00     0.000 G0
ENDBRANCH  32  33
BRANCH  32  38
ATOM     38  C   UNL     1      -7.934  -4.960   7.322  1.00  0.00     0.143 C 
ATOM     39  C   UNL     1      -8.669  -4.408   6.106  1.00  0.00     0.041 C 
BRANCH  38  40
ATOM     40  O   UNL     1      -8.822  -4.935   8.456  1.00  0.00    -0.391 OA
ATOM     41  H   UNL     1      -9.346  -4.115   8.383  1.00  0.00     0.211 HD
ENDBRANCH  38  40
ENDBRANCH  32  38
ENDBRANCH  29  32
ENDBRANCH  27  28
BRANCH  27  42
ATOM     42  C   UNL     1      -4.933  -4.036   3.663  1.00  0.00     0.015 C 
ATOM     43  C   UNL     1      -5.799  -4.591   2.526  1.00  0.00     0.010 C 
ATOM     44  C   UNL     1      -5.532  -2.732   4.200  1.00  0.00     0.010 C 
ENDBRANCH  27  42
ENDBRANCH   3  27
TORSDOF 5
ENDMDL
MODEL 3
REMARK VINA RESULT:    -5.728      1.747      2.074
REMARK INTER + INTRA:         -12.699
REMARK INTER:                 -10.368
REMARK INTRA:                  -2.331
REMARK UNBOUND:                -2.451
REMARK SMILES CC[C@H](C)[C@H]1NC(=O)c2coc(n2)[C@H](C(C)C)NC(=O)[C@H]([C@@H](C)O)NC(=O)[C@H](C)NC(=O)c2csc1n2
REMARK SMILES IDX 11 1 13 2 12 3 9 4 10 5 7 6 6 7 8 8 5 10 36 11 35 12 34 13
REMARK SMILES IDX 37 14 33 15 31 16 32 17 30 18 28 20 29 21 3 23 4 24 2 25
REMARK SMILES IDX 1 26 14 27 18 28 19 29 20 30 21 32 25 33 26 34 27 35 22 38
REMARK SMILES IDX 23 39 24 40 15 42 16 43 17 44
REMARK H PARENT 6 9 30 19 18 31 25 36 24 41
REMARK Flexibility Score:   94.900
ROOT
ATOM      1  O   UNL     1      -4.573  -0.733   9.007  1.00  0.00    -0.446 OA
ATOM      2  N   UNL     1      -3.082  -2.343   8.489  1.00  0.00    -0.207 NA
ATOM      3  C   UNL     1      -4.087  -1.599   8.063  1.00  0.00     0.217 A 
ATOM      4  C   UNL     1      -2.876  -1.920   9.791  1.00  0.00     0.167 A 
ATOM      5  C   UNL     1      -3.786  -0.939  10.100  1.00  0.00     0.231 A 
ENDROOT
BRANCH   4   6
ATOM      6  C   UNL     1      -1.858  -2.489  10.658  1.00  0.00     0.273 C 
ATOM      7  N   UNL     1      -1.103  -3.432  10.008  1.00  0.00    -0.341 N 
ATOM      8  O   UNL     1      -1.717  -2.175  11.834  1.00  0.00    -0.267 OA
ATOM      9  H   UNL     1      -1.397  -3.655   9.060  1.00  0.00     0.164 HD
BRANCH   7  10
ATOM     10  C   UNL     1      -0.191  -4.327  10.693  1.00  0.00     0.145 C 
BRANCH  10  11
ATOM     11  C   UNL     1      -0.958  -5.598  11.028  1.00  0.00     0.116 A 
ATOM     12  S   UNL     1      -0.373  -6.648  12.263  1.00  0.00    -0.124 S 
ATOM     13  C   UNL     1      -1.720  -7.672  12.019  1.00  0.00     0.101 A 
ATOM     14  N   UNL     1      -2.083  -5.980  10.447  1.00  0.00    -0.234 NA
ATOM     15  C   UNL     1      -2.537  -7.168  11.026  1.00  0.00     0.139 A 
BRANCH  15  16
ATOM     16  C   UNL     1      -3.787  -7.803  10.602  1.00  0.00     0.271 C 
ATOM     17  O   UNL     1      -4.192  -8.858  11.078  1.00  0.00    -0.267 OA
ATOM     18  N   UNL     1      -4.456  -7.100   9.623  1.00  0.00    -0.339 N 
ATOM     19  H   UNL     1      -3.963  -6.301   9.233  1.00  0.00     0.164 HD
BRANCH  18  20
ATOM     20  C   UNL     1      -5.684  -7.614   9.031  1.00  0.00     0.168 CG0
ATOM     21  C   UNL     1      -6.914  -7.168   9.824  1.00  0.00     0.041 C 
ATOM     22  G   UNL     1      -5.876  -7.164   7.574  1.00  0.00     0.000 G0
ENDBRANCH  18  20
ENDBRANCH  15  16
ENDBRANCH  10  11
BRANCH  10  23
ATOM     23  C   UNL     1       1.088  -4.609   9.861  1.00  0.00     0.015 C 
ATOM     24  C   UNL     1       0.901  -4.365   8.354  1.00  0.00     0.010 C 
BRANCH  23  25
ATOM     25  C   UNL     1       2.309  -3.796  10.346  1.00  0.00     0.002 C 
ATOM     26  C   UNL     1       1.945  -2.550  11.141  1.00  0.00     0.004 C 
ENDBRANCH  23  25
ENDBRANCH  10  23
ENDBRANCH   7  10
ENDBRANCH   4   6
BRANCH   3  27
ATOM     27  C   UNL     1      -4.749  -1.656   6.714  1.00  0.00     0.171 C 
BRANCH  27  28
ATOM     28  N   UNL     1      -5.558  -2.868   6.664  1.00  0.00    -0.342 N 
ATOM     29  C   UNL     1      -5.221  -3.960   5.895  1.00  0.00     0.245 C 
ATOM     30  O   UNL     1      -4.204  -4.000   5.206  1.00  0.00    -0.273 OA
ATOM     31  H   UNL     1      -6.354  -2.953   7.295  1.00  0.00     0.164 HD
BRANCH  29  32
ATOM     32  C   UNL     1      -6.129  -5.196   6.072  1.00  0.00     0.200 C 
BRANCH  32  33
ATOM     33  N   UNL     1      -5.851  -5.788   7.386  1.00  0.00    -0.340 N 
ATOM     34  C   UNL     1      -5.869  -7.155   7.574  1.00  0.00     0.243 CG0
ATOM     35  O   UNL     1      -6.180  -7.930   6.672  1.00  0.00    -0.273 OA
ATOM     36  H   UNL     1      -5.621  -5.172   8.157  1.00  0.00     0.164 HD
ATOM     37  G   UNL     1      -5.697  -7.630   9.026  1.00  0.00     0.000 G0
ENDBRANCH  32  33
BRANCH  32  38
ATOM     38  C   UNL     1      -7.620  -4.835   5.877  1.00  0.00     0.143 C 
ATOM     39  C   UNL     1      -8.419  -4.770   7.173  1.00  0.00     0.041 C 
BRANCH  38  40
ATOM     40  O   UNL     1      -7.736  -3.572   5.193  1.00  0.00    -0.391 OA
ATOM     41  H   UNL     1      -6.872  -3.402   4.772  1.00  0.00     0.211 HD
ENDBRANCH  38  40
ENDBRANCH  32  38
ENDBRANCH  29  32
ENDBRANCH  27  28
BRANCH  27  42
ATOM     42  C   UNL     1      -5.555  -0.413   6.262  1.00  0.00     0.015 C 
ATOM     43  C   UNL     1      -5.522  -0.114   4.759  1.00  0.00     0.010 C 
ATOM     44  C   UNL     1      -7.003  -0.457   6.762  1.00  0.00     0.010 C 
ENDBRANCH  27  42
ENDBRANCH   3  27
TORSDOF 5
ENDMDL
MODEL 4
REMARK VINA RESULT:    -5.697      3.845      6.539
REMARK INTER + INTRA:         -12.644
REMARK INTER:                 -10.433
REMARK INTRA:                  -2.211
REMARK UNBOUND:                -2.451
REMARK SMILES CC[C@H](C)[C@H]1NC(=O)c2coc(n2)[C@H](C(C)C)NC(=O)[C@H]([C@@H](C)O)NC(=O)[C@H](C)NC(=O)c2csc1n2
REMARK SMILES IDX 11 1 13 2 12 3 9 4 10 5 7 6 6 7 8 8 5 10 36 11 35 12 34 13
REMARK SMILES IDX 37 14 33 15 31 16 32 17 30 18 28 20 29 21 3 23 4 24 2 25
REMARK SMILES IDX 1 26 14 27 18 28 19 29 20 30 21 32 25 33 26 34 27 35 22 38
REMARK SMILES IDX 23 39 24 40 15 42 16 43 17 44
REMARK H PARENT 6 9 30 19 18 31 25 36 24 41
REMARK Flexibility Score:   94.900
ROOT
ATOM      1  O   UNL     1      -5.977  -0.436   7.786  1.00  0.00    -0.446 OA
ATOM      2  N   UNL     1      -7.352  -2.212   7.599  1.00  0.00    -0.207 NA
ATOM      3  C   UNL     1      -6.310  -1.572   7.098  1.00  0.00     0.217 A 
ATOM      4  C   UNL     1      -7.711  -1.462   8.705  1.00  0.00     0.167 A 
ATOM      5  C   UNL     1      -6.869  -0.383   8.814  1.00  0.00     0.231 A 
ENDROOT
BRANCH   4   6
ATOM      6  C   UNL     1      -8.835  -1.799   9.561  1.00  0.00     0.273 C 
ATOM      7  N   UNL     1      -8.424  -2.236  10.795  1.00  0.00    -0.341 N 
ATOM      8  O   UNL     1     -10.005  -1.722   9.205  1.00  0.00    -0.267 OA
ATOM      9  H   UNL     1      -7.420  -2.335  10.915  1.00  0.00     0.164 HD
BRANCH   7  10
ATOM     10  C   UNL     1      -9.315  -2.866  11.750  1.00  0.00     0.145 C 
BRANCH  10  11
ATOM     11  C   UNL     1      -9.224  -4.371  11.541  1.00  0.00     0.116 A 
ATOM     12  S   UNL     1     -10.399  -5.406  12.260  1.00  0.00    -0.124 S 
ATOM     13  C   UNL     1      -9.634  -6.758  11.547  1.00  0.00     0.101 A 
ATOM     14  N   UNL     1      -8.298  -4.981  10.820  1.00  0.00    -0.234 NA
ATOM     15  C   UNL     1      -8.539  -6.357  10.805  1.00  0.00     0.139 A 
BRANCH  15  16
ATOM     16  C   UNL     1      -7.689  -7.280  10.049  1.00  0.00     0.271 C 
ATOM     17  O   UNL     1      -7.681  -8.490  10.247  1.00  0.00    -0.267 OA
ATOM     18  N   UNL     1      -6.907  -6.656   9.101  1.00  0.00    -0.339 N 
ATOM     19  H   UNL     1      -6.922  -5.639   9.111  1.00  0.00     0.164 HD
BRANCH  18  20
ATOM     20  C   UNL     1      -5.949  -7.406   8.300  1.00  0.00     0.168 CG0
ATOM     21  C   UNL     1      -6.501  -7.700   6.903  1.00  0.00     0.041 C 
ATOM     22  G   UNL     1      -4.610  -6.670   8.131  1.00  0.00     0.000 G0
ENDBRANCH  18  20
ENDBRANCH  15  16
ENDBRANCH  10  11
BRANCH  10  23
ATOM     23  C   UNL     1      -8.997  -2.451  13.210  1.00  0.00     0.015 C 
ATOM     24  C   UNL     1      -7.495  -2.248  13.472  1.00  0.00     0.010 C 
BRANCH  23  25
ATOM     25  C   UNL     1      -9.752  -1.175  13.648  1.00  0.00     0.002 C 
ATOM     26  C   UNL     1     -11.021  -0.905  12.852  1.00  0.00     0.004 C 
ENDBRANCH  23  25
ENDBRANCH  10  23
ENDBRANCH   7  10
ENDBRANCH   4   6
BRANCH   3  27
ATOM     27  C   UNL     1      -5.530  -1.936   5.865  1.00  0.00     0.171 C 
BRANCH  27  28
ATOM     28  N   UNL     1      -4.979  -3.272   6.063  1.00  0.00    -0.342 N 
ATOM     29  C   UNL     1      -3.716  -3.493   6.564  1.00  0.00     0.245 C 
ATOM     30  O   UNL     1      -2.964  -2.579   6.898  1.00  0.00    -0.273 OA
ATOM     31  H   UNL     1      -5.585  -4.079   5.917  1.00  0.00     0.164 HD
BRANCH  29  32
ATOM     32  C   UNL     1      -3.358  -4.971   6.824  1.00  0.00     0.200 C 
BRANCH  32  33
ATOM     33  N   UNL     1      -4.594  -5.695   7.146  1.00  0.00    -0.340 N 
ATOM     34  C   UNL     1      -4.626  -6.650   8.140  1.00  0.00     0.243 CG0
ATOM     35  O   UNL     1      -3.614  -6.983   8.755  1.00  0.00    -0.273 OA
ATOM     36  H   UNL     1      -5.438  -5.464   6.635  1.00  0.00     0.164 HD
ATOM     37  G   UNL     1      -5.946  -7.425   8.278  1.00  0.00     0.000 G0
ENDBRANCH  32  33
BRANCH  32  38
ATOM     38  C   UNL     1      -2.594  -5.586   5.628  1.00  0.00     0.143 C 
ATOM     39  C   UNL     1      -1.100  -5.280   5.620  1.00  0.00     0.041 C 
BRANCH  38  40
ATOM     40  O   UNL     1      -2.777  -7.015   5.608  1.00  0.00    -0.391 OA
ATOM     41  H   UNL     1      -1.903  -7.406   5.423  1.00  0.00     0.211 HD
ENDBRANCH  38  40
ENDBRANCH  32  38
ENDBRANCH  29  32
ENDBRANCH  27  28
BRANCH  27  42
ATOM     42  C   UNL     1      -6.254  -1.815   4.501  1.00  0.00     0.015 C 
ATOM     43  C   UNL     1      -6.288  -0.408   3.893  1.00  0.00     0.010 C 
ATOM     44  C   UNL     1      -5.721  -2.823   3.478  1.00  0.00     0.010 C 
ENDBRANCH  27  42
ENDBRANCH   3  27
TORSDOF 5
ENDMDL
MODEL 5
REMARK VINA RESULT:    -5.658      3.588      4.529
REMARK INTER + INTRA:         -12.575
REMARK INTER:                  -9.976
REMARK INTRA:                  -2.599
REMARK UNBOUND:                -2.451
REMARK SMILES CC[C@H](C)[C@H]1NC(=O)c2coc(n2)[C@H](C(C)C)NC(=O)[C@H]([C@@H](C)O)NC(=O)[C@H](C)NC(=O)c2csc1n2
REMARK SMILES IDX 11 1 13 2 12 3 9 4 10 5 7 6 6 7 8 8 5 10 36 11 35 12 34 13
REMARK SMILES IDX 37 14 33 15 31 16 32 17 30 18 28 20 29 21 3 23 4 24 2 25
REMARK SMILES IDX 1 26 14 27 18 28 19 29 20 30 21 32 25 33 26 34 27 35 22 38
REMARK SMILES IDX 23 39 24 40 15 42 16 43 17 44
REMARK H PARENT 6 9 30 19 18 31 25 36 24 41
REMARK Flexibility Score:   94.900
ROOT
ATOM      1  O   UNL     1      -5.344   0.130  10.051  1.00  0.00    -0.446 OA
ATOM      2  N   UNL     1      -5.249  -2.088   9.663  1.00  0.00    -0.207 NA
ATOM      3  C   UNL     1      -5.994  -0.998   9.627  1.00  0.00     0.217 A 
ATOM      4  C   UNL     1      -4.019  -1.643  10.115  1.00  0.00     0.167 A 
ATOM      5  C   UNL     1      -4.083  -0.291  10.349  1.00  0.00     0.231 A 
ENDROOT
BRANCH   4   6
ATOM      6  C   UNL     1      -2.883  -2.525  10.322  1.00  0.00     0.273 C 
ATOM      7  N   UNL     1      -2.835  -3.524   9.382  1.00  0.00    -0.341 N 
ATOM      8  O   UNL     1      -2.086  -2.398  11.243  1.00  0.00    -0.267 OA
ATOM      9  H   UNL     1      -3.617  -3.557   8.734  1.00  0.00     0.164 HD
BRANCH   7  10
ATOM     10  C   UNL     1      -1.961  -4.675   9.494  1.00  0.00     0.145 C 
BRANCH  10  11
ATOM     11  C   UNL     1      -2.805  -5.848   9.971  1.00  0.00     0.116 A 
ATOM     12  S   UNL     1      -2.195  -6.896  11.197  1.00  0.00    -0.124 S 
ATOM     13  C   UNL     1      -3.650  -7.792  11.143  1.00  0.00     0.101 A 
ATOM     14  N   UNL     1      -4.015  -6.143   9.526  1.00  0.00    -0.234 NA
ATOM     15  C   UNL     1      -4.515  -7.253  10.211  1.00  0.00     0.139 A 
BRANCH  15  16
ATOM     16  C   UNL     1      -5.856  -7.780   9.948  1.00  0.00     0.271 C 
ATOM     17  O   UNL     1      -6.056  -8.786   9.277  1.00  0.00    -0.267 OA
ATOM     18  N   UNL     1      -6.863  -7.036  10.527  1.00  0.00    -0.339 N 
ATOM     19  H   UNL     1      -6.576  -6.164  10.964  1.00  0.00     0.164 HD
BRANCH  18  20
ATOM     20  C   UNL     1      -8.265  -7.371  10.317  1.00  0.00     0.168 CG0
ATOM     21  C   UNL     1      -8.855  -8.085  11.535  1.00  0.00     0.041 C 
ATOM     22  G   UNL     1      -9.134  -6.136  10.029  1.00  0.00     0.000 G0
ENDBRANCH  18  20
ENDBRANCH  15  16
ENDBRANCH  10  11
BRANCH  10  23
ATOM     23  C   UNL     1      -1.222  -4.980   8.164  1.00  0.00     0.015 C 
ATOM     24  C   UNL     1      -1.555  -3.986   7.040  1.00  0.00     0.010 C 
BRANCH  23  25
ATOM     25  C   UNL     1       0.313  -5.039   8.333  1.00  0.00     0.002 C 
ATOM     26  C   UNL     1       0.778  -4.993   9.782  1.00  0.00     0.004 C 
ENDBRANCH  23  25
ENDBRANCH  10  23
ENDBRANCH   7  10
ENDBRANCH   4   6
BRANCH   3  27
ATOM     27  C   UNL     1      -7.442  -0.902   9.232  1.00  0.00     0.171 C 
BRANCH  27  28
ATOM     28  N   UNL     1      -8.198  -1.818  10.079  1.00  0.00    -0.342 N 
ATOM     29  C   UNL     1      -8.984  -2.828   9.573  1.00  0.00     0.245 C 
ATOM     30  O   UNL     1      -9.096  -3.044   8.367  1.00  0.00    -0.273 OA
ATOM     31  H   UNL     1      -8.065  -1.774  11.089  1.00  0.00     0.164 HD
BRANCH  29  32
ATOM     32  C   UNL     1      -9.602  -3.774  10.624  1.00  0.00     0.200 C 
BRANCH  32  33
ATOM     33  N   UNL     1      -8.775  -4.984  10.699  1.00  0.00    -0.340 N 
ATOM     34  C   UNL     1      -9.137  -6.140  10.037  1.00  0.00     0.243 CG0
ATOM     35  O   UNL     1     -10.192  -6.228   9.413  1.00  0.00    -0.273 OA
ATOM     36  H   UNL     1      -7.914  -4.951  11.232  1.00  0.00     0.164 HD
ATOM     37  G   UNL     1      -8.255  -7.369  10.312  1.00  0.00     0.000 G0
ENDBRANCH  32  33
BRANCH  32  38
ATOM     38  C   UNL     1      -9.765  -3.069  11.992  1.00  0.00     0.143 C 
ATOM     39  C   UNL     1     -10.961  -3.553  12.803  1.00  0.00     0.041 C 
BRANCH  38  40
ATOM     40  O   UNL     1      -8.568  -3.237  12.777  1.00  0.00    -0.391 OA
ATOM     41  H   UNL     1      -7.865  -2.734  12.325  1.00  0.00     0.211 HD
ENDBRANCH  38  40
ENDBRANCH  32  38
ENDBRANCH  29  32
ENDBRANCH  27  28
BRANCH  27  42
ATOM     42  C   UNL     1      -8.082   0.508   9.204  1.00  0.00     0.015 C 
ATOM     43  C   UNL     1      -8.888   0.843   7.944  1.00  0.00     0.010 C 
ATOM     44  C   UNL     1      -8.919   0.782  10.458  1.00  0.00     0.010 C 
ENDBRANCH  27  42
ENDBRANCH   3  27
TORSDOF 5
ENDMDL
MODEL 6
REMARK VINA RESULT:    -5.626      3.822      6.149
REMARK INTER + INTRA:         -12.517
REMARK INTER:                 -10.069
REMARK INTRA:                  -2.448
REMARK UNBOUND:                -2.451
REMARK SMILES CC[C@H](C)[C@H]1NC(=O)c2coc(n2)[C@H](C(C)C)NC(=O)[C@H]([C@@H](C)O)NC(=O)[C@H](C)NC(=O)c2csc1n2
REMARK SMILES IDX 11 1 13 2 12 3 9 4 10 5 7 6 6 7 8 8 5 10 36 11 35 12 34 13
REMARK SMILES IDX 37 14 33 15 31 16 32 17 30 18 28 20 29 21 3 23 4 24 2 25
REMARK SMILES IDX 1 26 14 27 18 28 19 29 20 30 21 32 25 33 26 34 27 35 22 38
REMARK SMILES IDX 23 39 24 40 15 42 16 43 17 44
REMARK H PARENT 6 9 30 19 18 31 25 36 24 41
REMARK Flexibility Score:   94.900
ROOT
ATOM      1  O   UNL     1      -6.130  -0.156   9.604  1.00  0.00    -0.446 OA
ATOM      2  N   UNL     1      -6.850  -1.742   8.173  1.00  0.00    -0.207 NA
ATOM      3  C   UNL     1      -7.170  -0.933   9.167  1.00  0.00     0.217 A 
ATOM      4  C   UNL     1      -5.519  -1.460   7.921  1.00  0.00     0.167 A 
ATOM      5  C   UNL     1      -5.087  -0.493   8.795  1.00  0.00     0.231 A 
ENDROOT
BRANCH   4   6
ATOM      6  C   UNL     1      -4.743  -2.139   6.897  1.00  0.00     0.273 C 
ATOM      7  N   UNL     1      -5.347  -3.301   6.487  1.00  0.00    -0.341 N 
ATOM      8  O   UNL     1      -3.669  -1.728   6.477  1.00  0.00    -0.267 OA
ATOM      9  H   UNL     1      -6.190  -3.561   6.992  1.00  0.00     0.164 HD
BRANCH   7  10
ATOM     10  C   UNL     1      -4.682  -4.292   5.666  1.00  0.00     0.145 C 
BRANCH  10  11
ATOM     11  C   UNL     1      -4.397  -5.502   6.545  1.00  0.00     0.116 A 
ATOM     12  S   UNL     1      -2.989  -6.454   6.258  1.00  0.00    -0.124 S 
ATOM     13  C   UNL     1      -3.403  -7.451   7.583  1.00  0.00     0.101 A 
ATOM     14  N   UNL     1      -5.151  -5.899   7.556  1.00  0.00    -0.234 NA
ATOM     15  C   UNL     1      -4.574  -7.013   8.170  1.00  0.00     0.139 A 
BRANCH  15  16
ATOM     16  C   UNL     1      -5.178  -7.643   9.347  1.00  0.00     0.271 C 
ATOM     17  O   UNL     1      -5.056  -8.837   9.598  1.00  0.00    -0.267 OA
ATOM     18  N   UNL     1      -5.889  -6.764  10.137  1.00  0.00    -0.339 N 
ATOM     19  H   UNL     1      -6.008  -5.826   9.763  1.00  0.00     0.164 HD
BRANCH  18  20
ATOM     20  C   UNL     1      -6.614  -7.226  11.313  1.00  0.00     0.168 CG0
ATOM     21  C   UNL     1      -5.760  -7.104  12.577  1.00  0.00     0.041 C 
ATOM     22  G   UNL     1      -7.918  -6.447  11.550  1.00  0.00     0.000 G0
ENDBRANCH  18  20
ENDBRANCH  15  16
ENDBRANCH  10  11
BRANCH  10  23
ATOM     23  C   UNL     1      -5.507  -4.659   4.405  1.00  0.00     0.015 C 
ATOM     24  C   UNL     1      -7.025  -4.667   4.652  1.00  0.00     0.010 C 
BRANCH  23  25
ATOM     25  C   UNL     1      -5.207  -3.734   3.203  1.00  0.00     0.002 C 
ATOM     26  C   UNL     1      -5.962  -2.413   3.236  1.00  0.00     0.004 C 
ENDBRANCH  23  25
ENDBRANCH  10  23
ENDBRANCH   7  10
ENDBRANCH   4   6
BRANCH   3  27
ATOM     27  C   UNL     1      -8.499  -0.836   9.865  1.00  0.00     0.171 C 
BRANCH  27  28
ATOM     28  N   UNL     1      -8.578  -1.927  10.831  1.00  0.00    -0.342 N 
ATOM     29  C   UNL     1      -9.118  -3.156  10.526  1.00  0.00     0.245 C 
ATOM     30  O   UNL     1      -9.561  -3.431   9.412  1.00  0.00    -0.273 OA
ATOM     31  H   UNL     1      -8.128  -1.811  11.738  1.00  0.00     0.164 HD
BRANCH  29  32
ATOM     32  C   UNL     1      -8.996  -4.223  11.635  1.00  0.00     0.200 C 
BRANCH  32  33
ATOM     33  N   UNL     1      -7.861  -5.096  11.311  1.00  0.00    -0.340 N 
ATOM     34  C   UNL     1      -7.912  -6.454  11.548  1.00  0.00     0.243 CG0
ATOM     35  O   UNL     1      -8.878  -6.982  12.096  1.00  0.00    -0.273 OA
ATOM     36  H   UNL     1      -7.038  -4.685  10.887  1.00  0.00     0.164 HD
ATOM     37  G   UNL     1      -6.608  -7.225  11.291  1.00  0.00     0.000 G0
ENDBRANCH  32  33
BRANCH  32  38
ATOM     38  C   UNL     1      -8.877  -3.573  13.034  1.00  0.00     0.143 C 
ATOM     39  C   UNL     1      -9.766  -4.213  14.094  1.00  0.00     0.041 C 
BRANCH  38  40
ATOM     40  O   UNL     1      -7.509  -3.617  13.483  1.00  0.00    -0.391 OA
ATOM     41  H   UNL     1      -7.302  -4.555  13.658  1.00  0.00     0.211 HD
ENDBRANCH  38  40
ENDBRANCH  32  38
ENDBRANCH  29  32
ENDBRANCH  27  28
BRANCH  27  42
ATOM     42  C   UNL     1      -8.868   0.523  10.509  1.00  0.00     0.015 C 
ATOM     43  C   UNL     1      -9.256   1.636   9.529  1.00  0.00     0.010 C 
ATOM     44  C   UNL     1      -9.941   0.371  11.592  1.00  0.00     0.010 C 
ENDBRANCH  27  42
ENDBRANCH   3  27
TORSDOF 5
ENDMDL
MODEL 7
REMARK VINA RESULT:    -5.587      4.235      6.807
REMARK INTER + INTRA:         -12.447
REMARK INTER:                 -10.668
REMARK INTRA:                  -1.779
REMARK UNBOUND:                -2.451
REMARK SMILES CC[C@H](C)[C@H]1NC(=O)c2coc(n2)[C@H](C(C)C)NC(=O)[C@H]([C@@H](C)O)NC(=O)[C@H](C)NC(=O)c2csc1n2
REMARK SMILES IDX 11 1 13 2 12 3 9 4 10 5 7 6 6 7 8 8 5 10 36 11 35 12 34 13
REMARK SMILES IDX 37 14 33 15 31 16 32 17 30 18 28 20 29 21 3 23 4 24 2 25
REMARK SMILES IDX 1 26 14 27 18 28 19 29 20 30 21 32 25 33 26 34 27 35 22 38
REMARK SMILES IDX 23 39 24 40 15 42 16 43 17 44
REMARK H PARENT 6 9 30 19 18 31 25 36 24 41
REMARK Flexibility Score:   94.900
ROOT
ATOM      1  O   UNL     1      -9.745  -2.002   8.853  1.00  0.00    -0.446 OA
ATOM      2  N   UNL     1      -7.767  -2.631   9.732  1.00  0.00    -0.207 NA
ATOM      3  C   UNL     1      -9.038  -2.358   9.970  1.00  0.00     0.217 A 
ATOM      4  C   UNL     1      -7.636  -2.469   8.364  1.00  0.00     0.167 A 
ATOM      5  C   UNL     1      -8.844  -2.087   7.834  1.00  0.00     0.231 A 
ENDROOT
BRANCH   4   6
ATOM      6  C   UNL     1      -6.380  -2.658   7.659  1.00  0.00     0.273 C 
ATOM      7  N   UNL     1      -6.501  -3.561   6.634  1.00  0.00    -0.341 N 
ATOM      8  O   UNL     1      -5.338  -2.092   7.968  1.00  0.00    -0.267 OA
ATOM      9  H   UNL     1      -7.404  -4.020   6.555  1.00  0.00     0.164 HD
BRANCH   7  10
ATOM     10  C   UNL     1      -5.362  -4.119   5.931  1.00  0.00     0.145 C 
BRANCH  10  11
ATOM     11  C   UNL     1      -5.008  -5.438   6.603  1.00  0.00     0.116 A 
ATOM     12  S   UNL     1      -3.788  -6.445   5.918  1.00  0.00    -0.124 S 
ATOM     13  C   UNL     1      -3.998  -7.557   7.199  1.00  0.00     0.101 A 
ATOM     14  N   UNL     1      -5.560  -5.895   7.715  1.00  0.00    -0.234 NA
ATOM     15  C   UNL     1      -4.970  -7.110   8.073  1.00  0.00     0.139 A 
BRANCH  15  16
ATOM     16  C   UNL     1      -5.362  -7.827   9.289  1.00  0.00     0.271 C 
ATOM     17  O   UNL     1      -4.823  -8.867   9.650  1.00  0.00    -0.267 OA
ATOM     18  N   UNL     1      -6.388  -7.218   9.980  1.00  0.00    -0.339 N 
ATOM     19  H   UNL     1      -6.824  -6.424   9.520  1.00  0.00     0.164 HD
BRANCH  18  20
ATOM     20  C   UNL     1      -6.955  -7.825  11.177  1.00  0.00     0.168 CG0
ATOM     21  C   UNL     1      -6.312  -7.260  12.445  1.00  0.00     0.041 C 
ATOM     22  G   UNL     1      -8.474  -7.616  11.287  1.00  0.00     0.000 G0
ENDBRANCH  18  20
ENDBRANCH  15  16
ENDBRANCH  10  11
BRANCH  10  23
ATOM     23  C   UNL     1      -5.633  -4.283   4.412  1.00  0.00     0.015 C 
ATOM     24  C   UNL     1      -6.617  -5.420   4.089  1.00  0.00     0.010 C 
BRANCH  23  25
ATOM     25  C   UNL     1      -6.146  -2.983   3.753  1.00  0.00     0.002 C 
ATOM     26  C   UNL     1      -5.553  -2.712   2.377  1.00  0.00     0.004 C 
ENDBRANCH  23  25
ENDBRANCH  10  23
ENDBRANCH   7  10
ENDBRANCH   4   6
BRANCH   3  27
ATOM     27  C   UNL     1      -9.729  -2.352  11.306  1.00  0.00     0.171 C 
BRANCH  27  28
ATOM     28  N   UNL     1      -9.637  -3.698  11.862  1.00  0.00    -0.342 N 
ATOM     29  C   UNL     1     -10.551  -4.688  11.577  1.00  0.00     0.245 C 
ATOM     30  O   UNL     1     -11.504  -4.516  10.819  1.00  0.00    -0.273 OA
ATOM     31  H   UNL     1      -8.813  -3.948  12.407  1.00  0.00     0.164 HD
BRANCH  29  32
ATOM     32  C   UNL     1     -10.216  -6.080  12.154  1.00  0.00     0.200 C 
BRANCH  32  33
ATOM     33  N   UNL     1      -8.818  -6.388  11.832  1.00  0.00    -0.340 N 
ATOM     34  C   UNL     1      -8.459  -7.609  11.298  1.00  0.00     0.243 CG0
ATOM     35  O   UNL     1      -9.278  -8.510  11.128  1.00  0.00    -0.273 OA
ATOM     36  H   UNL     1      -8.115  -5.676  11.990  1.00  0.00     0.164 HD
ATOM     37  G   UNL     1      -6.949  -7.848  11.138  1.00  0.00     0.000 G0
ENDBRANCH  32  33
BRANCH  32  38
ATOM     38  C   UNL     1     -10.515  -6.149  13.670  1.00  0.00     0.143 C 
ATOM     39  C   UNL     1     -11.624  -5.209  14.130  1.00  0.00     0.041 C 
BRANCH  38  40
ATOM     40  O   UNL     1     -10.862  -7.498  14.042  1.00  0.00    -0.391 OA
ATOM     41  H   UNL     1     -10.022  -7.966  14.207  1.00  0.00     0.211 HD
ENDBRANCH  38  40
ENDBRANCH  32  38
ENDBRANCH  29  32
ENDBRANCH  27  28
BRANCH  27  42
ATOM     42  C   UNL     1      -9.287  -1.280  12.332  1.00  0.00     0.015 C 
ATOM     43  C   UNL     1     -10.255  -1.043  13.498  1.00  0.00     0.010 C 
ATOM     44  C   UNL     1      -7.873  -1.541  12.861  1.00  0.00     0.010 C 
ENDBRANCH  27  42
ENDBRANCH   3  27
TORSDOF 5
ENDMDL
MODEL 8
REMARK VINA RESULT:    -5.447      4.635      6.943
REMARK INTER + INTRA:         -12.196
REMARK INTER:                 -10.229
REMARK INTRA:                  -1.967
REMARK UNBOUND:                -2.451
REMARK SMILES CC[C@H](C)[C@H]1NC(=O)c2coc(n2)[C@H](C(C)C)NC(=O)[C@H]([C@@H](C)O)NC(=O)[C@H](C)NC(=O)c2csc1n2
REMARK SMILES IDX 11 1 13 2 12 3 9 4 10 5 7 6 6 7 8 8 5 10 36 11 35 12 34 13
REMARK SMILES IDX 37 14 33 15 31 16 32 17 30 18 28 20 29 21 3 23 4 24 2 25
REMARK SMILES IDX 1 26 14 27 18 28 19 29 20 30 21 32 25 33 26 34 27 35 22 38
REMARK SMILES IDX 23 39 24 40 15 42 16 43 17 44
REMARK H PARENT 6 9 30 19 18 31 25 36 24 41
REMARK Flexibility Score:   94.900
ROOT
ATOM      1  O   UNL     1      -9.277  -2.321   7.804  1.00  0.00    -0.446 OA
ATOM      2  N   UNL     1      -7.427  -2.666   9.045  1.00  0.00    -0.207 NA
ATOM      3  C   UNL     1      -8.581  -2.030   8.947  1.00  0.00     0.217 A 
ATOM      4  C   UNL     1      -7.373  -3.447   7.904  1.00  0.00     0.167 A 
ATOM      5  C   UNL     1      -8.503  -3.233   7.153  1.00  0.00     0.231 A 
ENDROOT
BRANCH   4   6
ATOM      6  C   UNL     1      -6.251  -4.315   7.589  1.00  0.00     0.273 C 
ATOM      7  N   UNL     1      -6.563  -5.638   7.771  1.00  0.00    -0.341 N 
ATOM      8  O   UNL     1      -5.155  -3.902   7.230  1.00  0.00    -0.267 OA
ATOM      9  H   UNL     1      -7.483  -5.824   8.162  1.00  0.00     0.164 HD
BRANCH   7  10
ATOM     10  C   UNL     1      -5.570  -6.694   7.770  1.00  0.00     0.145 C 
BRANCH  10  11
ATOM     11  C   UNL     1      -5.405  -7.173   9.206  1.00  0.00     0.116 A 
ATOM     12  S   UNL     1      -4.274  -8.422   9.565  1.00  0.00    -0.124 S 
ATOM     13  C   UNL     1      -4.678  -8.301  11.222  1.00  0.00     0.101 A 
ATOM     14  N   UNL     1      -6.066  -6.691  10.246  1.00  0.00    -0.234 NA
ATOM     15  C   UNL     1      -5.639  -7.326  11.415  1.00  0.00     0.139 A 
BRANCH  15  16
ATOM     16  C   UNL     1      -6.176  -6.963  12.728  1.00  0.00     0.271 C 
ATOM     17  O   UNL     1      -5.942  -7.610  13.743  1.00  0.00    -0.267 OA
ATOM     18  N   UNL     1      -6.962  -5.830  12.708  1.00  0.00    -0.339 N 
ATOM     19  H   UNL     1      -7.169  -5.450  11.788  1.00  0.00     0.164 HD
BRANCH  18  20
ATOM     20  C   UNL     1      -7.635  -5.358  13.910  1.00  0.00     0.168 CG0
ATOM     21  C   UNL     1      -6.897  -4.169  14.530  1.00  0.00     0.041 C 
ATOM     22  G   UNL     1      -9.086  -4.925  13.646  1.00  0.00     0.000 G0
ENDBRANCH  18  20
ENDBRANCH  15  16
ENDBRANCH  10  11
BRANCH  10  23
ATOM     23  C   UNL     1      -5.941  -7.847   6.801  1.00  0.00     0.015 C 
ATOM     24  C   UNL     1      -7.396  -8.322   6.948  1.00  0.00     0.010 C 
BRANCH  23  25
ATOM     25  C   UNL     1      -5.684  -7.489   5.319  1.00  0.00     0.002 C 
ATOM     26  C   UNL     1      -6.779  -6.638   4.691  1.00  0.00     0.004 C 
ENDBRANCH  23  25
ENDBRANCH  10  23
ENDBRANCH   7  10
ENDBRANCH   4   6
BRANCH   3  27
ATOM     27  C   UNL     1      -9.145  -1.020   9.909  1.00  0.00     0.171 C 
BRANCH  27  28
ATOM     28  N   UNL     1      -9.355  -1.691  11.188  1.00  0.00    -0.342 N 
ATOM     29  C   UNL     1     -10.543  -2.302  11.524  1.00  0.00     0.245 C 
ATOM     30  O   UNL     1     -11.510  -2.340  10.765  1.00  0.00    -0.273 OA
ATOM     31  H   UNL     1      -8.564  -1.800  11.820  1.00  0.00     0.164 HD
BRANCH  29  32
ATOM     32  C   UNL     1     -10.534  -3.069  12.863  1.00  0.00     0.200 C 
BRANCH  32  33
ATOM     33  N   UNL     1      -9.211  -3.683  13.033  1.00  0.00    -0.340 N 
ATOM     34  C   UNL     1      -9.064  -4.907  13.653  1.00  0.00     0.243 CG0
ATOM     35  O   UNL     1     -10.019  -5.505  14.144  1.00  0.00    -0.273 OA
ATOM     36  H   UNL     1      -8.400  -3.198  12.666  1.00  0.00     0.164 HD
ATOM     37  G   UNL     1      -7.615  -5.366  13.886  1.00  0.00     0.000 G0
ENDBRANCH  32  33
BRANCH  32  38
ATOM     38  C   UNL     1     -10.929  -2.151  14.044  1.00  0.00     0.143 C 
ATOM     39  C   UNL     1      -9.756  -1.413  14.677  1.00  0.00     0.041 C 
BRANCH  38  40
ATOM     40  O   UNL     1     -11.909  -1.188  13.612  1.00  0.00    -0.391 OA
ATOM     41  H   UNL     1     -12.359  -0.867  14.417  1.00  0.00     0.211 HD
ENDBRANCH  38  40
ENDBRANCH  32  38
ENDBRANCH  29  32
ENDBRANCH  27  28
BRANCH  27  42
ATOM     42  C   UNL     1      -8.369   0.308  10.084  1.00  0.00     0.015 C 
ATOM     43  C   UNL     1      -6.906   0.285   9.628  1.00  0.00     0.010 C 
ATOM     44  C   UNL     1      -9.106   1.490   9.445  1.00  0.00     0.010 C 
ENDBRANCH  27  42
ENDBRANCH   3  27
TORSDOF 5
ENDMDL
MODEL 9
REMARK VINA RESULT:    -5.313      3.535      7.113
REMARK INTER + INTRA:         -11.956
REMARK INTER:                  -9.771
REMARK INTRA:                  -2.185
REMARK UNBOUND:                -2.451
REMARK SMILES CC[C@H](C)[C@H]1NC(=O)c2coc(n2)[C@H](C(C)C)NC(=O)[C@H]([C@@H](C)O)NC(=O)[C@H](C)NC(=O)c2csc1n2
REMARK SMILES IDX 11 1 13 2 12 3 9 4 10 5 7 6 6 7 8 8 5 10 36 11 35 12 34 13
REMARK SMILES IDX 37 14 33 15 31 16 32 17 30 18 28 20 29 21 3 23 4 24 2 25
REMARK SMILES IDX 1 26 14 27 18 28 19 29 20 30 21 32 25 33 26 34 27 35 22 38
REMARK SMILES IDX 23 39 24 40 15 42 16 43 17 44
REMARK H PARENT 6 9 30 19 18 31 25 36 24 41
REMARK Flexibility Score:   94.900
ROOT
ATOM      1  O   UNL     1      -5.622  -0.377   8.858  1.00  0.00    -0.446 OA
ATOM      2  N   UNL     1      -5.992  -2.511   9.484  1.00  0.00    -0.207 NA
ATOM      3  C   UNL     1      -5.088  -1.586   9.217  1.00  0.00     0.217 A 
ATOM      4  C   UNL     1      -7.202  -1.861   9.314  1.00  0.00     0.167 A 
ATOM      5  C   UNL     1      -6.970  -0.562   8.934  1.00  0.00     0.231 A 
ENDROOT
BRANCH   4   6
ATOM      6  C   UNL     1      -8.487  -2.516   9.494  1.00  0.00     0.273 C 
ATOM      7  N   UNL     1      -8.450  -3.442  10.505  1.00  0.00    -0.341 N 
ATOM      8  O   UNL     1      -9.470  -2.279   8.803  1.00  0.00    -0.267 OA
ATOM      9  H   UNL     1      -7.539  -3.596  10.928  1.00  0.00     0.164 HD
BRANCH   7  10
ATOM     10  C   UNL     1      -9.507  -4.407  10.733  1.00  0.00     0.145 C 
BRANCH  10  11
ATOM     11  C   UNL     1      -8.976  -5.776  10.333  1.00  0.00     0.116 A 
ATOM     12  S   UNL     1      -9.392  -7.161  11.270  1.00  0.00    -0.124 S 
ATOM     13  C   UNL     1      -8.500  -8.147  10.195  1.00  0.00     0.101 A 
ATOM     14  N   UNL     1      -8.206  -6.013   9.284  1.00  0.00    -0.234 NA
ATOM     15  C   UNL     1      -7.942  -7.382   9.189  1.00  0.00     0.139 A 
BRANCH  15  16
ATOM     16  C   UNL     1      -7.141  -7.937   8.095  1.00  0.00     0.271 C 
ATOM     17  O   UNL     1      -7.300  -9.074   7.666  1.00  0.00    -0.267 OA
ATOM     18  N   UNL     1      -6.200  -7.059   7.601  1.00  0.00    -0.339 N 
ATOM     19  H   UNL     1      -6.092  -6.188   8.114  1.00  0.00     0.164 HD
BRANCH  18  20
ATOM     20  C   UNL     1      -5.268  -7.461   6.556  1.00  0.00     0.168 CG0
ATOM     21  C   UNL     1      -5.697  -6.922   5.190  1.00  0.00     0.041 C 
ATOM     22  G   UNL     1      -3.833  -6.978   6.822  1.00  0.00     0.000 G0
ENDBRANCH  18  20
ENDBRANCH  15  16
ENDBRANCH  10  11
BRANCH  10  23
ATOM     23  C   UNL     1     -10.021  -4.377  12.197  1.00  0.00     0.015 C 
ATOM     24  C   UNL     1      -8.992  -3.816  13.193  1.00  0.00     0.010 C 
BRANCH  23  25
ATOM     25  C   UNL     1     -11.341  -3.587  12.352  1.00  0.00     0.002 C 
ATOM     26  C   UNL     1     -11.147  -2.085  12.508  1.00  0.00     0.004 C 
ENDBRANCH  23  25
ENDBRANCH  10  23
ENDBRANCH   7  10
ENDBRANCH   4   6
BRANCH   3  27
ATOM     27  C   UNL     1      -3.593  -1.752   9.221  1.00  0.00     0.171 C 
BRANCH  27  28
ATOM     28  N   UNL     1      -3.258  -2.810   8.274  1.00  0.00    -0.342 N 
ATOM     29  C   UNL     1      -2.603  -3.963   8.642  1.00  0.00     0.245 C 
ATOM     30  O   UNL     1      -2.264  -4.194   9.802  1.00  0.00    -0.273 OA
ATOM     31  H   UNL     1      -3.608  -2.740   7.319  1.00  0.00     0.164 HD
BRANCH  29  32
ATOM     32  C   UNL     1      -2.453  -5.021   7.528  1.00  0.00     0.200 C 
BRANCH  32  33
ATOM     33  N   UNL     1      -3.753  -5.674   7.334  1.00  0.00    -0.340 N 
ATOM     34  C   UNL     1      -3.842  -6.957   6.834  1.00  0.00     0.243 CG0
ATOM     35  O   UNL     1      -2.849  -7.583   6.470  1.00  0.00    -0.273 OA
ATOM     36  H   UNL     1      -4.592  -5.171   7.597  1.00  0.00     0.164 HD
ATOM     37  G   UNL     1      -5.266  -7.465   6.554  1.00  0.00     0.000 G0
ENDBRANCH  32  33
BRANCH  32  38
ATOM     38  C   UNL     1      -1.891  -4.398   6.229  1.00  0.00     0.143 C 
ATOM     39  C   UNL     1      -0.488  -3.821   6.371  1.00  0.00     0.041 C 
BRANCH  38  40
ATOM     40  O   UNL     1      -1.889  -5.378   5.173  1.00  0.00    -0.391 OA
ATOM     41  H   UNL     1      -1.288  -5.042   4.481  1.00  0.00     0.211 HD
ENDBRANCH  38  40
ENDBRANCH  32  38
ENDBRANCH  29  32
ENDBRANCH  27  28
BRANCH  27  42
ATOM     42  C   UNL     1      -2.734  -0.485   8.987  1.00  0.00     0.015 C 
ATOM     43  C   UNL     1      -1.396  -0.446   9.734  1.00  0.00     0.010 C 
ATOM     44  C   UNL     1      -2.517  -0.208   7.495  1.00  0.00     0.010 C 
ENDBRANCH  27  42
ENDBRANCH   3  27
TORSDOF 5
ENDMDL
MODEL 10
REMARK VINA RESULT:    -5.264      4.691      6.468
REMARK INTER + INTRA:         -11.870
REMARK INTER:                  -9.794
REMARK INTRA:                  -2.076
REMARK UNBOUND:                -2.451
REMARK SMILES CC[C@H](C)[C@H]1NC(=O)c2coc(n2)[C@H](C(C)C)NC(=O)[C@H]([C@@H](C)O)NC(=O)[C@H](C)NC(=O)c2csc1n2
REMARK SMILES IDX 11 1 13 2 12 3 9 4 10 5 7 6 6 7 8 8 5 10 36 11 35 12 34 13
REMARK SMILES IDX 37 14 33 15 31 16 32 17 30 18 28 20 29 21 3 23 4 24 2 25
REMARK SMILES IDX 1 26 14 27 18 28 19 29 20 30 21 32 25 33 26 34 27 35 22 38
REMARK SMILES IDX 23 39 24 40 15 42 16 43 17 44
REMARK H PARENT 6 9 30 19 18 31 25 36 24 41
REMARK Flexibility Score:   94.900
ROOT
ATOM      1  O   UNL     1      -6.586  -0.234   9.324  1.00  0.00    -0.446 OA
ATOM      2  N   UNL     1      -7.179  -2.331   8.749  1.00  0.00    -0.207 NA
ATOM      3  C   UNL     1      -7.598  -1.130   9.105  1.00  0.00     0.217 A 
ATOM      4  C   UNL     1      -5.801  -2.210   8.705  1.00  0.00     0.167 A 
ATOM      5  C   UNL     1      -5.446  -0.930   9.056  1.00  0.00     0.231 A 
ENDROOT
BRANCH   4   6
ATOM      6  C   UNL     1      -4.918  -3.312   8.365  1.00  0.00     0.273 C 
ATOM      7  N   UNL     1      -5.615  -4.470   8.128  1.00  0.00    -0.341 N 
ATOM      8  O   UNL     1      -3.697  -3.215   8.324  1.00  0.00    -0.267 OA
ATOM      9  H   UNL     1      -6.617  -4.421   8.291  1.00  0.00     0.164 HD
BRANCH   7  10
ATOM     10  C   UNL     1      -4.980  -5.768   8.013  1.00  0.00     0.145 C 
BRANCH  10  11
ATOM     11  C   UNL     1      -5.513  -6.642   9.139  1.00  0.00     0.116 A 
ATOM     12  S   UNL     1      -4.589  -7.991   9.684  1.00  0.00    -0.124 S 
ATOM     13  C   UNL     1      -5.787  -8.329  10.855  1.00  0.00     0.101 A 
ATOM     14  N   UNL     1      -6.658  -6.448   9.772  1.00  0.00    -0.234 NA
ATOM     15  C   UNL     1      -6.814  -7.408  10.776  1.00  0.00     0.139 A 
BRANCH  15  16
ATOM     16  C   UNL     1      -7.978  -7.411  11.664  1.00  0.00     0.271 C 
ATOM     17  O   UNL     1      -8.805  -8.316  11.674  1.00  0.00    -0.267 OA
ATOM     18  N   UNL     1      -8.050  -6.303  12.482  1.00  0.00    -0.339 N 
ATOM     19  H   UNL     1      -7.367  -5.572  12.300  1.00  0.00     0.164 HD
BRANCH  18  20
ATOM     20  C   UNL     1      -9.176  -6.102  13.384  1.00  0.00     0.168 CG0
ATOM     21  C   UNL     1      -8.702  -5.751  14.795  1.00  0.00     0.041 C 
ATOM     22  G   UNL     1     -10.122  -4.985  12.914  1.00  0.00     0.000 G0
ENDBRANCH  18  20
ENDBRANCH  15  16
ENDBRANCH  10  11
BRANCH  10  23
ATOM     23  C   UNL     1      -5.198  -6.405   6.615  1.00  0.00     0.015 C 
ATOM     24  C   UNL     1      -5.848  -5.446   5.603  1.00  0.00     0.010 C 
BRANCH  23  25
ATOM     25  C   UNL     1      -3.893  -6.962   6.002  1.00  0.00     0.002 C 
ATOM     26  C   UNL     1      -2.631  -6.278   6.508  1.00  0.00     0.004 C 
ENDBRANCH  23  25
ENDBRANCH  10  23
ENDBRANCH   7  10
ENDBRANCH   4   6
BRANCH   3  27
ATOM     27  C   UNL     1      -9.020  -0.697   9.333  1.00  0.00     0.171 C 
BRANCH  27  28
ATOM     28  N   UNL     1      -9.393  -1.083  10.690  1.00  0.00    -0.342 N 
ATOM     29  C   UNL     1     -10.130  -2.212  10.970  1.00  0.00     0.245 C 
ATOM     30  O   UNL     1     -10.517  -2.987  10.097  1.00  0.00    -0.273 OA
ATOM     31  H   UNL     1      -9.011  -0.553  11.473  1.00  0.00     0.164 HD
BRANCH  29  32
ATOM     32  C   UNL     1     -10.314  -2.525  12.470  1.00  0.00     0.200 C 
BRANCH  32  33
ATOM     33  N   UNL     1      -9.523  -3.718  12.792  1.00  0.00    -0.340 N 
ATOM     34  C   UNL     1     -10.116  -4.957  12.920  1.00  0.00     0.243 CG0
ATOM     35  O   UNL     1     -11.333  -5.107  12.834  1.00  0.00    -0.273 OA
ATOM     36  H   UNL     1      -8.520  -3.621  12.899  1.00  0.00     0.164 HD
ATOM     37  G   UNL     1      -9.193  -6.092  13.393  1.00  0.00     0.000 G0
ENDBRANCH  32  33
BRANCH  32  38
ATOM     38  C   UNL     1      -9.952  -1.306  13.350  1.00  0.00     0.143 C 
ATOM     39  C   UNL     1     -11.035  -0.917  14.350  1.00  0.00     0.041 C 
BRANCH  38  40
ATOM     40  O   UNL     1      -8.727  -1.560  14.064  1.00  0.00    -0.391 OA
ATOM     41  H   UNL     1      -8.104  -1.948  13.420  1.00  0.00     0.211 HD
ENDBRANCH  38  40
ENDBRANCH  32  38
ENDBRANCH  29  32
ENDBRANCH  27  28
BRANCH  27  42
ATOM     42  C   UNL     1      -9.369   0.784   9.047  1.00  0.00     0.015 C 
ATOM     43  C   UNL     1      -8.897   1.791  10.103  1.00  0.00     0.010 C 
ATOM     44  C   UNL     1      -8.910   1.222   7.653  1.00  0.00     0.010 C 
ENDBRANCH  27  42
ENDBRANCH   3  27
TORSDOF 5
ENDMDL
