MODEL 1
REMARK VINA RESULT:    -4.759      0.000      0.000
REMARK INTER + INTRA:         -10.956
REMARK INTER:                  -8.516
REMARK INTRA:                  -2.440
REMARK UNBOUND:                -2.440
REMARK SMILES CC[C@H](C)[C@H]1NC(=O)c2coc(n2)[C@H](C(C)C)NC(=O)[C@H]([C@@H](C)O)NC(=O)[C@H](C)NC(=O)c2csc1n2
REMARK SMILES IDX 11 1 13 2 12 3 9 4 10 5 7 6 6 7 8 8 5 10 36 11 35 12 34 13
REMARK SMILES IDX 37 14 33 15 31 16 32 17 30 18 28 20 29 21 3 23 4 24 2 25
REMARK SMILES IDX 1 26 14 27 18 28 19 29 20 30 21 32 25 33 26 34 27 35 22 38
REMARK SMILES IDX 23 39 24 40 15 42 16 43 17 44
REMARK H PARENT 6 9 30 19 18 31 25 36 24 41
REMARK Flexibility Score:   94.900
ROOT
ATOM      1  O   UNL     1      -1.802   2.440  -3.647  1.00  0.00    -0.446 OA
ATOM      2  N   UNL     1      -0.956   2.272  -5.729  1.00  0.00    -0.207 NA
ATOM      3  C   UNL     1      -0.727   2.621  -4.476  1.00  0.00     0.217 A 
ATOM      4  C   UNL     1      -2.260   1.807  -5.719  1.00  0.00     0.167 A 
ATOM      5  C   UNL     1      -2.769   1.911  -4.448  1.00  0.00     0.231 A 
ENDROOT
BRANCH   4   6
ATOM      6  C   UNL     1      -2.940   1.326  -6.909  1.00  0.00     0.273 C 
ATOM      7  N   UNL     1      -2.341   0.201  -7.419  1.00  0.00    -0.341 N 
ATOM      8  O   UNL     1      -3.914   1.880  -7.403  1.00  0.00    -0.267 OA
ATOM      9  H   UNL     1      -1.485  -0.091  -6.956  1.00  0.00     0.164 HD
BRANCH   7  10
ATOM     10  C   UNL     1      -2.657  -0.340  -8.726  1.00  0.00     0.145 C 
BRANCH  10  11
ATOM     11  C   UNL     1      -1.418  -0.193  -9.597  1.00  0.00     0.116 A 
ATOM     12  S   UNL     1      -1.591   0.084 -11.289  1.00  0.00    -0.124 S 
ATOM     13  C   UNL     1       0.110   0.156 -11.443  1.00  0.00     0.101 A 
ATOM     14  N   UNL     1      -0.171  -0.246  -9.157  1.00  0.00    -0.234 NA
ATOM     15  C   UNL     1       0.715  -0.028 -10.215  1.00  0.00     0.139 A 
BRANCH  15  16
ATOM     16  C   UNL     1       2.165   0.005 -10.010  1.00  0.00     0.271 C 
ATOM     17  O   UNL     1       2.859  -1.005 -10.007  1.00  0.00    -0.267 OA
ATOM     18  N   UNL     1       2.665   1.276  -9.823  1.00  0.00    -0.339 N 
ATOM     19  H   UNL     1       1.975   2.017  -9.736  1.00  0.00     0.164 HD
BRANCH  18  20
ATOM     20  C   UNL     1       4.076   1.497  -9.538  1.00  0.00     0.168 CG0
ATOM     21  C   UNL     1       4.831   1.959 -10.786  1.00  0.00     0.041 C 
ATOM     22  G   UNL     1       4.303   2.546  -8.436  1.00  0.00     0.000 G0
ENDBRANCH  18  20
ENDBRANCH  15  16
ENDBRANCH  10  11
BRANCH  10  23
ATOM     23  C   UNL     1      -3.154  -1.808  -8.648  1.00  0.00     0.015 C 
ATOM     24  C   UNL     1      -3.877  -2.137  -7.331  1.00  0.00     0.010 C 
BRANCH  23  25
ATOM     25  C   UNL     1      -4.077  -2.190  -9.827  1.00  0.00     0.002 C 
ATOM     26  C   UNL     1      -5.428  -1.488  -9.808  1.00  0.00     0.004 C 
ENDBRANCH  23  25
ENDBRANCH  10  23
ENDBRANCH   7  10
ENDBRANCH   4   6
BRANCH   3  27
ATOM     27  C   UNL     1       0.534   3.222  -3.918  1.00  0.00     0.171 C 
BRANCH  27  28
ATOM     28  N   UNL     1       1.321   3.727  -5.038  1.00  0.00    -0.342 N 
ATOM     29  C   UNL     1       2.595   3.284  -5.316  1.00  0.00     0.245 C 
ATOM     30  O   UNL     1       3.158   2.417  -4.650  1.00  0.00    -0.273 OA
ATOM     31  H   UNL     1       0.878   4.363  -5.701  1.00  0.00     0.164 HD
BRANCH  29  32
ATOM     32  C   UNL     1       3.218   3.840  -6.614  1.00  0.00     0.200 C 
BRANCH  32  33
ATOM     33  N   UNL     1       3.198   2.777  -7.626  1.00  0.00    -0.340 N 
ATOM     34  C   UNL     1       4.285   2.548  -8.445  1.00  0.00     0.243 CG0
ATOM     35  O   UNL     1       5.287   3.259  -8.409  1.00  0.00    -0.273 OA
ATOM     36  H   UNL     1       2.374   2.193  -7.701  1.00  0.00     0.164 HD
ATOM     37  G   UNL     1       4.078   1.498  -9.549  1.00  0.00     0.000 G0
ENDBRANCH  32  33
BRANCH  32  38
ATOM     38  C   UNL     1       2.500   5.128  -7.079  1.00  0.00     0.143 C 
ATOM     39  C   UNL     1       3.418   6.149  -7.740  1.00  0.00     0.041 C 
BRANCH  38  40
ATOM     40  O   UNL     1       1.435   4.797  -7.992  1.00  0.00    -0.391 OA
ATOM     41  H   UNL     1       1.513   5.412  -8.746  1.00  0.00     0.211 HD
ENDBRANCH  38  40
ENDBRANCH  32  38
ENDBRANCH  29  32
ENDBRANCH  27  28
BRANCH  27  42
ATOM     42  C   UNL     1       0.385   4.284  -2.801  1.00  0.00     0.015 C 
ATOM     43  C   UNL     1       1.321   4.115  -1.599  1.00  0.00     0.010 C 
ATOM     44  C   UNL     1       0.479   5.711  -3.352  1.00  0.00     0.010 C 
ENDBRANCH  27  42
ENDBRANCH   3  27
TORSDOF 5
ENDMDL
MODEL 2
REMARK VINA RESULT:    -4.589      2.494      6.750
REMARK INTER + INTRA:         -10.650
REMARK INTER:                  -8.436
REMARK INTRA:                  -2.214
REMARK UNBOUND:                -2.440
REMARK SMILES CC[C@H](C)[C@H]1NC(=O)c2coc(n2)[C@H](C(C)C)NC(=O)[C@H]([C@@H](C)O)NC(=O)[C@H](C)NC(=O)c2csc1n2
REMARK SMILES IDX 11 1 13 2 12 3 9 4 10 5 7 6 6 7 8 8 5 10 36 11 35 12 34 13
REMARK SMILES IDX 37 14 33 15 31 16 32 17 30 18 28 20 29 21 3 23 4 24 2 25
REMARK SMILES IDX 1 26 14 27 18 28 19 29 20 30 21 32 25 33 26 34 27 35 22 38
REMARK SMILES IDX 23 39 24 40 15 42 16 43 17 44
REMARK H PARENT 6 9 30 19 18 31 25 36 24 41
REMARK Flexibility Score:   94.900
ROOT
ATOM      1  O   UNL     1      -0.769   3.012  -4.158  1.00  0.00    -0.446 OA
ATOM      2  N   UNL     1       0.186   2.446  -6.120  1.00  0.00    -0.207 NA
ATOM      3  C   UNL     1      -0.945   2.638  -5.464  1.00  0.00     0.217 A 
ATOM      4  C   UNL     1       1.170   2.738  -5.192  1.00  0.00     0.167 A 
ATOM      5  C   UNL     1       0.582   3.082  -4.000  1.00  0.00     0.231 A 
ENDROOT
BRANCH   4   6
ATOM      6  C   UNL     1       2.590   2.643  -5.485  1.00  0.00     0.273 C 
ATOM      7  N   UNL     1       2.895   3.187  -6.707  1.00  0.00    -0.341 N 
ATOM      8  O   UNL     1       3.403   2.117  -4.735  1.00  0.00    -0.267 OA
ATOM      9  H   UNL     1       2.103   3.503  -7.259  1.00  0.00     0.164 HD
BRANCH   7  10
ATOM     10  C   UNL     1       4.181   3.009  -7.354  1.00  0.00     0.145 C 
BRANCH  10  11
ATOM     11  C   UNL     1       3.922   2.771  -8.835  1.00  0.00     0.116 A 
ATOM     12  S   UNL     1       4.727   3.741 -10.010  1.00  0.00    -0.124 S 
ATOM     13  C   UNL     1       3.963   2.854 -11.255  1.00  0.00     0.101 A 
ATOM     14  N   UNL     1       3.115   1.844  -9.324  1.00  0.00    -0.234 NA
ATOM     15  C   UNL     1       3.148   1.875 -10.720  1.00  0.00     0.139 A 
BRANCH  15  16
ATOM     16  C   UNL     1       2.376   0.930 -11.530  1.00  0.00     0.271 C 
ATOM     17  O   UNL     1       2.747   0.539 -12.631  1.00  0.00    -0.267 OA
ATOM     18  N   UNL     1       1.200   0.526 -10.933  1.00  0.00    -0.339 N 
ATOM     19  H   UNL     1       0.951   1.005 -10.072  1.00  0.00     0.164 HD
BRANCH  18  20
ATOM     20  C   UNL     1       0.271  -0.361 -11.620  1.00  0.00     0.168 CG0
ATOM     21  C   UNL     1       0.785  -1.802 -11.636  1.00  0.00     0.041 C 
ATOM     22  G   UNL     1      -1.127  -0.368 -10.981  1.00  0.00     0.000 G0
ENDBRANCH  18  20
ENDBRANCH  15  16
ENDBRANCH  10  11
BRANCH  10  23
ATOM     23  C   UNL     1       5.133   4.208  -7.105  1.00  0.00     0.015 C 
ATOM     24  C   UNL     1       4.427   5.429  -6.493  1.00  0.00     0.010 C 
BRANCH  23  25
ATOM     25  C   UNL     1       6.341   3.838  -6.216  1.00  0.00     0.002 C 
ATOM     26  C   UNL     1       6.141   4.148  -4.739  1.00  0.00     0.004 C 
ENDBRANCH  23  25
ENDBRANCH  10  23
ENDBRANCH   7  10
ENDBRANCH   4   6
BRANCH   3  27
ATOM     27  C   UNL     1      -2.341   2.439  -5.986  1.00  0.00     0.171 C 
BRANCH  27  28
ATOM     28  N   UNL     1      -2.333   1.261  -6.846  1.00  0.00    -0.342 N 
ATOM     29  C   UNL     1      -2.677   1.305  -8.178  1.00  0.00     0.245 C 
ATOM     30  O   UNL     1      -3.003   2.346  -8.746  1.00  0.00    -0.273 OA
ATOM     31  H   UNL     1      -1.964   0.386  -6.474  1.00  0.00     0.164 HD
BRANCH  29  32
ATOM     32  C   UNL     1      -2.483  -0.015  -8.954  1.00  0.00     0.200 C 
BRANCH  32  33
ATOM     33  N   UNL     1      -1.218   0.068  -9.694  1.00  0.00    -0.340 N 
ATOM     34  C   UNL     1      -1.122  -0.369 -10.999  1.00  0.00     0.243 CG0
ATOM     35  O   UNL     1      -2.067  -0.902 -11.577  1.00  0.00    -0.273 OA
ATOM     36  H   UNL     1      -0.412   0.475  -9.234  1.00  0.00     0.164 HD
ATOM     37  G   UNL     1       0.290  -0.352 -11.606  1.00  0.00     0.000 G0
ENDBRANCH  32  33
BRANCH  32  38
ATOM     38  C   UNL     1      -2.552  -1.239  -8.013  1.00  0.00     0.143 C 
ATOM     39  C   UNL     1      -3.501  -2.335  -8.485  1.00  0.00     0.041 C 
BRANCH  38  40
ATOM     40  O   UNL     1      -1.237  -1.803  -7.840  1.00  0.00    -0.391 OA
ATOM     41  H   UNL     1      -1.308  -2.751  -8.063  1.00  0.00     0.211 HD
ENDBRANCH  38  40
ENDBRANCH  32  38
ENDBRANCH  29  32
ENDBRANCH  27  28
BRANCH  27  42
ATOM     42  C   UNL     1      -3.489   2.379  -4.948  1.00  0.00     0.015 C 
ATOM     43  C   UNL     1      -4.888   2.691  -5.491  1.00  0.00     0.010 C 
ATOM     44  C   UNL     1      -3.500   1.051  -4.183  1.00  0.00     0.010 C 
ENDBRANCH  27  42
ENDBRANCH   3  27
TORSDOF 5
ENDMDL
MODEL 3
REMARK VINA RESULT:    -4.511      7.187     11.168
REMARK INTER + INTRA:         -10.511
REMARK INTER:                  -8.225
REMARK INTRA:                  -2.286
REMARK UNBOUND:                -2.440
REMARK SMILES CC[C@H](C)[C@H]1NC(=O)c2coc(n2)[C@H](C(C)C)NC(=O)[C@H]([C@@H](C)O)NC(=O)[C@H](C)NC(=O)c2csc1n2
REMARK SMILES IDX 11 1 13 2 12 3 9 4 10 5 7 6 6 7 8 8 5 10 36 11 35 12 34 13
REMARK SMILES IDX 37 14 33 15 31 16 32 17 30 18 28 20 29 21 3 23 4 24 2 25
REMARK SMILES IDX 1 26 14 27 18 28 19 29 20 30 21 32 25 33 26 34 27 35 22 38
REMARK SMILES IDX 23 39 24 40 15 42 16 43 17 44
REMARK H PARENT 6 9 30 19 18 31 25 36 24 41
REMARK Flexibility Score:   94.900
ROOT
ATOM      1  O   UNL     1      -0.877   7.455   1.301  1.00  0.00    -0.446 OA
ATOM      2  N   UNL     1       1.273   6.781   1.368  1.00  0.00    -0.207 NA
ATOM      3  C   UNL     1       0.215   7.148   2.069  1.00  0.00     0.217 A 
ATOM      4  C   UNL     1       0.842   6.825   0.054  1.00  0.00     0.167 A 
ATOM      5  C   UNL     1      -0.468   7.236   0.020  1.00  0.00     0.231 A 
ENDROOT
BRANCH   4   6
ATOM      6  C   UNL     1       1.700   6.506  -1.074  1.00  0.00     0.273 C 
ATOM      7  N   UNL     1       1.601   5.185  -1.432  1.00  0.00    -0.341 N 
ATOM      8  O   UNL     1       2.438   7.320  -1.615  1.00  0.00    -0.267 OA
ATOM      9  H   UNL     1       1.018   4.608  -0.833  1.00  0.00     0.164 HD
BRANCH   7  10
ATOM     10  C   UNL     1       2.519   4.544  -2.353  1.00  0.00     0.145 C 
BRANCH  10  11
ATOM     11  C   UNL     1       3.790   4.215  -1.583  1.00  0.00     0.116 A 
ATOM     12  S   UNL     1       5.311   4.249  -2.392  1.00  0.00    -0.124 S 
ATOM     13  C   UNL     1       6.091   3.844  -0.925  1.00  0.00     0.101 A 
ATOM     14  N   UNL     1       3.839   3.908  -0.297  1.00  0.00    -0.234 NA
ATOM     15  C   UNL     1       5.166   3.710   0.092  1.00  0.00     0.139 A 
BRANCH  15  16
ATOM     16  C   UNL     1       5.522   3.393   1.477  1.00  0.00     0.271 C 
ATOM     17  O   UNL     1       6.580   2.856   1.786  1.00  0.00    -0.267 OA
ATOM     18  N   UNL     1       4.557   3.758   2.392  1.00  0.00    -0.339 N 
ATOM     19  H   UNL     1       3.679   4.092   2.002  1.00  0.00     0.164 HD
BRANCH  18  20
ATOM     20  C   UNL     1       4.708   3.460   3.809  1.00  0.00     0.168 CG0
ATOM     21  C   UNL     1       5.374   4.620   4.553  1.00  0.00     0.041 C 
ATOM     22  G   UNL     1       3.368   3.165   4.501  1.00  0.00     0.000 G0
ENDBRANCH  18  20
ENDBRANCH  15  16
ENDBRANCH  10  11
BRANCH  10  23
ATOM     23  C   UNL     1       1.895   3.292  -3.026  1.00  0.00     0.015 C 
ATOM     24  C   UNL     1       0.492   2.951  -2.494  1.00  0.00     0.010 C 
BRANCH  23  25
ATOM     25  C   UNL     1       1.825   3.412  -4.565  1.00  0.00     0.002 C 
ATOM     26  C   UNL     1       0.442   3.763  -5.096  1.00  0.00     0.004 C 
ENDBRANCH  23  25
ENDBRANCH  10  23
ENDBRANCH   7  10
ENDBRANCH   4   6
BRANCH   3  27
ATOM     27  C   UNL     1       0.125   7.302   3.562  1.00  0.00     0.171 C 
BRANCH  27  28
ATOM     28  N   UNL     1       0.892   6.220   4.170  1.00  0.00    -0.342 N 
ATOM     29  C   UNL     1       0.318   5.252   4.964  1.00  0.00     0.245 C 
ATOM     30  O   UNL     1      -0.887   5.219   5.208  1.00  0.00    -0.273 OA
ATOM     31  H   UNL     1       1.874   6.115   3.921  1.00  0.00     0.164 HD
BRANCH  29  32
ATOM     32  C   UNL     1       1.265   4.118   5.410  1.00  0.00     0.200 C 
BRANCH  32  33
ATOM     33  N   UNL     1       2.520   4.244   4.659  1.00  0.00    -0.340 N 
ATOM     34  C   UNL     1       3.368   3.168   4.495  1.00  0.00     0.243 CG0
ATOM     35  O   UNL     1       3.144   2.079   5.020  1.00  0.00    -0.273 OA
ATOM     36  H   UNL     1       2.747   5.138   4.240  1.00  0.00     0.164 HD
ATOM     37  G   UNL     1       4.708   3.474   3.808  1.00  0.00     0.000 G0
ENDBRANCH  32  33
BRANCH  32  38
ATOM     38  C   UNL     1       1.475   4.127   6.942  1.00  0.00     0.143 C 
ATOM     39  C   UNL     1       2.023   5.440   7.488  1.00  0.00     0.041 C 
BRANCH  38  40
ATOM     40  O   UNL     1       0.236   3.823   7.611  1.00  0.00    -0.391 OA
ATOM     41  H   UNL     1      -0.428   3.670   6.913  1.00  0.00     0.211 HD
ENDBRANCH  38  40
ENDBRANCH  32  38
ENDBRANCH  29  32
ENDBRANCH  27  28
BRANCH  27  42
ATOM     42  C   UNL     1       0.508   8.677   4.162  1.00  0.00     0.015 C 
ATOM     43  C   UNL     1       0.257   8.836   5.666  1.00  0.00     0.010 C 
ATOM     44  C   UNL     1       1.949   9.070   3.819  1.00  0.00     0.010 C 
ENDBRANCH  27  42
ENDBRANCH   3  27
TORSDOF 5
ENDMDL
MODEL 4
REMARK VINA RESULT:    -4.222      2.131      2.937
REMARK INTER + INTRA:          -9.995
REMARK INTER:                  -7.797
REMARK INTRA:                  -2.198
REMARK UNBOUND:                -2.440
REMARK SMILES CC[C@H](C)[C@H]1NC(=O)c2coc(n2)[C@H](C(C)C)NC(=O)[C@H]([C@@H](C)O)NC(=O)[C@H](C)NC(=O)c2csc1n2
REMARK SMILES IDX 11 1 13 2 12 3 9 4 10 5 7 6 6 7 8 8 5 10 36 11 35 12 34 13
REMARK SMILES IDX 37 14 33 15 31 16 32 17 30 18 28 20 29 21 3 23 4 24 2 25
REMARK SMILES IDX 1 26 14 27 18 28 19 29 20 30 21 32 25 33 26 34 27 35 22 38
REMARK SMILES IDX 23 39 24 40 15 42 16 43 17 44
REMARK H PARENT 6 9 30 19 18 31 25 36 24 41
REMARK Flexibility Score:   94.900
ROOT
ATOM      1  O   UNL     1      -3.584   4.077  -4.871  1.00  0.00    -0.446 OA
ATOM      2  N   UNL     1      -2.389   3.864  -6.770  1.00  0.00    -0.207 NA
ATOM      3  C   UNL     1      -2.548   4.532  -5.642  1.00  0.00     0.217 A 
ATOM      4  C   UNL     1      -3.369   2.888  -6.728  1.00  0.00     0.167 A 
ATOM      5  C   UNL     1      -4.093   3.022  -5.568  1.00  0.00     0.231 A 
ENDROOT
BRANCH   4   6
ATOM      6  C   UNL     1      -3.572   1.919  -7.791  1.00  0.00     0.273 C 
ATOM      7  N   UNL     1      -2.681   0.879  -7.710  1.00  0.00    -0.341 N 
ATOM      8  O   UNL     1      -4.422   2.040  -8.665  1.00  0.00    -0.267 OA
ATOM      9  H   UNL     1      -1.973   0.961  -6.986  1.00  0.00     0.164 HD
BRANCH   7  10
ATOM     10  C   UNL     1      -2.496  -0.089  -8.773  1.00  0.00     0.145 C 
BRANCH  10  11
ATOM     11  C   UNL     1      -1.029  -0.057  -9.176  1.00  0.00     0.116 A 
ATOM     12  S   UNL     1      -0.481  -1.027 -10.491  1.00  0.00    -0.124 S 
ATOM     13  C   UNL     1       1.096  -0.401 -10.286  1.00  0.00     0.101 A 
ATOM     14  N   UNL     1      -0.100   0.687  -8.597  1.00  0.00    -0.234 NA
ATOM     15  C   UNL     1       1.125   0.506  -9.244  1.00  0.00     0.139 A 
BRANCH  15  16
ATOM     16  C   UNL     1       2.327   1.237  -8.836  1.00  0.00     0.271 C 
ATOM     17  O   UNL     1       3.427   1.041  -9.341  1.00  0.00    -0.267 OA
ATOM     18  N   UNL     1       2.097   2.159  -7.837  1.00  0.00    -0.339 N 
ATOM     19  H   UNL     1       1.168   2.147  -7.426  1.00  0.00     0.164 HD
BRANCH  18  20
ATOM     20  C   UNL     1       3.188   2.931  -7.258  1.00  0.00     0.168 CG0
ATOM     21  C   UNL     1       3.330   4.293  -7.942  1.00  0.00     0.041 C 
ATOM     22  G   UNL     1       3.008   3.178  -5.752  1.00  0.00     0.000 G0
ENDBRANCH  18  20
ENDBRANCH  15  16
ENDBRANCH  10  11
BRANCH  10  23
ATOM     23  C   UNL     1      -2.964  -1.510  -8.359  1.00  0.00     0.015 C 
ATOM     24  C   UNL     1      -3.751  -1.530  -7.038  1.00  0.00     0.010 C 
BRANCH  23  25
ATOM     25  C   UNL     1      -3.811  -2.202  -9.451  1.00  0.00     0.002 C 
ATOM     26  C   UNL     1      -5.072  -1.439  -9.832  1.00  0.00     0.004 C 
ENDBRANCH  23  25
ENDBRANCH  10  23
ENDBRANCH   7  10
ENDBRANCH   4   6
BRANCH   3  27
ATOM     27  C   UNL     1      -1.761   5.727  -5.177  1.00  0.00     0.171 C 
BRANCH  27  28
ATOM     28  N   UNL     1      -0.364   5.324  -5.063  1.00  0.00    -0.342 N 
ATOM     29  C   UNL     1       0.170   4.798  -3.908  1.00  0.00     0.245 C 
ATOM     30  O   UNL     1      -0.496   4.613  -2.891  1.00  0.00    -0.273 OA
ATOM     31  H   UNL     1       0.221   5.341  -5.898  1.00  0.00     0.164 HD
BRANCH  29  32
ATOM     32  C   UNL     1       1.631   4.312  -4.018  1.00  0.00     0.200 C 
BRANCH  32  33
ATOM     33  N   UNL     1       1.878   3.906  -5.407  1.00  0.00    -0.340 N 
ATOM     34  C   UNL     1       2.993   3.170  -5.751  1.00  0.00     0.243 CG0
ATOM     35  O   UNL     1       3.857   2.877  -4.927  1.00  0.00    -0.273 OA
ATOM     36  H   UNL     1       1.198   4.160  -6.115  1.00  0.00     0.164 HD
ATOM     37  G   UNL     1       3.198   2.933  -7.256  1.00  0.00     0.000 G0
ENDBRANCH  32  33
BRANCH  32  38
ATOM     38  C   UNL     1       2.624   5.387  -3.518  1.00  0.00     0.143 C 
ATOM     39  C   UNL     1       3.040   6.394  -4.585  1.00  0.00     0.041 C 
BRANCH  38  40
ATOM     40  O   UNL     1       2.058   6.098  -2.400  1.00  0.00    -0.391 OA
ATOM     41  H   UNL     1       1.881   7.007  -2.708  1.00  0.00     0.211 HD
ENDBRANCH  38  40
ENDBRANCH  32  38
ENDBRANCH  29  32
ENDBRANCH  27  28
BRANCH  27  42
ATOM     42  C   UNL     1      -1.912   7.038  -5.986  1.00  0.00     0.015 C 
ATOM     43  C   UNL     1      -3.328   7.349  -6.485  1.00  0.00     0.010 C 
ATOM     44  C   UNL     1      -1.337   8.244  -5.235  1.00  0.00     0.010 C 
ENDBRANCH  27  42
ENDBRANCH   3  27
TORSDOF 5
ENDMDL
MODEL 5
REMARK VINA RESULT:    -3.926     11.127     14.641
REMARK INTER + INTRA:          -9.465
REMARK INTER:                  -7.267
REMARK INTRA:                  -2.198
REMARK UNBOUND:                -2.440
REMARK SMILES CC[C@H](C)[C@H]1NC(=O)c2coc(n2)[C@H](C(C)C)NC(=O)[C@H]([C@@H](C)O)NC(=O)[C@H](C)NC(=O)c2csc1n2
REMARK SMILES IDX 11 1 13 2 12 3 9 4 10 5 7 6 6 7 8 8 5 10 36 11 35 12 34 13
REMARK SMILES IDX 37 14 33 15 31 16 32 17 30 18 28 20 29 21 3 23 4 24 2 25
REMARK SMILES IDX 1 26 14 27 18 28 19 29 20 30 21 32 25 33 26 34 27 35 22 38
REMARK SMILES IDX 23 39 24 40 15 42 16 43 17 44
REMARK H PARENT 6 9 30 19 18 31 25 36 24 41
REMARK Flexibility Score:   94.900
ROOT
ATOM      1  O   UNL     1       1.418   5.135   2.081  1.00  0.00    -0.446 OA
ATOM      2  N   UNL     1       3.256   5.747   3.233  1.00  0.00    -0.207 NA
ATOM      3  C   UNL     1       1.936   5.760   3.184  1.00  0.00     0.217 A 
ATOM      4  C   UNL     1       3.631   5.044   2.102  1.00  0.00     0.167 A 
ATOM      5  C   UNL     1       2.507   4.673   1.405  1.00  0.00     0.231 A 
ENDROOT
BRANCH   4   6
ATOM      6  C   UNL     1       5.017   4.797   1.744  1.00  0.00     0.273 C 
ATOM      7  N   UNL     1       5.387   3.501   1.998  1.00  0.00    -0.341 N 
ATOM      8  O   UNL     1       5.764   5.658   1.294  1.00  0.00    -0.267 OA
ATOM      9  H   UNL     1       4.687   2.926   2.459  1.00  0.00     0.164 HD
BRANCH   7  10
ATOM     10  C   UNL     1       6.764   3.049   1.969  1.00  0.00     0.145 C 
BRANCH  10  11
ATOM     11  C   UNL     1       7.269   3.020   3.405  1.00  0.00     0.116 A 
ATOM     12  S   UNL     1       8.793   2.299   3.760  1.00  0.00    -0.124 S 
ATOM     13  C   UNL     1       8.595   2.708   5.407  1.00  0.00     0.101 A 
ATOM     14  N   UNL     1       6.629   3.529   4.444  1.00  0.00    -0.234 NA
ATOM     15  C   UNL     1       7.396   3.367   5.600  1.00  0.00     0.139 A 
BRANCH  15  16
ATOM     16  C   UNL     1       6.947   3.873   6.899  1.00  0.00     0.271 C 
ATOM     17  O   UNL     1       7.715   4.089   7.831  1.00  0.00    -0.267 OA
ATOM     18  N   UNL     1       5.586   4.082   6.968  1.00  0.00    -0.339 N 
ATOM     19  H   UNL     1       5.046   3.760   6.169  1.00  0.00     0.164 HD
BRANCH  18  20
ATOM     20  C   UNL     1       4.951   4.519   8.205  1.00  0.00     0.168 CG0
ATOM     21  C   UNL     1       5.011   6.040   8.353  1.00  0.00     0.041 C 
ATOM     22  G   UNL     1       3.477   4.094   8.298  1.00  0.00     0.000 G0
ENDBRANCH  18  20
ENDBRANCH  15  16
ENDBRANCH  10  11
BRANCH  10  23
ATOM     23  C   UNL     1       6.916   1.678   1.261  1.00  0.00     0.015 C 
ATOM     24  C   UNL     1       5.578   1.080   0.796  1.00  0.00     0.010 C 
BRANCH  23  25
ATOM     25  C   UNL     1       7.879   1.732   0.053  1.00  0.00     0.002 C 
ATOM     26  C   UNL     1       8.189   0.370  -0.553  1.00  0.00     0.004 C 
ENDBRANCH  23  25
ENDBRANCH  10  23
ENDBRANCH   7  10
ENDBRANCH   4   6
BRANCH   3  27
ATOM     27  C   UNL     1       0.998   6.417   4.159  1.00  0.00     0.171 C 
BRANCH  27  28
ATOM     28  N   UNL     1       1.373   5.984   5.501  1.00  0.00    -0.342 N 
ATOM     29  C   UNL     1       0.550   5.218   6.296  1.00  0.00     0.245 C 
ATOM     30  O   UNL     1      -0.557   4.830   5.928  1.00  0.00    -0.273 OA
ATOM     31  H   UNL     1       2.320   6.170   5.829  1.00  0.00     0.164 HD
BRANCH  29  32
ATOM     32  C   UNL     1       1.170   4.750   7.629  1.00  0.00     0.200 C 
BRANCH  32  33
ATOM     33  N   UNL     1       2.627   4.911   7.542  1.00  0.00    -0.340 N 
ATOM     34  C   UNL     1       3.480   4.125   8.288  1.00  0.00     0.243 CG0
ATOM     35  O   UNL     1       3.062   3.304   9.103  1.00  0.00    -0.273 OA
ATOM     36  H   UNL     1       3.001   5.601   6.901  1.00  0.00     0.164 HD
ATOM     37  G   UNL     1       4.970   4.491   8.203  1.00  0.00     0.000 G0
ENDBRANCH  32  33
BRANCH  32  38
ATOM     38  C   UNL     1       0.553   5.498   8.834  1.00  0.00     0.143 C 
ATOM     39  C   UNL     1       0.904   6.980   8.892  1.00  0.00     0.041 C 
BRANCH  38  40
ATOM     40  O   UNL     1      -0.881   5.358   8.818  1.00  0.00    -0.391 OA
ATOM     41  H   UNL     1      -1.196   5.801   8.007  1.00  0.00     0.211 HD
ENDBRANCH  38  40
ENDBRANCH  32  38
ENDBRANCH  29  32
ENDBRANCH  27  28
BRANCH  27  42
ATOM     42  C   UNL     1       0.850   7.956   4.078  1.00  0.00     0.015 C 
ATOM     43  C   UNL     1       0.114   8.486   2.842  1.00  0.00     0.010 C 
ATOM     44  C   UNL     1       0.234   8.540   5.354  1.00  0.00     0.010 C 
ENDBRANCH  27  42
ENDBRANCH   3  27
TORSDOF 5
ENDMDL
MODEL 6
REMARK VINA RESULT:    -3.877      8.650     12.703
REMARK INTER + INTRA:          -9.376
REMARK INTER:                  -7.020
REMARK INTRA:                  -2.357
REMARK UNBOUND:                -2.440
REMARK SMILES CC[C@H](C)[C@H]1NC(=O)c2coc(n2)[C@H](C(C)C)NC(=O)[C@H]([C@@H](C)O)NC(=O)[C@H](C)NC(=O)c2csc1n2
REMARK SMILES IDX 11 1 13 2 12 3 9 4 10 5 7 6 6 7 8 8 5 10 36 11 35 12 34 13
REMARK SMILES IDX 37 14 33 15 31 16 32 17 30 18 28 20 29 21 3 23 4 24 2 25
REMARK SMILES IDX 1 26 14 27 18 28 19 29 20 30 21 32 25 33 26 34 27 35 22 38
REMARK SMILES IDX 23 39 24 40 15 42 16 43 17 44
REMARK H PARENT 6 9 30 19 18 31 25 36 24 41
REMARK Flexibility Score:   94.900
ROOT
ATOM      1  O   UNL     1       0.244   6.789   2.751  1.00  0.00    -0.446 OA
ATOM      2  N   UNL     1       1.918   5.280   2.790  1.00  0.00    -0.207 NA
ATOM      3  C   UNL     1       0.885   5.792   3.436  1.00  0.00     0.217 A 
ATOM      4  C   UNL     1       1.943   5.969   1.590  1.00  0.00     0.167 A 
ATOM      5  C   UNL     1       0.921   6.886   1.572  1.00  0.00     0.231 A 
ENDROOT
BRANCH   4   6
ATOM      6  C   UNL     1       2.941   5.734   0.561  1.00  0.00     0.273 C 
ATOM      7  N   UNL     1       2.942   4.429   0.139  1.00  0.00    -0.341 N 
ATOM      8  O   UNL     1       3.703   6.600   0.147  1.00  0.00    -0.267 OA
ATOM      9  H   UNL     1       2.317   3.804   0.640  1.00  0.00     0.164 HD
BRANCH   7  10
ATOM     10  C   UNL     1       3.989   3.866  -0.691  1.00  0.00     0.145 C 
BRANCH  10  11
ATOM     11  C   UNL     1       4.990   3.184   0.231  1.00  0.00     0.116 A 
ATOM     12  S   UNL     1       5.778   1.740  -0.282  1.00  0.00    -0.124 S 
ATOM     13  C   UNL     1       6.653   1.705   1.186  1.00  0.00     0.101 A 
ATOM     14  N   UNL     1       5.336   3.622   1.430  1.00  0.00    -0.234 NA
ATOM     15  C   UNL     1       6.308   2.782   1.980  1.00  0.00     0.139 A 
BRANCH  15  16
ATOM     16  C   UNL     1       6.904   3.048   3.291  1.00  0.00     0.271 C 
ATOM     17  O   UNL     1       8.039   2.695   3.589  1.00  0.00    -0.267 OA
ATOM     18  N   UNL     1       6.067   3.733   4.147  1.00  0.00    -0.339 N 
ATOM     19  H   UNL     1       5.114   3.870   3.821  1.00  0.00     0.164 HD
BRANCH  18  20
ATOM     20  C   UNL     1       6.466   4.026   5.517  1.00  0.00     0.168 CG0
ATOM     21  C   UNL     1       6.898   5.486   5.670  1.00  0.00     0.041 C 
ATOM     22  G   UNL     1       5.344   3.759   6.533  1.00  0.00     0.000 G0
ENDBRANCH  18  20
ENDBRANCH  15  16
ENDBRANCH  10  11
BRANCH  10  23
ATOM     23  C   UNL     1       3.427   2.902  -1.769  1.00  0.00     0.015 C 
ATOM     24  C   UNL     1       1.918   2.640  -1.625  1.00  0.00     0.010 C 
BRANCH  23  25
ATOM     25  C   UNL     1       3.709   3.387  -3.209  1.00  0.00     0.002 C 
ATOM     26  C   UNL     1       2.691   4.389  -3.736  1.00  0.00     0.004 C 
ENDBRANCH  23  25
ENDBRANCH  10  23
ENDBRANCH   7  10
ENDBRANCH   4   6
BRANCH   3  27
ATOM     27  C   UNL     1       0.407   5.428   4.815  1.00  0.00     0.171 C 
BRANCH  27  28
ATOM     28  N   UNL     1       1.572   5.376   5.692  1.00  0.00    -0.342 N 
ATOM     29  C   UNL     1       1.761   4.380   6.624  1.00  0.00     0.245 C 
ATOM     30  O   UNL     1       0.968   3.452   6.777  1.00  0.00    -0.273 OA
ATOM     31  H   UNL     1       2.327   6.045   5.545  1.00  0.00     0.164 HD
BRANCH  29  32
ATOM     32  C   UNL     1       3.113   4.421   7.367  1.00  0.00     0.200 C 
BRANCH  32  33
ATOM     33  N   UNL     1       4.187   4.467   6.368  1.00  0.00    -0.340 N 
ATOM     34  C   UNL     1       5.363   3.768   6.548  1.00  0.00     0.243 CG0
ATOM     35  O   UNL     1       5.590   3.132   7.575  1.00  0.00    -0.273 OA
ATOM     36  H   UNL     1       4.042   5.008   5.524  1.00  0.00     0.164 HD
ATOM     37  G   UNL     1       6.453   4.015   5.493  1.00  0.00     0.000 G0
ENDBRANCH  32  33
BRANCH  32  38
ATOM     38  C   UNL     1       3.172   5.596   8.370  1.00  0.00     0.143 C 
ATOM     39  C   UNL     1       1.890   5.796   9.171  1.00  0.00     0.041 C 
BRANCH  38  40
ATOM     40  O   UNL     1       4.270   5.410   9.284  1.00  0.00    -0.391 OA
ATOM     41  H   UNL     1       3.893   5.028  10.100  1.00  0.00     0.211 HD
ENDBRANCH  38  40
ENDBRANCH  32  38
ENDBRANCH  29  32
ENDBRANCH  27  28
BRANCH  27  42
ATOM     42  C   UNL     1      -0.727   6.287   5.426  1.00  0.00     0.015 C 
ATOM     43  C   UNL     1      -1.833   5.507   6.146  1.00  0.00     0.010 C 
ATOM     44  C   UNL     1      -0.181   7.394   6.334  1.00  0.00     0.010 C 
ENDBRANCH  27  42
ENDBRANCH   3  27
TORSDOF 5
ENDMDL
MODEL 7
REMARK VINA RESULT:    -3.807      2.626      5.789
REMARK INTER + INTRA:          -9.251
REMARK INTER:                  -8.305
REMARK INTRA:                  -0.946
REMARK UNBOUND:                -2.440
REMARK SMILES CC[C@H](C)[C@H]1NC(=O)c2coc(n2)[C@H](C(C)C)NC(=O)[C@H]([C@@H](C)O)NC(=O)[C@H](C)NC(=O)c2csc1n2
REMARK SMILES IDX 11 1 13 2 12 3 9 4 10 5 7 6 6 7 8 8 5 10 36 11 35 12 34 13
REMARK SMILES IDX 37 14 33 15 31 16 32 17 30 18 28 20 29 21 3 23 4 24 2 25
REMARK SMILES IDX 1 26 14 27 18 28 19 29 20 30 21 32 25 33 26 34 27 35 22 38
REMARK SMILES IDX 23 39 24 40 15 42 16 43 17 44
REMARK H PARENT 6 9 30 19 18 31 25 36 24 41
REMARK Flexibility Score:   94.900
ROOT
ATOM      1  O   UNL     1       3.113   2.383  -9.438  1.00  0.00    -0.446 OA
ATOM      2  N   UNL     1       1.557   1.646  -7.983  1.00  0.00    -0.207 NA
ATOM      3  C   UNL     1       2.455   2.577  -8.252  1.00  0.00     0.217 A 
ATOM      4  C   UNL     1       1.608   0.799  -9.076  1.00  0.00     0.167 A 
ATOM      5  C   UNL     1       2.557   1.254  -9.959  1.00  0.00     0.231 A 
ENDROOT
BRANCH   4   6
ATOM      6  C   UNL     1       0.783  -0.391  -9.197  1.00  0.00     0.273 C 
ATOM      7  N   UNL     1      -0.434  -0.111  -9.766  1.00  0.00    -0.341 N 
ATOM      8  O   UNL     1       1.132  -1.500  -8.811  1.00  0.00    -0.267 OA
ATOM      9  H   UNL     1      -0.619   0.871  -9.950  1.00  0.00     0.164 HD
BRANCH   7  10
ATOM     10  C   UNL     1      -1.537  -1.052  -9.779  1.00  0.00     0.145 C 
BRANCH  10  11
ATOM     11  C   UNL     1      -2.436  -0.725  -8.596  1.00  0.00     0.116 A 
ATOM     12  S   UNL     1      -3.204  -2.001  -7.728  1.00  0.00    -0.124 S 
ATOM     13  C   UNL     1      -3.896  -0.852  -6.668  1.00  0.00     0.101 A 
ATOM     14  N   UNL     1      -2.681   0.494  -8.144  1.00  0.00    -0.234 NA
ATOM     15  C   UNL     1      -3.509   0.426  -7.021  1.00  0.00     0.139 A 
BRANCH  15  16
ATOM     16  C   UNL     1      -3.914   1.629  -6.290  1.00  0.00     0.271 C 
ATOM     17  O   UNL     1      -4.821   1.631  -5.464  1.00  0.00    -0.267 OA
ATOM     18  N   UNL     1      -3.179   2.748  -6.620  1.00  0.00    -0.339 N 
ATOM     19  H   UNL     1      -2.532   2.641  -7.397  1.00  0.00     0.164 HD
BRANCH  18  20
ATOM     20  C   UNL     1      -3.485   4.049  -6.042  1.00  0.00     0.168 CG0
ATOM     21  C   UNL     1      -4.391   3.915  -4.816  1.00  0.00     0.041 C 
ATOM     22  G   UNL     1      -2.226   4.821  -5.614  1.00  0.00     0.000 G0
ENDBRANCH  18  20
ENDBRANCH  15  16
ENDBRANCH  10  11
BRANCH  10  23
ATOM     23  C   UNL     1      -2.304  -1.036 -11.128  1.00  0.00     0.015 C 
ATOM     24  C   UNL     1      -2.138  -2.332 -11.939  1.00  0.00     0.010 C 
BRANCH  23  25
ATOM     25  C   UNL     1      -3.814  -0.752 -10.953  1.00  0.00     0.002 C 
ATOM     26  C   UNL     1      -4.715  -1.877 -11.443  1.00  0.00     0.004 C 
ENDBRANCH  23  25
ENDBRANCH  10  23
ENDBRANCH   7  10
ENDBRANCH   4   6
BRANCH   3  27
ATOM     27  C   UNL     1       2.839   3.744  -7.386  1.00  0.00     0.171 C 
BRANCH  27  28
ATOM     28  N   UNL     1       1.919   3.782  -6.254  1.00  0.00    -0.342 N 
ATOM     29  C   UNL     1       1.111   4.864  -5.985  1.00  0.00     0.245 C 
ATOM     30  O   UNL     1       1.093   5.873  -6.688  1.00  0.00    -0.273 OA
ATOM     31  H   UNL     1       1.795   2.939  -5.695  1.00  0.00     0.164 HD
BRANCH  29  32
ATOM     32  C   UNL     1       0.113   4.668  -4.824  1.00  0.00     0.200 C 
BRANCH  32  33
ATOM     33  N   UNL     1      -1.111   4.065  -5.365  1.00  0.00    -0.340 N 
ATOM     34  C   UNL     1      -2.236   4.825  -5.611  1.00  0.00     0.243 CG0
ATOM     35  O   UNL     1      -2.286   6.021  -5.331  1.00  0.00    -0.273 OA
ATOM     36  H   UNL     1      -1.111   3.074  -5.578  1.00  0.00     0.164 HD
ATOM     37  G   UNL     1      -3.486   4.044  -6.046  1.00  0.00     0.000 G0
ENDBRANCH  32  33
BRANCH  32  38
ATOM     38  C   UNL     1       0.736   3.841  -3.676  1.00  0.00     0.143 C 
ATOM     39  C   UNL     1       1.246   4.680  -2.510  1.00  0.00     0.041 C 
BRANCH  38  40
ATOM     40  O   UNL     1      -0.222   2.886  -3.180  1.00  0.00    -0.391 OA
ATOM     41  H   UNL     1      -0.481   2.330  -3.940  1.00  0.00     0.211 HD
ENDBRANCH  38  40
ENDBRANCH  32  38
ENDBRANCH  29  32
ENDBRANCH  27  28
BRANCH  27  42
ATOM     42  C   UNL     1       4.314   3.835  -6.923  1.00  0.00     0.015 C 
ATOM     43  C   UNL     1       5.016   5.168  -7.208  1.00  0.00     0.010 C 
ATOM     44  C   UNL     1       4.477   3.454  -5.448  1.00  0.00     0.010 C 
ENDBRANCH  27  42
ENDBRANCH   3  27
TORSDOF 5
ENDMDL
MODEL 8
REMARK VINA RESULT:    -3.672      2.349      5.874
REMARK INTER + INTRA:          -9.011
REMARK INTER:                  -7.610
REMARK INTRA:                  -1.401
REMARK UNBOUND:                -2.440
REMARK SMILES CC[C@H](C)[C@H]1NC(=O)c2coc(n2)[C@H](C(C)C)NC(=O)[C@H]([C@@H](C)O)NC(=O)[C@H](C)NC(=O)c2csc1n2
REMARK SMILES IDX 11 1 13 2 12 3 9 4 10 5 7 6 6 7 8 8 5 10 36 11 35 12 34 13
REMARK SMILES IDX 37 14 33 15 31 16 32 17 30 18 28 20 29 21 3 23 4 24 2 25
REMARK SMILES IDX 1 26 14 27 18 28 19 29 20 30 21 32 25 33 26 34 27 35 22 38
REMARK SMILES IDX 23 39 24 40 15 42 16 43 17 44
REMARK H PARENT 6 9 30 19 18 31 25 36 24 41
REMARK Flexibility Score:   94.900
ROOT
ATOM      1  O   UNL     1       4.679   1.469 -10.047  1.00  0.00    -0.446 OA
ATOM      2  N   UNL     1       2.835   1.276  -8.764  1.00  0.00    -0.207 NA
ATOM      3  C   UNL     1       3.939   1.961  -9.004  1.00  0.00     0.217 A 
ATOM      4  C   UNL     1       2.834   0.284  -9.730  1.00  0.00     0.167 A 
ATOM      5  C   UNL     1       3.959   0.408 -10.508  1.00  0.00     0.231 A 
ENDROOT
BRANCH   4   6
ATOM      6  C   UNL     1       1.793  -0.723  -9.831  1.00  0.00     0.273 C 
ATOM      7  N   UNL     1       0.678  -0.241 -10.470  1.00  0.00    -0.341 N 
ATOM      8  O   UNL     1       1.898  -1.855  -9.376  1.00  0.00    -0.267 OA
ATOM      9  H   UNL     1       0.700   0.746 -10.710  1.00  0.00     0.164 HD
BRANCH   7  10
ATOM     10  C   UNL     1      -0.590  -0.944 -10.489  1.00  0.00     0.145 C 
BRANCH  10  11
ATOM     11  C   UNL     1      -1.461  -0.352  -9.391  1.00  0.00     0.116 A 
ATOM     12  S   UNL     1      -3.042  -0.985  -9.121  1.00  0.00    -0.124 S 
ATOM     13  C   UNL     1      -3.252   0.114  -7.828  1.00  0.00     0.101 A 
ATOM     14  N   UNL     1      -1.100   0.631  -8.583  1.00  0.00    -0.234 NA
ATOM     15  C   UNL     1      -2.122   0.893  -7.668  1.00  0.00     0.139 A 
BRANCH  15  16
ATOM     16  C   UNL     1      -1.980   1.913  -6.626  1.00  0.00     0.271 C 
ATOM     17  O   UNL     1      -1.657   1.645  -5.474  1.00  0.00    -0.267 OA
ATOM     18  N   UNL     1      -2.241   3.192  -7.068  1.00  0.00    -0.339 N 
ATOM     19  H   UNL     1      -2.607   3.270  -8.014  1.00  0.00     0.164 HD
BRANCH  18  20
ATOM     20  C   UNL     1      -2.215   4.327  -6.155  1.00  0.00     0.168 CG0
ATOM     21  C   UNL     1      -2.978   4.019  -4.864  1.00  0.00     0.041 C 
ATOM     22  G   UNL     1      -0.787   4.746  -5.769  1.00  0.00     0.000 G0
ENDBRANCH  18  20
ENDBRANCH  15  16
ENDBRANCH  10  11
BRANCH  10  23
ATOM     23  C   UNL     1      -1.271  -0.884 -11.882  1.00  0.00     0.015 C 
ATOM     24  C   UNL     1      -1.591   0.548 -12.342  1.00  0.00     0.010 C 
BRANCH  23  25
ATOM     25  C   UNL     1      -0.444  -1.585 -12.983  1.00  0.00     0.002 C 
ATOM     26  C   UNL     1       0.348  -2.788 -12.491  1.00  0.00     0.004 C 
ENDBRANCH  23  25
ENDBRANCH  10  23
ENDBRANCH   7  10
ENDBRANCH   4   6
BRANCH   3  27
ATOM     27  C   UNL     1       4.458   3.144  -8.234  1.00  0.00     0.171 C 
BRANCH  27  28
ATOM     28  N   UNL     1       3.585   3.345  -7.082  1.00  0.00    -0.342 N 
ATOM     29  C   UNL     1       2.541   4.242  -7.084  1.00  0.00     0.245 C 
ATOM     30  O   UNL     1       2.256   4.930  -8.063  1.00  0.00    -0.273 OA
ATOM     31  H   UNL     1       3.688   2.729  -6.276  1.00  0.00     0.164 HD
BRANCH  29  32
ATOM     32  C   UNL     1       1.651   4.221  -5.823  1.00  0.00     0.200 C 
BRANCH  32  33
ATOM     33  N   UNL     1       0.263   3.995  -6.242  1.00  0.00    -0.340 N 
ATOM     34  C   UNL     1      -0.769   4.765  -5.747  1.00  0.00     0.243 CG0
ATOM     35  O   UNL     1      -0.583   5.627  -4.891  1.00  0.00    -0.273 OA
ATOM     36  H   UNL     1       0.074   3.270  -6.925  1.00  0.00     0.164 HD
ATOM     37  G   UNL     1      -2.184   4.331  -6.164  1.00  0.00     0.000 G0
ENDBRANCH  32  33
BRANCH  32  38
ATOM     38  C   UNL     1       2.149   3.176  -4.797  1.00  0.00     0.143 C 
ATOM     39  C   UNL     1       1.844   3.533  -3.347  1.00  0.00     0.041 C 
BRANCH  38  40
ATOM     40  O   UNL     1       1.579   1.886  -5.091  1.00  0.00    -0.391 OA
ATOM     41  H   UNL     1       1.698   1.740  -6.049  1.00  0.00     0.211 HD
ENDBRANCH  38  40
ENDBRANCH  32  38
ENDBRANCH  29  32
ENDBRANCH  27  28
BRANCH  27  42
ATOM     42  C   UNL     1       5.951   3.127  -7.821  1.00  0.00     0.015 C 
ATOM     43  C   UNL     1       6.920   3.770  -8.820  1.00  0.00     0.010 C 
ATOM     44  C   UNL     1       6.164   3.713  -6.422  1.00  0.00     0.010 C 
ENDBRANCH  27  42
ENDBRANCH   3  27
TORSDOF 5
ENDMDL
MODEL 9
REMARK VINA RESULT:    -3.459      8.135     11.397
REMARK INTER + INTRA:          -8.630
REMARK INTER:                  -7.080
REMARK INTRA:                  -1.550
REMARK UNBOUND:                -2.440
REMARK SMILES CC[C@H](C)[C@H]1NC(=O)c2coc(n2)[C@H](C(C)C)NC(=O)[C@H]([C@@H](C)O)NC(=O)[C@H](C)NC(=O)c2csc1n2
REMARK SMILES IDX 11 1 13 2 12 3 9 4 10 5 7 6 6 7 8 8 5 10 36 11 35 12 34 13
REMARK SMILES IDX 37 14 33 15 31 16 32 17 30 18 28 20 29 21 3 23 4 24 2 25
REMARK SMILES IDX 1 26 14 27 18 28 19 29 20 30 21 32 25 33 26 34 27 35 22 38
REMARK SMILES IDX 23 39 24 40 15 42 16 43 17 44
REMARK H PARENT 6 9 30 19 18 31 25 36 24 41
REMARK Flexibility Score:   94.900
ROOT
ATOM      1  O   UNL     1      -0.141   7.794   3.849  1.00  0.00    -0.446 OA
ATOM      2  N   UNL     1       0.520   6.267   2.328  1.00  0.00    -0.207 NA
ATOM      3  C   UNL     1       0.047   6.472   3.545  1.00  0.00     0.217 A 
ATOM      4  C   UNL     1       0.625   7.536   1.787  1.00  0.00     0.167 A 
ATOM      5  C   UNL     1       0.220   8.462   2.718  1.00  0.00     0.231 A 
ENDROOT
BRANCH   4   6
ATOM      6  C   UNL     1       1.125   7.788   0.446  1.00  0.00     0.273 C 
ATOM      7  N   UNL     1       1.043   6.671  -0.346  1.00  0.00    -0.341 N 
ATOM      8  O   UNL     1       1.585   8.865   0.086  1.00  0.00    -0.267 OA
ATOM      9  H   UNL     1       0.725   5.825   0.117  1.00  0.00     0.164 HD
BRANCH   7  10
ATOM     10  C   UNL     1       1.691   6.569  -1.639  1.00  0.00     0.145 C 
BRANCH  10  11
ATOM     11  C   UNL     1       2.957   5.744  -1.455  1.00  0.00     0.116 A 
ATOM     12  S   UNL     1       4.258   5.915  -2.572  1.00  0.00    -0.124 S 
ATOM     13  C   UNL     1       5.168   4.780  -1.674  1.00  0.00     0.101 A 
ATOM     14  N   UNL     1       3.165   4.885  -0.471  1.00  0.00    -0.234 NA
ATOM     15  C   UNL     1       4.446   4.338  -0.582  1.00  0.00     0.139 A 
BRANCH  15  16
ATOM     16  C   UNL     1       4.962   3.380   0.399  1.00  0.00     0.271 C 
ATOM     17  O   UNL     1       5.491   2.321   0.080  1.00  0.00    -0.267 OA
ATOM     18  N   UNL     1       4.795   3.787   1.706  1.00  0.00    -0.339 N 
ATOM     19  H   UNL     1       4.243   4.630   1.842  1.00  0.00     0.164 HD
BRANCH  18  20
ATOM     20  C   UNL     1       5.186   2.932   2.819  1.00  0.00     0.168 CG0
ATOM     21  C   UNL     1       6.574   3.304   3.345  1.00  0.00     0.041 C 
ATOM     22  G   UNL     1       4.202   3.002   3.997  1.00  0.00     0.000 G0
ENDBRANCH  18  20
ENDBRANCH  15  16
ENDBRANCH  10  11
BRANCH  10  23
ATOM     23  C   UNL     1       0.750   5.975  -2.721  1.00  0.00     0.015 C 
ATOM     24  C   UNL     1       0.558   4.455  -2.592  1.00  0.00     0.010 C 
BRANCH  23  25
ATOM     25  C   UNL     1      -0.640   6.650  -2.741  1.00  0.00     0.002 C 
ATOM     26  C   UNL     1      -1.390   6.481  -4.054  1.00  0.00     0.004 C 
ENDBRANCH  23  25
ENDBRANCH  10  23
ENDBRANCH   7  10
ENDBRANCH   4   6
BRANCH   3  27
ATOM     27  C   UNL     1      -0.237   5.433   4.594  1.00  0.00     0.171 C 
BRANCH  27  28
ATOM     28  N   UNL     1       1.014   4.745   4.892  1.00  0.00    -0.342 N 
ATOM     29  C   UNL     1       2.106   5.382   5.439  1.00  0.00     0.245 C 
ATOM     30  O   UNL     1       2.101   6.576   5.733  1.00  0.00    -0.273 OA
ATOM     31  H   UNL     1       1.055   3.732   4.783  1.00  0.00     0.164 HD
BRANCH  29  32
ATOM     32  C   UNL     1       3.292   4.464   5.803  1.00  0.00     0.200 C 
BRANCH  32  33
ATOM     33  N   UNL     1       4.102   4.259   4.596  1.00  0.00    -0.340 N 
ATOM     34  C   UNL     1       4.187   3.021   3.992  1.00  0.00     0.243 CG0
ATOM     35  O   UNL     1       3.644   2.026   4.470  1.00  0.00    -0.273 OA
ATOM     36  H   UNL     1       4.586   5.054   4.196  1.00  0.00     0.164 HD
ATOM     37  G   UNL     1       5.176   2.917   2.820  1.00  0.00     0.000 G0
ENDBRANCH  32  33
BRANCH  32  38
ATOM     38  C   UNL     1       4.107   5.035   6.986  1.00  0.00     0.143 C 
ATOM     39  C   UNL     1       5.039   4.024   7.645  1.00  0.00     0.041 C 
BRANCH  38  40
ATOM     40  O   UNL     1       4.881   6.169   6.549  1.00  0.00    -0.391 OA
ATOM     41  H   UNL     1       5.753   6.095   6.982  1.00  0.00     0.211 HD
ENDBRANCH  38  40
ENDBRANCH  32  38
ENDBRANCH  29  32
ENDBRANCH  27  28
BRANCH  27  42
ATOM     42  C   UNL     1      -0.951   5.901   5.886  1.00  0.00     0.015 C 
ATOM     43  C   UNL     1      -2.478   6.008   5.796  1.00  0.00     0.010 C 
ATOM     44  C   UNL     1      -0.549   5.057   7.101  1.00  0.00     0.010 C 
ENDBRANCH  27  42
ENDBRANCH   3  27
TORSDOF 5
ENDMDL
MODEL 10
REMARK VINA RESULT:    -3.449      2.356      5.909
REMARK INTER + INTRA:          -8.612
REMARK INTER:                  -7.383
REMARK INTRA:                  -1.229
REMARK UNBOUND:                -2.440
REMARK SMILES CC[C@H](C)[C@H]1NC(=O)c2coc(n2)[C@H](C(C)C)NC(=O)[C@H]([C@@H](C)O)NC(=O)[C@H](C)NC(=O)c2csc1n2
REMARK SMILES IDX 11 1 13 2 12 3 9 4 10 5 7 6 6 7 8 8 5 10 36 11 35 12 34 13
REMARK SMILES IDX 37 14 33 15 31 16 32 17 30 18 28 20 29 21 3 23 4 24 2 25
REMARK SMILES IDX 1 26 14 27 18 28 19 29 20 30 21 32 25 33 26 34 27 35 22 38
REMARK SMILES IDX 23 39 24 40 15 42 16 43 17 44
REMARK H PARENT 6 9 30 19 18 31 25 36 24 41
REMARK Flexibility Score:   94.900
ROOT
ATOM      1  O   UNL     1       3.762   1.581 -10.564  1.00  0.00    -0.446 OA
ATOM      2  N   UNL     1       2.748   1.324  -8.567  1.00  0.00    -0.207 NA
ATOM      3  C   UNL     1       3.741   1.890  -9.230  1.00  0.00     0.217 A 
ATOM      4  C   UNL     1       2.054   0.618  -9.534  1.00  0.00     0.167 A 
ATOM      5  C   UNL     1       2.676   0.779 -10.748  1.00  0.00     0.231 A 
ENDROOT
BRANCH   4   6
ATOM      6  C   UNL     1       0.875  -0.179  -9.241  1.00  0.00     0.273 C 
ATOM      7  N   UNL     1      -0.267   0.581  -9.240  1.00  0.00    -0.341 N 
ATOM      8  O   UNL     1       0.912  -1.380  -9.000  1.00  0.00    -0.267 OA
ATOM      9  H   UNL     1      -0.131   1.580  -9.366  1.00  0.00     0.164 HD
BRANCH   7  10
ATOM     10  C   UNL     1      -1.539   0.098  -8.741  1.00  0.00     0.145 C 
BRANCH  10  11
ATOM     11  C   UNL     1      -1.884   0.909  -7.500  1.00  0.00     0.116 A 
ATOM     12  S   UNL     1      -3.401   0.669  -6.717  1.00  0.00    -0.124 S 
ATOM     13  C   UNL     1      -2.965   1.826  -5.536  1.00  0.00     0.101 A 
ATOM     14  N   UNL     1      -1.092   1.806  -6.936  1.00  0.00    -0.234 NA
ATOM     15  C   UNL     1      -1.703   2.326  -5.793  1.00  0.00     0.139 A 
BRANCH  15  16
ATOM     16  C   UNL     1      -1.035   3.316  -4.945  1.00  0.00     0.271 C 
ATOM     17  O   UNL     1      -0.601   3.052  -3.830  1.00  0.00    -0.267 OA
ATOM     18  N   UNL     1      -0.942   4.564  -5.525  1.00  0.00    -0.339 N 
ATOM     19  H   UNL     1      -1.437   4.683  -6.405  1.00  0.00     0.164 HD
BRANCH  18  20
ATOM     20  C   UNL     1      -0.367   5.691  -4.802  1.00  0.00     0.168 CG0
ATOM     21  C   UNL     1      -0.852   5.726  -3.351  1.00  0.00     0.041 C 
ATOM     22  G   UNL     1       1.169   5.664  -4.785  1.00  0.00     0.000 G0
ENDBRANCH  18  20
ENDBRANCH  15  16
ENDBRANCH  10  11
BRANCH  10  23
ATOM     23  C   UNL     1      -2.654   0.162  -9.818  1.00  0.00     0.015 C 
ATOM     24  C   UNL     1      -2.208   0.856 -11.116  1.00  0.00     0.010 C 
BRANCH  23  25
ATOM     25  C   UNL     1      -3.224  -1.231 -10.173  1.00  0.00     0.002 C 
ATOM     26  C   UNL     1      -3.185  -2.226  -9.021  1.00  0.00     0.004 C 
ENDBRANCH  23  25
ENDBRANCH  10  23
ENDBRANCH   7  10
ENDBRANCH   4   6
BRANCH   3  27
ATOM     27  C   UNL     1       4.831   2.758  -8.664  1.00  0.00     0.171 C 
BRANCH  27  28
ATOM     28  N   UNL     1       4.416   3.184  -7.331  1.00  0.00    -0.342 N 
ATOM     29  C   UNL     1       3.695   4.335  -7.105  1.00  0.00     0.245 C 
ATOM     30  O   UNL     1       3.333   5.082  -8.013  1.00  0.00    -0.273 OA
ATOM     31  H   UNL     1       4.580   2.558  -6.544  1.00  0.00     0.164 HD
BRANCH  29  32
ATOM     32  C   UNL     1       3.237   4.551  -5.648  1.00  0.00     0.200 C 
BRANCH  32  33
ATOM     33  N   UNL     1       1.784   4.763  -5.647  1.00  0.00    -0.340 N 
ATOM     34  C   UNL     1       1.195   5.679  -4.801  1.00  0.00     0.243 CG0
ATOM     35  O   UNL     1       1.846   6.309  -3.970  1.00  0.00    -0.273 OA
ATOM     36  H   UNL     1       1.217   4.236  -6.300  1.00  0.00     0.164 HD
ATOM     37  G   UNL     1      -0.342   5.700  -4.808  1.00  0.00     0.000 G0
ENDBRANCH  32  33
BRANCH  32  38
ATOM     38  C   UNL     1       3.676   3.380  -4.738  1.00  0.00     0.143 C 
ATOM     39  C   UNL     1       3.994   3.791  -3.305  1.00  0.00     0.041 C 
BRANCH  38  40
ATOM     40  O   UNL     1       2.655   2.363  -4.717  1.00  0.00    -0.391 OA
ATOM     41  H   UNL     1       3.011   1.622  -4.191  1.00  0.00     0.211 HD
ENDBRANCH  38  40
ENDBRANCH  32  38
ENDBRANCH  29  32
ENDBRANCH  27  28
BRANCH  27  42
ATOM     42  C   UNL     1       6.269   2.183  -8.656  1.00  0.00     0.015 C 
ATOM     43  C   UNL     1       6.402   0.728  -9.118  1.00  0.00     0.010 C 
ATOM     44  C   UNL     1       7.247   3.076  -9.426  1.00  0.00     0.010 C 
ENDBRANCH  27  42
ENDBRANCH   3  27
TORSDOF 5
ENDMDL
