MODEL 1
REMARK VINA RESULT:    -6.820      0.000      0.000
REMARK INTER + INTRA:         -22.156
REMARK INTER:                 -16.986
REMARK INTRA:                  -5.170
REMARK UNBOUND:                -5.170
REMARK SMILES CCCCCCC[C@H](N)[C@H](O)C(=O)N[C@H](C)C(=O)N(C)[C@H](CC(C)C)C(=O)N[C@@H](Cc1ccc(O)cc1)C(=O)N[C@@H](Cc1ccc(O)cc1)C(=O)O
REMARK SMILES IDX 18 1 17 2 15 3 16 4 14 5 12 6 13 7 10 9 11 10 8 12 9 13 7 16
REMARK SMILES IDX 6 17 5 18 4 19 3 20 2 21 1 22 19 23 20 24 21 25 22 26 23 27
REMARK SMILES IDX 24 28 25 29 26 30 27 31 28 32 29 34 30 35 31 36 32 37 37 38
REMARK SMILES IDX 33 39 36 40 34 41 35 42 38 44 39 45 40 46 41 48 42 49 43 50
REMARK SMILES IDX 44 51 49 52 45 53 48 54 46 55 47 56 50 58 51 59 52 60
REMARK H PARENT 14 8 11 11 9 14 9 15 28 33 35 43 40 47 47 57 52 61
ROOT
ATOM      1  O   UNL     1      -4.096   7.140  11.167  1.00  0.00    -0.272 OA
ATOM      2  C   UNL     1      -3.944   8.327  10.842  1.00  0.00     0.245 C 
ENDROOT
BRANCH   2   3
ATOM      3  C   UNL     1      -4.597   9.425  11.718  1.00  0.00     0.168 C 
ATOM      4  C   UNL     1      -5.365  10.421  10.855  1.00  0.00     0.041 C 
BRANCH   3   5
ATOM      5  N   UNL     1      -5.405   8.927  12.820  1.00  0.00    -0.342 N 
ATOM      6  C   UNL     1      -4.863   8.667  14.061  1.00  0.00     0.251 C 
ATOM      7  O   UNL     1      -3.670   8.793  14.318  1.00  0.00    -0.272 OA
ATOM      8  H   UNL     1      -6.402   8.750  12.717  1.00  0.00     0.164 HD
BRANCH   6   9
ATOM      9  C   UNL     1      -5.924   8.287  15.106  1.00  0.00     0.219 C 
BRANCH   9  10
ATOM     10  O   UNL     1      -5.407   7.435  16.135  1.00  0.00    -0.382 OA
ATOM     11  H   UNL     1      -6.091   7.481  16.839  1.00  0.00     0.211 HD
ENDBRANCH   9  10
BRANCH   9  12
ATOM     12  C   UNL     1      -6.643   9.518  15.719  1.00  0.00     0.089 C 
BRANCH  12  13
ATOM     13  N   UNL     1      -5.728  10.680  15.641  1.00  0.00    -0.325 NA
ATOM     14  H   UNL     1      -6.076  11.423  16.250  1.00  0.00     0.119 HD
ATOM     15  H   UNL     1      -5.768  11.069  14.696  1.00  0.00     0.119 HD
ENDBRANCH  12  13
BRANCH  12  16
ATOM     16  C   UNL     1      -8.015   9.879  15.102  1.00  0.00     0.022 C 
BRANCH  16  17
ATOM     17  C   UNL     1      -8.067  10.834  13.902  1.00  0.00     0.002 C 
BRANCH  17  18
ATOM     18  C   UNL     1      -9.395  11.564  13.716  1.00  0.00     0.000 C 
BRANCH  18  19
ATOM     19  C   UNL     1     -10.616  10.636  13.663  1.00  0.00    -0.000 C 
BRANCH  19  20
ATOM     20  C   UNL     1     -11.944  11.287  14.058  1.00  0.00    -0.000 C 
BRANCH  20  21
ATOM     21  C   UNL     1     -12.379  10.943  15.485  1.00  0.00    -0.003 C 
ATOM     22  C   UNL     1     -11.911   9.553  15.888  1.00  0.00     0.004 C 
ENDBRANCH  20  21
ENDBRANCH  19  20
ENDBRANCH  18  19
ENDBRANCH  17  18
ENDBRANCH  16  17
ENDBRANCH  12  16
ENDBRANCH   9  12
ENDBRANCH   6   9
ENDBRANCH   3   5
ENDBRANCH   2   3
BRANCH   2  23
ATOM     23  N   UNL     1      -3.102   8.657   9.785  1.00  0.00    -0.332 N 
ATOM     24  C   UNL     1      -2.018   9.625   9.863  1.00  0.00     0.147 C 
BRANCH  23  25
ATOM     25  C   UNL     1      -3.187   7.915   8.497  1.00  0.00     0.174 C 
BRANCH  25  26
ATOM     26  C   UNL     1      -2.458   8.634   7.338  1.00  0.00     0.038 C 
BRANCH  26  27
ATOM     27  C   UNL     1      -1.430   7.806   6.536  1.00  0.00    -0.015 C 
ATOM     28  C   UNL     1      -1.100   6.474   7.210  1.00  0.00     0.007 C 
ATOM     29  C   UNL     1      -1.831   7.586   5.079  1.00  0.00     0.007 C 
ENDBRANCH  26  27
ENDBRANCH  25  26
BRANCH  25  30
ATOM     30  C   UNL     1      -4.659   7.562   8.182  1.00  0.00     0.243 C 
ATOM     31  O   UNL     1      -5.470   8.416   7.827  1.00  0.00    -0.273 OA
ATOM     32  N   UNL     1      -4.998   6.242   8.331  1.00  0.00    -0.342 N 
ATOM     33  H   UNL     1      -4.240   5.573   8.490  1.00  0.00     0.164 HD
BRANCH  32  34
ATOM     34  C   UNL     1      -6.353   5.731   8.103  1.00  0.00     0.175 C 
BRANCH  34  35
ATOM     35  C   UNL     1      -6.478   5.077   6.719  1.00  0.00     0.070 C 
BRANCH  35  36
ATOM     36  C   UNL     1      -5.365   4.093   6.434  1.00  0.00    -0.045 A 
ATOM     37  C   UNL     1      -5.564   2.723   6.661  1.00  0.00     0.007 A 
ATOM     38  C   UNL     1      -4.120   4.532   5.966  1.00  0.00     0.007 A 
ATOM     39  C   UNL     1      -4.539   1.810   6.415  1.00  0.00     0.046 A 
ATOM     40  C   UNL     1      -3.092   3.618   5.720  1.00  0.00     0.046 A 
ATOM     41  C   UNL     1      -3.312   2.264   5.946  1.00  0.00     0.115 A 
BRANCH  41  42
ATOM     42  O   UNL     1      -2.336   1.339   5.721  1.00  0.00    -0.508 OA
ATOM     43  H   UNL     1      -1.474   1.777   5.815  1.00  0.00     0.293 HD
ENDBRANCH  41  42
ENDBRANCH  35  36
ENDBRANCH  34  35
BRANCH  34  44
ATOM     44  C   UNL     1      -6.689   4.742   9.242  1.00  0.00     0.243 C 
ATOM     45  O   UNL     1      -7.716   4.071   9.296  1.00  0.00    -0.273 OA
ATOM     46  N   UNL     1      -5.783   4.772  10.280  1.00  0.00    -0.341 N 
ATOM     47  H   UNL     1      -5.009   5.431  10.242  1.00  0.00     0.164 HD
BRANCH  46  48
ATOM     48  C   UNL     1      -5.927   3.973  11.499  1.00  0.00     0.196 C 
BRANCH  48  49
ATOM     49  C   UNL     1      -4.564   3.476  12.008  1.00  0.00     0.072 C 
BRANCH  49  50
ATOM     50  C   UNL     1      -4.039   2.302  11.213  1.00  0.00    -0.045 A 
ATOM     51  C   UNL     1      -4.312   0.993  11.637  1.00  0.00     0.007 A 
ATOM     52  C   UNL     1      -3.261   2.498  10.065  1.00  0.00     0.007 A 
ATOM     53  C   UNL     1      -3.822  -0.098  10.919  1.00  0.00     0.046 A 
ATOM     54  C   UNL     1      -2.769   1.406   9.348  1.00  0.00     0.046 A 
ATOM     55  C   UNL     1      -3.055   0.116   9.781  1.00  0.00     0.115 A 
BRANCH  55  56
ATOM     56  O   UNL     1      -2.593  -0.977   9.109  1.00  0.00    -0.508 OA
ATOM     57  H   UNL     1      -2.101  -0.672   8.330  1.00  0.00     0.293 HD
ENDBRANCH  55  56
ENDBRANCH  49  50
ENDBRANCH  48  49
BRANCH  48  58
ATOM     58  C   UNL     1      -6.600   4.830  12.581  1.00  0.00     0.326 C 
ATOM     59  O   UNL     1      -6.725   6.044  12.590  1.00  0.00    -0.250 OA
BRANCH  58  60
ATOM     60  O   UNL     1      -7.104   4.104  13.610  1.00  0.00    -0.480 OA
ATOM     61  H   UNL     1      -7.064   4.727  14.367  1.00  0.00     0.296 HD
ENDBRANCH  58  60
ENDBRANCH  48  58
ENDBRANCH  46  48
ENDBRANCH  34  44
ENDBRANCH  32  34
ENDBRANCH  25  30
ENDBRANCH  23  25
ENDBRANCH   2  23
TORSDOF 28
ENDMDL
MODEL 2
REMARK VINA RESULT:    -6.774     12.706     18.526
REMARK INTER + INTRA:         -22.042
REMARK INTER:                 -16.513
REMARK INTRA:                  -5.528
REMARK UNBOUND:                -5.170
REMARK SMILES CCCCCCC[C@H](N)[C@H](O)C(=O)N[C@H](C)C(=O)N(C)[C@H](CC(C)C)C(=O)N[C@@H](Cc1ccc(O)cc1)C(=O)N[C@@H](Cc1ccc(O)cc1)C(=O)O
REMARK SMILES IDX 18 1 17 2 15 3 16 4 14 5 12 6 13 7 10 9 11 10 8 12 9 13 7 16
REMARK SMILES IDX 6 17 5 18 4 19 3 20 2 21 1 22 19 23 20 24 21 25 22 26 23 27
REMARK SMILES IDX 24 28 25 29 26 30 27 31 28 32 29 34 30 35 31 36 32 37 37 38
REMARK SMILES IDX 33 39 36 40 34 41 35 42 38 44 39 45 40 46 41 48 42 49 43 50
REMARK SMILES IDX 44 51 49 52 45 53 48 54 46 55 47 56 50 58 51 59 52 60
REMARK H PARENT 14 8 11 11 9 14 9 15 28 33 35 43 40 47 47 57 52 61
ROOT
ATOM      1  O   UNL     1      -6.330  -0.668  -8.307  1.00  0.00    -0.272 OA
ATOM      2  C   UNL     1      -5.736   0.420  -8.258  1.00  0.00     0.245 C 
ENDROOT
BRANCH   2   3
ATOM      3  C   UNL     1      -5.356   1.116  -9.589  1.00  0.00     0.168 C 
ATOM      4  C   UNL     1      -6.249   2.327  -9.841  1.00  0.00     0.041 C 
BRANCH   3   5
ATOM      5  N   UNL     1      -3.946   1.445  -9.725  1.00  0.00    -0.342 N 
ATOM      6  C   UNL     1      -3.112   0.741 -10.568  1.00  0.00     0.251 C 
ATOM      7  O   UNL     1      -3.477  -0.228 -11.226  1.00  0.00    -0.272 OA
ATOM      8  H   UNL     1      -3.520   2.208  -9.203  1.00  0.00     0.164 HD
BRANCH   6   9
ATOM      9  C   UNL     1      -1.705   1.352 -10.659  1.00  0.00     0.219 C 
BRANCH   9  10
ATOM     10  O   UNL     1      -0.692   0.371 -10.917  1.00  0.00    -0.382 OA
ATOM     11  H   UNL     1       0.142   0.834 -10.682  1.00  0.00     0.211 HD
ENDBRANCH   9  10
BRANCH   9  12
ATOM     12  C   UNL     1      -1.612   2.519 -11.676  1.00  0.00     0.089 C 
BRANCH  12  13
ATOM     13  N   UNL     1      -2.711   2.372 -12.658  1.00  0.00    -0.325 NA
ATOM     14  H   UNL     1      -3.372   1.670 -12.320  1.00  0.00     0.119 HD
ATOM     15  H   UNL     1      -2.331   1.986 -13.525  1.00  0.00     0.119 HD
ENDBRANCH  12  13
BRANCH  12  16
ATOM     16  C   UNL     1      -1.624   3.945 -11.074  1.00  0.00     0.022 C 
BRANCH  16  17
ATOM     17  C   UNL     1      -2.941   4.733 -11.045  1.00  0.00     0.002 C 
BRANCH  17  18
ATOM     18  C   UNL     1      -3.135   5.618  -9.817  1.00  0.00     0.000 C 
BRANCH  18  19
ATOM     19  C   UNL     1      -4.551   5.568  -9.227  1.00  0.00    -0.000 C 
BRANCH  19  20
ATOM     20  C   UNL     1      -4.928   6.755  -8.337  1.00  0.00    -0.000 C 
BRANCH  20  21
ATOM     21  C   UNL     1      -4.662   6.498  -6.851  1.00  0.00    -0.003 C 
ATOM     22  C   UNL     1      -3.904   7.653  -6.215  1.00  0.00     0.004 C 
ENDBRANCH  20  21
ENDBRANCH  19  20
ENDBRANCH  18  19
ENDBRANCH  17  18
ENDBRANCH  16  17
ENDBRANCH  12  16
ENDBRANCH   9  12
ENDBRANCH   6   9
ENDBRANCH   3   5
ENDBRANCH   2   3
BRANCH   2  23
ATOM     23  N   UNL     1      -5.532   1.047  -7.034  1.00  0.00    -0.332 N 
ATOM     24  C   UNL     1      -4.237   1.195  -6.387  1.00  0.00     0.147 C 
BRANCH  23  25
ATOM     25  C   UNL     1      -6.657   1.741  -6.349  1.00  0.00     0.174 C 
BRANCH  25  26
ATOM     26  C   UNL     1      -6.451   3.271  -6.250  1.00  0.00     0.038 C 
BRANCH  26  27
ATOM     27  C   UNL     1      -7.722   4.149  -6.241  1.00  0.00    -0.015 C 
ATOM     28  C   UNL     1      -7.703   5.191  -5.122  1.00  0.00     0.007 C 
ATOM     29  C   UNL     1      -8.014   4.810  -7.585  1.00  0.00     0.007 C 
ENDBRANCH  26  27
ENDBRANCH  25  26
BRANCH  25  30
ATOM     30  C   UNL     1      -6.952   1.064  -4.990  1.00  0.00     0.243 C 
ATOM     31  O   UNL     1      -7.248  -0.127  -4.908  1.00  0.00    -0.273 OA
ATOM     32  N   UNL     1      -6.866   1.880  -3.891  1.00  0.00    -0.342 N 
ATOM     33  H   UNL     1      -6.479   2.817  -4.025  1.00  0.00     0.164 HD
BRANCH  32  34
ATOM     34  C   UNL     1      -7.138   1.417  -2.527  1.00  0.00     0.175 C 
BRANCH  34  35
ATOM     35  C   UNL     1      -6.173   2.057  -1.518  1.00  0.00     0.070 C 
BRANCH  35  36
ATOM     36  C   UNL     1      -6.780   3.239  -0.795  1.00  0.00    -0.045 A 
ATOM     37  C   UNL     1      -6.787   4.504  -1.402  1.00  0.00     0.007 A 
ATOM     38  C   UNL     1      -7.321   3.095   0.489  1.00  0.00     0.007 A 
ATOM     39  C   UNL     1      -7.333   5.603  -0.737  1.00  0.00     0.046 A 
ATOM     40  C   UNL     1      -7.867   4.195   1.155  1.00  0.00     0.046 A 
ATOM     41  C   UNL     1      -7.869   5.440   0.535  1.00  0.00     0.115 A 
BRANCH  41  42
ATOM     42  O   UNL     1      -8.390   6.539   1.150  1.00  0.00    -0.508 OA
ATOM     43  H   UNL     1      -9.082   6.244   1.766  1.00  0.00     0.293 HD
ENDBRANCH  41  42
ENDBRANCH  35  36
ENDBRANCH  34  35
BRANCH  34  44
ATOM     44  C   UNL     1      -8.614   1.738  -2.198  1.00  0.00     0.243 C 
ATOM     45  O   UNL     1      -9.299   1.106  -1.400  1.00  0.00    -0.273 OA
ATOM     46  N   UNL     1      -9.148   2.734  -2.988  1.00  0.00    -0.341 N 
ATOM     47  H   UNL     1      -8.573   3.148  -3.717  1.00  0.00     0.164 HD
BRANCH  46  48
ATOM     48  C   UNL     1     -10.546   3.164  -2.907  1.00  0.00     0.196 C 
BRANCH  48  49
ATOM     49  C   UNL     1     -10.653   4.673  -2.630  1.00  0.00     0.072 C 
BRANCH  49  50
ATOM     50  C   UNL     1     -11.103   4.975  -1.218  1.00  0.00    -0.045 A 
ATOM     51  C   UNL     1     -11.393   6.295  -0.845  1.00  0.00     0.007 A 
ATOM     52  C   UNL     1     -11.217   3.956  -0.264  1.00  0.00     0.007 A 
ATOM     53  C   UNL     1     -11.797   6.588   0.458  1.00  0.00     0.046 A 
ATOM     54  C   UNL     1     -11.620   4.249   1.040  1.00  0.00     0.046 A 
ATOM     55  C   UNL     1     -11.907   5.563   1.390  1.00  0.00     0.115 A 
BRANCH  55  56
ATOM     56  O   UNL     1     -12.303   5.891   2.653  1.00  0.00    -0.508 OA
ATOM     57  H   UNL     1     -12.864   5.176   2.994  1.00  0.00     0.293 HD
ENDBRANCH  55  56
ENDBRANCH  49  50
ENDBRANCH  48  49
BRANCH  48  58
ATOM     58  C   UNL     1     -11.248   2.833  -4.231  1.00  0.00     0.326 C 
ATOM     59  O   UNL     1     -12.084   3.504  -4.812  1.00  0.00    -0.250 OA
BRANCH  58  60
ATOM     60  O   UNL     1     -10.845   1.658  -4.778  1.00  0.00    -0.480 OA
ATOM     61  H   UNL     1     -11.607   1.061  -4.618  1.00  0.00     0.296 HD
ENDBRANCH  58  60
ENDBRANCH  48  58
ENDBRANCH  46  48
ENDBRANCH  34  44
ENDBRANCH  32  34
ENDBRANCH  25  30
ENDBRANCH  23  25
ENDBRANCH   2  23
TORSDOF 28
ENDMDL
MODEL 3
REMARK VINA RESULT:    -6.608     13.723     19.757
REMARK INTER + INTRA:         -21.628
REMARK INTER:                 -17.150
REMARK INTRA:                  -4.478
REMARK UNBOUND:                -5.170
REMARK SMILES CCCCCCC[C@H](N)[C@H](O)C(=O)N[C@H](C)C(=O)N(C)[C@H](CC(C)C)C(=O)N[C@@H](Cc1ccc(O)cc1)C(=O)N[C@@H](Cc1ccc(O)cc1)C(=O)O
REMARK SMILES IDX 18 1 17 2 15 3 16 4 14 5 12 6 13 7 10 9 11 10 8 12 9 13 7 16
REMARK SMILES IDX 6 17 5 18 4 19 3 20 2 21 1 22 19 23 20 24 21 25 22 26 23 27
REMARK SMILES IDX 24 28 25 29 26 30 27 31 28 32 29 34 30 35 31 36 32 37 37 38
REMARK SMILES IDX 33 39 36 40 34 41 35 42 38 44 39 45 40 46 41 48 42 49 43 50
REMARK SMILES IDX 44 51 49 52 45 53 48 54 46 55 47 56 50 58 51 59 52 60
REMARK H PARENT 14 8 11 11 9 14 9 15 28 33 35 43 40 47 47 57 52 61
ROOT
ATOM      1  O   UNL     1      -7.295   4.027  -8.930  1.00  0.00    -0.272 OA
ATOM      2  C   UNL     1      -6.592   3.006  -8.896  1.00  0.00     0.245 C 
ENDROOT
BRANCH   2   3
ATOM      3  C   UNL     1      -5.506   2.818  -9.986  1.00  0.00     0.168 C 
ATOM      4  C   UNL     1      -5.472   4.017 -10.928  1.00  0.00     0.041 C 
BRANCH   3   5
ATOM      5  N   UNL     1      -4.183   2.489  -9.479  1.00  0.00    -0.342 N 
ATOM      6  C   UNL     1      -3.492   1.378  -9.916  1.00  0.00     0.251 C 
ATOM      7  O   UNL     1      -3.947   0.572 -10.720  1.00  0.00    -0.272 OA
ATOM      8  H   UNL     1      -3.717   3.065  -8.783  1.00  0.00     0.164 HD
BRANCH   6   9
ATOM      9  C   UNL     1      -2.063   1.308  -9.354  1.00  0.00     0.219 C 
BRANCH   9  10
ATOM     10  O   UNL     1      -1.709  -0.006  -8.908  1.00  0.00    -0.382 OA
ATOM     11  H   UNL     1      -1.666   0.086  -7.930  1.00  0.00     0.211 HD
ENDBRANCH   9  10
BRANCH   9  12
ATOM     12  C   UNL     1      -0.996   1.864 -10.334  1.00  0.00     0.089 C 
BRANCH  12  13
ATOM     13  N   UNL     1      -1.694   2.530 -11.457  1.00  0.00    -0.325 NA
ATOM     14  H   UNL     1      -1.836   3.516 -11.227  1.00  0.00     0.119 HD
ATOM     15  H   UNL     1      -2.635   2.138 -11.541  1.00  0.00     0.119 HD
ENDBRANCH  12  13
BRANCH  12  16
ATOM     16  C   UNL     1       0.056   2.818  -9.720  1.00  0.00     0.022 C 
BRANCH  16  17
ATOM     17  C   UNL     1       1.536   2.631 -10.081  1.00  0.00     0.002 C 
BRANCH  17  18
ATOM     18  C   UNL     1       1.906   3.028 -11.509  1.00  0.00     0.000 C 
BRANCH  18  19
ATOM     19  C   UNL     1       2.117   1.837 -12.454  1.00  0.00    -0.000 C 
BRANCH  19  20
ATOM     20  C   UNL     1       2.510   0.525 -11.769  1.00  0.00    -0.000 C 
BRANCH  20  21
ATOM     21  C   UNL     1       1.463  -0.579 -11.942  1.00  0.00    -0.003 C 
ATOM     22  C   UNL     1       1.132  -1.243 -10.615  1.00  0.00     0.004 C 
ENDBRANCH  20  21
ENDBRANCH  19  20
ENDBRANCH  18  19
ENDBRANCH  17  18
ENDBRANCH  16  17
ENDBRANCH  12  16
ENDBRANCH   9  12
ENDBRANCH   6   9
ENDBRANCH   3   5
ENDBRANCH   2   3
BRANCH   2  23
ATOM     23  N   UNL     1      -6.702   2.120  -7.830  1.00  0.00    -0.332 N 
ATOM     24  C   UNL     1      -6.475   0.685  -7.922  1.00  0.00     0.147 C 
BRANCH  23  25
ATOM     25  C   UNL     1      -6.945   2.629  -6.453  1.00  0.00     0.174 C 
BRANCH  25  26
ATOM     26  C   UNL     1      -8.332   3.294  -6.293  1.00  0.00     0.038 C 
BRANCH  26  27
ATOM     27  C   UNL     1      -9.368   2.553  -5.419  1.00  0.00    -0.015 C 
ATOM     28  C   UNL     1      -8.983   1.096  -5.166  1.00  0.00     0.007 C 
ATOM     29  C   UNL     1      -9.672   3.265  -4.102  1.00  0.00     0.007 C 
ENDBRANCH  26  27
ENDBRANCH  25  26
BRANCH  25  30
ATOM     30  C   UNL     1      -5.770   3.525  -6.001  1.00  0.00     0.243 C 
ATOM     31  O   UNL     1      -4.699   3.052  -5.623  1.00  0.00    -0.273 OA
ATOM     32  N   UNL     1      -6.003   4.876  -6.044  1.00  0.00    -0.342 N 
ATOM     33  H   UNL     1      -6.861   5.194  -6.502  1.00  0.00     0.164 HD
BRANCH  32  34
ATOM     34  C   UNL     1      -5.014   5.874  -5.629  1.00  0.00     0.175 C 
BRANCH  34  35
ATOM     35  C   UNL     1      -5.177   7.184  -6.415  1.00  0.00     0.070 C 
BRANCH  35  36
ATOM     36  C   UNL     1      -4.144   7.342  -7.508  1.00  0.00    -0.045 A 
ATOM     37  C   UNL     1      -4.095   6.422  -8.566  1.00  0.00     0.007 A 
ATOM     38  C   UNL     1      -3.212   8.388  -7.470  1.00  0.00     0.007 A 
ATOM     39  C   UNL     1      -3.136   6.552  -9.571  1.00  0.00     0.046 A 
ATOM     40  C   UNL     1      -2.251   8.518  -8.475  1.00  0.00     0.046 A 
ATOM     41  C   UNL     1      -2.223   7.598  -9.519  1.00  0.00     0.115 A 
BRANCH  41  42
ATOM     42  O   UNL     1      -1.301   7.688 -10.519  1.00  0.00    -0.508 OA
ATOM     43  H   UNL     1      -0.736   8.459 -10.344  1.00  0.00     0.293 HD
ENDBRANCH  41  42
ENDBRANCH  35  36
ENDBRANCH  34  35
BRANCH  34  44
ATOM     44  C   UNL     1      -5.165   6.092  -4.106  1.00  0.00     0.243 C 
ATOM     45  O   UNL     1      -5.776   7.027  -3.597  1.00  0.00    -0.273 OA
ATOM     46  N   UNL     1      -4.433   5.203  -3.349  1.00  0.00    -0.341 N 
ATOM     47  H   UNL     1      -3.848   4.517  -3.820  1.00  0.00     0.164 HD
BRANCH  46  48
ATOM     48  C   UNL     1      -4.365   5.254  -1.887  1.00  0.00     0.196 C 
BRANCH  48  49
ATOM     49  C   UNL     1      -4.181   3.851  -1.285  1.00  0.00     0.072 C 
BRANCH  49  50
ATOM     50  C   UNL     1      -5.446   3.026  -1.336  1.00  0.00    -0.045 A 
ATOM     51  C   UNL     1      -6.297   2.981  -0.222  1.00  0.00     0.007 A 
ATOM     52  C   UNL     1      -5.776   2.282  -2.476  1.00  0.00     0.007 A 
ATOM     53  C   UNL     1      -7.461   2.212  -0.252  1.00  0.00     0.046 A 
ATOM     54  C   UNL     1      -6.941   1.511  -2.506  1.00  0.00     0.046 A 
ATOM     55  C   UNL     1      -7.774   1.484  -1.393  1.00  0.00     0.115 A 
BRANCH  55  56
ATOM     56  O   UNL     1      -8.919   0.744  -1.382  1.00  0.00    -0.508 OA
ATOM     57  H   UNL     1      -8.714  -0.132  -1.017  1.00  0.00     0.293 HD
ENDBRANCH  55  56
ENDBRANCH  49  50
ENDBRANCH  48  49
BRANCH  48  58
ATOM     58  C   UNL     1      -3.189   6.150  -1.473  1.00  0.00     0.326 C 
ATOM     59  O   UNL     1      -3.167   7.370  -1.435  1.00  0.00    -0.250 OA
BRANCH  58  60
ATOM     60  O   UNL     1      -2.082   5.456  -1.107  1.00  0.00    -0.480 OA
ATOM     61  H   UNL     1      -1.854   4.952  -1.918  1.00  0.00     0.296 HD
ENDBRANCH  58  60
ENDBRANCH  48  58
ENDBRANCH  46  48
ENDBRANCH  34  44
ENDBRANCH  32  34
ENDBRANCH  25  30
ENDBRANCH  23  25
ENDBRANCH   2  23
TORSDOF 28
ENDMDL
MODEL 4
REMARK VINA RESULT:    -6.587     13.614     19.859
REMARK INTER + INTRA:         -21.577
REMARK INTER:                 -17.780
REMARK INTRA:                  -3.797
REMARK UNBOUND:                -5.170
REMARK SMILES CCCCCCC[C@H](N)[C@H](O)C(=O)N[C@H](C)C(=O)N(C)[C@H](CC(C)C)C(=O)N[C@@H](Cc1ccc(O)cc1)C(=O)N[C@@H](Cc1ccc(O)cc1)C(=O)O
REMARK SMILES IDX 18 1 17 2 15 3 16 4 14 5 12 6 13 7 10 9 11 10 8 12 9 13 7 16
REMARK SMILES IDX 6 17 5 18 4 19 3 20 2 21 1 22 19 23 20 24 21 25 22 26 23 27
REMARK SMILES IDX 24 28 25 29 26 30 27 31 28 32 29 34 30 35 31 36 32 37 37 38
REMARK SMILES IDX 33 39 36 40 34 41 35 42 38 44 39 45 40 46 41 48 42 49 43 50
REMARK SMILES IDX 44 51 49 52 45 53 48 54 46 55 47 56 50 58 51 59 52 60
REMARK H PARENT 14 8 11 11 9 14 9 15 28 33 35 43 40 47 47 57 52 61
ROOT
ATOM      1  O   UNL     1      -5.369  -1.436  -7.678  1.00  0.00    -0.272 OA
ATOM      2  C   UNL     1      -5.085  -0.243  -7.861  1.00  0.00     0.245 C 
ENDROOT
BRANCH   2   3
ATOM      3  C   UNL     1      -5.021   0.289  -9.314  1.00  0.00     0.168 C 
ATOM      4  C   UNL     1      -6.232   1.161  -9.626  1.00  0.00     0.041 C 
BRANCH   3   5
ATOM      5  N   UNL     1      -3.773   0.948  -9.669  1.00  0.00    -0.342 N 
ATOM      6  C   UNL     1      -3.037   0.568 -10.772  1.00  0.00     0.251 C 
ATOM      7  O   UNL     1      -3.348  -0.366 -11.503  1.00  0.00    -0.272 OA
ATOM      8  H   UNL     1      -3.395   1.714  -9.117  1.00  0.00     0.164 HD
BRANCH   6   9
ATOM      9  C   UNL     1      -1.837   1.492 -11.032  1.00  0.00     0.219 C 
BRANCH   9  10
ATOM     10  O   UNL     1      -1.766   2.580 -10.104  1.00  0.00    -0.382 OA
ATOM     11  H   UNL     1      -1.232   3.255 -10.579  1.00  0.00     0.211 HD
ENDBRANCH   9  10
BRANCH   9  12
ATOM     12  C   UNL     1      -0.486   0.732 -11.095  1.00  0.00     0.089 C 
BRANCH  12  13
ATOM     13  N   UNL     1       0.510   1.604 -11.760  1.00  0.00    -0.325 NA
ATOM     14  H   UNL     1       1.447   1.344 -11.447  1.00  0.00     0.119 HD
ATOM     15  H   UNL     1       0.377   2.565 -11.436  1.00  0.00     0.119 HD
ENDBRANCH  12  13
BRANCH  12  16
ATOM     16  C   UNL     1       0.071   0.225  -9.743  1.00  0.00     0.022 C 
BRANCH  16  17
ATOM     17  C   UNL     1       1.188  -0.827  -9.743  1.00  0.00     0.002 C 
BRANCH  17  18
ATOM     18  C   UNL     1       0.835  -2.142 -10.435  1.00  0.00     0.000 C 
BRANCH  18  19
ATOM     19  C   UNL     1       1.493  -2.320 -11.810  1.00  0.00    -0.000 C 
BRANCH  19  20
ATOM     20  C   UNL     1       2.994  -2.622 -11.778  1.00  0.00    -0.000 C 
BRANCH  20  21
ATOM     21  C   UNL     1       3.787  -1.834 -12.824  1.00  0.00    -0.003 C 
ATOM     22  C   UNL     1       3.304  -0.395 -12.918  1.00  0.00     0.004 C 
ENDBRANCH  20  21
ENDBRANCH  19  20
ENDBRANCH  18  19
ENDBRANCH  17  18
ENDBRANCH  16  17
ENDBRANCH  12  16
ENDBRANCH   9  12
ENDBRANCH   6   9
ENDBRANCH   3   5
ENDBRANCH   2   3
BRANCH   2  23
ATOM     23  N   UNL     1      -4.953   0.615  -6.774  1.00  0.00    -0.332 N 
ATOM     24  C   UNL     1      -3.716   0.828  -6.037  1.00  0.00     0.147 C 
BRANCH  23  25
ATOM     25  C   UNL     1      -6.084   1.493  -6.368  1.00  0.00     0.174 C 
BRANCH  25  26
ATOM     26  C   UNL     1      -5.637   2.936  -6.035  1.00  0.00     0.038 C 
BRANCH  26  27
ATOM     27  C   UNL     1      -6.224   4.069  -6.907  1.00  0.00    -0.015 C 
ATOM     28  C   UNL     1      -5.355   4.378  -8.126  1.00  0.00     0.007 C 
ATOM     29  C   UNL     1      -7.671   3.825  -7.326  1.00  0.00     0.007 C 
ENDBRANCH  26  27
ENDBRANCH  25  26
BRANCH  25  30
ATOM     30  C   UNL     1      -6.902   0.820  -5.242  1.00  0.00     0.243 C 
ATOM     31  O   UNL     1      -7.143  -0.386  -5.245  1.00  0.00    -0.273 OA
ATOM     32  N   UNL     1      -7.342   1.656  -4.248  1.00  0.00    -0.342 N 
ATOM     33  H   UNL     1      -6.983   2.614  -4.241  1.00  0.00     0.164 HD
BRANCH  32  34
ATOM     34  C   UNL     1      -8.153   1.199  -3.116  1.00  0.00     0.175 C 
BRANCH  34  35
ATOM     35  C   UNL     1      -7.761   1.923  -1.819  1.00  0.00     0.070 C 
BRANCH  35  36
ATOM     36  C   UNL     1      -6.695   2.973  -2.035  1.00  0.00    -0.045 A 
ATOM     37  C   UNL     1      -5.397   2.768  -1.542  1.00  0.00     0.007 A 
ATOM     38  C   UNL     1      -6.989   4.168  -2.705  1.00  0.00     0.007 A 
ATOM     39  C   UNL     1      -4.411   3.738  -1.724  1.00  0.00     0.046 A 
ATOM     40  C   UNL     1      -6.002   5.140  -2.886  1.00  0.00     0.046 A 
ATOM     41  C   UNL     1      -4.720   4.915  -2.395  1.00  0.00     0.115 A 
BRANCH  41  42
ATOM     42  O   UNL     1      -3.729   5.838  -2.549  1.00  0.00    -0.508 OA
ATOM     43  H   UNL     1      -3.255   5.641  -3.375  1.00  0.00     0.293 HD
ENDBRANCH  41  42
ENDBRANCH  35  36
ENDBRANCH  34  35
BRANCH  34  44
ATOM     44  C   UNL     1      -9.640   1.419  -3.473  1.00  0.00     0.243 C 
ATOM     45  O   UNL     1     -10.254   0.774  -4.319  1.00  0.00    -0.273 OA
ATOM     46  N   UNL     1     -10.201   2.509  -2.841  1.00  0.00    -0.341 N 
ATOM     47  H   UNL     1      -9.618   3.083  -2.237  1.00  0.00     0.164 HD
BRANCH  46  48
ATOM     48  C   UNL     1     -11.576   2.955  -3.073  1.00  0.00     0.196 C 
BRANCH  48  49
ATOM     49  C   UNL     1     -12.055   3.897  -1.956  1.00  0.00     0.072 C 
BRANCH  49  50
ATOM     50  C   UNL     1     -10.917   4.423  -1.111  1.00  0.00    -0.045 A 
ATOM     51  C   UNL     1     -10.551   3.753   0.065  1.00  0.00     0.007 A 
ATOM     52  C   UNL     1     -10.230   5.589  -1.473  1.00  0.00     0.007 A 
ATOM     53  C   UNL     1      -9.512   4.236   0.860  1.00  0.00     0.046 A 
ATOM     54  C   UNL     1      -9.190   6.074  -0.676  1.00  0.00     0.046 A 
ATOM     55  C   UNL     1      -8.839   5.392   0.483  1.00  0.00     0.115 A 
BRANCH  55  56
ATOM     56  O   UNL     1      -7.831   5.833   1.288  1.00  0.00    -0.508 OA
ATOM     57  H   UNL     1      -7.583   6.728   1.006  1.00  0.00     0.293 HD
ENDBRANCH  55  56
ENDBRANCH  49  50
ENDBRANCH  48  49
BRANCH  48  58
ATOM     58  C   UNL     1     -11.644   3.683  -4.423  1.00  0.00     0.326 C 
ATOM     59  O   UNL     1     -12.631   4.166  -4.954  1.00  0.00    -0.250 OA
BRANCH  58  60
ATOM     60  O   UNL     1     -10.442   3.783  -5.045  1.00  0.00    -0.480 OA
ATOM     61  H   UNL     1     -10.507   3.123  -5.770  1.00  0.00     0.296 HD
ENDBRANCH  58  60
ENDBRANCH  48  58
ENDBRANCH  46  48
ENDBRANCH  34  44
ENDBRANCH  32  34
ENDBRANCH  25  30
ENDBRANCH  23  25
ENDBRANCH   2  23
TORSDOF 28
ENDMDL
MODEL 5
REMARK VINA RESULT:    -6.553     12.622     19.138
REMARK INTER + INTRA:         -21.491
REMARK INTER:                 -18.266
REMARK INTRA:                  -3.226
REMARK UNBOUND:                -5.170
REMARK SMILES CCCCCCC[C@H](N)[C@H](O)C(=O)N[C@H](C)C(=O)N(C)[C@H](CC(C)C)C(=O)N[C@@H](Cc1ccc(O)cc1)C(=O)N[C@@H](Cc1ccc(O)cc1)C(=O)O
REMARK SMILES IDX 18 1 17 2 15 3 16 4 14 5 12 6 13 7 10 9 11 10 8 12 9 13 7 16
REMARK SMILES IDX 6 17 5 18 4 19 3 20 2 21 1 22 19 23 20 24 21 25 22 26 23 27
REMARK SMILES IDX 24 28 25 29 26 30 27 31 28 32 29 34 30 35 31 36 32 37 37 38
REMARK SMILES IDX 33 39 36 40 34 41 35 42 38 44 39 45 40 46 41 48 42 49 43 50
REMARK SMILES IDX 44 51 49 52 45 53 48 54 46 55 47 56 50 58 51 59 52 60
REMARK H PARENT 14 8 11 11 9 14 9 15 28 33 35 43 40 47 47 57 52 61
ROOT
ATOM      1  O   UNL     1      -8.590   4.758  -8.172  1.00  0.00    -0.272 OA
ATOM      2  C   UNL     1      -7.572   4.128  -7.849  1.00  0.00     0.245 C 
ENDROOT
BRANCH   2   3
ATOM      3  C   UNL     1      -6.365   4.121  -8.820  1.00  0.00     0.168 C 
ATOM      4  C   UNL     1      -5.588   5.429  -8.728  1.00  0.00     0.041 C 
BRANCH   3   5
ATOM      5  N   UNL     1      -5.493   2.963  -8.703  1.00  0.00    -0.342 N 
ATOM      6  C   UNL     1      -5.572   1.900  -9.578  1.00  0.00     0.251 C 
ATOM      7  O   UNL     1      -6.398   1.828 -10.482  1.00  0.00    -0.272 OA
ATOM      8  H   UNL     1      -4.791   2.892  -7.970  1.00  0.00     0.164 HD
BRANCH   6   9
ATOM      9  C   UNL     1      -4.464   0.860  -9.351  1.00  0.00     0.219 C 
BRANCH   9  10
ATOM     10  O   UNL     1      -4.910  -0.483  -9.580  1.00  0.00    -0.382 OA
ATOM     11  H   UNL     1      -4.521  -0.986  -8.831  1.00  0.00     0.211 HD
ENDBRANCH   9  10
BRANCH   9  12
ATOM     12  C   UNL     1      -3.175   1.157 -10.162  1.00  0.00     0.089 C 
BRANCH  12  13
ATOM     13  N   UNL     1      -3.407   2.368 -10.982  1.00  0.00    -0.325 NA
ATOM     14  H   UNL     1      -3.672   3.142 -10.369  1.00  0.00     0.119 HD
ATOM     15  H   UNL     1      -4.222   2.211 -11.580  1.00  0.00     0.119 HD
ENDBRANCH  12  13
BRANCH  12  16
ATOM     16  C   UNL     1      -1.876   1.315  -9.336  1.00  0.00     0.022 C 
BRANCH  16  17
ATOM     17  C   UNL     1      -0.688   0.388  -9.626  1.00  0.00     0.002 C 
BRANCH  17  18
ATOM     18  C   UNL     1       0.508   1.062 -10.295  1.00  0.00     0.000 C 
BRANCH  18  19
ATOM     19  C   UNL     1       1.501   0.081 -10.933  1.00  0.00    -0.000 C 
BRANCH  19  20
ATOM     20  C   UNL     1       0.867  -1.061 -11.730  1.00  0.00    -0.000 C 
BRANCH  20  21
ATOM     21  C   UNL     1       1.629  -2.382 -11.596  1.00  0.00    -0.003 C 
ATOM     22  C   UNL     1       0.783  -3.444 -10.910  1.00  0.00     0.004 C 
ENDBRANCH  20  21
ENDBRANCH  19  20
ENDBRANCH  18  19
ENDBRANCH  17  18
ENDBRANCH  16  17
ENDBRANCH  12  16
ENDBRANCH   9  12
ENDBRANCH   6   9
ENDBRANCH   3   5
ENDBRANCH   2   3
BRANCH   2  23
ATOM     23  N   UNL     1      -7.483   3.549  -6.588  1.00  0.00    -0.332 N 
ATOM     24  C   UNL     1      -8.518   2.722  -5.984  1.00  0.00     0.147 C 
BRANCH  23  25
ATOM     25  C   UNL     1      -6.221   3.643  -5.805  1.00  0.00     0.174 C 
BRANCH  25  26
ATOM     26  C   UNL     1      -5.875   2.333  -5.059  1.00  0.00     0.038 C 
BRANCH  26  27
ATOM     27  C   UNL     1      -5.237   1.200  -5.895  1.00  0.00    -0.015 C 
ATOM     28  C   UNL     1      -3.759   0.992  -5.566  1.00  0.00     0.007 C 
ATOM     29  C   UNL     1      -5.998  -0.121  -5.807  1.00  0.00     0.007 C 
ENDBRANCH  26  27
ENDBRANCH  25  26
BRANCH  25  30
ATOM     30  C   UNL     1      -6.254   4.889  -4.889  1.00  0.00     0.243 C 
ATOM     31  O   UNL     1      -6.898   5.895  -5.184  1.00  0.00    -0.273 OA
ATOM     32  N   UNL     1      -5.518   4.798  -3.736  1.00  0.00    -0.342 N 
ATOM     33  H   UNL     1      -5.128   3.883  -3.494  1.00  0.00     0.164 HD
BRANCH  32  34
ATOM     34  C   UNL     1      -5.411   5.889  -2.765  1.00  0.00     0.175 C 
BRANCH  34  35
ATOM     35  C   UNL     1      -5.660   5.389  -1.333  1.00  0.00     0.070 C 
BRANCH  35  36
ATOM     36  C   UNL     1      -6.468   4.111  -1.292  1.00  0.00    -0.045 A 
ATOM     37  C   UNL     1      -7.826   4.128  -1.643  1.00  0.00     0.007 A 
ATOM     38  C   UNL     1      -5.883   2.905  -0.885  1.00  0.00     0.007 A 
ATOM     39  C   UNL     1      -8.582   2.956  -1.595  1.00  0.00     0.046 A 
ATOM     40  C   UNL     1      -6.640   1.732  -0.836  1.00  0.00     0.046 A 
ATOM     41  C   UNL     1      -7.984   1.768  -1.193  1.00  0.00     0.115 A 
BRANCH  41  42
ATOM     42  O   UNL     1      -8.758   0.647  -1.157  1.00  0.00    -0.508 OA
ATOM     43  H   UNL     1      -9.264   0.599  -1.985  1.00  0.00     0.293 HD
ENDBRANCH  41  42
ENDBRANCH  35  36
ENDBRANCH  34  35
BRANCH  34  44
ATOM     44  C   UNL     1      -4.014   6.531  -2.917  1.00  0.00     0.243 C 
ATOM     45  O   UNL     1      -3.478   6.779  -3.993  1.00  0.00    -0.273 OA
ATOM     46  N   UNL     1      -3.348   6.687  -1.719  1.00  0.00    -0.341 N 
ATOM     47  H   UNL     1      -3.788   6.358  -0.863  1.00  0.00     0.164 HD
BRANCH  46  48
ATOM     48  C   UNL     1      -1.984   7.211  -1.618  1.00  0.00     0.196 C 
BRANCH  48  49
ATOM     49  C   UNL     1      -1.982   8.686  -1.184  1.00  0.00     0.072 C 
BRANCH  49  50
ATOM     50  C   UNL     1      -1.243   9.578  -2.156  1.00  0.00    -0.045 A 
ATOM     51  C   UNL     1      -1.057  10.935  -1.857  1.00  0.00     0.007 A 
ATOM     52  C   UNL     1      -0.756   9.074  -3.369  1.00  0.00     0.007 A 
ATOM     53  C   UNL     1      -0.389  11.770  -2.753  1.00  0.00     0.046 A 
ATOM     54  C   UNL     1      -0.088   9.910  -4.266  1.00  0.00     0.046 A 
ATOM     55  C   UNL     1       0.091  11.252  -3.949  1.00  0.00     0.115 A 
BRANCH  55  56
ATOM     56  O   UNL     1       0.736  12.102  -4.798  1.00  0.00    -0.508 OA
ATOM     57  H   UNL     1       0.073  12.652  -5.244  1.00  0.00     0.293 HD
ENDBRANCH  55  56
ENDBRANCH  49  50
ENDBRANCH  48  49
BRANCH  48  58
ATOM     58  C   UNL     1      -1.202   6.373  -0.597  1.00  0.00     0.326 C 
ATOM     59  O   UNL     1      -0.637   6.771   0.408  1.00  0.00    -0.250 OA
BRANCH  58  60
ATOM     60  O   UNL     1      -1.181   5.047  -0.888  1.00  0.00    -0.480 OA
ATOM     61  H   UNL     1      -0.679   5.009  -1.731  1.00  0.00     0.296 HD
ENDBRANCH  58  60
ENDBRANCH  48  58
ENDBRANCH  46  48
ENDBRANCH  34  44
ENDBRANCH  32  34
ENDBRANCH  25  30
ENDBRANCH  23  25
ENDBRANCH   2  23
TORSDOF 28
ENDMDL
MODEL 6
REMARK VINA RESULT:    -6.529     11.257     15.617
REMARK INTER + INTRA:         -21.432
REMARK INTER:                 -16.129
REMARK INTRA:                  -5.303
REMARK UNBOUND:                -5.170
REMARK SMILES CCCCCCC[C@H](N)[C@H](O)C(=O)N[C@H](C)C(=O)N(C)[C@H](CC(C)C)C(=O)N[C@@H](Cc1ccc(O)cc1)C(=O)N[C@@H](Cc1ccc(O)cc1)C(=O)O
REMARK SMILES IDX 18 1 17 2 15 3 16 4 14 5 12 6 13 7 10 9 11 10 8 12 9 13 7 16
REMARK SMILES IDX 6 17 5 18 4 19 3 20 2 21 1 22 19 23 20 24 21 25 22 26 23 27
REMARK SMILES IDX 24 28 25 29 26 30 27 31 28 32 29 34 30 35 31 36 32 37 37 38
REMARK SMILES IDX 33 39 36 40 34 41 35 42 38 44 39 45 40 46 41 48 42 49 43 50
REMARK SMILES IDX 44 51 49 52 45 53 48 54 46 55 47 56 50 58 51 59 52 60
REMARK H PARENT 14 8 11 11 9 14 9 15 28 33 35 43 40 47 47 57 52 61
ROOT
ATOM      1  O   UNL     1      -7.587  -0.013  -6.331  1.00  0.00    -0.272 OA
ATOM      2  C   UNL     1      -7.373   0.877  -5.494  1.00  0.00     0.245 C 
ENDROOT
BRANCH   2   3
ATOM      3  C   UNL     1      -8.261   0.931  -4.226  1.00  0.00     0.168 C 
ATOM      4  C   UNL     1      -7.415   1.182  -2.983  1.00  0.00     0.041 C 
BRANCH   3   5
ATOM      5  N   UNL     1      -9.388   1.846  -4.309  1.00  0.00    -0.342 N 
ATOM      6  C   UNL     1     -10.674   1.446  -4.013  1.00  0.00     0.251 C 
ATOM      7  O   UNL     1     -10.971   0.297  -3.704  1.00  0.00    -0.272 OA
ATOM      8  H   UNL     1      -9.271   2.818  -4.588  1.00  0.00     0.164 HD
BRANCH   6   9
ATOM      9  C   UNL     1     -11.678   2.610  -4.029  1.00  0.00     0.219 C 
BRANCH   9  10
ATOM     10  O   UNL     1     -12.973   2.217  -4.498  1.00  0.00    -0.382 OA
ATOM     11  H   UNL     1     -13.024   2.611  -5.396  1.00  0.00     0.211 HD
ENDBRANCH   9  10
BRANCH   9  12
ATOM     12  C   UNL     1     -11.784   3.342  -2.666  1.00  0.00     0.089 C 
BRANCH  12  13
ATOM     13  N   UNL     1     -11.052   2.548  -1.652  1.00  0.00    -0.325 NA
ATOM     14  H   UNL     1     -10.939   3.108  -0.805  1.00  0.00     0.119 HD
ATOM     15  H   UNL     1     -10.102   2.378  -1.988  1.00  0.00     0.119 HD
ENDBRANCH  12  13
BRANCH  12  16
ATOM     16  C   UNL     1     -11.296   4.810  -2.645  1.00  0.00     0.022 C 
BRANCH  16  17
ATOM     17  C   UNL     1     -12.199   5.888  -2.029  1.00  0.00     0.002 C 
BRANCH  17  18
ATOM     18  C   UNL     1     -12.391   5.783  -0.518  1.00  0.00     0.000 C 
BRANCH  18  19
ATOM     19  C   UNL     1     -11.513   6.745   0.292  1.00  0.00    -0.000 C 
BRANCH  19  20
ATOM     20  C   UNL     1     -11.101   8.024  -0.442  1.00  0.00    -0.000 C 
BRANCH  20  21
ATOM     21  C   UNL     1      -9.657   8.443  -0.152  1.00  0.00    -0.003 C 
ATOM     22  C   UNL     1      -9.257   8.104   1.275  1.00  0.00     0.004 C 
ENDBRANCH  20  21
ENDBRANCH  19  20
ENDBRANCH  18  19
ENDBRANCH  17  18
ENDBRANCH  16  17
ENDBRANCH  12  16
ENDBRANCH   9  12
ENDBRANCH   6   9
ENDBRANCH   3   5
ENDBRANCH   2   3
BRANCH   2  23
ATOM     23  N   UNL     1      -6.278   1.722  -5.643  1.00  0.00    -0.332 N 
ATOM     24  C   UNL     1      -4.889   1.293  -5.581  1.00  0.00     0.147 C 
BRANCH  23  25
ATOM     25  C   UNL     1      -6.477   3.150  -6.014  1.00  0.00     0.174 C 
BRANCH  25  26
ATOM     26  C   UNL     1      -5.453   3.649  -7.060  1.00  0.00     0.038 C 
BRANCH  26  27
ATOM     27  C   UNL     1      -5.973   4.624  -8.140  1.00  0.00    -0.015 C 
ATOM     28  C   UNL     1      -7.429   4.355  -8.517  1.00  0.00     0.007 C 
ATOM     29  C   UNL     1      -5.773   6.093  -7.778  1.00  0.00     0.007 C 
ENDBRANCH  26  27
ENDBRANCH  25  26
BRANCH  25  30
ATOM     30  C   UNL     1      -6.544   4.026  -4.742  1.00  0.00     0.243 C 
ATOM     31  O   UNL     1      -7.602   4.508  -4.339  1.00  0.00    -0.273 OA
ATOM     32  N   UNL     1      -5.350   4.234  -4.102  1.00  0.00    -0.342 N 
ATOM     33  H   UNL     1      -4.543   3.687  -4.414  1.00  0.00     0.164 HD
BRANCH  32  34
ATOM     34  C   UNL     1      -5.219   5.059  -2.898  1.00  0.00     0.175 C 
BRANCH  34  35
ATOM     35  C   UNL     1      -5.066   4.191  -1.639  1.00  0.00     0.070 C 
BRANCH  35  36
ATOM     36  C   UNL     1      -6.358   4.048  -0.867  1.00  0.00    -0.045 A 
ATOM     37  C   UNL     1      -6.537   2.966   0.007  1.00  0.00     0.007 A 
ATOM     38  C   UNL     1      -7.398   4.974  -1.028  1.00  0.00     0.007 A 
ATOM     39  C   UNL     1      -7.731   2.818   0.713  1.00  0.00     0.046 A 
ATOM     40  C   UNL     1      -8.594   4.826  -0.322  1.00  0.00     0.046 A 
ATOM     41  C   UNL     1      -8.749   3.748   0.544  1.00  0.00     0.115 A 
BRANCH  41  42
ATOM     42  O   UNL     1      -9.901   3.566   1.250  1.00  0.00    -0.508 OA
ATOM     43  H   UNL     1     -10.369   4.417   1.296  1.00  0.00     0.293 HD
ENDBRANCH  41  42
ENDBRANCH  35  36
ENDBRANCH  34  35
BRANCH  34  44
ATOM     44  C   UNL     1      -4.014   6.006  -3.096  1.00  0.00     0.243 C 
ATOM     45  O   UNL     1      -3.669   6.474  -4.177  1.00  0.00    -0.273 OA
ATOM     46  N   UNL     1      -3.262   6.184  -1.953  1.00  0.00    -0.341 N 
ATOM     47  H   UNL     1      -3.522   5.682  -1.108  1.00  0.00     0.164 HD
BRANCH  46  48
ATOM     48  C   UNL     1      -2.036   6.984  -1.912  1.00  0.00     0.196 C 
BRANCH  48  49
ATOM     49  C   UNL     1      -2.343   8.467  -1.645  1.00  0.00     0.072 C 
BRANCH  49  50
ATOM     50  C   UNL     1      -1.499   9.397  -2.488  1.00  0.00    -0.045 A 
ATOM     51  C   UNL     1      -1.253  10.706  -2.050  1.00  0.00     0.007 A 
ATOM     52  C   UNL     1      -0.971   8.977  -3.715  1.00  0.00     0.007 A 
ATOM     53  C   UNL     1      -0.486  11.577  -2.825  1.00  0.00     0.046 A 
ATOM     54  C   UNL     1      -0.205   9.850  -4.492  1.00  0.00     0.046 A 
ATOM     55  C   UNL     1       0.032  11.143  -4.039  1.00  0.00     0.115 A 
BRANCH  55  56
ATOM     56  O   UNL     1       0.774  12.025  -4.767  1.00  0.00    -0.508 OA
ATOM     57  H   UNL     1       0.394  12.911  -4.654  1.00  0.00     0.293 HD
ENDBRANCH  55  56
ENDBRANCH  49  50
ENDBRANCH  48  49
BRANCH  48  58
ATOM     58  C   UNL     1      -1.123   6.440  -0.805  1.00  0.00     0.326 C 
ATOM     59  O   UNL     1      -0.510   7.085   0.031  1.00  0.00    -0.250 OA
BRANCH  58  60
ATOM     60  O   UNL     1      -1.034   5.086  -0.792  1.00  0.00    -0.480 OA
ATOM     61  H   UNL     1      -0.467   4.904  -0.011  1.00  0.00     0.296 HD
ENDBRANCH  58  60
ENDBRANCH  48  58
ENDBRANCH  46  48
ENDBRANCH  34  44
ENDBRANCH  32  34
ENDBRANCH  25  30
ENDBRANCH  23  25
ENDBRANCH   2  23
TORSDOF 28
ENDMDL
MODEL 7
REMARK VINA RESULT:    -6.504      2.997      7.316
REMARK INTER + INTRA:         -21.371
REMARK INTER:                 -14.826
REMARK INTRA:                  -6.544
REMARK UNBOUND:                -5.170
REMARK SMILES CCCCCCC[C@H](N)[C@H](O)C(=O)N[C@H](C)C(=O)N(C)[C@H](CC(C)C)C(=O)N[C@@H](Cc1ccc(O)cc1)C(=O)N[C@@H](Cc1ccc(O)cc1)C(=O)O
REMARK SMILES IDX 18 1 17 2 15 3 16 4 14 5 12 6 13 7 10 9 11 10 8 12 9 13 7 16
REMARK SMILES IDX 6 17 5 18 4 19 3 20 2 21 1 22 19 23 20 24 21 25 22 26 23 27
REMARK SMILES IDX 24 28 25 29 26 30 27 31 28 32 29 34 30 35 31 36 32 37 37 38
REMARK SMILES IDX 33 39 36 40 34 41 35 42 38 44 39 45 40 46 41 48 42 49 43 50
REMARK SMILES IDX 44 51 49 52 45 53 48 54 46 55 47 56 50 58 51 59 52 60
REMARK H PARENT 14 8 11 11 9 14 9 15 28 33 35 43 40 47 47 57 52 61
ROOT
ATOM      1  O   UNL     1      -1.696   2.138  10.266  1.00  0.00    -0.272 OA
ATOM      2  C   UNL     1      -2.907   1.987  10.043  1.00  0.00     0.245 C 
ENDROOT
BRANCH   2   3
ATOM      3  C   UNL     1      -3.898   2.102  11.228  1.00  0.00     0.168 C 
ATOM      4  C   UNL     1      -3.408   1.295  12.425  1.00  0.00     0.041 C 
BRANCH   3   5
ATOM      5  N   UNL     1      -4.248   3.464  11.601  1.00  0.00    -0.342 N 
ATOM      6  C   UNL     1      -5.535   3.814  11.953  1.00  0.00     0.251 C 
ATOM      7  O   UNL     1      -6.477   3.029  11.939  1.00  0.00    -0.272 OA
ATOM      8  H   UNL     1      -3.558   4.211  11.615  1.00  0.00     0.164 HD
BRANCH   6   9
ATOM      9  C   UNL     1      -5.642   5.267  12.444  1.00  0.00     0.219 C 
BRANCH   9  10
ATOM     10  O   UNL     1      -4.416   5.753  13.003  1.00  0.00    -0.382 OA
ATOM     11  H   UNL     1      -4.126   5.023  13.593  1.00  0.00     0.211 HD
ENDBRANCH   9  10
BRANCH   9  12
ATOM     12  C   UNL     1      -6.176   6.239  11.360  1.00  0.00     0.089 C 
BRANCH  12  13
ATOM     13  N   UNL     1      -6.593   5.442  10.183  1.00  0.00    -0.325 NA
ATOM     14  H   UNL     1      -5.773   4.988   9.777  1.00  0.00     0.119 HD
ATOM     15  H   UNL     1      -6.933   6.077   9.457  1.00  0.00     0.119 HD
ENDBRANCH  12  13
BRANCH  12  16
ATOM     16  C   UNL     1      -7.324   7.179  11.799  1.00  0.00     0.022 C 
BRANCH  16  17
ATOM     17  C   UNL     1      -7.395   8.596  11.211  1.00  0.00     0.002 C 
BRANCH  17  18
ATOM     18  C   UNL     1      -6.528   9.632  11.922  1.00  0.00     0.000 C 
BRANCH  18  19
ATOM     19  C   UNL     1      -5.339  10.130  11.089  1.00  0.00    -0.000 C 
BRANCH  19  20
ATOM     20  C   UNL     1      -4.054   9.311  11.237  1.00  0.00    -0.000 C 
BRANCH  20  21
ATOM     21  C   UNL     1      -3.660   9.073  12.697  1.00  0.00    -0.003 C 
ATOM     22  C   UNL     1      -2.475   9.937  13.100  1.00  0.00     0.004 C 
ENDBRANCH  20  21
ENDBRANCH  19  20
ENDBRANCH  18  19
ENDBRANCH  17  18
ENDBRANCH  16  17
ENDBRANCH  12  16
ENDBRANCH   9  12
ENDBRANCH   6   9
ENDBRANCH   3   5
ENDBRANCH   2   3
BRANCH   2  23
ATOM     23  N   UNL     1      -3.361   1.840   8.737  1.00  0.00    -0.332 N 
ATOM     24  C   UNL     1      -3.161   0.652   7.922  1.00  0.00     0.147 C 
BRANCH  23  25
ATOM     25  C   UNL     1      -4.221   2.887   8.120  1.00  0.00     0.174 C 
BRANCH  25  26
ATOM     26  C   UNL     1      -4.670   2.527   6.684  1.00  0.00     0.038 C 
BRANCH  26  27
ATOM     27  C   UNL     1      -5.874   3.308   6.110  1.00  0.00    -0.015 C 
ATOM     28  C   UNL     1      -6.889   3.690   7.187  1.00  0.00     0.007 C 
ATOM     29  C   UNL     1      -5.469   4.534   5.295  1.00  0.00     0.007 C 
ENDBRANCH  26  27
ENDBRANCH  25  26
BRANCH  25  30
ATOM     30  C   UNL     1      -3.538   4.269   8.229  1.00  0.00     0.243 C 
ATOM     31  O   UNL     1      -3.962   5.146   8.980  1.00  0.00    -0.273 OA
ATOM     32  N   UNL     1      -2.438   4.453   7.431  1.00  0.00    -0.342 N 
ATOM     33  H   UNL     1      -2.066   3.634   6.943  1.00  0.00     0.164 HD
BRANCH  32  34
ATOM     34  C   UNL     1      -1.682   5.707   7.383  1.00  0.00     0.175 C 
BRANCH  34  35
ATOM     35  C   UNL     1      -0.253   5.479   6.867  1.00  0.00     0.070 C 
BRANCH  35  36
ATOM     36  C   UNL     1       0.803   5.879   7.872  1.00  0.00    -0.045 A 
ATOM     37  C   UNL     1       1.585   4.896   8.498  1.00  0.00     0.007 A 
ATOM     38  C   UNL     1       1.000   7.224   8.211  1.00  0.00     0.007 A 
ATOM     39  C   UNL     1       2.552   5.255   9.437  1.00  0.00     0.046 A 
ATOM     40  C   UNL     1       1.967   7.584   9.152  1.00  0.00     0.046 A 
ATOM     41  C   UNL     1       2.736   6.595   9.756  1.00  0.00     0.115 A 
BRANCH  41  42
ATOM     42  O   UNL     1       3.689   6.903  10.682  1.00  0.00    -0.508 OA
ATOM     43  H   UNL     1       3.399   7.694  11.165  1.00  0.00     0.293 HD
ENDBRANCH  41  42
ENDBRANCH  35  36
ENDBRANCH  34  35
BRANCH  34  44
ATOM     44  C   UNL     1      -2.464   6.703   6.497  1.00  0.00     0.243 C 
ATOM     45  O   UNL     1      -2.555   6.622   5.275  1.00  0.00    -0.273 OA
ATOM     46  N   UNL     1      -2.954   7.788   7.192  1.00  0.00    -0.341 N 
ATOM     47  H   UNL     1      -2.752   7.871   8.186  1.00  0.00     0.164 HD
BRANCH  46  48
ATOM     48  C   UNL     1      -3.669   8.897   6.556  1.00  0.00     0.196 C 
BRANCH  48  49
ATOM     49  C   UNL     1      -4.555   9.645   7.567  1.00  0.00     0.072 C 
BRANCH  49  50
ATOM     50  C   UNL     1      -6.008   9.238   7.479  1.00  0.00    -0.045 A 
ATOM     51  C   UNL     1      -6.364   7.887   7.601  1.00  0.00     0.007 A 
ATOM     52  C   UNL     1      -7.011  10.190   7.256  1.00  0.00     0.007 A 
ATOM     53  C   UNL     1      -7.700   7.498   7.509  1.00  0.00     0.046 A 
ATOM     54  C   UNL     1      -8.349   9.800   7.163  1.00  0.00     0.046 A 
ATOM     55  C   UNL     1      -8.682   8.456   7.291  1.00  0.00     0.115 A 
BRANCH  55  56
ATOM     56  O   UNL     1      -9.976   8.034   7.206  1.00  0.00    -0.508 OA
ATOM     57  H   UNL     1     -10.302   8.226   6.312  1.00  0.00     0.293 HD
ENDBRANCH  55  56
ENDBRANCH  49  50
ENDBRANCH  48  49
BRANCH  48  58
ATOM     58  C   UNL     1      -2.646   9.868   5.950  1.00  0.00     0.326 C 
ATOM     59  O   UNL     1      -1.999  10.721   6.537  1.00  0.00    -0.250 OA
BRANCH  58  60
ATOM     60  O   UNL     1      -2.473   9.708   4.614  1.00  0.00    -0.480 OA
ATOM     61  H   UNL     1      -2.904   8.845   4.433  1.00  0.00     0.296 HD
ENDBRANCH  58  60
ENDBRANCH  48  58
ENDBRANCH  46  48
ENDBRANCH  34  44
ENDBRANCH  32  34
ENDBRANCH  25  30
ENDBRANCH  23  25
ENDBRANCH   2  23
TORSDOF 28
ENDMDL
MODEL 8
REMARK VINA RESULT:    -6.488      3.291      8.324
REMARK INTER + INTRA:         -21.328
REMARK INTER:                 -16.620
REMARK INTRA:                  -4.708
REMARK UNBOUND:                -5.170
REMARK SMILES CCCCCCC[C@H](N)[C@H](O)C(=O)N[C@H](C)C(=O)N(C)[C@H](CC(C)C)C(=O)N[C@@H](Cc1ccc(O)cc1)C(=O)N[C@@H](Cc1ccc(O)cc1)C(=O)O
REMARK SMILES IDX 18 1 17 2 15 3 16 4 14 5 12 6 13 7 10 9 11 10 8 12 9 13 7 16
REMARK SMILES IDX 6 17 5 18 4 19 3 20 2 21 1 22 19 23 20 24 21 25 22 26 23 27
REMARK SMILES IDX 24 28 25 29 26 30 27 31 28 32 29 34 30 35 31 36 32 37 37 38
REMARK SMILES IDX 33 39 36 40 34 41 35 42 38 44 39 45 40 46 41 48 42 49 43 50
REMARK SMILES IDX 44 51 49 52 45 53 48 54 46 55 47 56 50 58 51 59 52 60
REMARK H PARENT 14 8 11 11 9 14 9 15 28 33 35 43 40 47 47 57 52 61
ROOT
ATOM      1  O   UNL     1      -7.951   7.745   7.170  1.00  0.00    -0.272 OA
ATOM      2  C   UNL     1      -6.853   8.191   7.533  1.00  0.00     0.245 C 
ENDROOT
BRANCH   2   3
ATOM      3  C   UNL     1      -6.680   8.626   9.009  1.00  0.00     0.168 C 
ATOM      4  C   UNL     1      -7.363   9.966   9.263  1.00  0.00     0.041 C 
BRANCH   3   5
ATOM      5  N   UNL     1      -7.069   7.625   9.991  1.00  0.00    -0.342 N 
ATOM      6  C   UNL     1      -6.292   7.349  11.096  1.00  0.00     0.251 C 
ATOM      7  O   UNL     1      -5.211   7.886  11.314  1.00  0.00    -0.272 OA
ATOM      8  H   UNL     1      -7.929   7.089   9.898  1.00  0.00     0.164 HD
BRANCH   6   9
ATOM      9  C   UNL     1      -6.966   6.365  12.065  1.00  0.00     0.219 C 
BRANCH   9  10
ATOM     10  O   UNL     1      -8.388   6.312  11.899  1.00  0.00    -0.382 OA
ATOM     11  H   UNL     1      -8.573   5.352  11.796  1.00  0.00     0.211 HD
ENDBRANCH   9  10
BRANCH   9  12
ATOM     12  C   UNL     1      -6.352   4.941  12.012  1.00  0.00     0.089 C 
BRANCH  12  13
ATOM     13  N   UNL     1      -6.871   4.165  13.161  1.00  0.00    -0.325 NA
ATOM     14  H   UNL     1      -7.806   3.817  12.937  1.00  0.00     0.119 HD
ATOM     15  H   UNL     1      -7.005   4.797  13.954  1.00  0.00     0.119 HD
ENDBRANCH  12  13
BRANCH  12  16
ATOM     16  C   UNL     1      -6.574   4.156  10.696  1.00  0.00     0.022 C 
BRANCH  16  17
ATOM     17  C   UNL     1      -5.473   3.210  10.197  1.00  0.00     0.002 C 
BRANCH  17  18
ATOM     18  C   UNL     1      -4.170   3.262  10.990  1.00  0.00     0.000 C 
BRANCH  18  19
ATOM     19  C   UNL     1      -3.830   1.955  11.720  1.00  0.00    -0.000 C 
BRANCH  19  20
ATOM     20  C   UNL     1      -2.510   1.302  11.302  1.00  0.00    -0.000 C 
BRANCH  20  21
ATOM     21  C   UNL     1      -2.689  -0.119  10.760  1.00  0.00    -0.003 C 
ATOM     22  C   UNL     1      -3.082  -0.105   9.291  1.00  0.00     0.004 C 
ENDBRANCH  20  21
ENDBRANCH  19  20
ENDBRANCH  18  19
ENDBRANCH  17  18
ENDBRANCH  16  17
ENDBRANCH  12  16
ENDBRANCH   9  12
ENDBRANCH   6   9
ENDBRANCH   3   5
ENDBRANCH   2   3
BRANCH   2  23
ATOM     23  N   UNL     1      -5.774   8.180   6.655  1.00  0.00    -0.332 N 
ATOM     24  C   UNL     1      -5.366   9.310   5.833  1.00  0.00     0.147 C 
BRANCH  23  25
ATOM     25  C   UNL     1      -4.863   7.004   6.599  1.00  0.00     0.174 C 
BRANCH  25  26
ATOM     26  C   UNL     1      -5.482   5.733   7.226  1.00  0.00     0.038 C 
BRANCH  26  27
ATOM     27  C   UNL     1      -6.141   4.725   6.259  1.00  0.00    -0.015 C 
ATOM     28  C   UNL     1      -5.136   4.100   5.292  1.00  0.00     0.007 C 
ATOM     29  C   UNL     1      -6.949   3.641   6.969  1.00  0.00     0.007 C 
ENDBRANCH  26  27
ENDBRANCH  25  26
BRANCH  25  30
ATOM     30  C   UNL     1      -3.479   7.374   7.182  1.00  0.00     0.243 C 
ATOM     31  O   UNL     1      -3.357   7.866   8.302  1.00  0.00    -0.273 OA
ATOM     32  N   UNL     1      -2.406   7.124   6.366  1.00  0.00    -0.342 N 
ATOM     33  H   UNL     1      -2.575   6.586   5.512  1.00  0.00     0.164 HD
BRANCH  32  34
ATOM     34  C   UNL     1      -1.024   7.436   6.741  1.00  0.00     0.175 C 
BRANCH  34  35
ATOM     35  C   UNL     1      -0.335   6.226   7.390  1.00  0.00     0.070 C 
BRANCH  35  36
ATOM     36  C   UNL     1      -0.991   4.913   7.024  1.00  0.00    -0.045 A 
ATOM     37  C   UNL     1      -0.903   4.427   5.711  1.00  0.00     0.007 A 
ATOM     38  C   UNL     1      -1.710   4.179   7.976  1.00  0.00     0.007 A 
ATOM     39  C   UNL     1      -1.517   3.224   5.361  1.00  0.00     0.046 A 
ATOM     40  C   UNL     1      -2.326   2.975   7.626  1.00  0.00     0.046 A 
ATOM     41  C   UNL     1      -2.222   2.508   6.320  1.00  0.00     0.115 A 
BRANCH  41  42
ATOM     42  O   UNL     1      -2.810   1.339   5.936  1.00  0.00    -0.508 OA
ATOM     43  H   UNL     1      -3.595   1.196   6.491  1.00  0.00     0.293 HD
ENDBRANCH  41  42
ENDBRANCH  35  36
ENDBRANCH  34  35
BRANCH  34  44
ATOM     44  C   UNL     1      -0.280   7.913   5.474  1.00  0.00     0.243 C 
ATOM     45  O   UNL     1       0.830   7.517   5.130  1.00  0.00    -0.273 OA
ATOM     46  N   UNL     1      -0.923   8.938   4.813  1.00  0.00    -0.341 N 
ATOM     47  H   UNL     1      -1.785   9.313   5.202  1.00  0.00     0.164 HD
BRANCH  46  48
ATOM     48  C   UNL     1      -0.378   9.600   3.625  1.00  0.00     0.196 C 
BRANCH  48  49
ATOM     49  C   UNL     1      -1.412   9.651   2.488  1.00  0.00     0.072 C 
BRANCH  49  50
ATOM     50  C   UNL     1      -1.299   8.474   1.546  1.00  0.00    -0.045 A 
ATOM     51  C   UNL     1      -2.112   8.412   0.405  1.00  0.00     0.007 A 
ATOM     52  C   UNL     1      -0.406   7.426   1.805  1.00  0.00     0.007 A 
ATOM     53  C   UNL     1      -2.027   7.324  -0.465  1.00  0.00     0.046 A 
ATOM     54  C   UNL     1      -0.321   6.337   0.935  1.00  0.00     0.046 A 
ATOM     55  C   UNL     1      -1.132   6.296  -0.194  1.00  0.00     0.115 A 
BRANCH  55  56
ATOM     56  O   UNL     1      -1.081   5.250  -1.068  1.00  0.00    -0.508 OA
ATOM     57  H   UNL     1      -1.372   4.449  -0.604  1.00  0.00     0.293 HD
ENDBRANCH  55  56
ENDBRANCH  49  50
ENDBRANCH  48  49
BRANCH  48  58
ATOM     58  C   UNL     1       0.048  11.026   3.999  1.00  0.00     0.326 C 
ATOM     59  O   UNL     1       0.143  11.499   5.120  1.00  0.00    -0.250 OA
BRANCH  58  60
ATOM     60  O   UNL     1       0.353  11.799   2.926  1.00  0.00    -0.480 OA
ATOM     61  H   UNL     1       1.226  11.454   2.641  1.00  0.00     0.296 HD
ENDBRANCH  58  60
ENDBRANCH  48  58
ENDBRANCH  46  48
ENDBRANCH  34  44
ENDBRANCH  32  34
ENDBRANCH  25  30
ENDBRANCH  23  25
ENDBRANCH   2  23
TORSDOF 28
ENDMDL
MODEL 9
REMARK VINA RESULT:    -6.446     14.238     20.417
REMARK INTER + INTRA:         -21.226
REMARK INTER:                 -16.954
REMARK INTRA:                  -4.272
REMARK UNBOUND:                -5.170
REMARK SMILES CCCCCCC[C@H](N)[C@H](O)C(=O)N[C@H](C)C(=O)N(C)[C@H](CC(C)C)C(=O)N[C@@H](Cc1ccc(O)cc1)C(=O)N[C@@H](Cc1ccc(O)cc1)C(=O)O
REMARK SMILES IDX 18 1 17 2 15 3 16 4 14 5 12 6 13 7 10 9 11 10 8 12 9 13 7 16
REMARK SMILES IDX 6 17 5 18 4 19 3 20 2 21 1 22 19 23 20 24 21 25 22 26 23 27
REMARK SMILES IDX 24 28 25 29 26 30 27 31 28 32 29 34 30 35 31 36 32 37 37 38
REMARK SMILES IDX 33 39 36 40 34 41 35 42 38 44 39 45 40 46 41 48 42 49 43 50
REMARK SMILES IDX 44 51 49 52 45 53 48 54 46 55 47 56 50 58 51 59 52 60
REMARK H PARENT 14 8 11 11 9 14 9 15 28 33 35 43 40 47 47 57 52 61
ROOT
ATOM      1  O   UNL     1      -6.278   1.945  -8.864  1.00  0.00    -0.272 OA
ATOM      2  C   UNL     1      -5.633   1.270  -8.048  1.00  0.00     0.245 C 
ENDROOT
BRANCH   2   3
ATOM      3  C   UNL     1      -4.100   1.147  -8.235  1.00  0.00     0.168 C 
ATOM      4  C   UNL     1      -3.467   0.419  -7.054  1.00  0.00     0.041 C 
BRANCH   3   5
ATOM      5  N   UNL     1      -3.684   0.580  -9.508  1.00  0.00    -0.342 N 
ATOM      6  C   UNL     1      -2.714   1.174 -10.287  1.00  0.00     0.251 C 
ATOM      7  O   UNL     1      -2.165   2.231  -9.995  1.00  0.00    -0.272 OA
ATOM      8  H   UNL     1      -4.093  -0.277  -9.873  1.00  0.00     0.164 HD
BRANCH   6   9
ATOM      9  C   UNL     1      -2.335   0.327 -11.513  1.00  0.00     0.219 C 
BRANCH   9  10
ATOM     10  O   UNL     1      -3.381  -0.566 -11.913  1.00  0.00    -0.382 OA
ATOM     11  H   UNL     1      -3.564  -0.306 -12.842  1.00  0.00     0.211 HD
ENDBRANCH   9  10
BRANCH   9  12
ATOM     12  C   UNL     1      -1.849   1.179 -12.715  1.00  0.00     0.089 C 
BRANCH  12  13
ATOM     13  N   UNL     1      -2.675   2.406 -12.782  1.00  0.00    -0.325 NA
ATOM     14  H   UNL     1      -3.635   2.152 -13.022  1.00  0.00     0.119 HD
ATOM     15  H   UNL     1      -2.348   2.982 -13.561  1.00  0.00     0.119 HD
ENDBRANCH  12  13
BRANCH  12  16
ATOM     16  C   UNL     1      -0.346   1.549 -12.720  1.00  0.00     0.022 C 
BRANCH  16  17
ATOM     17  C   UNL     1       0.700   0.425 -12.688  1.00  0.00     0.002 C 
BRANCH  17  18
ATOM     18  C   UNL     1       1.248   0.095 -11.302  1.00  0.00     0.000 C 
BRANCH  18  19
ATOM     19  C   UNL     1       0.946  -1.335 -10.835  1.00  0.00    -0.000 C 
BRANCH  19  20
ATOM     20  C   UNL     1       2.142  -2.291 -10.849  1.00  0.00    -0.000 C 
BRANCH  20  21
ATOM     21  C   UNL     1       2.553  -2.717 -12.261  1.00  0.00    -0.003 C 
ATOM     22  C   UNL     1       3.790  -1.967 -12.729  1.00  0.00     0.004 C 
ENDBRANCH  20  21
ENDBRANCH  19  20
ENDBRANCH  18  19
ENDBRANCH  17  18
ENDBRANCH  16  17
ENDBRANCH  12  16
ENDBRANCH   9  12
ENDBRANCH   6   9
ENDBRANCH   3   5
ENDBRANCH   2   3
BRANCH   2  23
ATOM     23  N   UNL     1      -6.266   0.743  -6.927  1.00  0.00    -0.332 N 
ATOM     24  C   UNL     1      -6.458  -0.678  -6.678  1.00  0.00     0.147 C 
BRANCH  23  25
ATOM     25  C   UNL     1      -6.686   1.637  -5.812  1.00  0.00     0.174 C 
BRANCH  25  26
ATOM     26  C   UNL     1      -8.153   2.109  -5.940  1.00  0.00     0.038 C 
BRANCH  26  27
ATOM     27  C   UNL     1      -8.862   2.550  -4.640  1.00  0.00    -0.015 C 
ATOM     28  C   UNL     1      -9.109   4.058  -4.591  1.00  0.00     0.007 C 
ATOM     29  C   UNL     1     -10.155   1.785  -4.364  1.00  0.00     0.007 C 
ENDBRANCH  26  27
ENDBRANCH  25  26
BRANCH  25  30
ATOM     30  C   UNL     1      -5.673   2.793  -5.646  1.00  0.00     0.243 C 
ATOM     31  O   UNL     1      -4.656   2.673  -4.965  1.00  0.00    -0.273 OA
ATOM     32  N   UNL     1      -5.987   3.955  -6.301  1.00  0.00    -0.342 N 
ATOM     33  H   UNL     1      -6.771   3.932  -6.958  1.00  0.00     0.164 HD
BRANCH  32  34
ATOM     34  C   UNL     1      -5.158   5.162  -6.235  1.00  0.00     0.175 C 
BRANCH  34  35
ATOM     35  C   UNL     1      -5.534   6.159  -7.342  1.00  0.00     0.070 C 
BRANCH  35  36
ATOM     36  C   UNL     1      -4.748   5.943  -8.616  1.00  0.00    -0.045 A 
ATOM     37  C   UNL     1      -3.556   6.650  -8.834  1.00  0.00     0.007 A 
ATOM     38  C   UNL     1      -5.206   5.058  -9.601  1.00  0.00     0.007 A 
ATOM     39  C   UNL     1      -2.832   6.467 -10.012  1.00  0.00     0.046 A 
ATOM     40  C   UNL     1      -4.482   4.875 -10.781  1.00  0.00     0.046 A 
ATOM     41  C   UNL     1      -3.300   5.581 -10.975  1.00  0.00     0.115 A 
BRANCH  41  42
ATOM     42  O   UNL     1      -2.564   5.434 -12.114  1.00  0.00    -0.508 OA
ATOM     43  H   UNL     1      -1.918   6.159 -12.156  1.00  0.00     0.293 HD
ENDBRANCH  41  42
ENDBRANCH  35  36
ENDBRANCH  34  35
BRANCH  34  44
ATOM     44  C   UNL     1      -5.318   5.776  -4.826  1.00  0.00     0.243 C 
ATOM     45  O   UNL     1      -6.245   6.506  -4.488  1.00  0.00    -0.273 OA
ATOM     46  N   UNL     1      -4.242   5.536  -3.998  1.00  0.00    -0.341 N 
ATOM     47  H   UNL     1      -3.443   5.023  -4.362  1.00  0.00     0.164 HD
BRANCH  46  48
ATOM     48  C   UNL     1      -4.135   6.073  -2.639  1.00  0.00     0.196 C 
BRANCH  48  49
ATOM     49  C   UNL     1      -4.062   4.945  -1.596  1.00  0.00     0.072 C 
BRANCH  49  50
ATOM     50  C   UNL     1      -5.364   4.188  -1.465  1.00  0.00    -0.045 A 
ATOM     51  C   UNL     1      -6.557   4.885  -1.227  1.00  0.00     0.007 A 
ATOM     52  C   UNL     1      -5.397   2.790  -1.557  1.00  0.00     0.007 A 
ATOM     53  C   UNL     1      -7.762   4.195  -1.092  1.00  0.00     0.046 A 
ATOM     54  C   UNL     1      -6.603   2.100  -1.420  1.00  0.00     0.046 A 
ATOM     55  C   UNL     1      -7.777   2.809  -1.189  1.00  0.00     0.115 A 
BRANCH  55  56
ATOM     56  O   UNL     1      -8.975   2.173  -1.049  1.00  0.00    -0.508 OA
ATOM     57  H   UNL     1      -9.153   2.062  -0.102  1.00  0.00     0.293 HD
ENDBRANCH  55  56
ENDBRANCH  49  50
ENDBRANCH  48  49
BRANCH  48  58
ATOM     58  C   UNL     1      -2.876   6.945  -2.545  1.00  0.00     0.326 C 
ATOM     59  O   UNL     1      -2.740   8.092  -2.938  1.00  0.00    -0.250 OA
BRANCH  58  60
ATOM     60  O   UNL     1      -1.834   6.326  -1.935  1.00  0.00    -0.480 OA
ATOM     61  H   UNL     1      -1.430   7.041  -1.397  1.00  0.00     0.296 HD
ENDBRANCH  58  60
ENDBRANCH  48  58
ENDBRANCH  46  48
ENDBRANCH  34  44
ENDBRANCH  32  34
ENDBRANCH  25  30
ENDBRANCH  23  25
ENDBRANCH   2  23
TORSDOF 28
ENDMDL
MODEL 10
REMARK VINA RESULT:    -6.442      3.377      8.107
REMARK INTER + INTRA:         -21.215
REMARK INTER:                 -16.594
REMARK INTRA:                  -4.621
REMARK UNBOUND:                -5.170
REMARK SMILES CCCCCCC[C@H](N)[C@H](O)C(=O)N[C@H](C)C(=O)N(C)[C@H](CC(C)C)C(=O)N[C@@H](Cc1ccc(O)cc1)C(=O)N[C@@H](Cc1ccc(O)cc1)C(=O)O
REMARK SMILES IDX 18 1 17 2 15 3 16 4 14 5 12 6 13 7 10 9 11 10 8 12 9 13 7 16
REMARK SMILES IDX 6 17 5 18 4 19 3 20 2 21 1 22 19 23 20 24 21 25 22 26 23 27
REMARK SMILES IDX 24 28 25 29 26 30 27 31 28 32 29 34 30 35 31 36 32 37 37 38
REMARK SMILES IDX 33 39 36 40 34 41 35 42 38 44 39 45 40 46 41 48 42 49 43 50
REMARK SMILES IDX 44 51 49 52 45 53 48 54 46 55 47 56 50 58 51 59 52 60
REMARK H PARENT 14 8 11 11 9 14 9 15 28 33 35 43 40 47 47 57 52 61
ROOT
ATOM      1  O   UNL     1      -6.164   7.108   6.876  1.00  0.00    -0.272 OA
ATOM      2  C   UNL     1      -6.337   7.137   8.104  1.00  0.00     0.245 C 
ENDROOT
BRANCH   2   3
ATOM      3  C   UNL     1      -7.162   6.004   8.763  1.00  0.00     0.168 C 
ATOM      4  C   UNL     1      -7.572   4.961   7.730  1.00  0.00     0.041 C 
BRANCH   3   5
ATOM      5  N   UNL     1      -6.542   5.397   9.930  1.00  0.00    -0.342 N 
ATOM      6  C   UNL     1      -7.054   5.568  11.199  1.00  0.00     0.251 C 
ATOM      7  O   UNL     1      -8.031   6.267  11.446  1.00  0.00    -0.272 OA
ATOM      8  H   UNL     1      -5.705   4.822   9.855  1.00  0.00     0.164 HD
BRANCH   6   9
ATOM      9  C   UNL     1      -6.323   4.721  12.254  1.00  0.00     0.219 C 
BRANCH   9  10
ATOM     10  O   UNL     1      -6.767   4.998  13.588  1.00  0.00    -0.382 OA
ATOM     11  H   UNL     1      -7.635   5.438  13.456  1.00  0.00     0.211 HD
ENDBRANCH   9  10
BRANCH   9  12
ATOM     12  C   UNL     1      -6.380   3.199  11.959  1.00  0.00     0.089 C 
BRANCH  12  13
ATOM     13  N   UNL     1      -7.638   2.910  11.235  1.00  0.00    -0.325 NA
ATOM     14  H   UNL     1      -8.125   3.788  11.043  1.00  0.00     0.119 HD
ATOM     15  H   UNL     1      -8.263   2.387  11.853  1.00  0.00     0.119 HD
ENDBRANCH  12  13
BRANCH  12  16
ATOM     16  C   UNL     1      -5.174   2.614  11.186  1.00  0.00     0.022 C 
BRANCH  16  17
ATOM     17  C   UNL     1      -4.541   1.302  11.671  1.00  0.00     0.002 C 
BRANCH  17  18
ATOM     18  C   UNL     1      -3.168   1.451  12.323  1.00  0.00     0.000 C 
BRANCH  18  19
ATOM     19  C   UNL     1      -2.001   1.018  11.427  1.00  0.00    -0.000 C 
BRANCH  19  20
ATOM     20  C   UNL     1      -1.512   2.079  10.437  1.00  0.00    -0.000 C 
BRANCH  20  21
ATOM     21  C   UNL     1      -2.150   1.945   9.051  1.00  0.00    -0.003 C 
ATOM     22  C   UNL     1      -2.498   0.498   8.739  1.00  0.00     0.004 C 
ENDBRANCH  20  21
ENDBRANCH  19  20
ENDBRANCH  18  19
ENDBRANCH  17  18
ENDBRANCH  16  17
ENDBRANCH  12  16
ENDBRANCH   9  12
ENDBRANCH   6   9
ENDBRANCH   3   5
ENDBRANCH   2   3
BRANCH   2  23
ATOM     23  N   UNL     1      -5.695   8.102   8.874  1.00  0.00    -0.332 N 
ATOM     24  C   UNL     1      -6.118   9.491   8.978  1.00  0.00     0.147 C 
BRANCH  23  25
ATOM     25  C   UNL     1      -4.568   7.721   9.768  1.00  0.00     0.174 C 
BRANCH  25  26
ATOM     26  C   UNL     1      -3.868   8.943  10.409  1.00  0.00     0.038 C 
BRANCH  26  27
ATOM     27  C   UNL     1      -3.342   8.771  11.851  1.00  0.00    -0.015 C 
ATOM     28  C   UNL     1      -3.322  10.088  12.627  1.00  0.00     0.007 C 
ATOM     29  C   UNL     1      -4.077   7.693  12.642  1.00  0.00     0.007 C 
ENDBRANCH  26  27
ENDBRANCH  25  26
BRANCH  25  30
ATOM     30  C   UNL     1      -3.601   6.768   9.030  1.00  0.00     0.243 C 
ATOM     31  O   UNL     1      -3.694   5.545   9.126  1.00  0.00    -0.273 OA
ATOM     32  N   UNL     1      -2.635   7.375   8.270  1.00  0.00    -0.342 N 
ATOM     33  H   UNL     1      -2.710   8.385   8.127  1.00  0.00     0.164 HD
BRANCH  32  34
ATOM     34  C   UNL     1      -1.617   6.631   7.523  1.00  0.00     0.175 C 
BRANCH  34  35
ATOM     35  C   UNL     1      -2.050   6.399   6.067  1.00  0.00     0.070 C 
BRANCH  35  36
ATOM     36  C   UNL     1      -2.593   5.007   5.833  1.00  0.00    -0.045 A 
ATOM     37  C   UNL     1      -3.971   4.812   5.659  1.00  0.00     0.007 A 
ATOM     38  C   UNL     1      -1.738   3.897   5.809  1.00  0.00     0.007 A 
ATOM     39  C   UNL     1      -4.483   3.530   5.456  1.00  0.00     0.046 A 
ATOM     40  C   UNL     1      -2.250   2.613   5.607  1.00  0.00     0.046 A 
ATOM     41  C   UNL     1      -3.619   2.441   5.431  1.00  0.00     0.115 A 
BRANCH  41  42
ATOM     42  O   UNL     1      -4.159   1.205   5.233  1.00  0.00    -0.508 OA
ATOM     43  H   UNL     1      -3.717   0.798   4.470  1.00  0.00     0.293 HD
ENDBRANCH  41  42
ENDBRANCH  35  36
ENDBRANCH  34  35
BRANCH  34  44
ATOM     44  C   UNL     1      -0.289   7.416   7.612  1.00  0.00     0.243 C 
ATOM     45  O   UNL     1      -0.158   8.596   7.301  1.00  0.00    -0.273 OA
ATOM     46  N   UNL     1       0.791   6.629   7.955  1.00  0.00    -0.341 N 
ATOM     47  H   UNL     1       0.652   5.631   8.090  1.00  0.00     0.164 HD
BRANCH  46  48
ATOM     48  C   UNL     1       2.163   7.136   8.036  1.00  0.00     0.196 C 
BRANCH  48  49
ATOM     49  C   UNL     1       2.944   6.457   9.174  1.00  0.00     0.072 C 
BRANCH  49  50
ATOM     50  C   UNL     1       3.275   7.410  10.301  1.00  0.00    -0.045 A 
ATOM     51  C   UNL     1       4.565   7.953  10.400  1.00  0.00     0.007 A 
ATOM     52  C   UNL     1       2.318   7.746  11.266  1.00  0.00     0.007 A 
ATOM     53  C   UNL     1       4.886   8.822  11.443  1.00  0.00     0.046 A 
ATOM     54  C   UNL     1       2.640   8.616  12.310  1.00  0.00     0.046 A 
ATOM     55  C   UNL     1       3.922   9.148  12.389  1.00  0.00     0.115 A 
BRANCH  55  56
ATOM     56  O   UNL     1       4.277   9.999  13.393  1.00  0.00    -0.508 OA
ATOM     57  H   UNL     1       4.242   9.514  14.233  1.00  0.00     0.293 HD
ENDBRANCH  55  56
ENDBRANCH  49  50
ENDBRANCH  48  49
BRANCH  48  58
ATOM     58  C   UNL     1       2.871   6.875   6.700  1.00  0.00     0.326 C 
ATOM     59  O   UNL     1       2.684   7.451   5.640  1.00  0.00    -0.250 OA
BRANCH  58  60
ATOM     60  O   UNL     1       3.808   5.896   6.765  1.00  0.00    -0.480 OA
ATOM     61  H   UNL     1       4.440   6.232   7.437  1.00  0.00     0.296 HD
ENDBRANCH  58  60
ENDBRANCH  48  58
ENDBRANCH  46  48
ENDBRANCH  34  44
ENDBRANCH  32  34
ENDBRANCH  25  30
ENDBRANCH  23  25
ENDBRANCH   2  23
TORSDOF 28
ENDMDL
MODEL 11
REMARK VINA RESULT:    -6.430     10.253     14.759
REMARK INTER + INTRA:         -21.186
REMARK INTER:                 -17.485
REMARK INTRA:                  -3.701
REMARK UNBOUND:                -5.170
REMARK SMILES CCCCCCC[C@H](N)[C@H](O)C(=O)N[C@H](C)C(=O)N(C)[C@H](CC(C)C)C(=O)N[C@@H](Cc1ccc(O)cc1)C(=O)N[C@@H](Cc1ccc(O)cc1)C(=O)O
REMARK SMILES IDX 18 1 17 2 15 3 16 4 14 5 12 6 13 7 10 9 11 10 8 12 9 13 7 16
REMARK SMILES IDX 6 17 5 18 4 19 3 20 2 21 1 22 19 23 20 24 21 25 22 26 23 27
REMARK SMILES IDX 24 28 25 29 26 30 27 31 28 32 29 34 30 35 31 36 32 37 37 38
REMARK SMILES IDX 33 39 36 40 34 41 35 42 38 44 39 45 40 46 41 48 42 49 43 50
REMARK SMILES IDX 44 51 49 52 45 53 48 54 46 55 47 56 50 58 51 59 52 60
REMARK H PARENT 14 8 11 11 9 14 9 15 28 33 35 43 40 47 47 57 52 61
ROOT
ATOM      1  O   UNL     1      -2.728   7.343  -4.867  1.00  0.00    -0.272 OA
ATOM      2  C   UNL     1      -3.864   7.112  -4.428  1.00  0.00     0.245 C 
ENDROOT
BRANCH   2   3
ATOM      3  C   UNL     1      -4.058   6.999  -2.896  1.00  0.00     0.168 C 
ATOM      4  C   UNL     1      -5.293   6.168  -2.566  1.00  0.00     0.041 C 
BRANCH   3   5
ATOM      5  N   UNL     1      -2.887   6.542  -2.164  1.00  0.00    -0.342 N 
ATOM      6  C   UNL     1      -2.501   7.120  -0.973  1.00  0.00     0.251 C 
ATOM      7  O   UNL     1      -3.079   8.076  -0.467  1.00  0.00    -0.272 OA
ATOM      8  H   UNL     1      -2.307   5.778  -2.503  1.00  0.00     0.164 HD
BRANCH   6   9
ATOM      9  C   UNL     1      -1.325   6.386  -0.309  1.00  0.00     0.219 C 
BRANCH   9  10
ATOM     10  O   UNL     1      -1.088   5.093  -0.879  1.00  0.00    -0.382 OA
ATOM     11  H   UNL     1      -0.137   4.931  -0.697  1.00  0.00     0.211 HD
ENDBRANCH   9  10
BRANCH   9  12
ATOM     12  C   UNL     1      -0.020   7.224  -0.284  1.00  0.00     0.089 C 
BRANCH  12  13
ATOM     13  N   UNL     1      -0.059   8.184  -1.410  1.00  0.00    -0.325 NA
ATOM     14  H   UNL     1       0.884   8.300  -1.786  1.00  0.00     0.119 HD
ATOM     15  H   UNL     1      -0.318   9.106  -1.050  1.00  0.00     0.119 HD
ENDBRANCH  12  13
BRANCH  12  16
ATOM     16  C   UNL     1       0.282   7.968   1.039  1.00  0.00     0.022 C 
BRANCH  16  17
ATOM     17  C   UNL     1      -0.526   7.617   2.296  1.00  0.00     0.002 C 
BRANCH  17  18
ATOM     18  C   UNL     1       0.196   6.718   3.296  1.00  0.00     0.000 C 
BRANCH  18  19
ATOM     19  C   UNL     1      -0.694   6.214   4.440  1.00  0.00    -0.000 C 
BRANCH  19  20
ATOM     20  C   UNL     1      -0.655   4.701   4.676  1.00  0.00    -0.000 C 
BRANCH  20  21
ATOM     21  C   UNL     1      -1.425   4.270   5.927  1.00  0.00    -0.003 C 
ATOM     22  C   UNL     1      -2.067   2.904   5.739  1.00  0.00     0.004 C 
ENDBRANCH  20  21
ENDBRANCH  19  20
ENDBRANCH  18  19
ENDBRANCH  17  18
ENDBRANCH  16  17
ENDBRANCH  12  16
ENDBRANCH   9  12
ENDBRANCH   6   9
ENDBRANCH   3   5
ENDBRANCH   2   3
BRANCH   2  23
ATOM     23  N   UNL     1      -4.952   7.081  -5.295  1.00  0.00    -0.332 N 
ATOM     24  C   UNL     1      -5.983   8.105  -5.363  1.00  0.00     0.147 C 
BRANCH  23  25
ATOM     25  C   UNL     1      -5.056   6.016  -6.331  1.00  0.00     0.174 C 
BRANCH  25  26
ATOM     26  C   UNL     1      -5.623   6.536  -7.673  1.00  0.00     0.038 C 
BRANCH  26  27
ATOM     27  C   UNL     1      -4.752   6.322  -8.931  1.00  0.00    -0.015 C 
ATOM     28  C   UNL     1      -3.354   6.921  -8.782  1.00  0.00     0.007 C 
ATOM     29  C   UNL     1      -4.667   4.862  -9.369  1.00  0.00     0.007 C 
ENDBRANCH  26  27
ENDBRANCH  25  26
BRANCH  25  30
ATOM     30  C   UNL     1      -5.818   4.796  -5.765  1.00  0.00     0.243 C 
ATOM     31  O   UNL     1      -7.030   4.826  -5.557  1.00  0.00    -0.273 OA
ATOM     32  N   UNL     1      -5.054   3.687  -5.506  1.00  0.00    -0.342 N 
ATOM     33  H   UNL     1      -4.085   3.692  -5.837  1.00  0.00     0.164 HD
BRANCH  32  34
ATOM     34  C   UNL     1      -5.601   2.450  -4.943  1.00  0.00     0.175 C 
BRANCH  34  35
ATOM     35  C   UNL     1      -4.669   1.257  -5.205  1.00  0.00     0.070 C 
BRANCH  35  36
ATOM     36  C   UNL     1      -4.618   0.865  -6.664  1.00  0.00    -0.045 A 
ATOM     37  C   UNL     1      -5.794   0.492  -7.332  1.00  0.00     0.007 A 
ATOM     38  C   UNL     1      -3.403   0.844  -7.361  1.00  0.00     0.007 A 
ATOM     39  C   UNL     1      -5.755   0.115  -8.675  1.00  0.00     0.046 A 
ATOM     40  C   UNL     1      -3.362   0.466  -8.705  1.00  0.00     0.046 A 
ATOM     41  C   UNL     1      -4.540   0.105  -9.350  1.00  0.00     0.115 A 
BRANCH  41  42
ATOM     42  O   UNL     1      -4.544  -0.272 -10.661  1.00  0.00    -0.508 OA
ATOM     43  H   UNL     1      -4.635   0.526 -11.207  1.00  0.00     0.293 HD
ENDBRANCH  41  42
ENDBRANCH  35  36
ENDBRANCH  34  35
BRANCH  34  44
ATOM     44  C   UNL     1      -5.839   2.676  -3.433  1.00  0.00     0.243 C 
ATOM     45  O   UNL     1      -4.952   2.680  -2.583  1.00  0.00    -0.273 OA
ATOM     46  N   UNL     1      -7.173   2.747  -3.092  1.00  0.00    -0.341 N 
ATOM     47  H   UNL     1      -7.876   2.622  -3.817  1.00  0.00     0.164 HD
BRANCH  46  48
ATOM     48  C   UNL     1      -7.647   2.890  -1.713  1.00  0.00     0.196 C 
BRANCH  48  49
ATOM     49  C   UNL     1      -9.104   3.380  -1.669  1.00  0.00     0.072 C 
BRANCH  49  50
ATOM     50  C   UNL     1      -9.297   4.549  -0.731  1.00  0.00    -0.045 A 
ATOM     51  C   UNL     1     -10.461   4.638   0.046  1.00  0.00     0.007 A 
ATOM     52  C   UNL     1      -8.336   5.564  -0.637  1.00  0.00     0.007 A 
ATOM     53  C   UNL     1     -10.656   5.719   0.905  1.00  0.00     0.046 A 
ATOM     54  C   UNL     1      -8.532   6.648   0.222  1.00  0.00     0.046 A 
ATOM     55  C   UNL     1      -9.691   6.715   0.988  1.00  0.00     0.115 A 
BRANCH  55  56
ATOM     56  O   UNL     1      -9.921   7.755   1.838  1.00  0.00    -0.508 OA
ATOM     57  H   UNL     1     -10.814   7.659   2.205  1.00  0.00     0.293 HD
ENDBRANCH  55  56
ENDBRANCH  49  50
ENDBRANCH  48  49
BRANCH  48  58
ATOM     58  C   UNL     1      -7.538   1.533  -1.005  1.00  0.00     0.326 C 
ATOM     59  O   UNL     1      -6.674   1.176  -0.220  1.00  0.00    -0.250 OA
BRANCH  58  60
ATOM     60  O   UNL     1      -8.547   0.680  -1.311  1.00  0.00    -0.480 OA
ATOM     61  H   UNL     1      -9.266   0.951  -0.699  1.00  0.00     0.296 HD
ENDBRANCH  58  60
ENDBRANCH  48  58
ENDBRANCH  46  48
ENDBRANCH  34  44
ENDBRANCH  32  34
ENDBRANCH  25  30
ENDBRANCH  23  25
ENDBRANCH   2  23
TORSDOF 28
ENDMDL
MODEL 12
REMARK VINA RESULT:    -6.422     12.099     16.587
REMARK INTER + INTRA:         -21.166
REMARK INTER:                 -14.929
REMARK INTRA:                  -6.237
REMARK UNBOUND:                -5.170
REMARK SMILES CCCCCCC[C@H](N)[C@H](O)C(=O)N[C@H](C)C(=O)N(C)[C@H](CC(C)C)C(=O)N[C@@H](Cc1ccc(O)cc1)C(=O)N[C@@H](Cc1ccc(O)cc1)C(=O)O
REMARK SMILES IDX 18 1 17 2 15 3 16 4 14 5 12 6 13 7 10 9 11 10 8 12 9 13 7 16
REMARK SMILES IDX 6 17 5 18 4 19 3 20 2 21 1 22 19 23 20 24 21 25 22 26 23 27
REMARK SMILES IDX 24 28 25 29 26 30 27 31 28 32 29 34 30 35 31 36 32 37 37 38
REMARK SMILES IDX 33 39 36 40 34 41 35 42 38 44 39 45 40 46 41 48 42 49 43 50
REMARK SMILES IDX 44 51 49 52 45 53 48 54 46 55 47 56 50 58 51 59 52 60
REMARK H PARENT 14 8 11 11 9 14 9 15 28 33 35 43 40 47 47 57 52 61
ROOT
ATOM      1  O   UNL     1      -7.489  -0.316  -6.253  1.00  0.00    -0.272 OA
ATOM      2  C   UNL     1      -7.318   0.780  -5.699  1.00  0.00     0.245 C 
ENDROOT
BRANCH   2   3
ATOM      3  C   UNL     1      -8.007   1.037  -4.336  1.00  0.00     0.168 C 
ATOM      4  C   UNL     1      -6.989   1.471  -3.288  1.00  0.00     0.041 C 
BRANCH   3   5
ATOM      5  N   UNL     1      -9.149   1.937  -4.389  1.00  0.00    -0.342 N 
ATOM      6  C   UNL     1     -10.428   1.509  -4.105  1.00  0.00     0.251 C 
ATOM      7  O   UNL     1     -10.706   0.346  -3.830  1.00  0.00    -0.272 OA
ATOM      8  H   UNL     1      -9.047   2.918  -4.639  1.00  0.00     0.164 HD
BRANCH   6   9
ATOM      9  C   UNL     1     -11.449   2.657  -4.084  1.00  0.00     0.219 C 
BRANCH   9  10
ATOM     10  O   UNL     1     -12.761   2.237  -4.476  1.00  0.00    -0.382 OA
ATOM     11  H   UNL     1     -12.686   2.124  -5.449  1.00  0.00     0.211 HD
ENDBRANCH   9  10
BRANCH   9  12
ATOM     12  C   UNL     1     -11.494   3.408  -2.727  1.00  0.00     0.089 C 
BRANCH  12  13
ATOM     13  N   UNL     1     -10.876   2.545  -1.695  1.00  0.00    -0.325 NA
ATOM     14  H   UNL     1     -10.167   1.953  -2.132  1.00  0.00     0.119 HD
ATOM     15  H   UNL     1     -11.582   1.897  -1.339  1.00  0.00     0.119 HD
ENDBRANCH  12  13
BRANCH  12  16
ATOM     16  C   UNL     1     -10.841   4.811  -2.707  1.00  0.00     0.022 C 
BRANCH  16  17
ATOM     17  C   UNL     1     -10.973   5.678  -1.447  1.00  0.00     0.002 C 
BRANCH  17  18
ATOM     18  C   UNL     1      -9.654   6.008  -0.752  1.00  0.00     0.000 C 
BRANCH  18  19
ATOM     19  C   UNL     1      -9.354   5.128   0.469  1.00  0.00    -0.000 C 
BRANCH  19  20
ATOM     20  C   UNL     1      -7.918   4.601   0.553  1.00  0.00    -0.000 C 
BRANCH  20  21
ATOM     21  C   UNL     1      -7.828   3.081   0.401  1.00  0.00    -0.003 C 
ATOM     22  C   UNL     1      -6.394   2.631   0.167  1.00  0.00     0.004 C 
ENDBRANCH  20  21
ENDBRANCH  19  20
ENDBRANCH  18  19
ENDBRANCH  17  18
ENDBRANCH  16  17
ENDBRANCH  12  16
ENDBRANCH   9  12
ENDBRANCH   6   9
ENDBRANCH   3   5
ENDBRANCH   2   3
BRANCH   2  23
ATOM     23  N   UNL     1      -6.426   1.701  -6.240  1.00  0.00    -0.332 N 
ATOM     24  C   UNL     1      -4.982   1.652  -6.066  1.00  0.00     0.147 C 
BRANCH  23  25
ATOM     25  C   UNL     1      -6.910   2.759  -7.168  1.00  0.00     0.174 C 
BRANCH  25  26
ATOM     26  C   UNL     1      -5.826   3.223  -8.170  1.00  0.00     0.038 C 
BRANCH  26  27
ATOM     27  C   UNL     1      -5.932   2.685  -9.614  1.00  0.00    -0.015 C 
ATOM     28  C   UNL     1      -5.869   1.159  -9.676  1.00  0.00     0.007 C 
ATOM     29  C   UNL     1      -7.155   3.203 -10.367  1.00  0.00     0.007 C 
ENDBRANCH  26  27
ENDBRANCH  25  26
BRANCH  25  30
ATOM     30  C   UNL     1      -7.553   3.915  -6.368  1.00  0.00     0.243 C 
ATOM     31  O   UNL     1      -8.703   4.294  -6.584  1.00  0.00    -0.273 OA
ATOM     32  N   UNL     1      -6.755   4.490  -5.412  1.00  0.00    -0.342 N 
ATOM     33  H   UNL     1      -5.867   4.030  -5.197  1.00  0.00     0.164 HD
BRANCH  32  34
ATOM     34  C   UNL     1      -7.188   5.615  -4.578  1.00  0.00     0.175 C 
BRANCH  34  35
ATOM     35  C   UNL     1      -7.140   5.254  -3.086  1.00  0.00     0.070 C 
BRANCH  35  36
ATOM     36  C   UNL     1      -5.940   5.844  -2.379  1.00  0.00    -0.045 A 
ATOM     37  C   UNL     1      -4.728   5.138  -2.345  1.00  0.00     0.007 A 
ATOM     38  C   UNL     1      -6.024   7.085  -1.733  1.00  0.00     0.007 A 
ATOM     39  C   UNL     1      -3.620   5.668  -1.684  1.00  0.00     0.046 A 
ATOM     40  C   UNL     1      -4.915   7.615  -1.070  1.00  0.00     0.046 A 
ATOM     41  C   UNL     1      -3.722   6.901  -1.053  1.00  0.00     0.115 A 
BRANCH  41  42
ATOM     42  O   UNL     1      -2.616   7.382  -0.416  1.00  0.00    -0.508 OA
ATOM     43  H   UNL     1      -2.136   6.631  -0.029  1.00  0.00     0.293 HD
ENDBRANCH  41  42
ENDBRANCH  35  36
ENDBRANCH  34  35
BRANCH  34  44
ATOM     44  C   UNL     1      -6.290   6.829  -4.908  1.00  0.00     0.243 C 
ATOM     45  O   UNL     1      -6.649   8.000  -4.828  1.00  0.00    -0.273 OA
ATOM     46  N   UNL     1      -5.064   6.478  -5.434  1.00  0.00    -0.341 N 
ATOM     47  H   UNL     1      -4.857   5.494  -5.590  1.00  0.00     0.164 HD
BRANCH  46  48
ATOM     48  C   UNL     1      -4.071   7.455  -5.885  1.00  0.00     0.196 C 
BRANCH  48  49
ATOM     49  C   UNL     1      -2.691   7.177  -5.266  1.00  0.00     0.072 C 
BRANCH  49  50
ATOM     50  C   UNL     1      -2.295   8.213  -4.238  1.00  0.00    -0.045 A 
ATOM     51  C   UNL     1      -3.193   9.234  -3.893  1.00  0.00     0.007 A 
ATOM     52  C   UNL     1      -1.031   8.183  -3.635  1.00  0.00     0.007 A 
ATOM     53  C   UNL     1      -2.834  10.202  -2.956  1.00  0.00     0.046 A 
ATOM     54  C   UNL     1      -0.671   9.154  -2.697  1.00  0.00     0.046 A 
ATOM     55  C   UNL     1      -1.577  10.155  -2.365  1.00  0.00     0.115 A 
BRANCH  55  56
ATOM     56  O   UNL     1      -1.264  11.122  -1.455  1.00  0.00    -0.508 OA
ATOM     57  H   UNL     1      -1.385  10.755  -0.565  1.00  0.00     0.293 HD
ENDBRANCH  55  56
ENDBRANCH  49  50
ENDBRANCH  48  49
BRANCH  48  58
ATOM     58  C   UNL     1      -3.971   7.395  -7.416  1.00  0.00     0.326 C 
ATOM     59  O   UNL     1      -4.645   6.718  -8.175  1.00  0.00    -0.250 OA
BRANCH  58  60
ATOM     60  O   UNL     1      -3.020   8.216  -7.928  1.00  0.00    -0.480 OA
ATOM     61  H   UNL     1      -3.419   8.527  -8.770  1.00  0.00     0.296 HD
ENDBRANCH  58  60
ENDBRANCH  48  58
ENDBRANCH  46  48
ENDBRANCH  34  44
ENDBRANCH  32  34
ENDBRANCH  25  30
ENDBRANCH  23  25
ENDBRANCH   2  23
TORSDOF 28
ENDMDL
MODEL 13
REMARK VINA RESULT:    -6.409     14.400     20.347
REMARK INTER + INTRA:         -21.132
REMARK INTER:                 -16.945
REMARK INTRA:                  -4.187
REMARK UNBOUND:                -5.170
REMARK SMILES CCCCCCC[C@H](N)[C@H](O)C(=O)N[C@H](C)C(=O)N(C)[C@H](CC(C)C)C(=O)N[C@@H](Cc1ccc(O)cc1)C(=O)N[C@@H](Cc1ccc(O)cc1)C(=O)O
REMARK SMILES IDX 18 1 17 2 15 3 16 4 14 5 12 6 13 7 10 9 11 10 8 12 9 13 7 16
REMARK SMILES IDX 6 17 5 18 4 19 3 20 2 21 1 22 19 23 20 24 21 25 22 26 23 27
REMARK SMILES IDX 24 28 25 29 26 30 27 31 28 32 29 34 30 35 31 36 32 37 37 38
REMARK SMILES IDX 33 39 36 40 34 41 35 42 38 44 39 45 40 46 41 48 42 49 43 50
REMARK SMILES IDX 44 51 49 52 45 53 48 54 46 55 47 56 50 58 51 59 52 60
REMARK H PARENT 14 8 11 11 9 14 9 15 28 33 35 43 40 47 47 57 52 61
ROOT
ATOM      1  O   UNL     1      -6.434   1.594  -8.649  1.00  0.00    -0.272 OA
ATOM      2  C   UNL     1      -5.564   2.362  -9.087  1.00  0.00     0.245 C 
ENDROOT
BRANCH   2   3
ATOM      3  C   UNL     1      -4.075   1.975  -8.906  1.00  0.00     0.168 C 
ATOM      4  C   UNL     1      -3.860   1.257  -7.578  1.00  0.00     0.041 C 
BRANCH   3   5
ATOM      5  N   UNL     1      -3.495   1.241 -10.019  1.00  0.00    -0.342 N 
ATOM      6  C   UNL     1      -2.215   1.490 -10.468  1.00  0.00     0.251 C 
ATOM      7  O   UNL     1      -1.493   2.364 -10.000  1.00  0.00    -0.272 OA
ATOM      8  H   UNL     1      -4.012   0.515 -10.511  1.00  0.00     0.164 HD
BRANCH   6   9
ATOM      9  C   UNL     1      -1.763   0.502 -11.555  1.00  0.00     0.219 C 
BRANCH   9  10
ATOM     10  O   UNL     1      -2.862  -0.063 -12.279  1.00  0.00    -0.382 OA
ATOM     11  H   UNL     1      -3.650   0.352 -11.865  1.00  0.00     0.211 HD
ENDBRANCH   9  10
BRANCH   9  12
ATOM     12  C   UNL     1      -0.715   1.104 -12.527  1.00  0.00     0.089 C 
BRANCH  12  13
ATOM     13  N   UNL     1      -1.183   2.444 -12.948  1.00  0.00    -0.325 NA
ATOM     14  H   UNL     1      -0.386   2.988 -13.285  1.00  0.00     0.119 HD
ATOM     15  H   UNL     1      -1.523   2.949 -12.127  1.00  0.00     0.119 HD
ENDBRANCH  12  13
BRANCH  12  16
ATOM     16  C   UNL     1       0.735   1.191 -11.991  1.00  0.00     0.022 C 
BRANCH  16  17
ATOM     17  C   UNL     1       1.891   0.719 -12.883  1.00  0.00     0.002 C 
BRANCH  17  18
ATOM     18  C   UNL     1       2.945  -0.130 -12.176  1.00  0.00     0.000 C 
BRANCH  18  19
ATOM     19  C   UNL     1       3.378  -1.373 -12.965  1.00  0.00    -0.000 C 
BRANCH  19  20
ATOM     20  C   UNL     1       2.788  -2.696 -12.469  1.00  0.00    -0.000 C 
BRANCH  20  21
ATOM     21  C   UNL     1       2.390  -2.659 -10.991  1.00  0.00    -0.003 C 
ATOM     22  C   UNL     1       1.106  -3.435 -10.742  1.00  0.00     0.004 C 
ENDBRANCH  20  21
ENDBRANCH  19  20
ENDBRANCH  18  19
ENDBRANCH  17  18
ENDBRANCH  16  17
ENDBRANCH  12  16
ENDBRANCH   9  12
ENDBRANCH   6   9
ENDBRANCH   3   5
ENDBRANCH   2   3
BRANCH   2  23
ATOM     23  N   UNL     1      -5.932   3.479  -9.830  1.00  0.00    -0.332 N 
ATOM     24  C   UNL     1      -6.330   3.446 -11.229  1.00  0.00     0.147 C 
BRANCH  23  25
ATOM     25  C   UNL     1      -6.066   4.808  -9.172  1.00  0.00     0.174 C 
BRANCH  25  26
ATOM     26  C   UNL     1      -4.705   5.413  -8.755  1.00  0.00     0.038 C 
BRANCH  26  27
ATOM     27  C   UNL     1      -4.311   6.760  -9.401  1.00  0.00    -0.015 C 
ATOM     28  C   UNL     1      -3.058   7.367  -8.771  1.00  0.00     0.007 C 
ATOM     29  C   UNL     1      -4.167   6.686 -10.919  1.00  0.00     0.007 C 
ENDBRANCH  26  27
ENDBRANCH  25  26
BRANCH  25  30
ATOM     30  C   UNL     1      -7.091   4.729  -8.016  1.00  0.00     0.243 C 
ATOM     31  O   UNL     1      -8.292   4.563  -8.223  1.00  0.00    -0.273 OA
ATOM     32  N   UNL     1      -6.573   4.862  -6.754  1.00  0.00    -0.342 N 
ATOM     33  H   UNL     1      -5.554   4.854  -6.657  1.00  0.00     0.164 HD
BRANCH  32  34
ATOM     34  C   UNL     1      -7.397   4.840  -5.543  1.00  0.00     0.175 C 
BRANCH  34  35
ATOM     35  C   UNL     1      -7.452   3.432  -4.930  1.00  0.00     0.070 C 
BRANCH  35  36
ATOM     36  C   UNL     1      -8.864   2.973  -4.644  1.00  0.00    -0.045 A 
ATOM     37  C   UNL     1      -9.155   1.603  -4.568  1.00  0.00     0.007 A 
ATOM     38  C   UNL     1      -9.901   3.900  -4.475  1.00  0.00     0.007 A 
ATOM     39  C   UNL     1     -10.458   1.169  -4.319  1.00  0.00     0.046 A 
ATOM     40  C   UNL     1     -11.206   3.467  -4.227  1.00  0.00     0.046 A 
ATOM     41  C   UNL     1     -11.472   2.104  -4.150  1.00  0.00     0.115 A 
BRANCH  41  42
ATOM     42  O   UNL     1     -12.731   1.639  -3.911  1.00  0.00    -0.508 OA
ATOM     43  H   UNL     1     -13.099   1.312  -4.749  1.00  0.00     0.293 HD
ENDBRANCH  41  42
ENDBRANCH  35  36
ENDBRANCH  34  35
BRANCH  34  44
ATOM     44  C   UNL     1      -6.822   5.878  -4.553  1.00  0.00     0.243 C 
ATOM     45  O   UNL     1      -6.757   7.084  -4.774  1.00  0.00    -0.273 OA
ATOM     46  N   UNL     1      -6.257   5.312  -3.430  1.00  0.00    -0.341 N 
ATOM     47  H   UNL     1      -6.232   4.299  -3.347  1.00  0.00     0.164 HD
BRANCH  46  48
ATOM     48  C   UNL     1      -5.590   6.090  -2.384  1.00  0.00     0.196 C 
BRANCH  48  49
ATOM     49  C   UNL     1      -5.876   5.513  -0.988  1.00  0.00     0.072 C 
BRANCH  49  50
ATOM     50  C   UNL     1      -6.630   4.203  -1.043  1.00  0.00    -0.045 A 
ATOM     51  C   UNL     1      -8.030   4.199  -0.966  1.00  0.00     0.007 A 
ATOM     52  C   UNL     1      -5.949   2.983  -1.149  1.00  0.00     0.007 A 
ATOM     53  C   UNL     1      -8.735   2.996  -1.003  1.00  0.00     0.046 A 
ATOM     54  C   UNL     1      -6.655   1.779  -1.185  1.00  0.00     0.046 A 
ATOM     55  C   UNL     1      -8.044   1.796  -1.112  1.00  0.00     0.115 A 
BRANCH  55  56
ATOM     56  O   UNL     1      -8.770   0.642  -1.143  1.00  0.00    -0.508 OA
ATOM     57  H   UNL     1      -8.232  -0.068  -0.760  1.00  0.00     0.293 HD
ENDBRANCH  55  56
ENDBRANCH  49  50
ENDBRANCH  48  49
BRANCH  48  58
ATOM     58  C   UNL     1      -4.077   6.083  -2.644  1.00  0.00     0.326 C 
ATOM     59  O   UNL     1      -3.481   6.638  -3.554  1.00  0.00    -0.250 OA
BRANCH  58  60
ATOM     60  O   UNL     1      -3.373   5.378  -1.724  1.00  0.00    -0.480 OA
ATOM     61  H   UNL     1      -2.471   5.761  -1.787  1.00  0.00     0.296 HD
ENDBRANCH  58  60
ENDBRANCH  48  58
ENDBRANCH  46  48
ENDBRANCH  34  44
ENDBRANCH  32  34
ENDBRANCH  25  30
ENDBRANCH  23  25
ENDBRANCH   2  23
TORSDOF 28
ENDMDL
MODEL 14
REMARK VINA RESULT:    -6.378     12.673     17.297
REMARK INTER + INTRA:         -21.056
REMARK INTER:                 -16.042
REMARK INTRA:                  -5.014
REMARK UNBOUND:                -5.170
REMARK SMILES CCCCCCC[C@H](N)[C@H](O)C(=O)N[C@H](C)C(=O)N(C)[C@H](CC(C)C)C(=O)N[C@@H](Cc1ccc(O)cc1)C(=O)N[C@@H](Cc1ccc(O)cc1)C(=O)O
REMARK SMILES IDX 18 1 17 2 15 3 16 4 14 5 12 6 13 7 10 9 11 10 8 12 9 13 7 16
REMARK SMILES IDX 6 17 5 18 4 19 3 20 2 21 1 22 19 23 20 24 21 25 22 26 23 27
REMARK SMILES IDX 24 28 25 29 26 30 27 31 28 32 29 34 30 35 31 36 32 37 37 38
REMARK SMILES IDX 33 39 36 40 34 41 35 42 38 44 39 45 40 46 41 48 42 49 43 50
REMARK SMILES IDX 44 51 49 52 45 53 48 54 46 55 47 56 50 58 51 59 52 60
REMARK H PARENT 14 8 11 11 9 14 9 15 28 33 35 43 40 47 47 57 52 61
ROOT
ATOM      1  O   UNL     1      -4.262   2.517  -2.104  1.00  0.00    -0.272 OA
ATOM      2  C   UNL     1      -5.430   2.914  -2.228  1.00  0.00     0.245 C 
ENDROOT
BRANCH   2   3
ATOM      3  C   UNL     1      -6.583   1.960  -1.830  1.00  0.00     0.168 C 
ATOM      4  C   UNL     1      -6.706   1.861  -0.314  1.00  0.00     0.041 C 
BRANCH   3   5
ATOM      5  N   UNL     1      -7.862   2.251  -2.460  1.00  0.00    -0.342 N 
ATOM      6  C   UNL     1      -8.315   1.541  -3.552  1.00  0.00     0.251 C 
ATOM      7  O   UNL     1      -7.668   0.652  -4.095  1.00  0.00    -0.272 OA
ATOM      8  H   UNL     1      -8.471   2.991  -2.119  1.00  0.00     0.164 HD
BRANCH   6   9
ATOM      9  C   UNL     1      -9.747   1.925  -3.958  1.00  0.00     0.219 C 
BRANCH   9  10
ATOM     10  O   UNL     1     -10.133   1.362  -5.218  1.00  0.00    -0.382 OA
ATOM     11  H   UNL     1     -10.836   0.720  -4.977  1.00  0.00     0.211 HD
ENDBRANCH   9  10
BRANCH   9  12
ATOM     12  C   UNL     1     -10.797   1.601  -2.864  1.00  0.00     0.089 C 
BRANCH  12  13
ATOM     13  N   UNL     1     -10.203   0.629  -1.919  1.00  0.00    -0.325 NA
ATOM     14  H   UNL     1     -10.939   0.253  -1.317  1.00  0.00     0.119 HD
ATOM     15  H   UNL     1      -9.570   1.125  -1.288  1.00  0.00     0.119 HD
ENDBRANCH  12  13
BRANCH  12  16
ATOM     16  C   UNL     1     -11.367   2.814  -2.091  1.00  0.00     0.022 C 
BRANCH  16  17
ATOM     17  C   UNL     1     -11.675   4.109  -2.855  1.00  0.00     0.002 C 
BRANCH  17  18
ATOM     18  C   UNL     1     -11.290   5.395  -2.127  1.00  0.00     0.000 C 
BRANCH  18  19
ATOM     19  C   UNL     1     -12.055   5.623  -0.816  1.00  0.00    -0.000 C 
BRANCH  19  20
ATOM     20  C   UNL     1     -11.178   5.799   0.426  1.00  0.00    -0.000 C 
BRANCH  20  21
ATOM     21  C   UNL     1     -10.844   4.474   1.116  1.00  0.00    -0.003 C 
ATOM     22  C   UNL     1      -9.401   4.064   0.861  1.00  0.00     0.004 C 
ENDBRANCH  20  21
ENDBRANCH  19  20
ENDBRANCH  18  19
ENDBRANCH  17  18
ENDBRANCH  16  17
ENDBRANCH  12  16
ENDBRANCH   9  12
ENDBRANCH   6   9
ENDBRANCH   3   5
ENDBRANCH   2   3
BRANCH   2  23
ATOM     23  N   UNL     1      -5.681   4.231  -2.600  1.00  0.00    -0.332 N 
ATOM     24  C   UNL     1      -6.214   5.252  -1.711  1.00  0.00     0.147 C 
BRANCH  23  25
ATOM     25  C   UNL     1      -5.283   4.719  -3.949  1.00  0.00     0.174 C 
BRANCH  25  26
ATOM     26  C   UNL     1      -4.836   6.200  -3.946  1.00  0.00     0.038 C 
BRANCH  26  27
ATOM     27  C   UNL     1      -3.316   6.472  -3.989  1.00  0.00    -0.015 C 
ATOM     28  C   UNL     1      -2.919   7.391  -5.144  1.00  0.00     0.007 C 
ATOM     29  C   UNL     1      -2.754   6.995  -2.670  1.00  0.00     0.007 C 
ENDBRANCH  26  27
ENDBRANCH  25  26
BRANCH  25  30
ATOM     30  C   UNL     1      -6.396   4.408  -4.976  1.00  0.00     0.243 C 
ATOM     31  O   UNL     1      -7.579   4.655  -4.747  1.00  0.00    -0.273 OA
ATOM     32  N   UNL     1      -5.977   3.838  -6.150  1.00  0.00    -0.342 N 
ATOM     33  H   UNL     1      -4.969   3.795  -6.323  1.00  0.00     0.164 HD
BRANCH  32  34
ATOM     34  C   UNL     1      -6.894   3.451  -7.226  1.00  0.00     0.175 C 
BRANCH  34  35
ATOM     35  C   UNL     1      -7.215   4.642  -8.142  1.00  0.00     0.070 C 
BRANCH  35  36
ATOM     36  C   UNL     1      -5.984   5.429  -8.531  1.00  0.00    -0.045 A 
ATOM     37  C   UNL     1      -5.720   6.665  -7.921  1.00  0.00     0.007 A 
ATOM     38  C   UNL     1      -5.106   4.953  -9.514  1.00  0.00     0.007 A 
ATOM     39  C   UNL     1      -4.594   7.405  -8.283  1.00  0.00     0.046 A 
ATOM     40  C   UNL     1      -3.979   5.694  -9.878  1.00  0.00     0.046 A 
ATOM     41  C   UNL     1      -3.733   6.914  -9.257  1.00  0.00     0.115 A 
BRANCH  41  42
ATOM     42  O   UNL     1      -2.646   7.670  -9.584  1.00  0.00    -0.508 OA
ATOM     43  H   UNL     1      -1.848   7.198  -9.290  1.00  0.00     0.293 HD
ENDBRANCH  41  42
ENDBRANCH  35  36
ENDBRANCH  34  35
BRANCH  34  44
ATOM     44  C   UNL     1      -6.252   2.280  -8.004  1.00  0.00     0.243 C 
ATOM     45  O   UNL     1      -6.701   1.811  -9.046  1.00  0.00    -0.273 OA
ATOM     46  N   UNL     1      -5.180   1.709  -7.351  1.00  0.00    -0.341 N 
ATOM     47  H   UNL     1      -4.917   2.059  -6.433  1.00  0.00     0.164 HD
BRANCH  46  48
ATOM     48  C   UNL     1      -4.454   0.544  -7.861  1.00  0.00     0.196 C 
BRANCH  48  49
ATOM     49  C   UNL     1      -2.935   0.708  -7.681  1.00  0.00     0.072 C 
BRANCH  49  50
ATOM     50  C   UNL     1      -2.242   1.138  -8.955  1.00  0.00    -0.045 A 
ATOM     51  C   UNL     1      -0.841   1.134  -9.023  1.00  0.00     0.007 A 
ATOM     52  C   UNL     1      -2.978   1.562 -10.068  1.00  0.00     0.007 A 
ATOM     53  C   UNL     1      -0.190   1.541 -10.188  1.00  0.00     0.046 A 
ATOM     54  C   UNL     1      -2.327   1.971 -11.234  1.00  0.00     0.046 A 
ATOM     55  C   UNL     1      -0.937   1.955 -11.284  1.00  0.00     0.115 A 
BRANCH  55  56
ATOM     56  O   UNL     1      -0.263   2.347 -12.402  1.00  0.00    -0.508 OA
ATOM     57  H   UNL     1       0.649   2.021 -12.340  1.00  0.00     0.293 HD
ENDBRANCH  55  56
ENDBRANCH  49  50
ENDBRANCH  48  49
BRANCH  48  58
ATOM     58  C   UNL     1      -4.929  -0.708  -7.110  1.00  0.00     0.326 C 
ATOM     59  O   UNL     1      -5.111  -0.825  -5.909  1.00  0.00    -0.250 OA
BRANCH  58  60
ATOM     60  O   UNL     1      -5.170  -1.768  -7.922  1.00  0.00    -0.480 OA
ATOM     61  H   UNL     1      -5.259  -2.518  -7.295  1.00  0.00     0.296 HD
ENDBRANCH  58  60
ENDBRANCH  48  58
ENDBRANCH  46  48
ENDBRANCH  34  44
ENDBRANCH  32  34
ENDBRANCH  25  30
ENDBRANCH  23  25
ENDBRANCH   2  23
TORSDOF 28
ENDMDL
MODEL 15
REMARK VINA RESULT:    -6.349      3.027      7.104
REMARK INTER + INTRA:         -20.983
REMARK INTER:                 -15.685
REMARK INTRA:                  -5.298
REMARK UNBOUND:                -5.170
REMARK SMILES CCCCCCC[C@H](N)[C@H](O)C(=O)N[C@H](C)C(=O)N(C)[C@H](CC(C)C)C(=O)N[C@@H](Cc1ccc(O)cc1)C(=O)N[C@@H](Cc1ccc(O)cc1)C(=O)O
REMARK SMILES IDX 18 1 17 2 15 3 16 4 14 5 12 6 13 7 10 9 11 10 8 12 9 13 7 16
REMARK SMILES IDX 6 17 5 18 4 19 3 20 2 21 1 22 19 23 20 24 21 25 22 26 23 27
REMARK SMILES IDX 24 28 25 29 26 30 27 31 28 32 29 34 30 35 31 36 32 37 37 38
REMARK SMILES IDX 33 39 36 40 34 41 35 42 38 44 39 45 40 46 41 48 42 49 43 50
REMARK SMILES IDX 44 51 49 52 45 53 48 54 46 55 47 56 50 58 51 59 52 60
REMARK H PARENT 14 8 11 11 9 14 9 15 28 33 35 43 40 47 47 57 52 61
ROOT
ATOM      1  O   UNL     1      -3.557   6.577   9.126  1.00  0.00    -0.272 OA
ATOM      2  C   UNL     1      -3.558   7.789   9.389  1.00  0.00     0.245 C 
ENDROOT
BRANCH   2   3
ATOM      3  C   UNL     1      -4.733   8.367  10.217  1.00  0.00     0.168 C 
ATOM      4  C   UNL     1      -5.443   9.476   9.449  1.00  0.00     0.041 C 
BRANCH   3   5
ATOM      5  N   UNL     1      -5.668   7.376  10.726  1.00  0.00    -0.342 N 
ATOM      6  C   UNL     1      -5.815   7.140  12.077  1.00  0.00     0.251 C 
ATOM      7  O   UNL     1      -5.152   7.707  12.939  1.00  0.00    -0.272 OA
ATOM      8  H   UNL     1      -6.248   6.817  10.105  1.00  0.00     0.164 HD
BRANCH   6   9
ATOM      9  C   UNL     1      -6.956   6.158  12.387  1.00  0.00     0.219 C 
BRANCH   9  10
ATOM     10  O   UNL     1      -8.061   6.292  11.486  1.00  0.00    -0.382 OA
ATOM     11  H   UNL     1      -8.696   5.609  11.796  1.00  0.00     0.211 HD
ENDBRANCH   9  10
BRANCH   9  12
ATOM     12  C   UNL     1      -6.484   4.682  12.465  1.00  0.00     0.089 C 
BRANCH  12  13
ATOM     13  N   UNL     1      -7.120   4.050  13.644  1.00  0.00    -0.325 NA
ATOM     14  H   UNL     1      -6.554   4.242  14.473  1.00  0.00     0.119 HD
ATOM     15  H   UNL     1      -7.091   3.034  13.531  1.00  0.00     0.119 HD
ENDBRANCH  12  13
BRANCH  12  16
ATOM     16  C   UNL     1      -6.734   3.823  11.202  1.00  0.00     0.022 C 
BRANCH  16  17
ATOM     17  C   UNL     1      -5.551   3.097  10.547  1.00  0.00     0.002 C 
BRANCH  17  18
ATOM     18  C   UNL     1      -4.211   3.276  11.257  1.00  0.00     0.000 C 
BRANCH  18  19
ATOM     19  C   UNL     1      -3.741   2.034  12.026  1.00  0.00    -0.000 C 
BRANCH  19  20
ATOM     20  C   UNL     1      -2.492   1.353  11.458  1.00  0.00    -0.000 C 
BRANCH  20  21
ATOM     21  C   UNL     1      -2.758  -0.070  10.960  1.00  0.00    -0.003 C 
ATOM     22  C   UNL     1      -3.013  -0.094   9.461  1.00  0.00     0.004 C 
ENDBRANCH  20  21
ENDBRANCH  19  20
ENDBRANCH  18  19
ENDBRANCH  17  18
ENDBRANCH  16  17
ENDBRANCH  12  16
ENDBRANCH   9  12
ENDBRANCH   6   9
ENDBRANCH   3   5
ENDBRANCH   2   3
BRANCH   2  23
ATOM     23  N   UNL     1      -2.463   8.576   9.048  1.00  0.00    -0.332 N 
ATOM     24  C   UNL     1      -1.557   9.191  10.007  1.00  0.00     0.147 C 
BRANCH  23  25
ATOM     25  C   UNL     1      -2.067   8.734   7.622  1.00  0.00     0.174 C 
BRANCH  25  26
ATOM     26  C   UNL     1      -3.073   9.582   6.808  1.00  0.00     0.038 C 
BRANCH  26  27
ATOM     27  C   UNL     1      -2.633  11.012   6.424  1.00  0.00    -0.015 C 
ATOM     28  C   UNL     1      -1.224  11.342   6.916  1.00  0.00     0.007 C 
ATOM     29  C   UNL     1      -2.763  11.307   4.931  1.00  0.00     0.007 C 
ENDBRANCH  26  27
ENDBRANCH  25  26
BRANCH  25  30
ATOM     30  C   UNL     1      -1.770   7.352   6.995  1.00  0.00     0.243 C 
ATOM     31  O   UNL     1      -2.245   7.014   5.912  1.00  0.00    -0.273 OA
ATOM     32  N   UNL     1      -0.950   6.533   7.728  1.00  0.00    -0.342 N 
ATOM     33  H   UNL     1      -0.483   6.937   8.544  1.00  0.00     0.164 HD
BRANCH  32  34
ATOM     34  C   UNL     1      -0.583   5.179   7.303  1.00  0.00     0.175 C 
BRANCH  34  35
ATOM     35  C   UNL     1       0.706   4.707   7.995  1.00  0.00     0.070 C 
BRANCH  35  36
ATOM     36  C   UNL     1       1.808   5.741   7.946  1.00  0.00    -0.045 A 
ATOM     37  C   UNL     1       2.372   6.222   9.137  1.00  0.00     0.007 A 
ATOM     38  C   UNL     1       2.264   6.248   6.722  1.00  0.00     0.007 A 
ATOM     39  C   UNL     1       3.380   7.186   9.103  1.00  0.00     0.046 A 
ATOM     40  C   UNL     1       3.273   7.214   6.687  1.00  0.00     0.046 A 
ATOM     41  C   UNL     1       3.823   7.674   7.879  1.00  0.00     0.115 A 
BRANCH  41  42
ATOM     42  O   UNL     1       4.807   8.617   7.889  1.00  0.00    -0.508 OA
ATOM     43  H   UNL     1       4.396   9.487   7.757  1.00  0.00     0.293 HD
ENDBRANCH  41  42
ENDBRANCH  35  36
ENDBRANCH  34  35
BRANCH  34  44
ATOM     44  C   UNL     1      -1.775   4.243   7.603  1.00  0.00     0.243 C 
ATOM     45  O   UNL     1      -1.919   3.617   8.649  1.00  0.00    -0.273 OA
ATOM     46  N   UNL     1      -2.617   4.065   6.526  1.00  0.00    -0.341 N 
ATOM     47  H   UNL     1      -2.390   4.514   5.642  1.00  0.00     0.164 HD
BRANCH  46  48
ATOM     48  C   UNL     1      -3.776   3.170   6.549  1.00  0.00     0.196 C 
BRANCH  48  49
ATOM     49  C   UNL     1      -4.936   3.734   5.711  1.00  0.00     0.072 C 
BRANCH  49  50
ATOM     50  C   UNL     1      -5.808   4.690   6.493  1.00  0.00    -0.045 A 
ATOM     51  C   UNL     1      -6.851   4.192   7.288  1.00  0.00     0.007 A 
ATOM     52  C   UNL     1      -5.606   6.074   6.422  1.00  0.00     0.007 A 
ATOM     53  C   UNL     1      -7.671   5.065   8.004  1.00  0.00     0.046 A 
ATOM     54  C   UNL     1      -6.427   6.948   7.138  1.00  0.00     0.046 A 
ATOM     55  C   UNL     1      -7.453   6.435   7.924  1.00  0.00     0.115 A 
BRANCH  55  56
ATOM     56  O   UNL     1      -8.277   7.253   8.638  1.00  0.00    -0.508 OA
ATOM     57  H   UNL     1      -9.029   7.497   8.074  1.00  0.00     0.293 HD
ENDBRANCH  55  56
ENDBRANCH  49  50
ENDBRANCH  48  49
BRANCH  48  58
ATOM     58  C   UNL     1      -3.361   1.800   5.996  1.00  0.00     0.326 C 
ATOM     59  O   UNL     1      -2.487   1.064   6.425  1.00  0.00    -0.250 OA
BRANCH  58  60
ATOM     60  O   UNL     1      -4.088   1.408   4.919  1.00  0.00    -0.480 OA
ATOM     61  H   UNL     1      -4.242   2.246   4.433  1.00  0.00     0.296 HD
ENDBRANCH  58  60
ENDBRANCH  48  58
ENDBRANCH  46  48
ENDBRANCH  34  44
ENDBRANCH  32  34
ENDBRANCH  25  30
ENDBRANCH  23  25
ENDBRANCH   2  23
TORSDOF 28
ENDMDL
MODEL 16
REMARK VINA RESULT:    -6.345     13.983     20.091
REMARK INTER + INTRA:         -20.973
REMARK INTER:                 -16.751
REMARK INTRA:                  -4.222
REMARK UNBOUND:                -5.170
REMARK SMILES CCCCCCC[C@H](N)[C@H](O)C(=O)N[C@H](C)C(=O)N(C)[C@H](CC(C)C)C(=O)N[C@@H](Cc1ccc(O)cc1)C(=O)N[C@@H](Cc1ccc(O)cc1)C(=O)O
REMARK SMILES IDX 18 1 17 2 15 3 16 4 14 5 12 6 13 7 10 9 11 10 8 12 9 13 7 16
REMARK SMILES IDX 6 17 5 18 4 19 3 20 2 21 1 22 19 23 20 24 21 25 22 26 23 27
REMARK SMILES IDX 24 28 25 29 26 30 27 31 28 32 29 34 30 35 31 36 32 37 37 38
REMARK SMILES IDX 33 39 36 40 34 41 35 42 38 44 39 45 40 46 41 48 42 49 43 50
REMARK SMILES IDX 44 51 49 52 45 53 48 54 46 55 47 56 50 58 51 59 52 60
REMARK H PARENT 14 8 11 11 9 14 9 15 28 33 35 43 40 47 47 57 52 61
ROOT
ATOM      1  O   UNL     1      -3.668   1.070  -7.561  1.00  0.00    -0.272 OA
ATOM      2  C   UNL     1      -4.853   0.727  -7.690  1.00  0.00     0.245 C 
ENDROOT
BRANCH   2   3
ATOM      3  C   UNL     1      -5.414   0.526  -9.120  1.00  0.00     0.168 C 
ATOM      4  C   UNL     1      -6.034   1.816  -9.645  1.00  0.00     0.041 C 
BRANCH   3   5
ATOM      5  N   UNL     1      -4.474  -0.049 -10.070  1.00  0.00    -0.342 N 
ATOM      6  C   UNL     1      -3.592   0.733 -10.786  1.00  0.00     0.251 C 
ATOM      7  O   UNL     1      -3.559   1.957 -10.711  1.00  0.00    -0.272 OA
ATOM      8  H   UNL     1      -4.432  -1.050 -10.244  1.00  0.00     0.164 HD
BRANCH   6   9
ATOM      9  C   UNL     1      -2.602  -0.097 -11.618  1.00  0.00     0.219 C 
BRANCH   9  10
ATOM     10  O   UNL     1      -2.606   0.264 -13.004  1.00  0.00    -0.382 OA
ATOM     11  H   UNL     1      -1.666   0.484 -13.189  1.00  0.00     0.211 HD
ENDBRANCH   9  10
BRANCH   9  12
ATOM     12  C   UNL     1      -1.160  -0.076 -11.048  1.00  0.00     0.089 C 
BRANCH  12  13
ATOM     13  N   UNL     1      -1.241  -0.105  -9.569  1.00  0.00    -0.325 NA
ATOM     14  H   UNL     1      -1.502   0.822  -9.229  1.00  0.00     0.119 HD
ATOM     15  H   UNL     1      -0.307  -0.275  -9.190  1.00  0.00     0.119 HD
ENDBRANCH  12  13
BRANCH  12  16
ATOM     16  C   UNL     1      -0.216  -1.195 -11.550  1.00  0.00     0.022 C 
BRANCH  16  17
ATOM     17  C   UNL     1       1.110  -0.808 -12.221  1.00  0.00     0.002 C 
BRANCH  17  18
ATOM     18  C   UNL     1       1.416   0.687 -12.228  1.00  0.00     0.000 C 
BRANCH  18  19
ATOM     19  C   UNL     1       2.326   1.144 -11.079  1.00  0.00    -0.000 C 
BRANCH  19  20
ATOM     20  C   UNL     1       2.054   2.558 -10.559  1.00  0.00    -0.000 C 
BRANCH  20  21
ATOM     21  C   UNL     1       0.781   3.178 -11.141  1.00  0.00    -0.003 C 
ATOM     22  C   UNL     1      -0.284   3.365 -10.072  1.00  0.00     0.004 C 
ENDBRANCH  20  21
ENDBRANCH  19  20
ENDBRANCH  18  19
ENDBRANCH  17  18
ENDBRANCH  16  17
ENDBRANCH  12  16
ENDBRANCH   9  12
ENDBRANCH   6   9
ENDBRANCH   3   5
ENDBRANCH   2   3
BRANCH   2  23
ATOM     23  N   UNL     1      -5.613   0.413  -6.569  1.00  0.00    -0.332 N 
ATOM     24  C   UNL     1      -5.667  -0.903  -5.950  1.00  0.00     0.147 C 
BRANCH  23  25
ATOM     25  C   UNL     1      -6.345   1.482  -5.835  1.00  0.00     0.174 C 
BRANCH  25  26
ATOM     26  C   UNL     1      -7.727   1.798  -6.452  1.00  0.00     0.038 C 
BRANCH  26  27
ATOM     27  C   UNL     1      -8.890   2.058  -5.468  1.00  0.00    -0.015 C 
ATOM     28  C   UNL     1      -8.667   1.393  -4.111  1.00  0.00     0.007 C 
ATOM     29  C   UNL     1      -9.218   3.539  -5.294  1.00  0.00     0.007 C 
ENDBRANCH  26  27
ENDBRANCH  25  26
BRANCH  25  30
ATOM     30  C   UNL     1      -5.442   2.725  -5.664  1.00  0.00     0.243 C 
ATOM     31  O   UNL     1      -4.469   2.723  -4.912  1.00  0.00    -0.273 OA
ATOM     32  N   UNL     1      -5.801   3.825  -6.400  1.00  0.00    -0.342 N 
ATOM     33  H   UNL     1      -6.533   3.704  -7.105  1.00  0.00     0.164 HD
BRANCH  32  34
ATOM     34  C   UNL     1      -5.078   5.098  -6.344  1.00  0.00     0.175 C 
BRANCH  34  35
ATOM     35  C   UNL     1      -5.514   6.039  -7.478  1.00  0.00     0.070 C 
BRANCH  35  36
ATOM     36  C   UNL     1      -4.449   6.212  -8.537  1.00  0.00    -0.045 A 
ATOM     37  C   UNL     1      -4.330   5.273  -9.574  1.00  0.00     0.007 A 
ATOM     38  C   UNL     1      -3.555   7.290  -8.488  1.00  0.00     0.007 A 
ATOM     39  C   UNL     1      -3.342   5.417 -10.547  1.00  0.00     0.046 A 
ATOM     40  C   UNL     1      -2.564   7.434  -9.462  1.00  0.00     0.046 A 
ATOM     41  C   UNL     1      -2.467   6.495 -10.485  1.00  0.00     0.115 A 
BRANCH  41  42
ATOM     42  O   UNL     1      -1.514   6.598 -11.454  1.00  0.00    -0.508 OA
ATOM     43  H   UNL     1      -0.706   6.957 -11.050  1.00  0.00     0.293 HD
ENDBRANCH  41  42
ENDBRANCH  35  36
ENDBRANCH  34  35
BRANCH  34  44
ATOM     44  C   UNL     1      -5.316   5.723  -4.951  1.00  0.00     0.243 C 
ATOM     45  O   UNL     1      -6.320   6.357  -4.638  1.00  0.00    -0.273 OA
ATOM     46  N   UNL     1      -4.229   5.619  -4.110  1.00  0.00    -0.341 N 
ATOM     47  H   UNL     1      -3.376   5.187  -4.456  1.00  0.00     0.164 HD
BRANCH  46  48
ATOM     48  C   UNL     1      -4.194   6.196  -2.764  1.00  0.00     0.196 C 
BRANCH  48  49
ATOM     49  C   UNL     1      -3.990   5.109  -1.695  1.00  0.00     0.072 C 
BRANCH  49  50
ATOM     50  C   UNL     1      -5.241   4.299  -1.442  1.00  0.00    -0.045 A 
ATOM     51  C   UNL     1      -6.466   4.950  -1.233  1.00  0.00     0.007 A 
ATOM     52  C   UNL     1      -5.196   2.900  -1.392  1.00  0.00     0.007 A 
ATOM     53  C   UNL     1      -7.624   4.214  -0.986  1.00  0.00     0.046 A 
ATOM     54  C   UNL     1      -6.356   2.162  -1.144  1.00  0.00     0.046 A 
ATOM     55  C   UNL     1      -7.561   2.827  -0.944  1.00  0.00     0.115 A 
BRANCH  55  56
ATOM     56  O   UNL     1      -8.716   2.144  -0.698  1.00  0.00    -0.508 OA
ATOM     57  H   UNL     1      -8.492   1.320  -0.238  1.00  0.00     0.293 HD
ENDBRANCH  55  56
ENDBRANCH  49  50
ENDBRANCH  48  49
BRANCH  48  58
ATOM     58  C   UNL     1      -3.049   7.215  -2.687  1.00  0.00     0.326 C 
ATOM     59  O   UNL     1      -3.139   8.431  -2.723  1.00  0.00    -0.250 OA
BRANCH  58  60
ATOM     60  O   UNL     1      -1.825   6.645  -2.551  1.00  0.00    -0.480 OA
ATOM     61  H   UNL     1      -1.217   7.416  -2.541  1.00  0.00     0.296 HD
ENDBRANCH  58  60
ENDBRANCH  48  58
ENDBRANCH  46  48
ENDBRANCH  34  44
ENDBRANCH  32  34
ENDBRANCH  25  30
ENDBRANCH  23  25
ENDBRANCH   2  23
TORSDOF 28
ENDMDL
MODEL 17
REMARK VINA RESULT:    -6.343     12.873     18.682
REMARK INTER + INTRA:         -20.968
REMARK INTER:                 -15.905
REMARK INTRA:                  -5.062
REMARK UNBOUND:                -5.170
REMARK SMILES CCCCCCC[C@H](N)[C@H](O)C(=O)N[C@H](C)C(=O)N(C)[C@H](CC(C)C)C(=O)N[C@@H](Cc1ccc(O)cc1)C(=O)N[C@@H](Cc1ccc(O)cc1)C(=O)O
REMARK SMILES IDX 18 1 17 2 15 3 16 4 14 5 12 6 13 7 10 9 11 10 8 12 9 13 7 16
REMARK SMILES IDX 6 17 5 18 4 19 3 20 2 21 1 22 19 23 20 24 21 25 22 26 23 27
REMARK SMILES IDX 24 28 25 29 26 30 27 31 28 32 29 34 30 35 31 36 32 37 37 38
REMARK SMILES IDX 33 39 36 40 34 41 35 42 38 44 39 45 40 46 41 48 42 49 43 50
REMARK SMILES IDX 44 51 49 52 45 53 48 54 46 55 47 56 50 58 51 59 52 60
REMARK H PARENT 14 8 11 11 9 14 9 15 28 33 35 43 40 47 47 57 52 61
ROOT
ATOM      1  O   UNL     1      -6.593  -0.629  -8.026  1.00  0.00    -0.272 OA
ATOM      2  C   UNL     1      -5.811   0.332  -7.975  1.00  0.00     0.245 C 
ENDROOT
BRANCH   2   3
ATOM      3  C   UNL     1      -5.341   0.976  -9.303  1.00  0.00     0.168 C 
ATOM      4  C   UNL     1      -6.041   2.311  -9.535  1.00  0.00     0.041 C 
BRANCH   3   5
ATOM      5  N   UNL     1      -3.898   1.088  -9.451  1.00  0.00    -0.342 N 
ATOM      6  C   UNL     1      -3.216   0.431 -10.453  1.00  0.00     0.251 C 
ATOM      7  O   UNL     1      -3.755  -0.320 -11.259  1.00  0.00    -0.272 OA
ATOM      8  H   UNL     1      -3.337   1.655  -8.820  1.00  0.00     0.164 HD
BRANCH   6   9
ATOM      9  C   UNL     1      -1.726   0.808 -10.503  1.00  0.00     0.219 C 
BRANCH   9  10
ATOM     10  O   UNL     1      -0.869  -0.338 -10.574  1.00  0.00    -0.382 OA
ATOM     11  H   UNL     1      -0.136  -0.043 -11.157  1.00  0.00     0.211 HD
ENDBRANCH   9  10
BRANCH   9  12
ATOM     12  C   UNL     1      -1.391   1.816 -11.633  1.00  0.00     0.089 C 
BRANCH  12  13
ATOM     13  N   UNL     1      -2.636   2.113 -12.379  1.00  0.00    -0.325 NA
ATOM     14  H   UNL     1      -2.419   2.735 -13.160  1.00  0.00     0.119 HD
ATOM     15  H   UNL     1      -3.263   2.650 -11.776  1.00  0.00     0.119 HD
ENDBRANCH  12  13
BRANCH  12  16
ATOM     16  C   UNL     1      -0.713   3.133 -11.187  1.00  0.00     0.022 C 
BRANCH  16  17
ATOM     17  C   UNL     1      -1.307   4.472 -11.644  1.00  0.00     0.002 C 
BRANCH  17  18
ATOM     18  C   UNL     1      -1.929   5.315 -10.533  1.00  0.00     0.000 C 
BRANCH  18  19
ATOM     19  C   UNL     1      -3.269   4.775 -10.015  1.00  0.00    -0.000 C 
BRANCH  19  20
ATOM     20  C   UNL     1      -4.266   5.843  -9.556  1.00  0.00    -0.000 C 
BRANCH  20  21
ATOM     21  C   UNL     1      -3.653   7.244  -9.481  1.00  0.00    -0.003 C 
ATOM     22  C   UNL     1      -3.334   7.633  -8.046  1.00  0.00     0.004 C 
ENDBRANCH  20  21
ENDBRANCH  19  20
ENDBRANCH  18  19
ENDBRANCH  17  18
ENDBRANCH  16  17
ENDBRANCH  12  16
ENDBRANCH   9  12
ENDBRANCH   6   9
ENDBRANCH   3   5
ENDBRANCH   2   3
BRANCH   2  23
ATOM     23  N   UNL     1      -5.469   0.886  -6.746  1.00  0.00    -0.332 N 
ATOM     24  C   UNL     1      -4.162   0.761  -6.118  1.00  0.00     0.147 C 
BRANCH  23  25
ATOM     25  C   UNL     1      -6.423   1.781  -6.034  1.00  0.00     0.174 C 
BRANCH  25  26
ATOM     26  C   UNL     1      -5.793   3.135  -5.633  1.00  0.00     0.038 C 
BRANCH  26  27
ATOM     27  C   UNL     1      -6.199   4.371  -6.467  1.00  0.00    -0.015 C 
ATOM     28  C   UNL     1      -7.715   4.545  -6.552  1.00  0.00     0.007 C 
ATOM     29  C   UNL     1      -5.535   5.664  -6.000  1.00  0.00     0.007 C 
ENDBRANCH  26  27
ENDBRANCH  25  26
BRANCH  25  30
ATOM     30  C   UNL     1      -7.081   1.028  -4.855  1.00  0.00     0.243 C 
ATOM     31  O   UNL     1      -7.243  -0.192  -4.872  1.00  0.00    -0.273 OA
ATOM     32  N   UNL     1      -7.474   1.808  -3.799  1.00  0.00    -0.342 N 
ATOM     33  H   UNL     1      -7.179   2.787  -3.797  1.00  0.00     0.164 HD
BRANCH  32  34
ATOM     34  C   UNL     1      -8.139   1.270  -2.608  1.00  0.00     0.175 C 
BRANCH  34  35
ATOM     35  C   UNL     1      -7.685   2.002  -1.336  1.00  0.00     0.070 C 
BRANCH  35  36
ATOM     36  C   UNL     1      -6.598   3.019  -1.603  1.00  0.00    -0.045 A 
ATOM     37  C   UNL     1      -5.271   2.738  -1.244  1.00  0.00     0.007 A 
ATOM     38  C   UNL     1      -6.899   4.256  -2.186  1.00  0.00     0.007 A 
ATOM     39  C   UNL     1      -4.263   3.675  -1.473  1.00  0.00     0.046 A 
ATOM     40  C   UNL     1      -5.891   5.196  -2.415  1.00  0.00     0.046 A 
ATOM     41  C   UNL     1      -4.581   4.896  -2.057  1.00  0.00     0.115 A 
BRANCH  41  42
ATOM     42  O   UNL     1      -3.567   5.785  -2.261  1.00  0.00    -0.508 OA
ATOM     43  H   UNL     1      -3.525   6.379  -1.494  1.00  0.00     0.293 HD
ENDBRANCH  41  42
ENDBRANCH  35  36
ENDBRANCH  34  35
BRANCH  34  44
ATOM     44  C   UNL     1      -9.665   1.376  -2.823  1.00  0.00     0.243 C 
ATOM     45  O   UNL     1     -10.293   0.747  -3.670  1.00  0.00    -0.273 OA
ATOM     46  N   UNL     1     -10.260   2.353  -2.053  1.00  0.00    -0.341 N 
ATOM     47  H   UNL     1      -9.679   2.929  -1.450  1.00  0.00     0.164 HD
BRANCH  46  48
ATOM     48  C   UNL     1     -11.685   2.685  -2.133  1.00  0.00     0.196 C 
BRANCH  48  49
ATOM     49  C   UNL     1     -12.058   3.795  -1.136  1.00  0.00     0.072 C 
BRANCH  49  50
ATOM     50  C   UNL     1     -10.869   4.639  -0.734  1.00  0.00    -0.045 A 
ATOM     51  C   UNL     1     -10.109   4.286   0.391  1.00  0.00     0.007 A 
ATOM     52  C   UNL     1     -10.523   5.788  -1.457  1.00  0.00     0.007 A 
ATOM     53  C   UNL     1      -9.019   5.065   0.779  1.00  0.00     0.046 A 
ATOM     54  C   UNL     1      -9.432   6.568  -1.068  1.00  0.00     0.046 A 
ATOM     55  C   UNL     1      -8.688   6.199   0.047  1.00  0.00     0.115 A 
BRANCH  55  56
ATOM     56  O   UNL     1      -7.616   6.933   0.460  1.00  0.00    -0.508 OA
ATOM     57  H   UNL     1      -7.867   7.414   1.265  1.00  0.00     0.293 HD
ENDBRANCH  55  56
ENDBRANCH  49  50
ENDBRANCH  48  49
BRANCH  48  58
ATOM     58  C   UNL     1     -12.012   3.144  -3.560  1.00  0.00     0.326 C 
ATOM     59  O   UNL     1     -11.657   4.178  -4.104  1.00  0.00    -0.250 OA
BRANCH  58  60
ATOM     60  O   UNL     1     -12.770   2.258  -4.253  1.00  0.00    -0.480 OA
ATOM     61  H   UNL     1     -12.373   2.274  -5.151  1.00  0.00     0.296 HD
ENDBRANCH  58  60
ENDBRANCH  48  58
ENDBRANCH  46  48
ENDBRANCH  34  44
ENDBRANCH  32  34
ENDBRANCH  25  30
ENDBRANCH  23  25
ENDBRANCH   2  23
TORSDOF 28
ENDMDL
MODEL 18
REMARK VINA RESULT:    -6.332      4.567     10.066
REMARK INTER + INTRA:         -20.940
REMARK INTER:                 -17.128
REMARK INTRA:                  -3.812
REMARK UNBOUND:                -5.170
REMARK SMILES CCCCCCC[C@H](N)[C@H](O)C(=O)N[C@H](C)C(=O)N(C)[C@H](CC(C)C)C(=O)N[C@@H](Cc1ccc(O)cc1)C(=O)N[C@@H](Cc1ccc(O)cc1)C(=O)O
REMARK SMILES IDX 18 1 17 2 15 3 16 4 14 5 12 6 13 7 10 9 11 10 8 12 9 13 7 16
REMARK SMILES IDX 6 17 5 18 4 19 3 20 2 21 1 22 19 23 20 24 21 25 22 26 23 27
REMARK SMILES IDX 24 28 25 29 26 30 27 31 28 32 29 34 30 35 31 36 32 37 37 38
REMARK SMILES IDX 33 39 36 40 34 41 35 42 38 44 39 45 40 46 41 48 42 49 43 50
REMARK SMILES IDX 44 51 49 52 45 53 48 54 46 55 47 56 50 58 51 59 52 60
REMARK H PARENT 14 8 11 11 9 14 9 15 28 33 35 43 40 47 47 57 52 61
ROOT
ATOM      1  O   UNL     1      -0.135   6.049   3.168  1.00  0.00    -0.272 OA
ATOM      2  C   UNL     1      -0.213   7.279   3.028  1.00  0.00     0.245 C 
ENDROOT
BRANCH   2   3
ATOM      3  C   UNL     1      -0.309   7.857   1.594  1.00  0.00     0.168 C 
ATOM      4  C   UNL     1       0.996   8.538   1.197  1.00  0.00     0.041 C 
BRANCH   3   5
ATOM      5  N   UNL     1      -0.758   6.913   0.583  1.00  0.00    -0.342 N 
ATOM      6  C   UNL     1      -1.802   7.201  -0.270  1.00  0.00     0.251 C 
ATOM      7  O   UNL     1      -2.451   8.240  -0.217  1.00  0.00    -0.272 OA
ATOM      8  H   UNL     1      -0.318   6.002   0.467  1.00  0.00     0.164 HD
BRANCH   6   9
ATOM      9  C   UNL     1      -2.007   6.121  -1.345  1.00  0.00     0.219 C 
BRANCH   9  10
ATOM     10  O   UNL     1      -1.331   4.896  -1.034  1.00  0.00    -0.382 OA
ATOM     11  H   UNL     1      -0.977   4.601  -1.901  1.00  0.00     0.211 HD
ENDBRANCH   9  10
BRANCH   9  12
ATOM     12  C   UNL     1      -3.501   5.858  -1.667  1.00  0.00     0.089 C 
BRANCH  12  13
ATOM     13  N   UNL     1      -3.742   6.210  -3.085  1.00  0.00    -0.325 NA
ATOM     14  H   UNL     1      -4.488   6.906  -3.136  1.00  0.00     0.119 HD
ATOM     15  H   UNL     1      -4.110   5.389  -3.572  1.00  0.00     0.119 HD
ENDBRANCH  12  13
BRANCH  12  16
ATOM     16  C   UNL     1      -4.015   4.427  -1.379  1.00  0.00     0.022 C 
BRANCH  16  17
ATOM     17  C   UNL     1      -5.394   4.008  -1.909  1.00  0.00     0.002 C 
BRANCH  17  18
ATOM     18  C   UNL     1      -5.750   2.540  -1.688  1.00  0.00     0.000 C 
BRANCH  18  19
ATOM     19  C   UNL     1      -6.176   2.210  -0.251  1.00  0.00    -0.000 C 
BRANCH  19  20
ATOM     20  C   UNL     1      -7.666   2.398   0.045  1.00  0.00    -0.000 C 
BRANCH  20  21
ATOM     21  C   UNL     1      -7.929   3.301   1.254  1.00  0.00    -0.003 C 
ATOM     22  C   UNL     1      -7.987   4.766   0.849  1.00  0.00     0.004 C 
ENDBRANCH  20  21
ENDBRANCH  19  20
ENDBRANCH  18  19
ENDBRANCH  17  18
ENDBRANCH  16  17
ENDBRANCH  12  16
ENDBRANCH   9  12
ENDBRANCH   6   9
ENDBRANCH   3   5
ENDBRANCH   2   3
BRANCH   2  23
ATOM     23  N   UNL     1      -0.336   8.099   4.145  1.00  0.00    -0.332 N 
ATOM     24  C   UNL     1       0.775   8.530   4.979  1.00  0.00     0.147 C 
BRANCH  23  25
ATOM     25  C   UNL     1      -1.651   8.708   4.488  1.00  0.00     0.174 C 
BRANCH  25  26
ATOM     26  C   UNL     1      -1.561  10.231   4.741  1.00  0.00     0.038 C 
BRANCH  26  27
ATOM     27  C   UNL     1      -1.717  11.156   3.513  1.00  0.00    -0.015 C 
ATOM     28  C   UNL     1      -0.373  11.540   2.896  1.00  0.00     0.007 C 
ATOM     29  C   UNL     1      -2.657  10.596   2.447  1.00  0.00     0.007 C 
ENDBRANCH  26  27
ENDBRANCH  25  26
BRANCH  25  30
ATOM     30  C   UNL     1      -2.315   7.924   5.643  1.00  0.00     0.243 C 
ATOM     31  O   UNL     1      -2.421   8.398   6.773  1.00  0.00    -0.273 OA
ATOM     32  N   UNL     1      -2.770   6.671   5.325  1.00  0.00    -0.342 N 
ATOM     33  H   UNL     1      -2.774   6.405   4.336  1.00  0.00     0.164 HD
BRANCH  32  34
ATOM     34  C   UNL     1      -3.401   5.775   6.298  1.00  0.00     0.175 C 
BRANCH  34  35
ATOM     35  C   UNL     1      -4.855   5.465   5.911  1.00  0.00     0.070 C 
BRANCH  35  36
ATOM     36  C   UNL     1      -5.768   5.350   7.111  1.00  0.00    -0.045 A 
ATOM     37  C   UNL     1      -5.879   6.419   8.013  1.00  0.00     0.007 A 
ATOM     38  C   UNL     1      -6.494   4.176   7.352  1.00  0.00     0.007 A 
ATOM     39  C   UNL     1      -6.708   6.317   9.131  1.00  0.00     0.046 A 
ATOM     40  C   UNL     1      -7.323   4.073   8.472  1.00  0.00     0.046 A 
ATOM     41  C   UNL     1      -7.424   5.146   9.351  1.00  0.00     0.115 A 
BRANCH  41  42
ATOM     42  O   UNL     1      -8.220   5.086  10.456  1.00  0.00    -0.508 OA
ATOM     43  H   UNL     1      -7.959   4.309  10.977  1.00  0.00     0.293 HD
ENDBRANCH  41  42
ENDBRANCH  35  36
ENDBRANCH  34  35
BRANCH  34  44
ATOM     44  C   UNL     1      -2.544   4.494   6.396  1.00  0.00     0.243 C 
ATOM     45  O   UNL     1      -1.898   4.018   5.467  1.00  0.00    -0.273 OA
ATOM     46  N   UNL     1      -2.668   3.841   7.605  1.00  0.00    -0.341 N 
ATOM     47  H   UNL     1      -3.308   4.213   8.303  1.00  0.00     0.164 HD
BRANCH  46  48
ATOM     48  C   UNL     1      -2.005   2.571   7.907  1.00  0.00     0.196 C 
BRANCH  48  49
ATOM     49  C   UNL     1      -1.778   2.403   9.419  1.00  0.00     0.072 C 
BRANCH  49  50
ATOM     50  C   UNL     1      -3.039   2.620  10.224  1.00  0.00    -0.045 A 
ATOM     51  C   UNL     1      -3.579   3.909  10.344  1.00  0.00     0.007 A 
ATOM     52  C   UNL     1      -3.672   1.553  10.874  1.00  0.00     0.007 A 
ATOM     53  C   UNL     1      -4.735   4.123  11.095  1.00  0.00     0.046 A 
ATOM     54  C   UNL     1      -4.828   1.767  11.627  1.00  0.00     0.046 A 
ATOM     55  C   UNL     1      -5.351   3.052  11.730  1.00  0.00     0.115 A 
BRANCH  55  56
ATOM     56  O   UNL     1      -6.477   3.304  12.456  1.00  0.00    -0.508 OA
ATOM     57  H   UNL     1      -7.213   2.811  12.060  1.00  0.00     0.293 HD
ENDBRANCH  55  56
ENDBRANCH  49  50
ENDBRANCH  48  49
BRANCH  48  58
ATOM     58  C   UNL     1      -2.874   1.418   7.386  1.00  0.00     0.326 C 
ATOM     59  O   UNL     1      -2.722   0.225   7.595  1.00  0.00    -0.250 OA
BRANCH  58  60
ATOM     60  O   UNL     1      -3.919   1.829   6.624  1.00  0.00    -0.480 OA
ATOM     61  H   UNL     1      -3.542   2.571   6.104  1.00  0.00     0.296 HD
ENDBRANCH  58  60
ENDBRANCH  48  58
ENDBRANCH  46  48
ENDBRANCH  34  44
ENDBRANCH  32  34
ENDBRANCH  25  30
ENDBRANCH  23  25
ENDBRANCH   2  23
TORSDOF 28
ENDMDL
MODEL 19
REMARK VINA RESULT:    -6.311     12.463     18.656
REMARK INTER + INTRA:         -20.888
REMARK INTER:                 -16.274
REMARK INTRA:                  -4.614
REMARK UNBOUND:                -5.170
REMARK SMILES CCCCCCC[C@H](N)[C@H](O)C(=O)N[C@H](C)C(=O)N(C)[C@H](CC(C)C)C(=O)N[C@@H](Cc1ccc(O)cc1)C(=O)N[C@@H](Cc1ccc(O)cc1)C(=O)O
REMARK SMILES IDX 18 1 17 2 15 3 16 4 14 5 12 6 13 7 10 9 11 10 8 12 9 13 7 16
REMARK SMILES IDX 6 17 5 18 4 19 3 20 2 21 1 22 19 23 20 24 21 25 22 26 23 27
REMARK SMILES IDX 24 28 25 29 26 30 27 31 28 32 29 34 30 35 31 36 32 37 37 38
REMARK SMILES IDX 33 39 36 40 34 41 35 42 38 44 39 45 40 46 41 48 42 49 43 50
REMARK SMILES IDX 44 51 49 52 45 53 48 54 46 55 47 56 50 58 51 59 52 60
REMARK H PARENT 14 8 11 11 9 14 9 15 28 33 35 43 40 47 47 57 52 61
ROOT
ATOM      1  O   UNL     1      -7.974   2.454  -6.343  1.00  0.00    -0.272 OA
ATOM      2  C   UNL     1      -7.226   3.122  -7.073  1.00  0.00     0.245 C 
ENDROOT
BRANCH   2   3
ATOM      3  C   UNL     1      -6.625   2.449  -8.332  1.00  0.00     0.168 C 
ATOM      4  C   UNL     1      -6.808   3.335  -9.559  1.00  0.00     0.041 C 
BRANCH   3   5
ATOM      5  N   UNL     1      -5.248   2.002  -8.187  1.00  0.00    -0.342 N 
ATOM      6  C   UNL     1      -4.849   0.738  -8.568  1.00  0.00     0.251 C 
ATOM      7  O   UNL     1      -5.617  -0.108  -9.013  1.00  0.00    -0.272 OA
ATOM      8  H   UNL     1      -4.527   2.604  -7.797  1.00  0.00     0.164 HD
BRANCH   6   9
ATOM      9  C   UNL     1      -3.329   0.536  -8.458  1.00  0.00     0.219 C 
BRANCH   9  10
ATOM     10  O   UNL     1      -2.981  -0.695  -7.813  1.00  0.00    -0.382 OA
ATOM     11  H   UNL     1      -3.757  -0.883  -7.240  1.00  0.00     0.211 HD
ENDBRANCH   9  10
BRANCH   9  12
ATOM     12  C   UNL     1      -2.596   0.673  -9.817  1.00  0.00     0.089 C 
BRANCH  12  13
ATOM     13  N   UNL     1      -3.506   1.345 -10.773  1.00  0.00    -0.325 NA
ATOM     14  H   UNL     1      -4.184   0.666 -11.125  1.00  0.00     0.119 HD
ATOM     15  H   UNL     1      -2.968   1.634 -11.594  1.00  0.00     0.119 HD
ENDBRANCH  12  13
BRANCH  12  16
ATOM     16  C   UNL     1      -1.231   1.400  -9.781  1.00  0.00     0.022 C 
BRANCH  16  17
ATOM     17  C   UNL     1      -0.406   1.378  -8.487  1.00  0.00     0.002 C 
BRANCH  17  18
ATOM     18  C   UNL     1       1.063   1.000  -8.665  1.00  0.00     0.000 C 
BRANCH  18  19
ATOM     19  C   UNL     1       1.321   0.021  -9.818  1.00  0.00    -0.000 C 
BRANCH  19  20
ATOM     20  C   UNL     1       1.361  -1.457  -9.419  1.00  0.00    -0.000 C 
BRANCH  20  21
ATOM     21  C   UNL     1       1.211  -2.404 -10.612  1.00  0.00    -0.003 C 
ATOM     22  C   UNL     1       1.373  -1.665 -11.931  1.00  0.00     0.004 C 
ENDBRANCH  20  21
ENDBRANCH  19  20
ENDBRANCH  18  19
ENDBRANCH  17  18
ENDBRANCH  16  17
ENDBRANCH  12  16
ENDBRANCH   9  12
ENDBRANCH   6   9
ENDBRANCH   3   5
ENDBRANCH   2   3
BRANCH   2  23
ATOM     23  N   UNL     1      -7.040   4.477  -6.823  1.00  0.00    -0.332 N 
ATOM     24  C   UNL     1      -7.860   5.541  -7.385  1.00  0.00     0.147 C 
BRANCH  23  25
ATOM     25  C   UNL     1      -6.029   4.926  -5.827  1.00  0.00     0.174 C 
BRANCH  25  26
ATOM     26  C   UNL     1      -4.830   5.659  -6.474  1.00  0.00     0.038 C 
BRANCH  26  27
ATOM     27  C   UNL     1      -4.713   7.177  -6.210  1.00  0.00    -0.015 C 
ATOM     28  C   UNL     1      -5.357   7.591  -4.888  1.00  0.00     0.007 C 
ATOM     29  C   UNL     1      -3.281   7.699  -6.297  1.00  0.00     0.007 C 
ENDBRANCH  26  27
ENDBRANCH  25  26
BRANCH  25  30
ATOM     30  C   UNL     1      -5.618   3.745  -4.918  1.00  0.00     0.243 C 
ATOM     31  O   UNL     1      -4.663   3.018  -5.189  1.00  0.00    -0.273 OA
ATOM     32  N   UNL     1      -6.389   3.560  -3.800  1.00  0.00    -0.342 N 
ATOM     33  H   UNL     1      -7.073   4.287  -3.571  1.00  0.00     0.164 HD
BRANCH  32  34
ATOM     34  C   UNL     1      -6.164   2.476  -2.840  1.00  0.00     0.175 C 
BRANCH  34  35
ATOM     35  C   UNL     1      -5.280   2.939  -1.672  1.00  0.00     0.070 C 
BRANCH  35  36
ATOM     36  C   UNL     1      -5.333   4.434  -1.455  1.00  0.00    -0.045 A 
ATOM     37  C   UNL     1      -6.521   5.038  -1.015  1.00  0.00     0.007 A 
ATOM     38  C   UNL     1      -4.214   5.238  -1.709  1.00  0.00     0.007 A 
ATOM     39  C   UNL     1      -6.584   6.418  -0.825  1.00  0.00     0.046 A 
ATOM     40  C   UNL     1      -4.276   6.621  -1.521  1.00  0.00     0.046 A 
ATOM     41  C   UNL     1      -5.462   7.198  -1.078  1.00  0.00     0.115 A 
BRANCH  41  42
ATOM     42  O   UNL     1      -5.566   8.544  -0.883  1.00  0.00    -0.508 OA
ATOM     43  H   UNL     1      -6.331   8.710  -0.308  1.00  0.00     0.293 HD
ENDBRANCH  41  42
ENDBRANCH  35  36
ENDBRANCH  34  35
BRANCH  34  44
ATOM     44  C   UNL     1      -7.542   1.970  -2.356  1.00  0.00     0.243 C 
ATOM     45  O   UNL     1      -7.702   1.118  -1.488  1.00  0.00    -0.273 OA
ATOM     46  N   UNL     1      -8.598   2.473  -3.087  1.00  0.00    -0.341 N 
ATOM     47  H   UNL     1      -8.406   3.087  -3.874  1.00  0.00     0.164 HD
BRANCH  46  48
ATOM     48  C   UNL     1      -9.992   2.086  -2.858  1.00  0.00     0.196 C 
BRANCH  48  49
ATOM     49  C   UNL     1     -10.916   3.315  -2.831  1.00  0.00     0.072 C 
BRANCH  49  50
ATOM     50  C   UNL     1     -10.600   4.256  -1.691  1.00  0.00    -0.045 A 
ATOM     51  C   UNL     1     -10.356   3.743  -0.408  1.00  0.00     0.007 A 
ATOM     52  C   UNL     1     -10.565   5.642  -1.889  1.00  0.00     0.007 A 
ATOM     53  C   UNL     1     -10.076   4.603   0.654  1.00  0.00     0.046 A 
ATOM     54  C   UNL     1     -10.286   6.503  -0.825  1.00  0.00     0.046 A 
ATOM     55  C   UNL     1     -10.042   5.975   0.438  1.00  0.00     0.115 A 
BRANCH  55  56
ATOM     56  O   UNL     1      -9.767   6.781   1.503  1.00  0.00    -0.508 OA
ATOM     57  H   UNL     1      -9.298   7.566   1.179  1.00  0.00     0.293 HD
ENDBRANCH  55  56
ENDBRANCH  49  50
ENDBRANCH  48  49
BRANCH  48  58
ATOM     58  C   UNL     1     -10.435   1.133  -3.977  1.00  0.00     0.326 C 
ATOM     59  O   UNL     1      -9.721   0.532  -4.763  1.00  0.00    -0.250 OA
BRANCH  58  60
ATOM     60  O   UNL     1     -11.780   0.966  -4.044  1.00  0.00    -0.480 OA
ATOM     61  H   UNL     1     -12.045   1.562  -4.779  1.00  0.00     0.296 HD
ENDBRANCH  58  60
ENDBRANCH  48  58
ENDBRANCH  46  48
ENDBRANCH  34  44
ENDBRANCH  32  34
ENDBRANCH  25  30
ENDBRANCH  23  25
ENDBRANCH   2  23
TORSDOF 28
ENDMDL
MODEL 20
REMARK VINA RESULT:    -6.308      4.438      8.474
REMARK INTER + INTRA:         -20.882
REMARK INTER:                 -16.634
REMARK INTRA:                  -4.248
REMARK UNBOUND:                -5.170
REMARK SMILES CCCCCCC[C@H](N)[C@H](O)C(=O)N[C@H](C)C(=O)N(C)[C@H](CC(C)C)C(=O)N[C@@H](Cc1ccc(O)cc1)C(=O)N[C@@H](Cc1ccc(O)cc1)C(=O)O
REMARK SMILES IDX 18 1 17 2 15 3 16 4 14 5 12 6 13 7 10 9 11 10 8 12 9 13 7 16
REMARK SMILES IDX 6 17 5 18 4 19 3 20 2 21 1 22 19 23 20 24 21 25 22 26 23 27
REMARK SMILES IDX 24 28 25 29 26 30 27 31 28 32 29 34 30 35 31 36 32 37 37 38
REMARK SMILES IDX 33 39 36 40 34 41 35 42 38 44 39 45 40 46 41 48 42 49 43 50
REMARK SMILES IDX 44 51 49 52 45 53 48 54 46 55 47 56 50 58 51 59 52 60
REMARK H PARENT 14 8 11 11 9 14 9 15 28 33 35 43 40 47 47 57 52 61
ROOT
ATOM      1  O   UNL     1      -1.152   2.754  10.021  1.00  0.00    -0.272 OA
ATOM      2  C   UNL     1      -2.258   2.249   9.779  1.00  0.00     0.245 C 
ENDROOT
BRANCH   2   3
ATOM      3  C   UNL     1      -3.327   2.234  10.901  1.00  0.00     0.168 C 
ATOM      4  C   UNL     1      -2.841   1.430  12.102  1.00  0.00     0.041 C 
BRANCH   3   5
ATOM      5  N   UNL     1      -3.821   3.546  11.291  1.00  0.00    -0.342 N 
ATOM      6  C   UNL     1      -5.139   3.754  11.637  1.00  0.00     0.251 C 
ATOM      7  O   UNL     1      -5.994   2.875  11.604  1.00  0.00    -0.272 OA
ATOM      8  H   UNL     1      -3.212   4.360  11.323  1.00  0.00     0.164 HD
BRANCH   6   9
ATOM      9  C   UNL     1      -5.401   5.179  12.150  1.00  0.00     0.219 C 
BRANCH   9  10
ATOM     10  O   UNL     1      -4.377   5.644  13.039  1.00  0.00    -0.382 OA
ATOM     11  H   UNL     1      -4.511   6.617  13.057  1.00  0.00     0.211 HD
ENDBRANCH   9  10
BRANCH   9  12
ATOM     12  C   UNL     1      -5.645   6.202  11.009  1.00  0.00     0.089 C 
BRANCH  12  13
ATOM     13  N   UNL     1      -4.562   6.055  10.010  1.00  0.00    -0.325 NA
ATOM     14  H   UNL     1      -4.183   5.107  10.062  1.00  0.00     0.119 HD
ATOM     15  H   UNL     1      -3.786   6.667  10.271  1.00  0.00     0.119 HD
ENDBRANCH  12  13
BRANCH  12  16
ATOM     16  C   UNL     1      -7.025   6.124  10.313  1.00  0.00     0.022 C 
BRANCH  16  17
ATOM     17  C   UNL     1      -7.473   7.282   9.411  1.00  0.00     0.002 C 
BRANCH  17  18
ATOM     18  C   UNL     1      -7.600   6.933   7.930  1.00  0.00     0.000 C 
BRANCH  18  19
ATOM     19  C   UNL     1      -6.362   7.291   7.096  1.00  0.00    -0.000 C 
BRANCH  19  20
ATOM     20  C   UNL     1      -6.455   8.612   6.328  1.00  0.00    -0.000 C 
BRANCH  20  21
ATOM     21  C   UNL     1      -5.159   9.425   6.375  1.00  0.00    -0.003 C 
ATOM     22  C   UNL     1      -4.031   8.713   5.645  1.00  0.00     0.004 C 
ENDBRANCH  20  21
ENDBRANCH  19  20
ENDBRANCH  18  19
ENDBRANCH  17  18
ENDBRANCH  16  17
ENDBRANCH  12  16
ENDBRANCH   9  12
ENDBRANCH   6   9
ENDBRANCH   3   5
ENDBRANCH   2   3
BRANCH   2  23
ATOM     23  N   UNL     1      -2.561   1.820   8.492  1.00  0.00    -0.332 N 
ATOM     24  C   UNL     1      -2.389   0.456   8.013  1.00  0.00     0.147 C 
BRANCH  23  25
ATOM     25  C   UNL     1      -3.224   2.742   7.529  1.00  0.00     0.174 C 
BRANCH  25  26
ATOM     26  C   UNL     1      -4.366   2.065   6.735  1.00  0.00     0.038 C 
BRANCH  26  27
ATOM     27  C   UNL     1      -5.657   2.888   6.527  1.00  0.00    -0.015 C 
ATOM     28  C   UNL     1      -6.093   3.623   7.794  1.00  0.00     0.007 C 
ATOM     29  C   UNL     1      -5.578   3.853   5.346  1.00  0.00     0.007 C 
ENDBRANCH  26  27
ENDBRANCH  25  26
BRANCH  25  30
ATOM     30  C   UNL     1      -2.166   3.427   6.634  1.00  0.00     0.243 C 
ATOM     31  O   UNL     1      -1.907   3.017   5.504  1.00  0.00    -0.273 OA
ATOM     32  N   UNL     1      -1.535   4.513   7.186  1.00  0.00    -0.342 N 
ATOM     33  H   UNL     1      -1.904   4.877   8.068  1.00  0.00     0.164 HD
BRANCH  32  34
ATOM     34  C   UNL     1      -0.487   5.268   6.494  1.00  0.00     0.175 C 
BRANCH  34  35
ATOM     35  C   UNL     1      -0.939   6.706   6.195  1.00  0.00     0.070 C 
BRANCH  35  36
ATOM     36  C   UNL     1      -0.456   7.203   4.851  1.00  0.00    -0.045 A 
ATOM     37  C   UNL     1      -0.057   8.540   4.699  1.00  0.00     0.007 A 
ATOM     38  C   UNL     1      -0.422   6.351   3.739  1.00  0.00     0.007 A 
ATOM     39  C   UNL     1       0.377   9.011   3.460  1.00  0.00     0.046 A 
ATOM     40  C   UNL     1       0.011   6.823   2.498  1.00  0.00     0.046 A 
ATOM     41  C   UNL     1       0.408   8.150   2.370  1.00  0.00     0.115 A 
BRANCH  41  42
ATOM     42  O   UNL     1       0.836   8.651   1.176  1.00  0.00    -0.508 OA
ATOM     43  H   UNL     1       0.664   7.987   0.488  1.00  0.00     0.293 HD
ENDBRANCH  41  42
ENDBRANCH  35  36
ENDBRANCH  34  35
BRANCH  34  44
ATOM     44  C   UNL     1       0.785   5.234   7.370  1.00  0.00     0.243 C 
ATOM     45  O   UNL     1       1.013   4.387   8.229  1.00  0.00    -0.273 OA
ATOM     46  N   UNL     1       1.603   6.330   7.194  1.00  0.00    -0.341 N 
ATOM     47  H   UNL     1       1.312   7.065   6.553  1.00  0.00     0.164 HD
BRANCH  46  48
ATOM     48  C   UNL     1       2.830   6.551   7.962  1.00  0.00     0.196 C 
BRANCH  48  49
ATOM     49  C   UNL     1       3.470   7.906   7.616  1.00  0.00     0.072 C 
BRANCH  49  50
ATOM     50  C   UNL     1       4.944   7.956   7.948  1.00  0.00    -0.045 A 
ATOM     51  C   UNL     1       5.861   7.237   7.168  1.00  0.00     0.007 A 
ATOM     52  C   UNL     1       5.412   8.694   9.043  1.00  0.00     0.007 A 
ATOM     53  C   UNL     1       7.222   7.264   7.473  1.00  0.00     0.046 A 
ATOM     54  C   UNL     1       6.774   8.720   9.350  1.00  0.00     0.046 A 
ATOM     55  C   UNL     1       7.668   8.005   8.561  1.00  0.00     0.115 A 
BRANCH  55  56
ATOM     56  O   UNL     1       9.006   8.004   8.827  1.00  0.00    -0.508 OA
ATOM     57  H   UNL     1       9.166   7.422   9.586  1.00  0.00     0.293 HD
ENDBRANCH  55  56
ENDBRANCH  49  50
ENDBRANCH  48  49
BRANCH  48  58
ATOM     58  C   UNL     1       2.497   6.507   9.459  1.00  0.00     0.326 C 
ATOM     59  O   UNL     1       1.818   7.302  10.089  1.00  0.00    -0.250 OA
BRANCH  58  60
ATOM     60  O   UNL     1       3.030   5.437  10.101  1.00  0.00    -0.480 OA
ATOM     61  H   UNL     1       3.811   5.210   9.550  1.00  0.00     0.296 HD
ENDBRANCH  58  60
ENDBRANCH  48  58
ENDBRANCH  46  48
ENDBRANCH  34  44
ENDBRANCH  32  34
ENDBRANCH  25  30
ENDBRANCH  23  25
ENDBRANCH   2  23
TORSDOF 28
ENDMDL
MODEL 21
REMARK VINA RESULT:    -6.307     13.404     18.355
REMARK INTER + INTRA:         -20.879
REMARK INTER:                 -16.015
REMARK INTRA:                  -4.864
REMARK UNBOUND:                -5.170
REMARK SMILES CCCCCCC[C@H](N)[C@H](O)C(=O)N[C@H](C)C(=O)N(C)[C@H](CC(C)C)C(=O)N[C@@H](Cc1ccc(O)cc1)C(=O)N[C@@H](Cc1ccc(O)cc1)C(=O)O
REMARK SMILES IDX 18 1 17 2 15 3 16 4 14 5 12 6 13 7 10 9 11 10 8 12 9 13 7 16
REMARK SMILES IDX 6 17 5 18 4 19 3 20 2 21 1 22 19 23 20 24 21 25 22 26 23 27
REMARK SMILES IDX 24 28 25 29 26 30 27 31 28 32 29 34 30 35 31 36 32 37 37 38
REMARK SMILES IDX 33 39 36 40 34 41 35 42 38 44 39 45 40 46 41 48 42 49 43 50
REMARK SMILES IDX 44 51 49 52 45 53 48 54 46 55 47 56 50 58 51 59 52 60
REMARK H PARENT 14 8 11 11 9 14 9 15 28 33 35 43 40 47 47 57 52 61
ROOT
ATOM      1  O   UNL     1      -5.217   2.230  -5.770  1.00  0.00    -0.272 OA
ATOM      2  C   UNL     1      -6.453   2.324  -5.769  1.00  0.00     0.245 C 
ENDROOT
BRANCH   2   3
ATOM      3  C   UNL     1      -7.282   1.186  -5.122  1.00  0.00     0.168 C 
ATOM      4  C   UNL     1      -6.918  -0.163  -5.732  1.00  0.00     0.041 C 
BRANCH   3   5
ATOM      5  N   UNL     1      -7.244   1.152  -3.669  1.00  0.00    -0.342 N 
ATOM      6  C   UNL     1      -8.290   1.623  -2.902  1.00  0.00     0.251 C 
ATOM      7  O   UNL     1      -9.298   2.136  -3.375  1.00  0.00    -0.272 OA
ATOM      8  H   UNL     1      -6.445   0.781  -3.162  1.00  0.00     0.164 HD
BRANCH   6   9
ATOM      9  C   UNL     1      -8.093   1.356  -1.401  1.00  0.00     0.219 C 
BRANCH   9  10
ATOM     10  O   UNL     1      -7.397   0.131  -1.144  1.00  0.00    -0.382 OA
ATOM     11  H   UNL     1      -7.822  -0.509  -1.757  1.00  0.00     0.211 HD
ENDBRANCH   9  10
BRANCH   9  12
ATOM     12  C   UNL     1      -7.420   2.538  -0.656  1.00  0.00     0.089 C 
BRANCH  12  13
ATOM     13  N   UNL     1      -8.189   2.811   0.580  1.00  0.00    -0.325 NA
ATOM     14  H   UNL     1      -8.542   1.929   0.957  1.00  0.00     0.119 HD
ATOM     15  H   UNL     1      -9.024   3.350   0.338  1.00  0.00     0.119 HD
ENDBRANCH  12  13
BRANCH  12  16
ATOM     16  C   UNL     1      -5.920   2.362  -0.319  1.00  0.00     0.022 C 
BRANCH  16  17
ATOM     17  C   UNL     1      -4.868   2.747  -1.369  1.00  0.00     0.002 C 
BRANCH  17  18
ATOM     18  C   UNL     1      -5.243   3.938  -2.249  1.00  0.00     0.000 C 
BRANCH  18  19
ATOM     19  C   UNL     1      -4.634   5.270  -1.791  1.00  0.00    -0.000 C 
BRANCH  19  20
ATOM     20  C   UNL     1      -5.635   6.281  -1.224  1.00  0.00    -0.000 C 
BRANCH  20  21
ATOM     21  C   UNL     1      -7.070   6.032  -1.694  1.00  0.00    -0.003 C 
ATOM     22  C   UNL     1      -8.075   6.339  -0.594  1.00  0.00     0.004 C 
ENDBRANCH  20  21
ENDBRANCH  19  20
ENDBRANCH  18  19
ENDBRANCH  17  18
ENDBRANCH  16  17
ENDBRANCH  12  16
ENDBRANCH   9  12
ENDBRANCH   6   9
ENDBRANCH   3   5
ENDBRANCH   2   3
BRANCH   2  23
ATOM     23  N   UNL     1      -7.063   3.487  -6.228  1.00  0.00    -0.332 N 
ATOM     24  C   UNL     1      -8.494   3.746  -6.173  1.00  0.00     0.147 C 
BRANCH  23  25
ATOM     25  C   UNL     1      -6.237   4.629  -6.708  1.00  0.00     0.174 C 
BRANCH  25  26
ATOM     26  C   UNL     1      -6.682   5.985  -6.113  1.00  0.00     0.038 C 
BRANCH  26  27
ATOM     27  C   UNL     1      -5.759   6.619  -5.048  1.00  0.00    -0.015 C 
ATOM     28  C   UNL     1      -4.279   6.374  -5.337  1.00  0.00     0.007 C 
ATOM     29  C   UNL     1      -6.023   8.106  -4.823  1.00  0.00     0.007 C 
ENDBRANCH  26  27
ENDBRANCH  25  26
BRANCH  25  30
ATOM     30  C   UNL     1      -6.164   4.621  -8.252  1.00  0.00     0.243 C 
ATOM     31  O   UNL     1      -7.082   4.184  -8.944  1.00  0.00    -0.273 OA
ATOM     32  N   UNL     1      -5.010   5.127  -8.794  1.00  0.00    -0.342 N 
ATOM     33  H   UNL     1      -4.358   5.599  -8.162  1.00  0.00     0.164 HD
BRANCH  32  34
ATOM     34  C   UNL     1      -4.756   5.175 -10.236  1.00  0.00     0.175 C 
BRANCH  34  35
ATOM     35  C   UNL     1      -3.850   6.360 -10.605  1.00  0.00     0.070 C 
BRANCH  35  36
ATOM     36  C   UNL     1      -3.797   7.414  -9.522  1.00  0.00    -0.045 A 
ATOM     37  C   UNL     1      -2.633   7.572  -8.754  1.00  0.00     0.007 A 
ATOM     38  C   UNL     1      -4.906   8.227  -9.254  1.00  0.00     0.007 A 
ATOM     39  C   UNL     1      -2.579   8.532  -7.743  1.00  0.00     0.046 A 
ATOM     40  C   UNL     1      -4.853   9.188  -8.241  1.00  0.00     0.046 A 
ATOM     41  C   UNL     1      -3.688   9.333  -7.495  1.00  0.00     0.115 A 
BRANCH  41  42
ATOM     42  O   UNL     1      -3.595  10.257  -6.497  1.00  0.00    -0.508 OA
ATOM     43  H   UNL     1      -3.469  11.131  -6.902  1.00  0.00     0.293 HD
ENDBRANCH  41  42
ENDBRANCH  35  36
ENDBRANCH  34  35
BRANCH  34  44
ATOM     44  C   UNL     1      -4.137   3.823 -10.658  1.00  0.00     0.243 C 
ATOM     45  O   UNL     1      -3.798   3.542 -11.804  1.00  0.00    -0.273 OA
ATOM     46  N   UNL     1      -4.115   2.889  -9.643  1.00  0.00    -0.341 N 
ATOM     47  H   UNL     1      -4.515   3.131  -8.740  1.00  0.00     0.164 HD
BRANCH  46  48
ATOM     48  C   UNL     1      -3.638   1.516  -9.822  1.00  0.00     0.196 C 
BRANCH  48  49
ATOM     49  C   UNL     1      -2.564   1.156  -8.781  1.00  0.00     0.072 C 
BRANCH  49  50
ATOM     50  C   UNL     1      -1.165   1.193  -9.351  1.00  0.00    -0.045 A 
ATOM     51  C   UNL     1      -0.086   1.559  -8.533  1.00  0.00     0.007 A 
ATOM     52  C   UNL     1      -0.927   0.886 -10.697  1.00  0.00     0.007 A 
ATOM     53  C   UNL     1       1.208   1.609  -9.052  1.00  0.00     0.046 A 
ATOM     54  C   UNL     1       0.369   0.938 -11.217  1.00  0.00     0.046 A 
ATOM     55  C   UNL     1       1.426   1.298 -10.388  1.00  0.00     0.115 A 
BRANCH  55  56
ATOM     56  O   UNL     1       2.705   1.361 -10.856  1.00  0.00    -0.508 OA
ATOM     57  H   UNL     1       3.185   0.579 -10.541  1.00  0.00     0.293 HD
ENDBRANCH  55  56
ENDBRANCH  49  50
ENDBRANCH  48  49
BRANCH  48  58
ATOM     58  C   UNL     1      -4.826   0.553  -9.691  1.00  0.00     0.326 C 
ATOM     59  O   UNL     1      -5.766   0.641  -8.917  1.00  0.00    -0.250 OA
BRANCH  58  60
ATOM     60  O   UNL     1      -4.782  -0.484 -10.565  1.00  0.00    -0.480 OA
ATOM     61  H   UNL     1      -4.001  -0.275 -11.123  1.00  0.00     0.296 HD
ENDBRANCH  58  60
ENDBRANCH  48  58
ENDBRANCH  46  48
ENDBRANCH  34  44
ENDBRANCH  32  34
ENDBRANCH  25  30
ENDBRANCH  23  25
ENDBRANCH   2  23
TORSDOF 28
ENDMDL
MODEL 22
REMARK VINA RESULT:    -6.288     10.878     15.400
REMARK INTER + INTRA:         -20.832
REMARK INTER:                 -17.158
REMARK INTRA:                  -3.674
REMARK UNBOUND:                -5.170
REMARK SMILES CCCCCCC[C@H](N)[C@H](O)C(=O)N[C@H](C)C(=O)N(C)[C@H](CC(C)C)C(=O)N[C@@H](Cc1ccc(O)cc1)C(=O)N[C@@H](Cc1ccc(O)cc1)C(=O)O
REMARK SMILES IDX 18 1 17 2 15 3 16 4 14 5 12 6 13 7 10 9 11 10 8 12 9 13 7 16
REMARK SMILES IDX 6 17 5 18 4 19 3 20 2 21 1 22 19 23 20 24 21 25 22 26 23 27
REMARK SMILES IDX 24 28 25 29 26 30 27 31 28 32 29 34 30 35 31 36 32 37 37 38
REMARK SMILES IDX 33 39 36 40 34 41 35 42 38 44 39 45 40 46 41 48 42 49 43 50
REMARK SMILES IDX 44 51 49 52 45 53 48 54 46 55 47 56 50 58 51 59 52 60
REMARK H PARENT 14 8 11 11 9 14 9 15 28 33 35 43 40 47 47 57 52 61
ROOT
ATOM      1  O   UNL     1      -4.675   3.081  -4.358  1.00  0.00    -0.272 OA
ATOM      2  C   UNL     1      -5.084   4.203  -4.027  1.00  0.00     0.245 C 
ENDROOT
BRANCH   2   3
ATOM      3  C   UNL     1      -5.039   4.596  -2.529  1.00  0.00     0.168 C 
ATOM      4  C   UNL     1      -5.743   3.549  -1.673  1.00  0.00     0.041 C 
BRANCH   3   5
ATOM      5  N   UNL     1      -3.713   4.910  -2.020  1.00  0.00    -0.342 N 
ATOM      6  C   UNL     1      -3.426   6.125  -1.436  1.00  0.00     0.251 C 
ATOM      7  O   UNL     1      -4.240   7.038  -1.339  1.00  0.00    -0.272 OA
ATOM      8  H   UNL     1      -2.946   4.244  -2.075  1.00  0.00     0.164 HD
BRANCH   6   9
ATOM      9  C   UNL     1      -2.009   6.181  -0.844  1.00  0.00     0.219 C 
BRANCH   9  10
ATOM     10  O   UNL     1      -1.329   4.922  -0.918  1.00  0.00    -0.382 OA
ATOM     11  H   UNL     1      -1.911   4.379  -1.494  1.00  0.00     0.211 HD
ENDBRANCH   9  10
BRANCH   9  12
ATOM     12  C   UNL     1      -1.139   7.313  -1.452  1.00  0.00     0.089 C 
BRANCH  12  13
ATOM     13  N   UNL     1      -1.515   7.478  -2.875  1.00  0.00    -0.325 NA
ATOM     14  H   UNL     1      -0.669   7.604  -3.434  1.00  0.00     0.119 HD
ATOM     15  H   UNL     1      -2.037   8.351  -2.981  1.00  0.00     0.119 HD
ENDBRANCH  12  13
BRANCH  12  16
ATOM     16  C   UNL     1      -1.197   8.678  -0.726  1.00  0.00     0.022 C 
BRANCH  16  17
ATOM     17  C   UNL     1      -0.210   8.959   0.415  1.00  0.00     0.002 C 
BRANCH  17  18
ATOM     18  C   UNL     1      -0.631   8.418   1.780  1.00  0.00     0.000 C 
BRANCH  18  19
ATOM     19  C   UNL     1       0.016   7.075   2.146  1.00  0.00    -0.000 C 
BRANCH  19  20
ATOM     20  C   UNL     1      -0.005   6.729   3.638  1.00  0.00    -0.000 C 
BRANCH  20  21
ATOM     21  C   UNL     1      -0.115   5.225   3.903  1.00  0.00    -0.003 C 
ATOM     22  C   UNL     1      -0.927   4.942   5.157  1.00  0.00     0.004 C 
ENDBRANCH  20  21
ENDBRANCH  19  20
ENDBRANCH  18  19
ENDBRANCH  17  18
ENDBRANCH  16  17
ENDBRANCH  12  16
ENDBRANCH   9  12
ENDBRANCH   6   9
ENDBRANCH   3   5
ENDBRANCH   2   3
BRANCH   2  23
ATOM     23  N   UNL     1      -5.457   5.123  -5.001  1.00  0.00    -0.332 N 
ATOM     24  C   UNL     1      -5.361   6.568  -4.852  1.00  0.00     0.147 C 
BRANCH  23  25
ATOM     25  C   UNL     1      -5.875   4.658  -6.352  1.00  0.00     0.174 C 
BRANCH  25  26
ATOM     26  C   UNL     1      -6.012   5.815  -7.371  1.00  0.00     0.038 C 
BRANCH  26  27
ATOM     27  C   UNL     1      -5.330   5.623  -8.743  1.00  0.00    -0.015 C 
ATOM     28  C   UNL     1      -4.206   6.630  -8.983  1.00  0.00     0.007 C 
ATOM     29  C   UNL     1      -4.835   4.199  -8.982  1.00  0.00     0.007 C 
ENDBRANCH  26  27
ENDBRANCH  25  26
BRANCH  25  30
ATOM     30  C   UNL     1      -7.137   3.772  -6.244  1.00  0.00     0.243 C 
ATOM     31  O   UNL     1      -8.270   4.252  -6.248  1.00  0.00    -0.273 OA
ATOM     32  N   UNL     1      -6.908   2.425  -6.137  1.00  0.00    -0.342 N 
ATOM     33  H   UNL     1      -5.951   2.094  -6.284  1.00  0.00     0.164 HD
BRANCH  32  34
ATOM     34  C   UNL     1      -7.982   1.438  -5.998  1.00  0.00     0.175 C 
BRANCH  34  35
ATOM     35  C   UNL     1      -7.507   0.034  -6.403  1.00  0.00     0.070 C 
BRANCH  35  36
ATOM     36  C   UNL     1      -6.130   0.040  -7.027  1.00  0.00    -0.045 A 
ATOM     37  C   UNL     1      -5.003  -0.257  -6.246  1.00  0.00     0.007 A 
ATOM     38  C   UNL     1      -5.956   0.362  -8.380  1.00  0.00     0.007 A 
ATOM     39  C   UNL     1      -3.728  -0.240  -6.810  1.00  0.00     0.046 A 
ATOM     40  C   UNL     1      -4.679   0.380  -8.945  1.00  0.00     0.046 A 
ATOM     41  C   UNL     1      -3.575   0.077  -8.154  1.00  0.00     0.115 A 
BRANCH  41  42
ATOM     42  O   UNL     1      -2.312   0.085  -8.666  1.00  0.00    -0.508 OA
ATOM     43  H   UNL     1      -2.266  -0.576  -9.377  1.00  0.00     0.293 HD
ENDBRANCH  41  42
ENDBRANCH  35  36
ENDBRANCH  34  35
BRANCH  34  44
ATOM     44  C   UNL     1      -8.484   1.479  -4.537  1.00  0.00     0.243 C 
ATOM     45  O   UNL     1      -7.858   1.042  -3.576  1.00  0.00    -0.273 OA
ATOM     46  N   UNL     1      -9.778   1.940  -4.414  1.00  0.00    -0.341 N 
ATOM     47  H   UNL     1     -10.299   2.181  -5.254  1.00  0.00     0.164 HD
BRANCH  46  48
ATOM     48  C   UNL     1     -10.492   2.005  -3.137  1.00  0.00     0.196 C 
BRANCH  48  49
ATOM     49  C   UNL     1     -11.038   3.419  -2.873  1.00  0.00     0.072 C 
BRANCH  49  50
ATOM     50  C   UNL     1     -10.284   4.137  -1.776  1.00  0.00    -0.045 A 
ATOM     51  C   UNL     1      -9.282   5.061  -2.107  1.00  0.00     0.007 A 
ATOM     52  C   UNL     1     -10.556   3.880  -0.427  1.00  0.00     0.007 A 
ATOM     53  C   UNL     1      -8.572   5.721  -1.104  1.00  0.00     0.046 A 
ATOM     54  C   UNL     1      -9.844   4.539   0.578  1.00  0.00     0.046 A 
ATOM     55  C   UNL     1      -8.857   5.455   0.230  1.00  0.00     0.115 A 
BRANCH  55  56
ATOM     56  O   UNL     1      -8.139   6.119   1.180  1.00  0.00    -0.508 OA
ATOM     57  H   UNL     1      -7.698   5.464   1.743  1.00  0.00     0.293 HD
ENDBRANCH  55  56
ENDBRANCH  49  50
ENDBRANCH  48  49
BRANCH  48  58
ATOM     58  C   UNL     1     -11.653   1.002  -3.163  1.00  0.00     0.326 C 
ATOM     59  O   UNL     1     -11.671  -0.120  -2.681  1.00  0.00    -0.250 OA
BRANCH  58  60
ATOM     60  O   UNL     1     -12.761   1.471  -3.790  1.00  0.00    -0.480 OA
ATOM     61  H   UNL     1     -12.650   2.445  -3.747  1.00  0.00     0.296 HD
ENDBRANCH  58  60
ENDBRANCH  48  58
ENDBRANCH  46  48
ENDBRANCH  34  44
ENDBRANCH  32  34
ENDBRANCH  25  30
ENDBRANCH  23  25
ENDBRANCH   2  23
TORSDOF 28
ENDMDL
MODEL 23
REMARK VINA RESULT:    -6.227     12.379     18.722
REMARK INTER + INTRA:         -20.681
REMARK INTER:                 -16.366
REMARK INTRA:                  -4.315
REMARK UNBOUND:                -5.170
REMARK SMILES CCCCCCC[C@H](N)[C@H](O)C(=O)N[C@H](C)C(=O)N(C)[C@H](CC(C)C)C(=O)N[C@@H](Cc1ccc(O)cc1)C(=O)N[C@@H](Cc1ccc(O)cc1)C(=O)O
REMARK SMILES IDX 18 1 17 2 15 3 16 4 14 5 12 6 13 7 10 9 11 10 8 12 9 13 7 16
REMARK SMILES IDX 6 17 5 18 4 19 3 20 2 21 1 22 19 23 20 24 21 25 22 26 23 27
REMARK SMILES IDX 24 28 25 29 26 30 27 31 28 32 29 34 30 35 31 36 32 37 37 38
REMARK SMILES IDX 33 39 36 40 34 41 35 42 38 44 39 45 40 46 41 48 42 49 43 50
REMARK SMILES IDX 44 51 49 52 45 53 48 54 46 55 47 56 50 58 51 59 52 60
REMARK H PARENT 14 8 11 11 9 14 9 15 28 33 35 43 40 47 47 57 52 61
ROOT
ATOM      1  O   UNL     1      -8.058   4.025  -5.894  1.00  0.00    -0.272 OA
ATOM      2  C   UNL     1      -7.581   2.893  -6.063  1.00  0.00     0.245 C 
ENDROOT
BRANCH   2   3
ATOM      3  C   UNL     1      -7.093   2.498  -7.479  1.00  0.00     0.168 C 
ATOM      4  C   UNL     1      -7.342   3.628  -8.472  1.00  0.00     0.041 C 
BRANCH   3   5
ATOM      5  N   UNL     1      -5.722   2.014  -7.540  1.00  0.00    -0.342 N 
ATOM      6  C   UNL     1      -5.422   0.723  -7.919  1.00  0.00     0.251 C 
ATOM      7  O   UNL     1      -6.273  -0.118  -8.188  1.00  0.00    -0.272 OA
ATOM      8  H   UNL     1      -4.932   2.611  -7.305  1.00  0.00     0.164 HD
BRANCH   6   9
ATOM      9  C   UNL     1      -3.910   0.478  -8.049  1.00  0.00     0.219 C 
BRANCH   9  10
ATOM     10  O   UNL     1      -3.507  -0.788  -7.513  1.00  0.00    -0.382 OA
ATOM     11  H   UNL     1      -2.858  -1.121  -8.171  1.00  0.00     0.211 HD
ENDBRANCH   9  10
BRANCH   9  12
ATOM     12  C   UNL     1      -3.387   0.654  -9.499  1.00  0.00     0.089 C 
BRANCH  12  13
ATOM     13  N   UNL     1      -4.416   1.375 -10.282  1.00  0.00    -0.325 NA
ATOM     14  H   UNL     1      -4.111   2.339 -10.430  1.00  0.00     0.119 HD
ATOM     15  H   UNL     1      -5.268   1.448  -9.721  1.00  0.00     0.119 HD
ENDBRANCH  12  13
BRANCH  12  16
ATOM     16  C   UNL     1      -2.017   1.359  -9.645  1.00  0.00     0.022 C 
BRANCH  16  17
ATOM     17  C   UNL     1      -1.852   2.460 -10.701  1.00  0.00     0.002 C 
BRANCH  17  18
ATOM     18  C   UNL     1      -0.908   3.594 -10.308  1.00  0.00     0.000 C 
BRANCH  18  19
ATOM     19  C   UNL     1       0.579   3.245 -10.449  1.00  0.00    -0.000 C 
BRANCH  19  20
ATOM     20  C   UNL     1       1.203   2.553  -9.234  1.00  0.00    -0.000 C 
BRANCH  20  21
ATOM     21  C   UNL     1       1.643   1.115  -9.523  1.00  0.00    -0.003 C 
ATOM     22  C   UNL     1       1.914   0.906 -11.005  1.00  0.00     0.004 C 
ENDBRANCH  20  21
ENDBRANCH  19  20
ENDBRANCH  18  19
ENDBRANCH  17  18
ENDBRANCH  16  17
ENDBRANCH  12  16
ENDBRANCH   9  12
ENDBRANCH   6   9
ENDBRANCH   3   5
ENDBRANCH   2   3
BRANCH   2  23
ATOM     23  N   UNL     1      -7.382   2.052  -4.973  1.00  0.00    -0.332 N 
ATOM     24  C   UNL     1      -7.907   0.699  -4.866  1.00  0.00     0.147 C 
BRANCH  23  25
ATOM     25  C   UNL     1      -6.477   2.462  -3.864  1.00  0.00     0.174 C 
BRANCH  25  26
ATOM     26  C   UNL     1      -7.236   3.068  -2.660  1.00  0.00     0.038 C 
BRANCH  26  27
ATOM     27  C   UNL     1      -6.941   2.462  -1.270  1.00  0.00    -0.015 C 
ATOM     28  C   UNL     1      -7.378   1.001  -1.165  1.00  0.00     0.007 C 
ATOM     29  C   UNL     1      -5.487   2.620  -0.834  1.00  0.00     0.007 C 
ENDBRANCH  26  27
ENDBRANCH  25  26
BRANCH  25  30
ATOM     30  C   UNL     1      -5.347   3.368  -4.407  1.00  0.00     0.243 C 
ATOM     31  O   UNL     1      -4.348   2.903  -4.953  1.00  0.00    -0.273 OA
ATOM     32  N   UNL     1      -5.532   4.715  -4.232  1.00  0.00    -0.342 N 
ATOM     33  H   UNL     1      -6.447   5.029  -3.899  1.00  0.00     0.164 HD
BRANCH  32  34
ATOM     34  C   UNL     1      -4.554   5.720  -4.658  1.00  0.00     0.175 C 
BRANCH  34  35
ATOM     35  C   UNL     1      -5.176   6.723  -5.642  1.00  0.00     0.070 C 
BRANCH  35  36
ATOM     36  C   UNL     1      -4.452   6.767  -6.969  1.00  0.00    -0.045 A 
ATOM     37  C   UNL     1      -4.754   5.825  -7.964  1.00  0.00     0.007 A 
ATOM     38  C   UNL     1      -3.460   7.725  -7.215  1.00  0.00     0.007 A 
ATOM     39  C   UNL     1      -4.082   5.849  -9.186  1.00  0.00     0.046 A 
ATOM     40  C   UNL     1      -2.786   7.749  -8.439  1.00  0.00     0.046 A 
ATOM     41  C   UNL     1      -3.105   6.810  -9.414  1.00  0.00     0.115 A 
BRANCH  41  42
ATOM     42  O   UNL     1      -2.470   6.797 -10.621  1.00  0.00    -0.508 OA
ATOM     43  H   UNL     1      -2.143   7.694 -10.803  1.00  0.00     0.293 HD
ENDBRANCH  41  42
ENDBRANCH  35  36
ENDBRANCH  34  35
BRANCH  34  44
ATOM     44  C   UNL     1      -4.002   6.417  -3.394  1.00  0.00     0.243 C 
ATOM     45  O   UNL     1      -4.639   6.580  -2.358  1.00  0.00    -0.273 OA
ATOM     46  N   UNL     1      -2.750   6.968  -3.574  1.00  0.00    -0.341 N 
ATOM     47  H   UNL     1      -2.311   6.907  -4.489  1.00  0.00     0.164 HD
BRANCH  46  48
ATOM     48  C   UNL     1      -2.052   7.735  -2.540  1.00  0.00     0.196 C 
BRANCH  48  49
ATOM     49  C   UNL     1      -1.476   6.815  -1.452  1.00  0.00     0.072 C 
BRANCH  49  50
ATOM     50  C   UNL     1      -0.919   7.583  -0.275  1.00  0.00    -0.045 A 
ATOM     51  C   UNL     1      -1.777   8.339   0.536  1.00  0.00     0.007 A 
ATOM     52  C   UNL     1       0.453   7.570   0.010  1.00  0.00     0.007 A 
ATOM     53  C   UNL     1      -1.273   9.063   1.617  1.00  0.00     0.046 A 
ATOM     54  C   UNL     1       0.958   8.296   1.091  1.00  0.00     0.046 A 
ATOM     55  C   UNL     1       0.090   9.035   1.887  1.00  0.00     0.115 A 
BRANCH  55  56
ATOM     56  O   UNL     1       0.543   9.758   2.951  1.00  0.00    -0.508 OA
ATOM     57  H   UNL     1       0.037  10.584   2.998  1.00  0.00     0.293 HD
ENDBRANCH  55  56
ENDBRANCH  49  50
ENDBRANCH  48  49
BRANCH  48  58
ATOM     58  C   UNL     1      -0.916   8.534  -3.194  1.00  0.00     0.326 C 
ATOM     59  O   UNL     1      -0.503   9.635  -2.866  1.00  0.00    -0.250 OA
BRANCH  58  60
ATOM     60  O   UNL     1      -0.333   7.891  -4.237  1.00  0.00    -0.480 OA
ATOM     61  H   UNL     1       0.262   7.244  -3.800  1.00  0.00     0.296 HD
ENDBRANCH  58  60
ENDBRANCH  48  58
ENDBRANCH  46  48
ENDBRANCH  34  44
ENDBRANCH  32  34
ENDBRANCH  25  30
ENDBRANCH  23  25
ENDBRANCH   2  23
TORSDOF 28
ENDMDL
MODEL 24
REMARK VINA RESULT:    -6.205     13.274     19.761
REMARK INTER + INTRA:         -20.624
REMARK INTER:                 -16.056
REMARK INTRA:                  -4.568
REMARK UNBOUND:                -5.170
REMARK SMILES CCCCCCC[C@H](N)[C@H](O)C(=O)N[C@H](C)C(=O)N(C)[C@H](CC(C)C)C(=O)N[C@@H](Cc1ccc(O)cc1)C(=O)N[C@@H](Cc1ccc(O)cc1)C(=O)O
REMARK SMILES IDX 18 1 17 2 15 3 16 4 14 5 12 6 13 7 10 9 11 10 8 12 9 13 7 16
REMARK SMILES IDX 6 17 5 18 4 19 3 20 2 21 1 22 19 23 20 24 21 25 22 26 23 27
REMARK SMILES IDX 24 28 25 29 26 30 27 31 28 32 29 34 30 35 31 36 32 37 37 38
REMARK SMILES IDX 33 39 36 40 34 41 35 42 38 44 39 45 40 46 41 48 42 49 43 50
REMARK SMILES IDX 44 51 49 52 45 53 48 54 46 55 47 56 50 58 51 59 52 60
REMARK H PARENT 14 8 11 11 9 14 9 15 28 33 35 43 40 47 47 57 52 61
ROOT
ATOM      1  O   UNL     1      -4.783   5.863  -7.628  1.00  0.00    -0.272 OA
ATOM      2  C   UNL     1      -5.448   4.972  -8.178  1.00  0.00     0.245 C 
ENDROOT
BRANCH   2   3
ATOM      3  C   UNL     1      -4.931   4.378  -9.511  1.00  0.00     0.168 C 
ATOM      4  C   UNL     1      -4.008   5.362 -10.221  1.00  0.00     0.041 C 
BRANCH   3   5
ATOM      5  N   UNL     1      -4.332   3.057  -9.400  1.00  0.00    -0.342 N 
ATOM      6  C   UNL     1      -5.036   1.911  -9.704  1.00  0.00     0.251 C 
ATOM      7  O   UNL     1      -6.213   1.911 -10.046  1.00  0.00    -0.272 OA
ATOM      8  H   UNL     1      -3.371   2.928  -9.092  1.00  0.00     0.164 HD
BRANCH   6   9
ATOM      9  C   UNL     1      -4.163   0.646  -9.652  1.00  0.00     0.219 C 
BRANCH   9  10
ATOM     10  O   UNL     1      -4.454  -0.270 -10.714  1.00  0.00    -0.382 OA
ATOM     11  H   UNL     1      -5.326   0.034 -11.049  1.00  0.00     0.211 HD
ENDBRANCH   9  10
BRANCH   9  12
ATOM     12  C   UNL     1      -2.644   0.957  -9.593  1.00  0.00     0.089 C 
BRANCH  12  13
ATOM     13  N   UNL     1      -1.989  -0.074  -8.755  1.00  0.00    -0.325 NA
ATOM     14  H   UNL     1      -1.224  -0.499  -9.282  1.00  0.00     0.119 HD
ATOM     15  H   UNL     1      -2.652  -0.834  -8.587  1.00  0.00     0.119 HD
ENDBRANCH  12  13
BRANCH  12  16
ATOM     16  C   UNL     1      -1.922   1.071 -10.957  1.00  0.00     0.022 C 
BRANCH  16  17
ATOM     17  C   UNL     1      -1.048  -0.095 -11.439  1.00  0.00     0.002 C 
BRANCH  17  18
ATOM     18  C   UNL     1       0.452   0.188 -11.455  1.00  0.00     0.000 C 
BRANCH  18  19
ATOM     19  C   UNL     1       1.301  -0.973 -11.991  1.00  0.00    -0.000 C 
BRANCH  19  20
ATOM     20  C   UNL     1       0.804  -2.371 -11.612  1.00  0.00    -0.000 C 
BRANCH  20  21
ATOM     21  C   UNL     1       1.132  -2.752 -10.166  1.00  0.00    -0.003 C 
ATOM     22  C   UNL     1       2.508  -3.390 -10.059  1.00  0.00     0.004 C 
ENDBRANCH  20  21
ENDBRANCH  19  20
ENDBRANCH  18  19
ENDBRANCH  17  18
ENDBRANCH  16  17
ENDBRANCH  12  16
ENDBRANCH   9  12
ENDBRANCH   6   9
ENDBRANCH   3   5
ENDBRANCH   2   3
BRANCH   2  23
ATOM     23  N   UNL     1      -6.565   4.443  -7.539  1.00  0.00    -0.332 N 
ATOM     24  C   UNL     1      -7.939   4.652  -7.969  1.00  0.00     0.147 C 
BRANCH  23  25
ATOM     25  C   UNL     1      -6.401   3.491  -6.406  1.00  0.00     0.174 C 
BRANCH  25  26
ATOM     26  C   UNL     1      -7.179   2.170  -6.613  1.00  0.00     0.038 C 
BRANCH  26  27
ATOM     27  C   UNL     1      -6.479   0.868  -6.165  1.00  0.00    -0.015 C 
ATOM     28  C   UNL     1      -4.964   1.031  -6.041  1.00  0.00     0.007 C 
ATOM     29  C   UNL     1      -7.061   0.274  -4.885  1.00  0.00     0.007 C 
ENDBRANCH  26  27
ENDBRANCH  25  26
BRANCH  25  30
ATOM     30  C   UNL     1      -6.718   4.196  -5.068  1.00  0.00     0.243 C 
ATOM     31  O   UNL     1      -7.678   3.869  -4.372  1.00  0.00    -0.273 OA
ATOM     32  N   UNL     1      -5.865   5.210  -4.715  1.00  0.00    -0.342 N 
ATOM     33  H   UNL     1      -5.014   5.328  -5.270  1.00  0.00     0.164 HD
BRANCH  32  34
ATOM     34  C   UNL     1      -6.028   6.006  -3.495  1.00  0.00     0.175 C 
BRANCH  34  35
ATOM     35  C   UNL     1      -5.210   5.422  -2.333  1.00  0.00     0.070 C 
BRANCH  35  36
ATOM     36  C   UNL     1      -6.070   4.709  -1.314  1.00  0.00    -0.045 A 
ATOM     37  C   UNL     1      -7.061   5.415  -0.615  1.00  0.00     0.007 A 
ATOM     38  C   UNL     1      -5.879   3.349  -1.037  1.00  0.00     0.007 A 
ATOM     39  C   UNL     1      -7.850   4.769   0.338  1.00  0.00     0.046 A 
ATOM     40  C   UNL     1      -6.667   2.702  -0.082  1.00  0.00     0.046 A 
ATOM     41  C   UNL     1      -7.648   3.419   0.596  1.00  0.00     0.115 A 
BRANCH  41  42
ATOM     42  O   UNL     1      -8.438   2.826   1.536  1.00  0.00    -0.508 OA
ATOM     43  H   UNL     1      -7.940   2.093   1.934  1.00  0.00     0.293 HD
ENDBRANCH  41  42
ENDBRANCH  35  36
ENDBRANCH  34  35
BRANCH  34  44
ATOM     44  C   UNL     1      -5.617   7.461  -3.815  1.00  0.00     0.243 C 
ATOM     45  O   UNL     1      -5.633   8.382  -3.003  1.00  0.00    -0.273 OA
ATOM     46  N   UNL     1      -5.347   7.674  -5.151  1.00  0.00    -0.341 N 
ATOM     47  H   UNL     1      -5.461   6.905  -5.806  1.00  0.00     0.164 HD
BRANCH  46  48
ATOM     48  C   UNL     1      -5.003   8.986  -5.704  1.00  0.00     0.196 C 
BRANCH  48  49
ATOM     49  C   UNL     1      -3.526   9.046  -6.126  1.00  0.00     0.072 C 
BRANCH  49  50
ATOM     50  C   UNL     1      -2.586   9.134  -4.945  1.00  0.00    -0.045 A 
ATOM     51  C   UNL     1      -1.730   8.063  -4.652  1.00  0.00     0.007 A 
ATOM     52  C   UNL     1      -2.570  10.265  -4.119  1.00  0.00     0.007 A 
ATOM     53  C   UNL     1      -0.868   8.127  -3.557  1.00  0.00     0.046 A 
ATOM     54  C   UNL     1      -1.708  10.330  -3.022  1.00  0.00     0.046 A 
ATOM     55  C   UNL     1      -0.863   9.259  -2.751  1.00  0.00     0.115 A 
BRANCH  55  56
ATOM     56  O   UNL     1      -0.007   9.282  -1.690  1.00  0.00    -0.508 OA
ATOM     57  H   UNL     1       0.885   9.078  -2.012  1.00  0.00     0.293 HD
ENDBRANCH  55  56
ENDBRANCH  49  50
ENDBRANCH  48  49
BRANCH  48  58
ATOM     58  C   UNL     1      -5.898   9.265  -6.920  1.00  0.00     0.326 C 
ATOM     59  O   UNL     1      -6.072  10.336  -7.479  1.00  0.00    -0.250 OA
BRANCH  58  60
ATOM     60  O   UNL     1      -6.531   8.162  -7.390  1.00  0.00    -0.480 OA
ATOM     61  H   UNL     1      -7.462   8.298  -7.110  1.00  0.00     0.296 HD
ENDBRANCH  58  60
ENDBRANCH  48  58
ENDBRANCH  46  48
ENDBRANCH  34  44
ENDBRANCH  32  34
ENDBRANCH  25  30
ENDBRANCH  23  25
ENDBRANCH   2  23
TORSDOF 28
ENDMDL
MODEL 25
REMARK VINA RESULT:    -6.198      2.573      4.933
REMARK INTER + INTRA:         -20.608
REMARK INTER:                 -16.271
REMARK INTRA:                  -4.337
REMARK UNBOUND:                -5.170
REMARK SMILES CCCCCCC[C@H](N)[C@H](O)C(=O)N[C@H](C)C(=O)N(C)[C@H](CC(C)C)C(=O)N[C@@H](Cc1ccc(O)cc1)C(=O)N[C@@H](Cc1ccc(O)cc1)C(=O)O
REMARK SMILES IDX 18 1 17 2 15 3 16 4 14 5 12 6 13 7 10 9 11 10 8 12 9 13 7 16
REMARK SMILES IDX 6 17 5 18 4 19 3 20 2 21 1 22 19 23 20 24 21 25 22 26 23 27
REMARK SMILES IDX 24 28 25 29 26 30 27 31 28 32 29 34 30 35 31 36 32 37 37 38
REMARK SMILES IDX 33 39 36 40 34 41 35 42 38 44 39 45 40 46 41 48 42 49 43 50
REMARK SMILES IDX 44 51 49 52 45 53 48 54 46 55 47 56 50 58 51 59 52 60
REMARK H PARENT 14 8 11 11 9 14 9 15 28 33 35 43 40 47 47 57 52 61
ROOT
ATOM      1  O   UNL     1      -8.708   7.289  12.437  1.00  0.00    -0.272 OA
ATOM      2  C   UNL     1      -7.909   8.223  12.603  1.00  0.00     0.245 C 
ENDROOT
BRANCH   2   3
ATOM      3  C   UNL     1      -8.424   9.531  13.253  1.00  0.00     0.168 C 
ATOM      4  C   UNL     1      -8.357  10.690  12.265  1.00  0.00     0.041 C 
BRANCH   3   5
ATOM      5  N   UNL     1      -9.733   9.428  13.880  1.00  0.00    -0.342 N 
ATOM      6  C   UNL     1      -9.930   9.731  15.210  1.00  0.00     0.251 C 
ATOM      7  O   UNL     1      -9.025  10.064  15.969  1.00  0.00    -0.272 OA
ATOM      8  H   UNL     1     -10.554   9.128  13.359  1.00  0.00     0.164 HD
BRANCH   6   9
ATOM      9  C   UNL     1     -11.411   9.689  15.617  1.00  0.00     0.219 C 
BRANCH   9  10
ATOM     10  O   UNL     1     -11.609   9.146  16.928  1.00  0.00    -0.382 OA
ATOM     11  H   UNL     1     -11.618   8.175  16.778  1.00  0.00     0.211 HD
ENDBRANCH   9  10
BRANCH   9  12
ATOM     12  C   UNL     1     -12.120  11.061  15.477  1.00  0.00     0.089 C 
BRANCH  12  13
ATOM     13  N   UNL     1     -11.086  12.105  15.297  1.00  0.00    -0.325 NA
ATOM     14  H   UNL     1     -10.707  12.363  16.210  1.00  0.00     0.119 HD
ATOM     15  H   UNL     1     -11.532  12.955  14.943  1.00  0.00     0.119 HD
ENDBRANCH  12  13
BRANCH  12  16
ATOM     16  C   UNL     1     -13.181  11.164  14.354  1.00  0.00     0.022 C 
BRANCH  16  17
ATOM     17  C   UNL     1     -12.734  11.045  12.891  1.00  0.00     0.002 C 
BRANCH  17  18
ATOM     18  C   UNL     1     -12.719  12.359  12.112  1.00  0.00     0.000 C 
BRANCH  18  19
ATOM     19  C   UNL     1     -11.318  12.817  11.686  1.00  0.00    -0.000 C 
BRANCH  19  20
ATOM     20  C   UNL     1     -11.044  12.755  10.181  1.00  0.00    -0.000 C 
BRANCH  20  21
ATOM     21  C   UNL     1     -10.992  11.323   9.640  1.00  0.00    -0.003 C 
ATOM     22  C   UNL     1     -12.008  11.113   8.529  1.00  0.00     0.004 C 
ENDBRANCH  20  21
ENDBRANCH  19  20
ENDBRANCH  18  19
ENDBRANCH  17  18
ENDBRANCH  16  17
ENDBRANCH  12  16
ENDBRANCH   9  12
ENDBRANCH   6   9
ENDBRANCH   3   5
ENDBRANCH   2   3
BRANCH   2  23
ATOM     23  N   UNL     1      -6.559   8.043  12.322  1.00  0.00    -0.332 N 
ATOM     24  C   UNL     1      -5.795   8.855  11.386  1.00  0.00     0.147 C 
BRANCH  23  25
ATOM     25  C   UNL     1      -5.759   7.048  13.087  1.00  0.00     0.174 C 
BRANCH  25  26
ATOM     26  C   UNL     1      -4.603   7.693  13.888  1.00  0.00     0.038 C 
BRANCH  26  27
ATOM     27  C   UNL     1      -4.972   8.859  14.833  1.00  0.00    -0.015 C 
ATOM     28  C   UNL     1      -6.014   8.457  15.878  1.00  0.00     0.007 C 
ATOM     29  C   UNL     1      -3.761   9.504  15.503  1.00  0.00     0.007 C 
ENDBRANCH  26  27
ENDBRANCH  25  26
BRANCH  25  30
ATOM     30  C   UNL     1      -5.304   5.901  12.157  1.00  0.00     0.243 C 
ATOM     31  O   UNL     1      -4.182   5.405  12.236  1.00  0.00    -0.273 OA
ATOM     32  N   UNL     1      -6.231   5.480  11.237  1.00  0.00    -0.342 N 
ATOM     33  H   UNL     1      -7.184   5.842  11.326  1.00  0.00     0.164 HD
BRANCH  32  34
ATOM     34  C   UNL     1      -5.966   4.423  10.257  1.00  0.00     0.175 C 
BRANCH  34  35
ATOM     35  C   UNL     1      -4.829   4.818   9.303  1.00  0.00     0.070 C 
BRANCH  35  36
ATOM     36  C   UNL     1      -5.178   4.589   7.850  1.00  0.00    -0.045 A 
ATOM     37  C   UNL     1      -6.068   3.563   7.496  1.00  0.00     0.007 A 
ATOM     38  C   UNL     1      -4.606   5.373   6.840  1.00  0.00     0.007 A 
ATOM     39  C   UNL     1      -6.386   3.335   6.157  1.00  0.00     0.046 A 
ATOM     40  C   UNL     1      -4.923   5.144   5.499  1.00  0.00     0.046 A 
ATOM     41  C   UNL     1      -5.812   4.127   5.170  1.00  0.00     0.115 A 
BRANCH  41  42
ATOM     42  O   UNL     1      -6.147   3.868   3.873  1.00  0.00    -0.508 OA
ATOM     43  H   UNL     1      -6.750   4.567   3.569  1.00  0.00     0.293 HD
ENDBRANCH  41  42
ENDBRANCH  35  36
ENDBRANCH  34  35
BRANCH  34  44
ATOM     44  C   UNL     1      -5.646   3.124  11.030  1.00  0.00     0.243 C 
ATOM     45  O   UNL     1      -6.248   2.746  12.031  1.00  0.00    -0.273 OA
ATOM     46  N   UNL     1      -4.521   2.474  10.568  1.00  0.00    -0.341 N 
ATOM     47  H   UNL     1      -3.987   2.889   9.809  1.00  0.00     0.164 HD
BRANCH  46  48
ATOM     48  C   UNL     1      -3.983   1.259  11.184  1.00  0.00     0.196 C 
BRANCH  48  49
ATOM     49  C   UNL     1      -3.323   0.346  10.138  1.00  0.00     0.072 C 
BRANCH  49  50
ATOM     50  C   UNL     1      -2.992   1.075   8.855  1.00  0.00    -0.045 A 
ATOM     51  C   UNL     1      -2.114   2.169   8.879  1.00  0.00     0.007 A 
ATOM     52  C   UNL     1      -3.566   0.689   7.637  1.00  0.00     0.007 A 
ATOM     53  C   UNL     1      -1.812   2.858   7.705  1.00  0.00     0.046 A 
ATOM     54  C   UNL     1      -3.265   1.379   6.461  1.00  0.00     0.046 A 
ATOM     55  C   UNL     1      -2.388   2.458   6.505  1.00  0.00     0.115 A 
BRANCH  55  56
ATOM     56  O   UNL     1      -2.068   3.159   5.380  1.00  0.00    -0.508 OA
ATOM     57  H   UNL     1      -1.644   3.990   5.648  1.00  0.00     0.293 HD
ENDBRANCH  55  56
ENDBRANCH  49  50
ENDBRANCH  48  49
BRANCH  48  58
ATOM     58  C   UNL     1      -2.949   1.654  12.248  1.00  0.00     0.326 C 
ATOM     59  O   UNL     1      -1.778   1.317  12.301  1.00  0.00    -0.250 OA
BRANCH  58  60
ATOM     60  O   UNL     1      -3.444   2.481  13.203  1.00  0.00    -0.480 OA
ATOM     61  H   UNL     1      -3.190   3.374  12.882  1.00  0.00     0.296 HD
ENDBRANCH  58  60
ENDBRANCH  48  58
ENDBRANCH  46  48
ENDBRANCH  34  44
ENDBRANCH  32  34
ENDBRANCH  25  30
ENDBRANCH  23  25
ENDBRANCH   2  23
TORSDOF 28
ENDMDL
MODEL 26
REMARK VINA RESULT:    -6.197      3.843      9.458
REMARK INTER + INTRA:         -20.605
REMARK INTER:                 -16.261
REMARK INTRA:                  -4.344
REMARK UNBOUND:                -5.170
REMARK SMILES CCCCCCC[C@H](N)[C@H](O)C(=O)N[C@H](C)C(=O)N(C)[C@H](CC(C)C)C(=O)N[C@@H](Cc1ccc(O)cc1)C(=O)N[C@@H](Cc1ccc(O)cc1)C(=O)O
REMARK SMILES IDX 18 1 17 2 15 3 16 4 14 5 12 6 13 7 10 9 11 10 8 12 9 13 7 16
REMARK SMILES IDX 6 17 5 18 4 19 3 20 2 21 1 22 19 23 20 24 21 25 22 26 23 27
REMARK SMILES IDX 24 28 25 29 26 30 27 31 28 32 29 34 30 35 31 36 32 37 37 38
REMARK SMILES IDX 33 39 36 40 34 41 35 42 38 44 39 45 40 46 41 48 42 49 43 50
REMARK SMILES IDX 44 51 49 52 45 53 48 54 46 55 47 56 50 58 51 59 52 60
REMARK H PARENT 14 8 11 11 9 14 9 15 28 33 35 43 40 47 47 57 52 61
ROOT
ATOM      1  O   UNL     1      -7.786   6.501   7.996  1.00  0.00    -0.272 OA
ATOM      2  C   UNL     1      -6.636   6.876   8.271  1.00  0.00     0.245 C 
ENDROOT
BRANCH   2   3
ATOM      3  C   UNL     1      -6.208   6.922   9.758  1.00  0.00     0.168 C 
ATOM      4  C   UNL     1      -7.085   7.890  10.545  1.00  0.00     0.041 C 
BRANCH   3   5
ATOM      5  N   UNL     1      -6.115   5.624  10.409  1.00  0.00    -0.342 N 
ATOM      6  C   UNL     1      -5.238   5.391  11.447  1.00  0.00     0.251 C 
ATOM      7  O   UNL     1      -4.452   6.232  11.870  1.00  0.00    -0.272 OA
ATOM      8  H   UNL     1      -6.693   4.838  10.121  1.00  0.00     0.164 HD
BRANCH   6   9
ATOM      9  C   UNL     1      -5.414   3.998  12.072  1.00  0.00     0.219 C 
BRANCH   9  10
ATOM     10  O   UNL     1      -6.777   3.711  12.409  1.00  0.00    -0.382 OA
ATOM     11  H   UNL     1      -7.284   4.398  11.924  1.00  0.00     0.211 HD
ENDBRANCH   9  10
BRANCH   9  12
ATOM     12  C   UNL     1      -4.810   2.862  11.205  1.00  0.00     0.089 C 
BRANCH  12  13
ATOM     13  N   UNL     1      -3.877   3.466  10.227  1.00  0.00    -0.325 NA
ATOM     14  H   UNL     1      -4.328   3.500   9.310  1.00  0.00     0.119 HD
ATOM     15  H   UNL     1      -3.075   2.843  10.107  1.00  0.00     0.119 HD
ENDBRANCH  12  13
BRANCH  12  16
ATOM     16  C   UNL     1      -4.105   1.722  11.978  1.00  0.00     0.022 C 
BRANCH  16  17
ATOM     17  C   UNL     1      -2.695   1.290  11.551  1.00  0.00     0.002 C 
BRANCH  17  18
ATOM     18  C   UNL     1      -2.623  -0.057  10.835  1.00  0.00     0.000 C 
BRANCH  18  19
ATOM     19  C   UNL     1      -3.316  -0.075   9.466  1.00  0.00    -0.000 C 
BRANCH  19  20
ATOM     20  C   UNL     1      -2.412   0.256   8.275  1.00  0.00    -0.000 C 
BRANCH  20  21
ATOM     21  C   UNL     1      -3.038   1.265   7.309  1.00  0.00    -0.003 C 
ATOM     22  C   UNL     1      -2.233   2.554   7.254  1.00  0.00     0.004 C 
ENDBRANCH  20  21
ENDBRANCH  19  20
ENDBRANCH  18  19
ENDBRANCH  17  18
ENDBRANCH  16  17
ENDBRANCH  12  16
ENDBRANCH   9  12
ENDBRANCH   6   9
ENDBRANCH   3   5
ENDBRANCH   2   3
BRANCH   2  23
ATOM     23  N   UNL     1      -5.724   7.127   7.251  1.00  0.00    -0.332 N 
ATOM     24  C   UNL     1      -5.495   8.433   6.651  1.00  0.00     0.147 C 
BRANCH  23  25
ATOM     25  C   UNL     1      -4.805   6.053   6.785  1.00  0.00     0.174 C 
BRANCH  25  26
ATOM     26  C   UNL     1      -5.159   4.663   7.365  1.00  0.00     0.038 C 
BRANCH  26  27
ATOM     27  C   UNL     1      -5.740   3.622   6.382  1.00  0.00    -0.015 C 
ATOM     28  C   UNL     1      -7.203   3.292   6.678  1.00  0.00     0.007 C 
ATOM     29  C   UNL     1      -5.561   4.005   4.915  1.00  0.00     0.007 C 
ENDBRANCH  26  27
ENDBRANCH  25  26
BRANCH  25  30
ATOM     30  C   UNL     1      -3.335   6.470   7.023  1.00  0.00     0.243 C 
ATOM     31  O   UNL     1      -2.958   6.939   8.096  1.00  0.00    -0.273 OA
ATOM     32  N   UNL     1      -2.487   6.288   5.961  1.00  0.00    -0.342 N 
ATOM     33  H   UNL     1      -2.841   5.764   5.156  1.00  0.00     0.164 HD
BRANCH  32  34
ATOM     34  C   UNL     1      -1.068   6.651   5.996  1.00  0.00     0.175 C 
BRANCH  34  35
ATOM     35  C   UNL     1      -0.203   5.478   6.480  1.00  0.00     0.070 C 
BRANCH  35  36
ATOM     36  C   UNL     1       0.665   5.840   7.664  1.00  0.00    -0.045 A 
ATOM     37  C   UNL     1       0.744   7.173   8.095  1.00  0.00     0.007 A 
ATOM     38  C   UNL     1       1.417   4.863   8.330  1.00  0.00     0.007 A 
ATOM     39  C   UNL     1       1.552   7.519   9.178  1.00  0.00     0.046 A 
ATOM     40  C   UNL     1       2.228   5.209   9.413  1.00  0.00     0.046 A 
ATOM     41  C   UNL     1       2.287   6.535   9.828  1.00  0.00     0.115 A 
BRANCH  41  42
ATOM     42  O   UNL     1       3.067   6.915  10.880  1.00  0.00    -0.508 OA
ATOM     43  H   UNL     1       2.648   6.602  11.699  1.00  0.00     0.293 HD
ENDBRANCH  41  42
ENDBRANCH  35  36
ENDBRANCH  34  35
BRANCH  34  44
ATOM     44  C   UNL     1      -0.660   7.126   4.584  1.00  0.00     0.243 C 
ATOM     45  O   UNL     1      -0.134   6.411   3.736  1.00  0.00    -0.273 OA
ATOM     46  N   UNL     1      -0.821   8.483   4.393  1.00  0.00    -0.341 N 
ATOM     47  H   UNL     1      -1.151   9.054   5.167  1.00  0.00     0.164 HD
BRANCH  46  48
ATOM     48  C   UNL     1      -0.439   9.174   3.160  1.00  0.00     0.196 C 
BRANCH  48  49
ATOM     49  C   UNL     1      -1.662   9.441   2.266  1.00  0.00     0.072 C 
BRANCH  49  50
ATOM     50  C   UNL     1      -1.437   9.022   0.831  1.00  0.00    -0.045 A 
ATOM     51  C   UNL     1      -1.360   7.660   0.505  1.00  0.00     0.007 A 
ATOM     52  C   UNL     1      -1.282   9.975  -0.183  1.00  0.00     0.007 A 
ATOM     53  C   UNL     1      -1.140   7.261  -0.813  1.00  0.00     0.046 A 
ATOM     54  C   UNL     1      -1.060   9.576  -1.503  1.00  0.00     0.046 A 
ATOM     55  C   UNL     1      -0.992   8.221  -1.807  1.00  0.00     0.115 A 
BRANCH  55  56
ATOM     56  O   UNL     1      -0.776   7.789  -3.082  1.00  0.00    -0.508 OA
ATOM     57  H   UNL     1       0.173   7.856  -3.271  1.00  0.00     0.293 HD
ENDBRANCH  55  56
ENDBRANCH  49  50
ENDBRANCH  48  49
BRANCH  48  58
ATOM     58  C   UNL     1       0.236  10.504   3.521  1.00  0.00     0.326 C 
ATOM     59  O   UNL     1       0.092  11.581   2.964  1.00  0.00    -0.250 OA
BRANCH  58  60
ATOM     60  O   UNL     1       1.062  10.419   4.594  1.00  0.00    -0.480 OA
ATOM     61  H   UNL     1       1.514   9.557   4.463  1.00  0.00     0.296 HD
ENDBRANCH  58  60
ENDBRANCH  48  58
ENDBRANCH  46  48
ENDBRANCH  34  44
ENDBRANCH  32  34
ENDBRANCH  25  30
ENDBRANCH  23  25
ENDBRANCH   2  23
TORSDOF 28
ENDMDL
MODEL 27
REMARK VINA RESULT:    -6.186      3.057      7.158
REMARK INTER + INTRA:         -20.578
REMARK INTER:                 -14.704
REMARK INTRA:                  -5.874
REMARK UNBOUND:                -5.170
REMARK SMILES CCCCCCC[C@H](N)[C@H](O)C(=O)N[C@H](C)C(=O)N(C)[C@H](CC(C)C)C(=O)N[C@@H](Cc1ccc(O)cc1)C(=O)N[C@@H](Cc1ccc(O)cc1)C(=O)O
REMARK SMILES IDX 18 1 17 2 15 3 16 4 14 5 12 6 13 7 10 9 11 10 8 12 9 13 7 16
REMARK SMILES IDX 6 17 5 18 4 19 3 20 2 21 1 22 19 23 20 24 21 25 22 26 23 27
REMARK SMILES IDX 24 28 25 29 26 30 27 31 28 32 29 34 30 35 31 36 32 37 37 38
REMARK SMILES IDX 33 39 36 40 34 41 35 42 38 44 39 45 40 46 41 48 42 49 43 50
REMARK SMILES IDX 44 51 49 52 45 53 48 54 46 55 47 56 50 58 51 59 52 60
REMARK H PARENT 14 8 11 11 9 14 9 15 28 33 35 43 40 47 47 57 52 61
ROOT
ATOM      1  O   UNL     1      -5.608   5.456   5.687  1.00  0.00    -0.272 OA
ATOM      2  C   UNL     1      -6.052   5.396   6.844  1.00  0.00     0.245 C 
ENDROOT
BRANCH   2   3
ATOM      3  C   UNL     1      -6.512   4.021   7.390  1.00  0.00     0.168 C 
ATOM      4  C   UNL     1      -6.124   2.900   6.432  1.00  0.00     0.041 C 
BRANCH   3   5
ATOM      5  N   UNL     1      -6.096   3.736   8.754  1.00  0.00    -0.342 N 
ATOM      6  C   UNL     1      -6.995   3.719   9.800  1.00  0.00     0.251 C 
ATOM      7  O   UNL     1      -8.186   3.979   9.673  1.00  0.00    -0.272 OA
ATOM      8  H   UNL     1      -5.126   3.539   8.990  1.00  0.00     0.164 HD
BRANCH   6   9
ATOM      9  C   UNL     1      -6.360   3.255  11.121  1.00  0.00     0.219 C 
BRANCH   9  10
ATOM     10  O   UNL     1      -5.275   2.342  10.922  1.00  0.00    -0.382 OA
ATOM     11  H   UNL     1      -4.817   2.334  11.792  1.00  0.00     0.211 HD
ENDBRANCH   9  10
BRANCH   9  12
ATOM     12  C   UNL     1      -5.929   4.432  12.036  1.00  0.00     0.089 C 
BRANCH  12  13
ATOM     13  N   UNL     1      -4.451   4.441  12.119  1.00  0.00    -0.325 NA
ATOM     14  H   UNL     1      -4.061   4.503  11.177  1.00  0.00     0.119 HD
ATOM     15  H   UNL     1      -4.134   3.538  12.480  1.00  0.00     0.119 HD
ENDBRANCH  12  13
BRANCH  12  16
ATOM     16  C   UNL     1      -6.447   5.832  11.628  1.00  0.00     0.022 C 
BRANCH  16  17
ATOM     17  C   UNL     1      -6.960   6.784  12.717  1.00  0.00     0.002 C 
BRANCH  17  18
ATOM     18  C   UNL     1      -7.766   7.976  12.204  1.00  0.00     0.000 C 
BRANCH  18  19
ATOM     19  C   UNL     1      -6.992   9.301  12.205  1.00  0.00    -0.000 C 
BRANCH  19  20
ATOM     20  C   UNL     1      -5.620   9.251  12.885  1.00  0.00    -0.000 C 
BRANCH  20  21
ATOM     21  C   UNL     1      -4.465   9.550  11.927  1.00  0.00    -0.003 C 
ATOM     22  C   UNL     1      -3.710   8.282  11.557  1.00  0.00     0.004 C 
ENDBRANCH  20  21
ENDBRANCH  19  20
ENDBRANCH  18  19
ENDBRANCH  17  18
ENDBRANCH  16  17
ENDBRANCH  12  16
ENDBRANCH   9  12
ENDBRANCH   6   9
ENDBRANCH   3   5
ENDBRANCH   2   3
BRANCH   2  23
ATOM     23  N   UNL     1      -6.016   6.520   7.662  1.00  0.00    -0.332 N 
ATOM     24  C   UNL     1      -7.191   7.180   8.211  1.00  0.00     0.147 C 
BRANCH  23  25
ATOM     25  C   UNL     1      -4.713   7.057   8.144  1.00  0.00     0.174 C 
BRANCH  25  26
ATOM     26  C   UNL     1      -4.183   8.220   7.273  1.00  0.00     0.038 C 
BRANCH  26  27
ATOM     27  C   UNL     1      -3.420   9.348   8.002  1.00  0.00    -0.015 C 
ATOM     28  C   UNL     1      -1.940   9.021   8.199  1.00  0.00     0.007 C 
ATOM     29  C   UNL     1      -3.584  10.716   7.345  1.00  0.00     0.007 C 
ENDBRANCH  26  27
ENDBRANCH  25  26
BRANCH  25  30
ATOM     30  C   UNL     1      -3.699   5.905   8.328  1.00  0.00     0.243 C 
ATOM     31  O   UNL     1      -3.611   5.279   9.383  1.00  0.00    -0.273 OA
ATOM     32  N   UNL     1      -2.903   5.636   7.244  1.00  0.00    -0.342 N 
ATOM     33  H   UNL     1      -3.132   6.102   6.362  1.00  0.00     0.164 HD
BRANCH  32  34
ATOM     34  C   UNL     1      -1.869   4.598   7.247  1.00  0.00     0.175 C 
BRANCH  34  35
ATOM     35  C   UNL     1      -2.428   3.250   6.767  1.00  0.00     0.070 C 
BRANCH  35  36
ATOM     36  C   UNL     1      -2.500   2.221   7.872  1.00  0.00    -0.045 A 
ATOM     37  C   UNL     1      -1.913   2.487   9.119  1.00  0.00     0.007 A 
ATOM     38  C   UNL     1      -3.128   0.986   7.665  1.00  0.00     0.007 A 
ATOM     39  C   UNL     1      -1.962   1.537  10.140  1.00  0.00     0.046 A 
ATOM     40  C   UNL     1      -3.177   0.034   8.687  1.00  0.00     0.046 A 
ATOM     41  C   UNL     1      -2.594   0.320   9.917  1.00  0.00     0.115 A 
BRANCH  41  42
ATOM     42  O   UNL     1      -2.617  -0.581  10.940  1.00  0.00    -0.508 OA
ATOM     43  H   UNL     1      -3.334  -0.333  11.547  1.00  0.00     0.293 HD
ENDBRANCH  41  42
ENDBRANCH  35  36
ENDBRANCH  34  35
BRANCH  34  44
ATOM     44  C   UNL     1      -0.699   5.086   6.362  1.00  0.00     0.243 C 
ATOM     45  O   UNL     1      -0.496   4.710   5.211  1.00  0.00    -0.273 OA
ATOM     46  N   UNL     1       0.191   5.900   7.029  1.00  0.00    -0.341 N 
ATOM     47  H   UNL     1       0.043   6.090   8.017  1.00  0.00     0.164 HD
BRANCH  46  48
ATOM     48  C   UNL     1       1.413   6.430   6.418  1.00  0.00     0.196 C 
BRANCH  48  49
ATOM     49  C   UNL     1       1.258   7.916   6.055  1.00  0.00     0.072 C 
BRANCH  49  50
ATOM     50  C   UNL     1       0.462   8.126   4.787  1.00  0.00    -0.045 A 
ATOM     51  C   UNL     1      -0.648   8.983   4.792  1.00  0.00     0.007 A 
ATOM     52  C   UNL     1       0.803   7.459   3.604  1.00  0.00     0.007 A 
ATOM     53  C   UNL     1      -1.397   9.174   3.631  1.00  0.00     0.046 A 
ATOM     54  C   UNL     1       0.052   7.649   2.442  1.00  0.00     0.046 A 
ATOM     55  C   UNL     1      -1.042   8.507   2.466  1.00  0.00     0.115 A 
BRANCH  55  56
ATOM     56  O   UNL     1      -1.802   8.720   1.353  1.00  0.00    -0.508 OA
ATOM     57  H   UNL     1      -1.228   9.068   0.653  1.00  0.00     0.293 HD
ENDBRANCH  55  56
ENDBRANCH  49  50
ENDBRANCH  48  49
BRANCH  48  58
ATOM     58  C   UNL     1       2.578   6.258   7.402  1.00  0.00     0.326 C 
ATOM     59  O   UNL     1       3.437   7.079   7.681  1.00  0.00    -0.250 OA
BRANCH  58  60
ATOM     60  O   UNL     1       2.599   5.045   8.010  1.00  0.00    -0.480 OA
ATOM     61  H   UNL     1       3.526   4.745   7.883  1.00  0.00     0.296 HD
ENDBRANCH  58  60
ENDBRANCH  48  58
ENDBRANCH  46  48
ENDBRANCH  34  44
ENDBRANCH  32  34
ENDBRANCH  25  30
ENDBRANCH  23  25
ENDBRANCH   2  23
TORSDOF 28
ENDMDL
MODEL 28
REMARK VINA RESULT:    -6.161     13.036     19.431
REMARK INTER + INTRA:         -20.515
REMARK INTER:                 -16.644
REMARK INTRA:                  -3.872
REMARK UNBOUND:                -5.170
REMARK SMILES CCCCCCC[C@H](N)[C@H](O)C(=O)N[C@H](C)C(=O)N(C)[C@H](CC(C)C)C(=O)N[C@@H](Cc1ccc(O)cc1)C(=O)N[C@@H](Cc1ccc(O)cc1)C(=O)O
REMARK SMILES IDX 18 1 17 2 15 3 16 4 14 5 12 6 13 7 10 9 11 10 8 12 9 13 7 16
REMARK SMILES IDX 6 17 5 18 4 19 3 20 2 21 1 22 19 23 20 24 21 25 22 26 23 27
REMARK SMILES IDX 24 28 25 29 26 30 27 31 28 32 29 34 30 35 31 36 32 37 37 38
REMARK SMILES IDX 33 39 36 40 34 41 35 42 38 44 39 45 40 46 41 48 42 49 43 50
REMARK SMILES IDX 44 51 49 52 45 53 48 54 46 55 47 56 50 58 51 59 52 60
REMARK H PARENT 14 8 11 11 9 14 9 15 28 33 35 43 40 47 47 57 52 61
ROOT
ATOM      1  O   UNL     1      -4.807   5.908  -7.374  1.00  0.00    -0.272 OA
ATOM      2  C   UNL     1      -5.578   5.125  -7.948  1.00  0.00     0.245 C 
ENDROOT
BRANCH   2   3
ATOM      3  C   UNL     1      -5.130   4.494  -9.290  1.00  0.00     0.168 C 
ATOM      4  C   UNL     1      -4.252   5.460 -10.076  1.00  0.00     0.041 C 
BRANCH   3   5
ATOM      5  N   UNL     1      -4.519   3.179  -9.173  1.00  0.00    -0.342 N 
ATOM      6  C   UNL     1      -5.132   2.045  -9.661  1.00  0.00     0.251 C 
ATOM      7  O   UNL     1      -6.240   2.048 -10.187  1.00  0.00    -0.272 OA
ATOM      8  H   UNL     1      -3.615   3.045  -8.725  1.00  0.00     0.164 HD
BRANCH   6   9
ATOM      9  C   UNL     1      -4.243   0.795  -9.555  1.00  0.00     0.219 C 
BRANCH   9  10
ATOM     10  O   UNL     1      -4.674  -0.264 -10.418  1.00  0.00    -0.382 OA
ATOM     11  H   UNL     1      -5.342   0.165 -10.996  1.00  0.00     0.211 HD
ENDBRANCH   9  10
BRANCH   9  12
ATOM     12  C   UNL     1      -2.737   1.100  -9.767  1.00  0.00     0.089 C 
BRANCH  12  13
ATOM     13  N   UNL     1      -1.950   0.176  -8.918  1.00  0.00    -0.325 NA
ATOM     14  H   UNL     1      -1.904  -0.739  -9.371  1.00  0.00     0.119 HD
ATOM     15  H   UNL     1      -2.456   0.017  -8.044  1.00  0.00     0.119 HD
ENDBRANCH  12  13
BRANCH  12  16
ATOM     16  C   UNL     1      -2.232   1.040 -11.228  1.00  0.00     0.022 C 
BRANCH  16  17
ATOM     17  C   UNL     1      -1.301  -0.104 -11.651  1.00  0.00     0.002 C 
BRANCH  17  18
ATOM     18  C   UNL     1      -0.307   0.247 -12.756  1.00  0.00     0.000 C 
BRANCH  18  19
ATOM     19  C   UNL     1       0.669   1.371 -12.383  1.00  0.00    -0.000 C 
BRANCH  19  20
ATOM     20  C   UNL     1       1.555   1.086 -11.167  1.00  0.00    -0.000 C 
BRANCH  20  21
ATOM     21  C   UNL     1       1.871   2.341 -10.348  1.00  0.00    -0.003 C 
ATOM     22  C   UNL     1       0.603   3.094  -9.977  1.00  0.00     0.004 C 
ENDBRANCH  20  21
ENDBRANCH  19  20
ENDBRANCH  18  19
ENDBRANCH  17  18
ENDBRANCH  16  17
ENDBRANCH  12  16
ENDBRANCH   9  12
ENDBRANCH   6   9
ENDBRANCH   3   5
ENDBRANCH   2   3
BRANCH   2  23
ATOM     23  N   UNL     1      -6.761   4.735  -7.329  1.00  0.00    -0.332 N 
ATOM     24  C   UNL     1      -8.087   4.901  -7.905  1.00  0.00     0.147 C 
BRANCH  23  25
ATOM     25  C   UNL     1      -6.725   3.982  -6.045  1.00  0.00     0.174 C 
BRANCH  25  26
ATOM     26  C   UNL     1      -7.892   2.977  -5.904  1.00  0.00     0.038 C 
BRANCH  26  27
ATOM     27  C   UNL     1      -7.537   1.476  -5.994  1.00  0.00    -0.015 C 
ATOM     28  C   UNL     1      -6.029   1.234  -6.051  1.00  0.00     0.007 C 
ATOM     29  C   UNL     1      -8.174   0.634  -4.890  1.00  0.00     0.007 C 
ENDBRANCH  26  27
ENDBRANCH  25  26
BRANCH  25  30
ATOM     30  C   UNL     1      -6.603   4.963  -4.856  1.00  0.00     0.243 C 
ATOM     31  O   UNL     1      -7.506   5.744  -4.562  1.00  0.00    -0.273 OA
ATOM     32  N   UNL     1      -5.422   4.907  -4.161  1.00  0.00    -0.342 N 
ATOM     33  H   UNL     1      -4.781   4.139  -4.376  1.00  0.00     0.164 HD
BRANCH  32  34
ATOM     34  C   UNL     1      -5.120   5.780  -3.023  1.00  0.00     0.175 C 
BRANCH  34  35
ATOM     35  C   UNL     1      -5.041   4.982  -1.713  1.00  0.00     0.070 C 
BRANCH  35  36
ATOM     36  C   UNL     1      -6.086   3.892  -1.627  1.00  0.00    -0.045 A 
ATOM     37  C   UNL     1      -7.423   4.222  -1.356  1.00  0.00     0.007 A 
ATOM     38  C   UNL     1      -5.736   2.546  -1.793  1.00  0.00     0.007 A 
ATOM     39  C   UNL     1      -8.391   3.223  -1.261  1.00  0.00     0.046 A 
ATOM     40  C   UNL     1      -6.705   1.545  -1.697  1.00  0.00     0.046 A 
ATOM     41  C   UNL     1      -8.026   1.893  -1.433  1.00  0.00     0.115 A 
BRANCH  41  42
ATOM     42  O   UNL     1      -9.002   0.947  -1.330  1.00  0.00    -0.508 OA
ATOM     43  H   UNL     1      -9.306   0.922  -0.407  1.00  0.00     0.293 HD
ENDBRANCH  41  42
ENDBRANCH  35  36
ENDBRANCH  34  35
BRANCH  34  44
ATOM     44  C   UNL     1      -3.800   6.523  -3.327  1.00  0.00     0.243 C 
ATOM     45  O   UNL     1      -3.257   6.551  -4.428  1.00  0.00    -0.273 OA
ATOM     46  N   UNL     1      -3.200   7.057  -2.207  1.00  0.00    -0.341 N 
ATOM     47  H   UNL     1      -3.630   6.907  -1.297  1.00  0.00     0.164 HD
BRANCH  46  48
ATOM     48  C   UNL     1      -1.909   7.748  -2.235  1.00  0.00     0.196 C 
BRANCH  48  49
ATOM     49  C   UNL     1      -2.080   9.242  -2.557  1.00  0.00     0.072 C 
BRANCH  49  50
ATOM     50  C   UNL     1      -1.690   9.579  -3.979  1.00  0.00    -0.045 A 
ATOM     51  C   UNL     1      -0.691   8.836  -4.625  1.00  0.00     0.007 A 
ATOM     52  C   UNL     1      -2.298  10.641  -4.660  1.00  0.00     0.007 A 
ATOM     53  C   UNL     1      -0.314   9.146  -5.931  1.00  0.00     0.046 A 
ATOM     54  C   UNL     1      -1.919  10.953  -5.968  1.00  0.00     0.046 A 
ATOM     55  C   UNL     1      -0.930  10.201  -6.593  1.00  0.00     0.115 A 
BRANCH  55  56
ATOM     56  O   UNL     1      -0.531  10.473  -7.868  1.00  0.00    -0.508 OA
ATOM     57  H   UNL     1       0.398  10.207  -7.962  1.00  0.00     0.293 HD
ENDBRANCH  55  56
ENDBRANCH  49  50
ENDBRANCH  48  49
BRANCH  48  58
ATOM     58  C   UNL     1      -1.228   7.591  -0.869  1.00  0.00     0.326 C 
ATOM     59  O   UNL     1      -1.769   7.417   0.211  1.00  0.00    -0.250 OA
BRANCH  58  60
ATOM     60  O   UNL     1       0.126   7.646  -0.929  1.00  0.00    -0.480 OA
ATOM     61  H   UNL     1       0.348   8.402  -0.344  1.00  0.00     0.296 HD
ENDBRANCH  58  60
ENDBRANCH  48  58
ENDBRANCH  46  48
ENDBRANCH  34  44
ENDBRANCH  32  34
ENDBRANCH  25  30
ENDBRANCH  23  25
ENDBRANCH   2  23
TORSDOF 28
ENDMDL
MODEL 29
REMARK VINA RESULT:    -6.152      2.655      8.391
REMARK INTER + INTRA:         -20.494
REMARK INTER:                 -14.896
REMARK INTRA:                  -5.598
REMARK UNBOUND:                -5.170
REMARK SMILES CCCCCCC[C@H](N)[C@H](O)C(=O)N[C@H](C)C(=O)N(C)[C@H](CC(C)C)C(=O)N[C@@H](Cc1ccc(O)cc1)C(=O)N[C@@H](Cc1ccc(O)cc1)C(=O)O
REMARK SMILES IDX 18 1 17 2 15 3 16 4 14 5 12 6 13 7 10 9 11 10 8 12 9 13 7 16
REMARK SMILES IDX 6 17 5 18 4 19 3 20 2 21 1 22 19 23 20 24 21 25 22 26 23 27
REMARK SMILES IDX 24 28 25 29 26 30 27 31 28 32 29 34 30 35 31 36 32 37 37 38
REMARK SMILES IDX 33 39 36 40 34 41 35 42 38 44 39 45 40 46 41 48 42 49 43 50
REMARK SMILES IDX 44 51 49 52 45 53 48 54 46 55 47 56 50 58 51 59 52 60
REMARK H PARENT 14 8 11 11 9 14 9 15 28 33 35 43 40 47 47 57 52 61
ROOT
ATOM      1  O   UNL     1      -8.450   7.385   7.535  1.00  0.00    -0.272 OA
ATOM      2  C   UNL     1      -8.161   8.554   7.243  1.00  0.00     0.245 C 
ENDROOT
BRANCH   2   3
ATOM      3  C   UNL     1      -6.880   8.815   6.412  1.00  0.00     0.168 C 
ATOM      4  C   UNL     1      -6.769  10.289   6.035  1.00  0.00     0.041 C 
BRANCH   3   5
ATOM      5  N   UNL     1      -5.652   8.315   7.009  1.00  0.00    -0.342 N 
ATOM      6  C   UNL     1      -5.011   7.194   6.525  1.00  0.00     0.251 C 
ATOM      7  O   UNL     1      -5.439   6.518   5.595  1.00  0.00    -0.272 OA
ATOM      8  H   UNL     1      -5.219   8.772   7.808  1.00  0.00     0.164 HD
BRANCH   6   9
ATOM      9  C   UNL     1      -3.662   6.935   7.216  1.00  0.00     0.219 C 
BRANCH   9  10
ATOM     10  O   UNL     1      -3.806   6.261   8.472  1.00  0.00    -0.382 OA
ATOM     11  H   UNL     1      -3.431   6.897   9.120  1.00  0.00     0.211 HD
ENDBRANCH   9  10
BRANCH   9  12
ATOM     12  C   UNL     1      -2.644   6.198   6.308  1.00  0.00     0.089 C 
BRANCH  12  13
ATOM     13  N   UNL     1      -2.123   7.162   5.311  1.00  0.00    -0.325 NA
ATOM     14  H   UNL     1      -2.908   7.642   4.866  1.00  0.00     0.119 HD
ATOM     15  H   UNL     1      -1.665   6.644   4.557  1.00  0.00     0.119 HD
ENDBRANCH  12  13
BRANCH  12  16
ATOM     16  C   UNL     1      -1.470   5.498   7.034  1.00  0.00     0.022 C 
BRANCH  16  17
ATOM     17  C   UNL     1      -1.348   3.970   6.955  1.00  0.00     0.002 C 
BRANCH  17  18
ATOM     18  C   UNL     1      -1.878   3.347   5.666  1.00  0.00     0.000 C 
BRANCH  18  19
ATOM     19  C   UNL     1      -3.136   2.490   5.857  1.00  0.00    -0.000 C 
BRANCH  19  20
ATOM     20  C   UNL     1      -4.430   3.106   5.320  1.00  0.00    -0.000 C 
BRANCH  20  21
ATOM     21  C   UNL     1      -5.663   2.725   6.143  1.00  0.00    -0.003 C 
ATOM     22  C   UNL     1      -5.784   3.585   7.392  1.00  0.00     0.004 C 
ENDBRANCH  20  21
ENDBRANCH  19  20
ENDBRANCH  18  19
ENDBRANCH  17  18
ENDBRANCH  16  17
ENDBRANCH  12  16
ENDBRANCH   9  12
ENDBRANCH   6   9
ENDBRANCH   3   5
ENDBRANCH   2   3
BRANCH   2  23
ATOM     23  N   UNL     1      -9.040   9.587   7.553  1.00  0.00    -0.332 N 
ATOM     24  C   UNL     1     -10.142  10.016   6.705  1.00  0.00     0.147 C 
BRANCH  23  25
ATOM     25  C   UNL     1      -8.976  10.253   8.883  1.00  0.00     0.174 C 
BRANCH  25  26
ATOM     26  C   UNL     1      -9.134  11.789   8.795  1.00  0.00     0.038 C 
BRANCH  26  27
ATOM     27  C   UNL     1      -9.803  12.494   9.996  1.00  0.00    -0.015 C 
ATOM     28  C   UNL     1     -10.816  11.599  10.709  1.00  0.00     0.007 C 
ATOM     29  C   UNL     1      -8.804  13.075  10.993  1.00  0.00     0.007 C 
ENDBRANCH  26  27
ENDBRANCH  25  26
BRANCH  25  30
ATOM     30  C   UNL     1      -7.709   9.801   9.644  1.00  0.00     0.243 C 
ATOM     31  O   UNL     1      -6.628  10.371   9.504  1.00  0.00    -0.273 OA
ATOM     32  N   UNL     1      -7.870   8.723  10.476  1.00  0.00    -0.342 N 
ATOM     33  H   UNL     1      -8.824   8.394  10.647  1.00  0.00     0.164 HD
BRANCH  32  34
ATOM     34  C   UNL     1      -6.774   8.141  11.255  1.00  0.00     0.175 C 
BRANCH  34  35
ATOM     35  C   UNL     1      -7.152   8.007  12.739  1.00  0.00     0.070 C 
BRANCH  35  36
ATOM     36  C   UNL     1      -7.783   9.263  13.297  1.00  0.00    -0.045 A 
ATOM     37  C   UNL     1      -6.984  10.379  13.590  1.00  0.00     0.007 A 
ATOM     38  C   UNL     1      -9.159   9.324  13.550  1.00  0.00     0.007 A 
ATOM     39  C   UNL     1      -7.556  11.537  14.118  1.00  0.00     0.046 A 
ATOM     40  C   UNL     1      -9.732  10.483  14.080  1.00  0.00     0.046 A 
ATOM     41  C   UNL     1      -8.924  11.580  14.358  1.00  0.00     0.115 A 
BRANCH  41  42
ATOM     42  O   UNL     1      -9.442  12.729  14.878  1.00  0.00    -0.508 OA
ATOM     43  H   UNL     1     -10.320  12.530  15.243  1.00  0.00     0.293 HD
ENDBRANCH  41  42
ENDBRANCH  35  36
ENDBRANCH  34  35
BRANCH  34  44
ATOM     44  C   UNL     1      -6.411   6.776  10.627  1.00  0.00     0.243 C 
ATOM     45  O   UNL     1      -6.458   6.532   9.424  1.00  0.00    -0.273 OA
ATOM     46  N   UNL     1      -6.149   5.795  11.559  1.00  0.00    -0.341 N 
ATOM     47  H   UNL     1      -6.238   6.016  12.548  1.00  0.00     0.164 HD
BRANCH  46  48
ATOM     48  C   UNL     1      -5.849   4.406  11.204  1.00  0.00     0.196 C 
BRANCH  48  49
ATOM     49  C   UNL     1      -4.443   3.999  11.674  1.00  0.00     0.072 C 
BRANCH  49  50
ATOM     50  C   UNL     1      -3.995   2.677  11.093  1.00  0.00    -0.045 A 
ATOM     51  C   UNL     1      -3.439   2.632   9.806  1.00  0.00     0.007 A 
ATOM     52  C   UNL     1      -4.145   1.485  11.813  1.00  0.00     0.007 A 
ATOM     53  C   UNL     1      -3.034   1.416   9.255  1.00  0.00     0.046 A 
ATOM     54  C   UNL     1      -3.741   0.268  11.261  1.00  0.00     0.046 A 
ATOM     55  C   UNL     1      -3.187   0.244   9.985  1.00  0.00     0.115 A 
BRANCH  55  56
ATOM     56  O   UNL     1      -2.781  -0.923   9.409  1.00  0.00    -0.508 OA
ATOM     57  H   UNL     1      -3.521  -1.550   9.434  1.00  0.00     0.293 HD
ENDBRANCH  55  56
ENDBRANCH  49  50
ENDBRANCH  48  49
BRANCH  48  58
ATOM     58  C   UNL     1      -6.894   3.488  11.853  1.00  0.00     0.326 C 
ATOM     59  O   UNL     1      -7.545   2.610  11.310  1.00  0.00    -0.250 OA
BRANCH  58  60
ATOM     60  O   UNL     1      -7.063   3.713  13.180  1.00  0.00    -0.480 OA
ATOM     61  H   UNL     1      -6.256   3.321  13.580  1.00  0.00     0.296 HD
ENDBRANCH  58  60
ENDBRANCH  48  58
ENDBRANCH  46  48
ENDBRANCH  34  44
ENDBRANCH  32  34
ENDBRANCH  25  30
ENDBRANCH  23  25
ENDBRANCH   2  23
TORSDOF 28
ENDMDL
MODEL 30
REMARK VINA RESULT:    -6.125     13.263     19.504
REMARK INTER + INTRA:         -20.426
REMARK INTER:                 -16.268
REMARK INTRA:                  -4.158
REMARK UNBOUND:                -5.170
REMARK SMILES CCCCCCC[C@H](N)[C@H](O)C(=O)N[C@H](C)C(=O)N(C)[C@H](CC(C)C)C(=O)N[C@@H](Cc1ccc(O)cc1)C(=O)N[C@@H](Cc1ccc(O)cc1)C(=O)O
REMARK SMILES IDX 18 1 17 2 15 3 16 4 14 5 12 6 13 7 10 9 11 10 8 12 9 13 7 16
REMARK SMILES IDX 6 17 5 18 4 19 3 20 2 21 1 22 19 23 20 24 21 25 22 26 23 27
REMARK SMILES IDX 24 28 25 29 26 30 27 31 28 32 29 34 30 35 31 36 32 37 37 38
REMARK SMILES IDX 33 39 36 40 34 41 35 42 38 44 39 45 40 46 41 48 42 49 43 50
REMARK SMILES IDX 44 51 49 52 45 53 48 54 46 55 47 56 50 58 51 59 52 60
REMARK H PARENT 14 8 11 11 9 14 9 15 28 33 35 43 40 47 47 57 52 61
ROOT
ATOM      1  O   UNL     1      -7.289   1.935  -7.275  1.00  0.00    -0.272 OA
ATOM      2  C   UNL     1      -6.297   2.221  -7.963  1.00  0.00     0.245 C 
ENDROOT
BRANCH   2   3
ATOM      3  C   UNL     1      -5.036   1.329  -7.851  1.00  0.00     0.168 C 
ATOM      4  C   UNL     1      -5.391  -0.044  -7.289  1.00  0.00     0.041 C 
BRANCH   3   5
ATOM      5  N   UNL     1      -4.249   1.228  -9.071  1.00  0.00    -0.342 N 
ATOM      6  C   UNL     1      -2.897   0.957  -9.044  1.00  0.00     0.251 C 
ATOM      7  O   UNL     1      -2.254   0.823  -8.009  1.00  0.00    -0.272 OA
ATOM      8  H   UNL     1      -4.666   1.354  -9.990  1.00  0.00     0.164 HD
BRANCH   6   9
ATOM      9  C   UNL     1      -2.304   0.755 -10.448  1.00  0.00     0.219 C 
BRANCH   9  10
ATOM     10  O   UNL     1      -3.130  -0.063 -11.285  1.00  0.00    -0.382 OA
ATOM     11  H   UNL     1      -4.034   0.290 -11.133  1.00  0.00     0.211 HD
ENDBRANCH   9  10
BRANCH   9  12
ATOM     12  C   UNL     1      -1.952   2.089 -11.158  1.00  0.00     0.089 C 
BRANCH  12  13
ATOM     13  N   UNL     1      -3.213   2.748 -11.567  1.00  0.00    -0.325 NA
ATOM     14  H   UNL     1      -3.672   2.180 -12.283  1.00  0.00     0.119 HD
ATOM     15  H   UNL     1      -2.990   3.632 -12.030  1.00  0.00     0.119 HD
ENDBRANCH  12  13
BRANCH  12  16
ATOM     16  C   UNL     1      -1.075   3.076 -10.350  1.00  0.00     0.022 C 
BRANCH  16  17
ATOM     17  C   UNL     1       0.342   3.394 -10.847  1.00  0.00     0.002 C 
BRANCH  17  18
ATOM     18  C   UNL     1       1.467   2.733 -10.053  1.00  0.00     0.000 C 
BRANCH  18  19
ATOM     19  C   UNL     1       1.003   2.060  -8.754  1.00  0.00    -0.000 C 
BRANCH  19  20
ATOM     20  C   UNL     1       1.087   0.531  -8.748  1.00  0.00    -0.000 C 
BRANCH  20  21
ATOM     21  C   UNL     1       1.401  -0.058 -10.126  1.00  0.00    -0.003 C 
ATOM     22  C   UNL     1       0.783  -1.437 -10.292  1.00  0.00     0.004 C 
ENDBRANCH  20  21
ENDBRANCH  19  20
ENDBRANCH  18  19
ENDBRANCH  17  18
ENDBRANCH  16  17
ENDBRANCH  12  16
ENDBRANCH   9  12
ENDBRANCH   6   9
ENDBRANCH   3   5
ENDBRANCH   2   3
BRANCH   2  23
ATOM     23  N   UNL     1      -6.373   3.246  -8.899  1.00  0.00    -0.332 N 
ATOM     24  C   UNL     1      -6.977   3.119 -10.217  1.00  0.00     0.147 C 
BRANCH  23  25
ATOM     25  C   UNL     1      -5.933   4.623  -8.542  1.00  0.00     0.174 C 
BRANCH  25  26
ATOM     26  C   UNL     1      -4.448   4.889  -8.884  1.00  0.00     0.038 C 
BRANCH  26  27
ATOM     27  C   UNL     1      -4.151   6.052  -9.857  1.00  0.00    -0.015 C 
ATOM     28  C   UNL     1      -2.655   6.329  -9.997  1.00  0.00     0.007 C 
ATOM     29  C   UNL     1      -4.796   5.874 -11.230  1.00  0.00     0.007 C 
ENDBRANCH  26  27
ENDBRANCH  25  26
BRANCH  25  30
ATOM     30  C   UNL     1      -6.298   4.934  -7.072  1.00  0.00     0.243 C 
ATOM     31  O   UNL     1      -7.380   5.431  -6.762  1.00  0.00    -0.273 OA
ATOM     32  N   UNL     1      -5.337   4.625  -6.145  1.00  0.00    -0.342 N 
ATOM     33  H   UNL     1      -4.527   4.086  -6.463  1.00  0.00     0.164 HD
BRANCH  32  34
ATOM     34  C   UNL     1      -5.498   4.874  -4.710  1.00  0.00     0.175 C 
BRANCH  34  35
ATOM     35  C   UNL     1      -4.843   3.765  -3.872  1.00  0.00     0.070 C 
BRANCH  35  36
ATOM     36  C   UNL     1      -5.853   2.926  -3.122  1.00  0.00    -0.045 A 
ATOM     37  C   UNL     1      -6.809   2.181  -3.828  1.00  0.00     0.007 A 
ATOM     38  C   UNL     1      -5.865   2.898  -1.721  1.00  0.00     0.007 A 
ATOM     39  C   UNL     1      -7.754   1.415  -3.144  1.00  0.00     0.046 A 
ATOM     40  C   UNL     1      -6.811   2.132  -1.035  1.00  0.00     0.046 A 
ATOM     41  C   UNL     1      -7.747   1.396  -1.754  1.00  0.00     0.115 A 
BRANCH  41  42
ATOM     42  O   UNL     1      -8.688   0.637  -1.124  1.00  0.00    -0.508 OA
ATOM     43  H   UNL     1      -8.290   0.261  -0.322  1.00  0.00     0.293 HD
ENDBRANCH  41  42
ENDBRANCH  35  36
ENDBRANCH  34  35
BRANCH  34  44
ATOM     44  C   UNL     1      -4.899   6.264  -4.396  1.00  0.00     0.243 C 
ATOM     45  O   UNL     1      -5.553   7.233  -4.020  1.00  0.00    -0.273 OA
ATOM     46  N   UNL     1      -3.558   6.366  -4.702  1.00  0.00    -0.341 N 
ATOM     47  H   UNL     1      -3.086   5.569  -5.122  1.00  0.00     0.164 HD
BRANCH  46  48
ATOM     48  C   UNL     1      -2.790   7.604  -4.555  1.00  0.00     0.196 C 
BRANCH  48  49
ATOM     49  C   UNL     1      -1.468   7.357  -3.808  1.00  0.00     0.072 C 
BRANCH  49  50
ATOM     50  C   UNL     1      -1.479   7.918  -2.404  1.00  0.00    -0.045 A 
ATOM     51  C   UNL     1      -1.865   7.105  -1.329  1.00  0.00     0.007 A 
ATOM     52  C   UNL     1      -1.130   9.252  -2.159  1.00  0.00     0.007 A 
ATOM     53  C   UNL     1      -1.891   7.616  -0.031  1.00  0.00     0.046 A 
ATOM     54  C   UNL     1      -1.158   9.764  -0.859  1.00  0.00     0.046 A 
ATOM     55  C   UNL     1      -1.538   8.940   0.194  1.00  0.00     0.115 A 
BRANCH  55  56
ATOM     56  O   UNL     1      -1.579   9.401   1.477  1.00  0.00    -0.508 OA
ATOM     57  H   UNL     1      -1.992  10.280   1.473  1.00  0.00     0.293 HD
ENDBRANCH  55  56
ENDBRANCH  49  50
ENDBRANCH  48  49
BRANCH  48  58
ATOM     58  C   UNL     1      -2.495   8.177  -5.947  1.00  0.00     0.326 C 
ATOM     59  O   UNL     1      -1.565   8.900  -6.267  1.00  0.00    -0.250 OA
BRANCH  58  60
ATOM     60  O   UNL     1      -3.392   7.796  -6.891  1.00  0.00    -0.480 OA
ATOM     61  H   UNL     1      -4.254   7.873  -6.428  1.00  0.00     0.296 HD
ENDBRANCH  58  60
ENDBRANCH  48  58
ENDBRANCH  46  48
ENDBRANCH  34  44
ENDBRANCH  32  34
ENDBRANCH  25  30
ENDBRANCH  23  25
ENDBRANCH   2  23
TORSDOF 28
ENDMDL
MODEL 31
REMARK VINA RESULT:    -6.098      2.517      5.154
REMARK INTER + INTRA:         -20.357
REMARK INTER:                 -16.061
REMARK INTRA:                  -4.296
REMARK UNBOUND:                -5.170
REMARK SMILES CCCCCCC[C@H](N)[C@H](O)C(=O)N[C@H](C)C(=O)N(C)[C@H](CC(C)C)C(=O)N[C@@H](Cc1ccc(O)cc1)C(=O)N[C@@H](Cc1ccc(O)cc1)C(=O)O
REMARK SMILES IDX 18 1 17 2 15 3 16 4 14 5 12 6 13 7 10 9 11 10 8 12 9 13 7 16
REMARK SMILES IDX 6 17 5 18 4 19 3 20 2 21 1 22 19 23 20 24 21 25 22 26 23 27
REMARK SMILES IDX 24 28 25 29 26 30 27 31 28 32 29 34 30 35 31 36 32 37 37 38
REMARK SMILES IDX 33 39 36 40 34 41 35 42 38 44 39 45 40 46 41 48 42 49 43 50
REMARK SMILES IDX 44 51 49 52 45 53 48 54 46 55 47 56 50 58 51 59 52 60
REMARK H PARENT 14 8 11 11 9 14 9 15 28 33 35 43 40 47 47 57 52 61
ROOT
ATOM      1  O   UNL     1      -4.981   3.448   9.406  1.00  0.00    -0.272 OA
ATOM      2  C   UNL     1      -5.842   4.340   9.431  1.00  0.00     0.245 C 
ENDROOT
BRANCH   2   3
ATOM      3  C   UNL     1      -7.084   4.146  10.337  1.00  0.00     0.168 C 
ATOM      4  C   UNL     1      -7.174   2.706  10.831  1.00  0.00     0.041 C 
BRANCH   3   5
ATOM      5  N   UNL     1      -7.200   5.102  11.427  1.00  0.00    -0.342 N 
ATOM      6  C   UNL     1      -6.213   5.243  12.380  1.00  0.00     0.251 C 
ATOM      7  O   UNL     1      -5.196   4.558  12.407  1.00  0.00    -0.272 OA
ATOM      8  H   UNL     1      -8.015   5.702  11.530  1.00  0.00     0.164 HD
BRANCH   6   9
ATOM      9  C   UNL     1      -6.484   6.406  13.348  1.00  0.00     0.219 C 
BRANCH   9  10
ATOM     10  O   UNL     1      -5.321   6.785  14.095  1.00  0.00    -0.382 OA
ATOM     11  H   UNL     1      -5.653   6.860  15.016  1.00  0.00     0.211 HD
ENDBRANCH   9  10
BRANCH   9  12
ATOM     12  C   UNL     1      -7.120   7.640  12.655  1.00  0.00     0.089 C 
BRANCH  12  13
ATOM     13  N   UNL     1      -8.582   7.422  12.564  1.00  0.00    -0.325 NA
ATOM     14  H   UNL     1      -8.785   6.843  11.748  1.00  0.00     0.119 HD
ATOM     15  H   UNL     1      -9.038   8.318  12.376  1.00  0.00     0.119 HD
ENDBRANCH  12  13
BRANCH  12  16
ATOM     16  C   UNL     1      -6.826   9.011  13.310  1.00  0.00     0.022 C 
BRANCH  16  17
ATOM     17  C   UNL     1      -7.353  10.287  12.639  1.00  0.00     0.002 C 
BRANCH  17  18
ATOM     18  C   UNL     1      -7.697  11.425  13.598  1.00  0.00     0.000 C 
BRANCH  18  19
ATOM     19  C   UNL     1      -9.189  11.780  13.636  1.00  0.00    -0.000 C 
BRANCH  19  20
ATOM     20  C   UNL     1      -9.843  11.689  15.018  1.00  0.00    -0.000 C 
BRANCH  20  21
ATOM     21  C   UNL     1     -10.713  10.441  15.188  1.00  0.00    -0.003 C 
ATOM     22  C   UNL     1     -12.167  10.809  15.440  1.00  0.00     0.004 C 
ENDBRANCH  20  21
ENDBRANCH  19  20
ENDBRANCH  18  19
ENDBRANCH  17  18
ENDBRANCH  16  17
ENDBRANCH  12  16
ENDBRANCH   9  12
ENDBRANCH   6   9
ENDBRANCH   3   5
ENDBRANCH   2   3
BRANCH   2  23
ATOM     23  N   UNL     1      -5.626   5.535   8.753  1.00  0.00    -0.332 N 
ATOM     24  C   UNL     1      -6.503   6.072   7.724  1.00  0.00     0.147 C 
BRANCH  23  25
ATOM     25  C   UNL     1      -4.504   6.431   9.149  1.00  0.00     0.174 C 
BRANCH  25  26
ATOM     26  C   UNL     1      -4.964   7.878   9.444  1.00  0.00     0.038 C 
BRANCH  26  27
ATOM     27  C   UNL     1      -3.938   8.814  10.120  1.00  0.00    -0.015 C 
ATOM     28  C   UNL     1      -4.391  10.274  10.121  1.00  0.00     0.007 C 
ATOM     29  C   UNL     1      -3.547   8.372  11.528  1.00  0.00     0.007 C 
ENDBRANCH  26  27
ENDBRANCH  25  26
BRANCH  25  30
ATOM     30  C   UNL     1      -3.360   6.341   8.113  1.00  0.00     0.243 C 
ATOM     31  O   UNL     1      -3.213   7.187   7.233  1.00  0.00    -0.273 OA
ATOM     32  N   UNL     1      -2.530   5.257   8.238  1.00  0.00    -0.342 N 
ATOM     33  H   UNL     1      -2.630   4.678   9.076  1.00  0.00     0.164 HD
BRANCH  32  34
ATOM     34  C   UNL     1      -1.411   4.995   7.329  1.00  0.00     0.175 C 
BRANCH  34  35
ATOM     35  C   UNL     1      -0.078   4.926   8.090  1.00  0.00     0.070 C 
BRANCH  35  36
ATOM     36  C   UNL     1       0.989   5.808   7.482  1.00  0.00    -0.045 A 
ATOM     37  C   UNL     1       0.770   6.416   6.236  1.00  0.00     0.007 A 
ATOM     38  C   UNL     1       2.211   6.014   8.135  1.00  0.00     0.007 A 
ATOM     39  C   UNL     1       1.754   7.221   5.660  1.00  0.00     0.046 A 
ATOM     40  C   UNL     1       3.197   6.818   7.559  1.00  0.00     0.046 A 
ATOM     41  C   UNL     1       2.958   7.416   6.326  1.00  0.00     0.115 A 
BRANCH  41  42
ATOM     42  O   UNL     1       3.894   8.207   5.727  1.00  0.00    -0.508 OA
ATOM     43  H   UNL     1       3.456   8.721   5.029  1.00  0.00     0.293 HD
ENDBRANCH  41  42
ENDBRANCH  35  36
ENDBRANCH  34  35
BRANCH  34  44
ATOM     44  C   UNL     1      -1.709   3.684   6.568  1.00  0.00     0.243 C 
ATOM     45  O   UNL     1      -1.438   3.491   5.386  1.00  0.00    -0.273 OA
ATOM     46  N   UNL     1      -2.438   2.774   7.305  1.00  0.00    -0.341 N 
ATOM     47  H   UNL     1      -2.741   3.028   8.242  1.00  0.00     0.164 HD
BRANCH  46  48
ATOM     48  C   UNL     1      -2.898   1.489   6.773  1.00  0.00     0.196 C 
BRANCH  48  49
ATOM     49  C   UNL     1      -2.635   0.346   7.767  1.00  0.00     0.072 C 
BRANCH  49  50
ATOM     50  C   UNL     1      -2.760   0.787   9.208  1.00  0.00    -0.045 A 
ATOM     51  C   UNL     1      -1.810   1.661   9.757  1.00  0.00     0.007 A 
ATOM     52  C   UNL     1      -3.804   0.320  10.017  1.00  0.00     0.007 A 
ATOM     53  C   UNL     1      -1.908   2.065  11.088  1.00  0.00     0.046 A 
ATOM     54  C   UNL     1      -3.901   0.724  11.351  1.00  0.00     0.046 A 
ATOM     55  C   UNL     1      -2.952   1.594  11.875  1.00  0.00     0.115 A 
BRANCH  55  56
ATOM     56  O   UNL     1      -3.010   2.011  13.172  1.00  0.00    -0.508 OA
ATOM     57  H   UNL     1      -2.866   2.971  13.191  1.00  0.00     0.293 HD
ENDBRANCH  55  56
ENDBRANCH  49  50
ENDBRANCH  48  49
BRANCH  48  58
ATOM     58  C   UNL     1      -4.401   1.580   6.478  1.00  0.00     0.326 C 
ATOM     59  O   UNL     1      -5.146   0.671   6.150  1.00  0.00    -0.250 OA
BRANCH  58  60
ATOM     60  O   UNL     1      -4.907   2.830   6.626  1.00  0.00    -0.480 OA
ATOM     61  H   UNL     1      -5.733   2.804   6.096  1.00  0.00     0.296 HD
ENDBRANCH  58  60
ENDBRANCH  48  58
ENDBRANCH  46  48
ENDBRANCH  34  44
ENDBRANCH  32  34
ENDBRANCH  25  30
ENDBRANCH  23  25
ENDBRANCH   2  23
TORSDOF 28
ENDMDL
MODEL 32
REMARK VINA RESULT:    -6.085     11.189     15.936
REMARK INTER + INTRA:         -20.325
REMARK INTER:                 -15.380
REMARK INTRA:                  -4.945
REMARK UNBOUND:                -5.170
REMARK SMILES CCCCCCC[C@H](N)[C@H](O)C(=O)N[C@H](C)C(=O)N(C)[C@H](CC(C)C)C(=O)N[C@@H](Cc1ccc(O)cc1)C(=O)N[C@@H](Cc1ccc(O)cc1)C(=O)O
REMARK SMILES IDX 18 1 17 2 15 3 16 4 14 5 12 6 13 7 10 9 11 10 8 12 9 13 7 16
REMARK SMILES IDX 6 17 5 18 4 19 3 20 2 21 1 22 19 23 20 24 21 25 22 26 23 27
REMARK SMILES IDX 24 28 25 29 26 30 27 31 28 32 29 34 30 35 31 36 32 37 37 38
REMARK SMILES IDX 33 39 36 40 34 41 35 42 38 44 39 45 40 46 41 48 42 49 43 50
REMARK SMILES IDX 44 51 49 52 45 53 48 54 46 55 47 56 50 58 51 59 52 60
REMARK H PARENT 14 8 11 11 9 14 9 15 28 33 35 43 40 47 47 57 52 61
ROOT
ATOM      1  O   UNL     1      -4.968   2.373  -3.525  1.00  0.00    -0.272 OA
ATOM      2  C   UNL     1      -5.982   3.019  -3.829  1.00  0.00     0.245 C 
ENDROOT
BRANCH   2   3
ATOM      3  C   UNL     1      -6.965   2.413  -4.861  1.00  0.00     0.168 C 
ATOM      4  C   UNL     1      -6.251   1.423  -5.774  1.00  0.00     0.041 C 
BRANCH   3   5
ATOM      5  N   UNL     1      -8.178   1.847  -4.291  1.00  0.00    -0.342 N 
ATOM      6  C   UNL     1      -9.427   2.340  -4.601  1.00  0.00     0.251 C 
ATOM      7  O   UNL     1      -9.611   3.304  -5.336  1.00  0.00    -0.272 OA
ATOM      8  H   UNL     1      -8.150   1.066  -3.640  1.00  0.00     0.164 HD
BRANCH   6   9
ATOM      9  C   UNL     1     -10.564   1.500  -3.997  1.00  0.00     0.219 C 
BRANCH   9  10
ATOM     10  O   UNL     1     -10.459   0.110  -4.325  1.00  0.00    -0.382 OA
ATOM     11  H   UNL     1     -11.312  -0.088  -4.770  1.00  0.00     0.211 HD
ENDBRANCH   9  10
BRANCH   9  12
ATOM     12  C   UNL     1     -10.718   1.694  -2.466  1.00  0.00     0.089 C 
BRANCH  12  13
ATOM     13  N   UNL     1      -9.743   0.813  -1.783  1.00  0.00    -0.325 NA
ATOM     14  H   UNL     1      -8.828   1.267  -1.774  1.00  0.00     0.119 HD
ATOM     15  H   UNL     1      -9.615  -0.034  -2.341  1.00  0.00     0.119 HD
ENDBRANCH  12  13
BRANCH  12  16
ATOM     16  C   UNL     1     -10.574   3.146  -1.949  1.00  0.00     0.022 C 
BRANCH  16  17
ATOM     17  C   UNL     1     -11.323   3.562  -0.675  1.00  0.00     0.002 C 
BRANCH  17  18
ATOM     18  C   UNL     1     -12.245   4.769  -0.834  1.00  0.00     0.000 C 
BRANCH  18  19
ATOM     19  C   UNL     1     -11.686   6.066  -0.235  1.00  0.00    -0.000 C 
BRANCH  19  20
ATOM     20  C   UNL     1     -10.716   5.877   0.934  1.00  0.00    -0.000 C 
BRANCH  20  21
ATOM     21  C   UNL     1      -9.447   6.724   0.804  1.00  0.00    -0.003 C 
ATOM     22  C   UNL     1      -9.225   7.171  -0.633  1.00  0.00     0.004 C 
ENDBRANCH  20  21
ENDBRANCH  19  20
ENDBRANCH  18  19
ENDBRANCH  17  18
ENDBRANCH  16  17
ENDBRANCH  12  16
ENDBRANCH   9  12
ENDBRANCH   6   9
ENDBRANCH   3   5
ENDBRANCH   2   3
BRANCH   2  23
ATOM     23  N   UNL     1      -6.279   4.202  -3.161  1.00  0.00    -0.332 N 
ATOM     24  C   UNL     1      -7.111   5.268  -3.698  1.00  0.00     0.147 C 
BRANCH  23  25
ATOM     25  C   UNL     1      -5.847   4.396  -1.749  1.00  0.00     0.174 C 
BRANCH  25  26
ATOM     26  C   UNL     1      -7.021   4.323  -0.745  1.00  0.00     0.038 C 
BRANCH  26  27
ATOM     27  C   UNL     1      -6.943   3.230   0.345  1.00  0.00    -0.015 C 
ATOM     28  C   UNL     1      -8.186   3.201   1.233  1.00  0.00     0.007 C 
ATOM     29  C   UNL     1      -6.646   1.839  -0.209  1.00  0.00     0.007 C 
ENDBRANCH  26  27
ENDBRANCH  25  26
BRANCH  25  30
ATOM     30  C   UNL     1      -5.001   5.684  -1.624  1.00  0.00     0.243 C 
ATOM     31  O   UNL     1      -5.409   6.672  -1.016  1.00  0.00    -0.273 OA
ATOM     32  N   UNL     1      -3.775   5.651  -2.238  1.00  0.00    -0.342 N 
ATOM     33  H   UNL     1      -3.451   4.750  -2.599  1.00  0.00     0.164 HD
BRANCH  32  34
ATOM     34  C   UNL     1      -2.852   6.788  -2.245  1.00  0.00     0.175 C 
BRANCH  34  35
ATOM     35  C   UNL     1      -1.552   6.457  -1.496  1.00  0.00     0.070 C 
BRANCH  35  36
ATOM     36  C   UNL     1      -1.196   7.495  -0.456  1.00  0.00    -0.045 A 
ATOM     37  C   UNL     1       0.097   7.527   0.090  1.00  0.00     0.007 A 
ATOM     38  C   UNL     1      -2.149   8.418  -0.006  1.00  0.00     0.007 A 
ATOM     39  C   UNL     1       0.430   8.472   1.060  1.00  0.00     0.046 A 
ATOM     40  C   UNL     1      -1.816   9.364   0.967  1.00  0.00     0.046 A 
ATOM     41  C   UNL     1      -0.527   9.383   1.490  1.00  0.00     0.115 A 
BRANCH  41  42
ATOM     42  O   UNL     1      -0.161  10.288   2.442  1.00  0.00    -0.508 OA
ATOM     43  H   UNL     1      -0.946  10.509   2.971  1.00  0.00     0.293 HD
ENDBRANCH  41  42
ENDBRANCH  35  36
ENDBRANCH  34  35
BRANCH  34  44
ATOM     44  C   UNL     1      -2.587   7.180  -3.717  1.00  0.00     0.243 C 
ATOM     45  O   UNL     1      -1.520   7.618  -4.136  1.00  0.00    -0.273 OA
ATOM     46  N   UNL     1      -3.711   7.116  -4.512  1.00  0.00    -0.341 N 
ATOM     47  H   UNL     1      -4.600   6.858  -4.091  1.00  0.00     0.164 HD
BRANCH  46  48
ATOM     48  C   UNL     1      -3.722   7.504  -5.924  1.00  0.00     0.196 C 
BRANCH  48  49
ATOM     49  C   UNL     1      -5.128   7.367  -6.532  1.00  0.00     0.072 C 
BRANCH  49  50
ATOM     50  C   UNL     1      -5.214   6.255  -7.553  1.00  0.00    -0.045 A 
ATOM     51  C   UNL     1      -4.359   6.259  -8.665  1.00  0.00     0.007 A 
ATOM     52  C   UNL     1      -6.153   5.225  -7.420  1.00  0.00     0.007 A 
ATOM     53  C   UNL     1      -4.438   5.246  -9.620  1.00  0.00     0.046 A 
ATOM     54  C   UNL     1      -6.234   4.211  -8.377  1.00  0.00     0.046 A 
ATOM     55  C   UNL     1      -5.374   4.230  -9.469  1.00  0.00     0.115 A 
BRANCH  55  56
ATOM     56  O   UNL     1      -5.420   3.259 -10.426  1.00  0.00    -0.508 OA
ATOM     57  H   UNL     1      -6.277   3.316 -10.878  1.00  0.00     0.293 HD
ENDBRANCH  55  56
ENDBRANCH  49  50
ENDBRANCH  48  49
BRANCH  48  58
ATOM     58  C   UNL     1      -3.249   8.959  -6.046  1.00  0.00     0.326 C 
ATOM     59  O   UNL     1      -3.820   9.959  -5.641  1.00  0.00    -0.250 OA
BRANCH  58  60
ATOM     60  O   UNL     1      -2.050   9.089  -6.668  1.00  0.00    -0.480 OA
ATOM     61  H   UNL     1      -1.422   8.675  -6.037  1.00  0.00     0.296 HD
ENDBRANCH  58  60
ENDBRANCH  48  58
ENDBRANCH  46  48
ENDBRANCH  34  44
ENDBRANCH  32  34
ENDBRANCH  25  30
ENDBRANCH  23  25
ENDBRANCH   2  23
TORSDOF 28
ENDMDL
MODEL 33
REMARK VINA RESULT:    -6.064     13.148     19.367
REMARK INTER + INTRA:         -20.274
REMARK INTER:                 -16.700
REMARK INTRA:                  -3.574
REMARK UNBOUND:                -5.170
REMARK SMILES CCCCCCC[C@H](N)[C@H](O)C(=O)N[C@H](C)C(=O)N(C)[C@H](CC(C)C)C(=O)N[C@@H](Cc1ccc(O)cc1)C(=O)N[C@@H](Cc1ccc(O)cc1)C(=O)O
REMARK SMILES IDX 18 1 17 2 15 3 16 4 14 5 12 6 13 7 10 9 11 10 8 12 9 13 7 16
REMARK SMILES IDX 6 17 5 18 4 19 3 20 2 21 1 22 19 23 20 24 21 25 22 26 23 27
REMARK SMILES IDX 24 28 25 29 26 30 27 31 28 32 29 34 30 35 31 36 32 37 37 38
REMARK SMILES IDX 33 39 36 40 34 41 35 42 38 44 39 45 40 46 41 48 42 49 43 50
REMARK SMILES IDX 44 51 49 52 45 53 48 54 46 55 47 56 50 58 51 59 52 60
REMARK H PARENT 14 8 11 11 9 14 9 15 28 33 35 43 40 47 47 57 52 61
ROOT
ATOM      1  O   UNL     1      -5.179   4.783  -7.670  1.00  0.00    -0.272 OA
ATOM      2  C   UNL     1      -5.491   3.606  -7.903  1.00  0.00     0.245 C 
ENDROOT
BRANCH   2   3
ATOM      3  C   UNL     1      -5.292   3.056  -9.337  1.00  0.00     0.168 C 
ATOM      4  C   UNL     1      -6.548   3.265 -10.177  1.00  0.00     0.041 C 
BRANCH   3   5
ATOM      5  N   UNL     1      -4.100   3.539 -10.016  1.00  0.00    -0.342 N 
ATOM      6  C   UNL     1      -3.322   2.712 -10.798  1.00  0.00     0.251 C 
ATOM      7  O   UNL     1      -3.545   1.515 -10.947  1.00  0.00    -0.272 OA
ATOM      8  H   UNL     1      -3.793   4.506  -9.940  1.00  0.00     0.164 HD
BRANCH   6   9
ATOM      9  C   UNL     1      -2.200   3.467 -11.529  1.00  0.00     0.219 C 
BRANCH   9  10
ATOM     10  O   UNL     1      -2.413   4.883 -11.556  1.00  0.00    -0.382 OA
ATOM     11  H   UNL     1      -3.142   4.995 -12.206  1.00  0.00     0.211 HD
ENDBRANCH   9  10
BRANCH   9  12
ATOM     12  C   UNL     1      -0.786   3.133 -10.985  1.00  0.00     0.089 C 
BRANCH  12  13
ATOM     13  N   UNL     1      -0.074   4.405 -10.724  1.00  0.00    -0.325 NA
ATOM     14  H   UNL     1      -0.694   5.188 -10.938  1.00  0.00     0.119 HD
ATOM     15  H   UNL     1       0.702   4.491 -11.384  1.00  0.00     0.119 HD
ENDBRANCH  12  13
BRANCH  12  16
ATOM     16  C   UNL     1      -0.739   2.230  -9.729  1.00  0.00     0.022 C 
BRANCH  16  17
ATOM     17  C   UNL     1       0.573   2.116  -8.940  1.00  0.00     0.002 C 
BRANCH  17  18
ATOM     18  C   UNL     1       1.533   1.039  -9.439  1.00  0.00     0.000 C 
BRANCH  18  19
ATOM     19  C   UNL     1       0.843  -0.262  -9.871  1.00  0.00    -0.000 C 
BRANCH  19  20
ATOM     20  C   UNL     1       1.131  -0.703 -11.309  1.00  0.00    -0.000 C 
BRANCH  20  21
ATOM     21  C   UNL     1       0.054  -1.631 -11.878  1.00  0.00    -0.003 C 
ATOM     22  C   UNL     1       0.397  -3.093 -11.638  1.00  0.00     0.004 C 
ENDBRANCH  20  21
ENDBRANCH  19  20
ENDBRANCH  18  19
ENDBRANCH  17  18
ENDBRANCH  16  17
ENDBRANCH  12  16
ENDBRANCH   9  12
ENDBRANCH   6   9
ENDBRANCH   3   5
ENDBRANCH   2   3
BRANCH   2  23
ATOM     23  N   UNL     1      -5.894   2.774  -6.864  1.00  0.00    -0.332 N 
ATOM     24  C   UNL     1      -7.275   2.409  -6.586  1.00  0.00     0.147 C 
BRANCH  23  25
ATOM     25  C   UNL     1      -4.881   2.083  -6.020  1.00  0.00     0.174 C 
BRANCH  25  26
ATOM     26  C   UNL     1      -5.084   0.550  -5.970  1.00  0.00     0.038 C 
BRANCH  26  27
ATOM     27  C   UNL     1      -4.502  -0.271  -7.143  1.00  0.00    -0.015 C 
ATOM     28  C   UNL     1      -5.530  -0.529  -8.243  1.00  0.00     0.007 C 
ATOM     29  C   UNL     1      -3.226   0.328  -7.729  1.00  0.00     0.007 C 
ENDBRANCH  26  27
ENDBRANCH  25  26
BRANCH  25  30
ATOM     30  C   UNL     1      -4.810   2.745  -4.625  1.00  0.00     0.243 C 
ATOM     31  O   UNL     1      -4.567   2.096  -3.608  1.00  0.00    -0.273 OA
ATOM     32  N   UNL     1      -5.039   4.096  -4.597  1.00  0.00    -0.342 N 
ATOM     33  H   UNL     1      -5.093   4.586  -5.494  1.00  0.00     0.164 HD
BRANCH  32  34
ATOM     34  C   UNL     1      -5.038   4.885  -3.362  1.00  0.00     0.175 C 
BRANCH  34  35
ATOM     35  C   UNL     1      -5.149   6.388  -3.658  1.00  0.00     0.070 C 
BRANCH  35  36
ATOM     36  C   UNL     1      -3.836   6.996  -4.098  1.00  0.00    -0.045 A 
ATOM     37  C   UNL     1      -2.789   7.147  -3.177  1.00  0.00     0.007 A 
ATOM     38  C   UNL     1      -3.652   7.434  -5.416  1.00  0.00     0.007 A 
ATOM     39  C   UNL     1      -1.578   7.719  -3.570  1.00  0.00     0.046 A 
ATOM     40  C   UNL     1      -2.441   8.008  -5.810  1.00  0.00     0.046 A 
ATOM     41  C   UNL     1      -1.414   8.144  -4.882  1.00  0.00     0.115 A 
BRANCH  41  42
ATOM     42  O   UNL     1      -0.217   8.700  -5.225  1.00  0.00    -0.508 OA
ATOM     43  H   UNL     1       0.410   8.547  -4.499  1.00  0.00     0.293 HD
ENDBRANCH  41  42
ENDBRANCH  35  36
ENDBRANCH  34  35
BRANCH  34  44
ATOM     44  C   UNL     1      -6.200   4.385  -2.474  1.00  0.00     0.243 C 
ATOM     45  O   UNL     1      -6.219   4.462  -1.248  1.00  0.00    -0.273 OA
ATOM     46  N   UNL     1      -7.178   3.713  -3.176  1.00  0.00    -0.341 N 
ATOM     47  H   UNL     1      -7.059   3.573  -4.176  1.00  0.00     0.164 HD
BRANCH  46  48
ATOM     48  C   UNL     1      -8.342   3.091  -2.542  1.00  0.00     0.196 C 
BRANCH  48  49
ATOM     49  C   UNL     1      -9.592   3.976  -2.675  1.00  0.00     0.072 C 
BRANCH  49  50
ATOM     50  C   UNL     1     -10.262   4.239  -1.345  1.00  0.00    -0.045 A 
ATOM     51  C   UNL     1      -9.713   5.178  -0.459  1.00  0.00     0.007 A 
ATOM     52  C   UNL     1     -11.419   3.543  -0.970  1.00  0.00     0.007 A 
ATOM     53  C   UNL     1     -10.315   5.420   0.776  1.00  0.00     0.046 A 
ATOM     54  C   UNL     1     -12.021   3.785   0.267  1.00  0.00     0.046 A 
ATOM     55  C   UNL     1     -11.464   4.723   1.129  1.00  0.00     0.115 A 
BRANCH  55  56
ATOM     56  O   UNL     1     -12.020   4.987   2.346  1.00  0.00    -0.508 OA
ATOM     57  H   UNL     1     -11.607   4.406   3.004  1.00  0.00     0.293 HD
ENDBRANCH  55  56
ENDBRANCH  49  50
ENDBRANCH  48  49
BRANCH  48  58
ATOM     58  C   UNL     1      -8.602   1.730  -3.202  1.00  0.00     0.326 C 
ATOM     59  O   UNL     1      -9.652   1.327  -3.676  1.00  0.00    -0.250 OA
BRANCH  58  60
ATOM     60  O   UNL     1      -7.505   0.932  -3.249  1.00  0.00    -0.480 OA
ATOM     61  H   UNL     1      -6.792   1.545  -3.533  1.00  0.00     0.296 HD
ENDBRANCH  58  60
ENDBRANCH  48  58
ENDBRANCH  46  48
ENDBRANCH  34  44
ENDBRANCH  32  34
ENDBRANCH  25  30
ENDBRANCH  23  25
ENDBRANCH   2  23
TORSDOF 28
ENDMDL
MODEL 34
REMARK VINA RESULT:    -6.053     12.996     19.121
REMARK INTER + INTRA:         -20.245
REMARK INTER:                 -16.229
REMARK INTRA:                  -4.016
REMARK UNBOUND:                -5.170
REMARK SMILES CCCCCCC[C@H](N)[C@H](O)C(=O)N[C@H](C)C(=O)N(C)[C@H](CC(C)C)C(=O)N[C@@H](Cc1ccc(O)cc1)C(=O)N[C@@H](Cc1ccc(O)cc1)C(=O)O
REMARK SMILES IDX 18 1 17 2 15 3 16 4 14 5 12 6 13 7 10 9 11 10 8 12 9 13 7 16
REMARK SMILES IDX 6 17 5 18 4 19 3 20 2 21 1 22 19 23 20 24 21 25 22 26 23 27
REMARK SMILES IDX 24 28 25 29 26 30 27 31 28 32 29 34 30 35 31 36 32 37 37 38
REMARK SMILES IDX 33 39 36 40 34 41 35 42 38 44 39 45 40 46 41 48 42 49 43 50
REMARK SMILES IDX 44 51 49 52 45 53 48 54 46 55 47 56 50 58 51 59 52 60
REMARK H PARENT 14 8 11 11 9 14 9 15 28 33 35 43 40 47 47 57 52 61
ROOT
ATOM      1  O   UNL     1      -5.365   4.848  -7.667  1.00  0.00    -0.272 OA
ATOM      2  C   UNL     1      -5.543   3.641  -7.888  1.00  0.00     0.245 C 
ENDROOT
BRANCH   2   3
ATOM      3  C   UNL     1      -5.250   3.096  -9.308  1.00  0.00     0.168 C 
ATOM      4  C   UNL     1      -6.467   3.257 -10.212  1.00  0.00     0.041 C 
BRANCH   3   5
ATOM      5  N   UNL     1      -4.042   3.620  -9.926  1.00  0.00    -0.342 N 
ATOM      6  C   UNL     1      -3.254   2.848 -10.753  1.00  0.00     0.251 C 
ATOM      7  O   UNL     1      -3.481   1.667 -10.995  1.00  0.00    -0.272 OA
ATOM      8  H   UNL     1      -3.732   4.576  -9.771  1.00  0.00     0.164 HD
BRANCH   6   9
ATOM      9  C   UNL     1      -2.114   3.648 -11.404  1.00  0.00     0.219 C 
BRANCH   9  10
ATOM     10  O   UNL     1      -2.130   5.032 -11.035  1.00  0.00    -0.382 OA
ATOM     11  H   UNL     1      -1.700   5.041 -10.152  1.00  0.00     0.211 HD
ENDBRANCH   9  10
BRANCH   9  12
ATOM     12  C   UNL     1      -0.714   3.027 -11.154  1.00  0.00     0.089 C 
BRANCH  12  13
ATOM     13  N   UNL     1       0.313   4.026 -11.528  1.00  0.00    -0.325 NA
ATOM     14  H   UNL     1      -0.128   4.943 -11.620  1.00  0.00     0.119 HD
ATOM     15  H   UNL     1       0.665   3.804 -12.463  1.00  0.00     0.119 HD
ENDBRANCH  12  13
BRANCH  12  16
ATOM     16  C   UNL     1      -0.451   2.504  -9.722  1.00  0.00     0.022 C 
BRANCH  16  17
ATOM     17  C   UNL     1       0.998   2.328  -9.246  1.00  0.00     0.002 C 
BRANCH  17  18
ATOM     18  C   UNL     1       1.531   0.899  -9.318  1.00  0.00     0.000 C 
BRANCH  18  19
ATOM     19  C   UNL     1       0.473  -0.143  -9.703  1.00  0.00    -0.000 C 
BRANCH  19  20
ATOM     20  C   UNL     1       1.028  -1.470 -10.230  1.00  0.00    -0.000 C 
BRANCH  20  21
ATOM     21  C   UNL     1       0.369  -1.918 -11.537  1.00  0.00    -0.003 C 
ATOM     22  C   UNL     1      -0.343  -0.764 -12.224  1.00  0.00     0.004 C 
ENDBRANCH  20  21
ENDBRANCH  19  20
ENDBRANCH  18  19
ENDBRANCH  17  18
ENDBRANCH  16  17
ENDBRANCH  12  16
ENDBRANCH   9  12
ENDBRANCH   6   9
ENDBRANCH   3   5
ENDBRANCH   2   3
BRANCH   2  23
ATOM     23  N   UNL     1      -5.880   2.786  -6.844  1.00  0.00    -0.332 N 
ATOM     24  C   UNL     1      -7.221   2.279  -6.591  1.00  0.00     0.147 C 
BRANCH  23  25
ATOM     25  C   UNL     1      -4.820   2.218  -5.967  1.00  0.00     0.174 C 
BRANCH  25  26
ATOM     26  C   UNL     1      -4.849   0.672  -5.910  1.00  0.00     0.038 C 
BRANCH  26  27
ATOM     27  C   UNL     1      -4.176  -0.084  -7.078  1.00  0.00    -0.015 C 
ATOM     28  C   UNL     1      -5.174  -0.496  -8.159  1.00  0.00     0.007 C 
ATOM     29  C   UNL     1      -3.000   0.671  -7.693  1.00  0.00     0.007 C 
ENDBRANCH  26  27
ENDBRANCH  25  26
BRANCH  25  30
ATOM     30  C   UNL     1      -4.863   2.891  -4.576  1.00  0.00     0.243 C 
ATOM     31  O   UNL     1      -4.906   2.234  -3.537  1.00  0.00    -0.273 OA
ATOM     32  N   UNL     1      -4.856   4.262  -4.580  1.00  0.00    -0.342 N 
ATOM     33  H   UNL     1      -4.677   4.732  -5.471  1.00  0.00     0.164 HD
BRANCH  32  34
ATOM     34  C   UNL     1      -4.920   5.068  -3.358  1.00  0.00     0.175 C 
BRANCH  34  35
ATOM     35  C   UNL     1      -4.326   6.468  -3.580  1.00  0.00     0.070 C 
BRANCH  35  36
ATOM     36  C   UNL     1      -3.602   6.995  -2.362  1.00  0.00    -0.045 A 
ATOM     37  C   UNL     1      -4.032   8.182  -1.748  1.00  0.00     0.007 A 
ATOM     38  C   UNL     1      -2.484   6.327  -1.844  1.00  0.00     0.007 A 
ATOM     39  C   UNL     1      -3.362   8.684  -0.633  1.00  0.00     0.046 A 
ATOM     40  C   UNL     1      -1.812   6.830  -0.728  1.00  0.00     0.046 A 
ATOM     41  C   UNL     1      -2.258   8.004  -0.131  1.00  0.00     0.115 A 
BRANCH  41  42
ATOM     42  O   UNL     1      -1.630   8.530   0.959  1.00  0.00    -0.508 OA
ATOM     43  H   UNL     1      -1.493   7.817   1.605  1.00  0.00     0.293 HD
ENDBRANCH  41  42
ENDBRANCH  35  36
ENDBRANCH  34  35
BRANCH  34  44
ATOM     44  C   UNL     1      -6.396   5.133  -2.904  1.00  0.00     0.243 C 
ATOM     45  O   UNL     1      -7.221   5.932  -3.337  1.00  0.00    -0.273 OA
ATOM     46  N   UNL     1      -6.685   4.285  -1.855  1.00  0.00    -0.341 N 
ATOM     47  H   UNL     1      -5.937   3.725  -1.453  1.00  0.00     0.164 HD
BRANCH  46  48
ATOM     48  C   UNL     1      -7.998   4.219  -1.211  1.00  0.00     0.196 C 
BRANCH  48  49
ATOM     49  C   UNL     1      -8.575   2.794  -1.260  1.00  0.00     0.072 C 
BRANCH  49  50
ATOM     50  C   UNL     1      -9.755   2.676  -2.199  1.00  0.00    -0.045 A 
ATOM     51  C   UNL     1     -10.327   3.832  -2.750  1.00  0.00     0.007 A 
ATOM     52  C   UNL     1     -10.303   1.426  -2.514  1.00  0.00     0.007 A 
ATOM     53  C   UNL     1     -11.424   3.736  -3.607  1.00  0.00     0.046 A 
ATOM     54  C   UNL     1     -11.402   1.331  -3.371  1.00  0.00     0.046 A 
ATOM     55  C   UNL     1     -11.952   2.488  -3.912  1.00  0.00     0.115 A 
BRANCH  55  56
ATOM     56  O   UNL     1     -13.026   2.438  -4.751  1.00  0.00    -0.508 OA
ATOM     57  H   UNL     1     -12.708   2.555  -5.661  1.00  0.00     0.293 HD
ENDBRANCH  55  56
ENDBRANCH  49  50
ENDBRANCH  48  49
BRANCH  48  58
ATOM     58  C   UNL     1      -7.860   4.668   0.250  1.00  0.00     0.326 C 
ATOM     59  O   UNL     1      -7.951   3.972   1.249  1.00  0.00    -0.250 OA
BRANCH  58  60
ATOM     60  O   UNL     1      -7.596   5.992   0.387  1.00  0.00    -0.480 OA
ATOM     61  H   UNL     1      -6.678   6.075   0.049  1.00  0.00     0.296 HD
ENDBRANCH  58  60
ENDBRANCH  48  58
ENDBRANCH  46  48
ENDBRANCH  34  44
ENDBRANCH  32  34
ENDBRANCH  25  30
ENDBRANCH  23  25
ENDBRANCH   2  23
TORSDOF 28
ENDMDL
MODEL 35
REMARK VINA RESULT:    -6.037     12.530     18.267
REMARK INTER + INTRA:         -20.207
REMARK INTER:                 -15.095
REMARK INTRA:                  -5.112
REMARK UNBOUND:                -5.170
REMARK SMILES CCCCCCC[C@H](N)[C@H](O)C(=O)N[C@H](C)C(=O)N(C)[C@H](CC(C)C)C(=O)N[C@@H](Cc1ccc(O)cc1)C(=O)N[C@@H](Cc1ccc(O)cc1)C(=O)O
REMARK SMILES IDX 18 1 17 2 15 3 16 4 14 5 12 6 13 7 10 9 11 10 8 12 9 13 7 16
REMARK SMILES IDX 6 17 5 18 4 19 3 20 2 21 1 22 19 23 20 24 21 25 22 26 23 27
REMARK SMILES IDX 24 28 25 29 26 30 27 31 28 32 29 34 30 35 31 36 32 37 37 38
REMARK SMILES IDX 33 39 36 40 34 41 35 42 38 44 39 45 40 46 41 48 42 49 43 50
REMARK SMILES IDX 44 51 49 52 45 53 48 54 46 55 47 56 50 58 51 59 52 60
REMARK H PARENT 14 8 11 11 9 14 9 15 28 33 35 43 40 47 47 57 52 61
ROOT
ATOM      1  O   UNL     1      -6.763   0.075  -5.510  1.00  0.00    -0.272 OA
ATOM      2  C   UNL     1      -6.057   0.983  -5.972  1.00  0.00     0.245 C 
ENDROOT
BRANCH   2   3
ATOM      3  C   UNL     1      -5.797   1.015  -7.499  1.00  0.00     0.168 C 
ATOM      4  C   UNL     1      -6.674   2.062  -8.176  1.00  0.00     0.041 C 
BRANCH   3   5
ATOM      5  N   UNL     1      -4.399   1.152  -7.879  1.00  0.00    -0.342 N 
ATOM      6  C   UNL     1      -3.895   0.568  -9.022  1.00  0.00     0.251 C 
ATOM      7  O   UNL     1      -4.562  -0.135  -9.773  1.00  0.00    -0.272 OA
ATOM      8  H   UNL     1      -3.740   1.683  -7.315  1.00  0.00     0.164 HD
BRANCH   6   9
ATOM      9  C   UNL     1      -2.435   0.963  -9.296  1.00  0.00     0.219 C 
BRANCH   9  10
ATOM     10  O   UNL     1      -1.516  -0.107  -9.042  1.00  0.00    -0.382 OA
ATOM     11  H   UNL     1      -0.661   0.353  -8.893  1.00  0.00     0.211 HD
ENDBRANCH   9  10
BRANCH   9  12
ATOM     12  C   UNL     1      -2.219   1.549 -10.716  1.00  0.00     0.089 C 
BRANCH  12  13
ATOM     13  N   UNL     1      -2.559   0.505 -11.709  1.00  0.00    -0.325 NA
ATOM     14  H   UNL     1      -3.471   0.717 -12.120  1.00  0.00     0.119 HD
ATOM     15  H   UNL     1      -2.686  -0.386 -11.223  1.00  0.00     0.119 HD
ENDBRANCH  12  13
BRANCH  12  16
ATOM     16  C   UNL     1      -2.986   2.855 -11.034  1.00  0.00     0.022 C 
BRANCH  16  17
ATOM     17  C   UNL     1      -2.224   4.039 -11.646  1.00  0.00     0.002 C 
BRANCH  17  18
ATOM     18  C   UNL     1      -1.348   4.817 -10.667  1.00  0.00     0.000 C 
BRANCH  18  19
ATOM     19  C   UNL     1      -1.789   6.271 -10.453  1.00  0.00    -0.000 C 
BRANCH  19  20
ATOM     20  C   UNL     1      -3.288   6.529 -10.635  1.00  0.00    -0.000 C 
BRANCH  20  21
ATOM     21  C   UNL     1      -4.077   6.426  -9.327  1.00  0.00    -0.003 C 
ATOM     22  C   UNL     1      -5.057   5.264  -9.360  1.00  0.00     0.004 C 
ENDBRANCH  20  21
ENDBRANCH  19  20
ENDBRANCH  18  19
ENDBRANCH  17  18
ENDBRANCH  16  17
ENDBRANCH  12  16
ENDBRANCH   9  12
ENDBRANCH   6   9
ENDBRANCH   3   5
ENDBRANCH   2   3
BRANCH   2  23
ATOM     23  N   UNL     1      -5.616   2.012  -5.146  1.00  0.00    -0.332 N 
ATOM     24  C   UNL     1      -4.280   2.100  -4.578  1.00  0.00     0.147 C 
BRANCH  23  25
ATOM     25  C   UNL     1      -6.486   3.193  -4.889  1.00  0.00     0.174 C 
BRANCH  25  26
ATOM     26  C   UNL     1      -5.867   4.517  -5.394  1.00  0.00     0.038 C 
BRANCH  26  27
ATOM     27  C   UNL     1      -6.849   5.626  -5.835  1.00  0.00    -0.015 C 
ATOM     28  C   UNL     1      -6.132   6.909  -6.254  1.00  0.00     0.007 C 
ATOM     29  C   UNL     1      -7.825   5.177  -6.919  1.00  0.00     0.007 C 
ENDBRANCH  26  27
ENDBRANCH  25  26
BRANCH  25  30
ATOM     30  C   UNL     1      -6.906   3.230  -3.402  1.00  0.00     0.243 C 
ATOM     31  O   UNL     1      -7.146   2.204  -2.768  1.00  0.00    -0.273 OA
ATOM     32  N   UNL     1      -6.999   4.479  -2.843  1.00  0.00    -0.342 N 
ATOM     33  H   UNL     1      -6.648   5.270  -3.390  1.00  0.00     0.164 HD
BRANCH  32  34
ATOM     34  C   UNL     1      -7.409   4.708  -1.455  1.00  0.00     0.175 C 
BRANCH  34  35
ATOM     35  C   UNL     1      -6.411   5.615  -0.720  1.00  0.00     0.070 C 
BRANCH  35  36
ATOM     36  C   UNL     1      -5.504   6.372  -1.663  1.00  0.00    -0.045 A 
ATOM     37  C   UNL     1      -5.880   7.640  -2.131  1.00  0.00     0.007 A 
ATOM     38  C   UNL     1      -4.294   5.816  -2.100  1.00  0.00     0.007 A 
ATOM     39  C   UNL     1      -5.056   8.341  -3.013  1.00  0.00     0.046 A 
ATOM     40  C   UNL     1      -3.469   6.516  -2.983  1.00  0.00     0.046 A 
ATOM     41  C   UNL     1      -3.858   7.774  -3.431  1.00  0.00     0.115 A 
BRANCH  41  42
ATOM     42  O   UNL     1      -3.083   8.490  -4.295  1.00  0.00    -0.508 OA
ATOM     43  H   UNL     1      -2.526   7.868  -4.791  1.00  0.00     0.293 HD
ENDBRANCH  41  42
ENDBRANCH  35  36
ENDBRANCH  34  35
BRANCH  34  44
ATOM     44  C   UNL     1      -8.833   5.309  -1.470  1.00  0.00     0.243 C 
ATOM     45  O   UNL     1      -9.092   6.472  -1.767  1.00  0.00    -0.273 OA
ATOM     46  N   UNL     1      -9.796   4.449  -0.986  1.00  0.00    -0.341 N 
ATOM     47  H   UNL     1      -9.514   3.535  -0.642  1.00  0.00     0.164 HD
BRANCH  46  48
ATOM     48  C   UNL     1     -11.206   4.819  -0.840  1.00  0.00     0.196 C 
BRANCH  48  49
ATOM     49  C   UNL     1     -11.994   4.541  -2.132  1.00  0.00     0.072 C 
BRANCH  49  50
ATOM     50  C   UNL     1     -11.335   3.494  -3.001  1.00  0.00    -0.045 A 
ATOM     51  C   UNL     1     -10.698   3.875  -4.191  1.00  0.00     0.007 A 
ATOM     52  C   UNL     1     -11.368   2.139  -2.649  1.00  0.00     0.007 A 
ATOM     53  C   UNL     1     -10.098   2.917  -5.008  1.00  0.00     0.046 A 
ATOM     54  C   UNL     1     -10.769   1.180  -3.468  1.00  0.00     0.046 A 
ATOM     55  C   UNL     1     -10.138   1.577  -4.641  1.00  0.00     0.115 A 
BRANCH  55  56
ATOM     56  O   UNL     1      -9.541   0.672  -5.468  1.00  0.00    -0.508 OA
ATOM     57  H   UNL     1     -10.170   0.438  -6.169  1.00  0.00     0.293 HD
ENDBRANCH  55  56
ENDBRANCH  49  50
ENDBRANCH  48  49
BRANCH  48  58
ATOM     58  C   UNL     1     -11.815   4.017   0.318  1.00  0.00     0.326 C 
ATOM     59  O   UNL     1     -12.804   3.303   0.282  1.00  0.00    -0.250 OA
BRANCH  58  60
ATOM     60  O   UNL     1     -11.130   4.142   1.482  1.00  0.00    -0.480 OA
ATOM     61  H   UNL     1     -11.499   4.963   1.874  1.00  0.00     0.296 HD
ENDBRANCH  58  60
ENDBRANCH  48  58
ENDBRANCH  46  48
ENDBRANCH  34  44
ENDBRANCH  32  34
ENDBRANCH  25  30
ENDBRANCH  23  25
ENDBRANCH   2  23
TORSDOF 28
ENDMDL
MODEL 36
REMARK VINA RESULT:    -6.031      4.352      7.275
REMARK INTER + INTRA:         -20.192
REMARK INTER:                 -15.863
REMARK INTRA:                  -4.329
REMARK UNBOUND:                -5.170
REMARK SMILES CCCCCCC[C@H](N)[C@H](O)C(=O)N[C@H](C)C(=O)N(C)[C@H](CC(C)C)C(=O)N[C@@H](Cc1ccc(O)cc1)C(=O)N[C@@H](Cc1ccc(O)cc1)C(=O)O
REMARK SMILES IDX 18 1 17 2 15 3 16 4 14 5 12 6 13 7 10 9 11 10 8 12 9 13 7 16
REMARK SMILES IDX 6 17 5 18 4 19 3 20 2 21 1 22 19 23 20 24 21 25 22 26 23 27
REMARK SMILES IDX 24 28 25 29 26 30 27 31 28 32 29 34 30 35 31 36 32 37 37 38
REMARK SMILES IDX 33 39 36 40 34 41 35 42 38 44 39 45 40 46 41 48 42 49 43 50
REMARK SMILES IDX 44 51 49 52 45 53 48 54 46 55 47 56 50 58 51 59 52 60
REMARK H PARENT 14 8 11 11 9 14 9 15 28 33 35 43 40 47 47 57 52 61
ROOT
ATOM      1  O   UNL     1       2.417   6.270   6.050  1.00  0.00    -0.272 OA
ATOM      2  C   UNL     1       1.306   6.546   6.524  1.00  0.00     0.245 C 
ENDROOT
BRANCH   2   3
ATOM      3  C   UNL     1       1.037   6.229   8.017  1.00  0.00     0.168 C 
ATOM      4  C   UNL     1       0.919   4.725   8.238  1.00  0.00     0.041 C 
BRANCH   3   5
ATOM      5  N   UNL     1       1.971   6.842   8.949  1.00  0.00    -0.342 N 
ATOM      6  C   UNL     1       1.723   8.069   9.526  1.00  0.00     0.251 C 
ATOM      7  O   UNL     1       0.734   8.748   9.273  1.00  0.00    -0.272 OA
ATOM      8  H   UNL     1       2.843   6.388   9.210  1.00  0.00     0.164 HD
BRANCH   6   9
ATOM      9  C   UNL     1       2.772   8.452  10.583  1.00  0.00     0.219 C 
BRANCH   9  10
ATOM     10  O   UNL     1       3.296   9.771  10.388  1.00  0.00    -0.382 OA
ATOM     11  H   UNL     1       3.104   9.959   9.443  1.00  0.00     0.211 HD
ENDBRANCH   9  10
BRANCH   9  12
ATOM     12  C   UNL     1       2.266   8.269  12.037  1.00  0.00     0.089 C 
BRANCH  12  13
ATOM     13  N   UNL     1       3.433   8.320  12.948  1.00  0.00    -0.325 NA
ATOM     14  H   UNL     1       3.128   8.644  13.867  1.00  0.00     0.119 HD
ATOM     15  H   UNL     1       4.083   9.035  12.614  1.00  0.00     0.119 HD
ENDBRANCH  12  13
BRANCH  12  16
ATOM     16  C   UNL     1       1.181   9.268  12.508  1.00  0.00     0.022 C 
BRANCH  16  17
ATOM     17  C   UNL     1       1.607  10.521  13.286  1.00  0.00     0.002 C 
BRANCH  17  18
ATOM     18  C   UNL     1       0.677  10.915  14.432  1.00  0.00     0.000 C 
BRANCH  18  19
ATOM     19  C   UNL     1       1.086  10.339  15.794  1.00  0.00    -0.000 C 
BRANCH  19  20
ATOM     20  C   UNL     1       2.594  10.181  16.007  1.00  0.00    -0.000 C 
BRANCH  20  21
ATOM     21  C   UNL     1       2.983   8.798  16.537  1.00  0.00    -0.003 C 
ATOM     22  C   UNL     1       4.466   8.525  16.336  1.00  0.00     0.004 C 
ENDBRANCH  20  21
ENDBRANCH  19  20
ENDBRANCH  18  19
ENDBRANCH  17  18
ENDBRANCH  16  17
ENDBRANCH  12  16
ENDBRANCH   9  12
ENDBRANCH   6   9
ENDBRANCH   3   5
ENDBRANCH   2   3
BRANCH   2  23
ATOM     23  N   UNL     1       0.374   7.236   5.757  1.00  0.00    -0.332 N 
ATOM     24  C   UNL     1       0.122   8.667   5.852  1.00  0.00     0.147 C 
BRANCH  23  25
ATOM     25  C   UNL     1      -0.360   6.543   4.662  1.00  0.00     0.174 C 
BRANCH  25  26
ATOM     26  C   UNL     1      -1.212   7.506   3.804  1.00  0.00     0.038 C 
BRANCH  26  27
ATOM     27  C   UNL     1      -0.808   7.666   2.321  1.00  0.00    -0.015 C 
ATOM     28  C   UNL     1      -1.569   8.796   1.627  1.00  0.00     0.007 C 
ATOM     29  C   UNL     1       0.696   7.826   2.115  1.00  0.00     0.007 C 
ENDBRANCH  26  27
ENDBRANCH  25  26
BRANCH  25  30
ATOM     30  C   UNL     1      -1.157   5.346   5.231  1.00  0.00     0.243 C 
ATOM     31  O   UNL     1      -0.827   4.182   5.012  1.00  0.00    -0.273 OA
ATOM     32  N   UNL     1      -2.254   5.670   5.987  1.00  0.00    -0.342 N 
ATOM     33  H   UNL     1      -2.381   6.653   6.241  1.00  0.00     0.164 HD
BRANCH  32  34
ATOM     34  C   UNL     1      -3.142   4.668   6.582  1.00  0.00     0.175 C 
BRANCH  34  35
ATOM     35  C   UNL     1      -2.765   4.386   8.044  1.00  0.00     0.070 C 
BRANCH  35  36
ATOM     36  C   UNL     1      -2.772   2.911   8.376  1.00  0.00    -0.045 A 
ATOM     37  C   UNL     1      -3.183   1.977   7.413  1.00  0.00     0.007 A 
ATOM     38  C   UNL     1      -2.395   2.458   9.647  1.00  0.00     0.007 A 
ATOM     39  C   UNL     1      -3.206   0.615   7.714  1.00  0.00     0.046 A 
ATOM     40  C   UNL     1      -2.419   1.094   9.950  1.00  0.00     0.046 A 
ATOM     41  C   UNL     1      -2.824   0.184   8.979  1.00  0.00     0.115 A 
BRANCH  41  42
ATOM     42  O   UNL     1      -2.864  -1.155   9.234  1.00  0.00    -0.508 OA
ATOM     43  H   UNL     1      -3.664  -1.520   8.820  1.00  0.00     0.293 HD
ENDBRANCH  41  42
ENDBRANCH  35  36
ENDBRANCH  34  35
BRANCH  34  44
ATOM     44  C   UNL     1      -4.596   5.175   6.448  1.00  0.00     0.243 C 
ATOM     45  O   UNL     1      -5.282   5.056   5.437  1.00  0.00    -0.273 OA
ATOM     46  N   UNL     1      -5.025   5.904   7.537  1.00  0.00    -0.341 N 
ATOM     47  H   UNL     1      -4.378   6.076   8.303  1.00  0.00     0.164 HD
BRANCH  46  48
ATOM     48  C   UNL     1      -6.341   6.543   7.611  1.00  0.00     0.196 C 
BRANCH  48  49
ATOM     49  C   UNL     1      -6.848   6.613   9.061  1.00  0.00     0.072 C 
BRANCH  49  50
ATOM     50  C   UNL     1      -6.372   5.449   9.901  1.00  0.00    -0.045 A 
ATOM     51  C   UNL     1      -7.084   4.241   9.888  1.00  0.00     0.007 A 
ATOM     52  C   UNL     1      -5.237   5.564  10.714  1.00  0.00     0.007 A 
ATOM     53  C   UNL     1      -6.662   3.165  10.669  1.00  0.00     0.046 A 
ATOM     54  C   UNL     1      -4.815   4.487  11.497  1.00  0.00     0.046 A 
ATOM     55  C   UNL     1      -5.531   3.295  11.466  1.00  0.00     0.115 A 
BRANCH  55  56
ATOM     56  O   UNL     1      -5.153   2.221  12.216  1.00  0.00    -0.508 OA
ATOM     57  H   UNL     1      -5.843   1.542  12.147  1.00  0.00     0.293 HD
ENDBRANCH  55  56
ENDBRANCH  49  50
ENDBRANCH  48  49
BRANCH  48  58
ATOM     58  C   UNL     1      -6.240   7.961   7.032  1.00  0.00     0.326 C 
ATOM     59  O   UNL     1      -6.057   8.999   7.646  1.00  0.00    -0.250 OA
BRANCH  58  60
ATOM     60  O   UNL     1      -6.362   8.004   5.681  1.00  0.00    -0.480 OA
ATOM     61  H   UNL     1      -5.504   8.379   5.388  1.00  0.00     0.296 HD
ENDBRANCH  58  60
ENDBRANCH  48  58
ENDBRANCH  46  48
ENDBRANCH  34  44
ENDBRANCH  32  34
ENDBRANCH  25  30
ENDBRANCH  23  25
ENDBRANCH   2  23
TORSDOF 28
ENDMDL
MODEL 37
REMARK VINA RESULT:    -5.955     12.041     18.404
REMARK INTER + INTRA:         -20.003
REMARK INTER:                 -16.447
REMARK INTRA:                  -3.556
REMARK UNBOUND:                -5.170
REMARK SMILES CCCCCCC[C@H](N)[C@H](O)C(=O)N[C@H](C)C(=O)N(C)[C@H](CC(C)C)C(=O)N[C@@H](Cc1ccc(O)cc1)C(=O)N[C@@H](Cc1ccc(O)cc1)C(=O)O
REMARK SMILES IDX 18 1 17 2 15 3 16 4 14 5 12 6 13 7 10 9 11 10 8 12 9 13 7 16
REMARK SMILES IDX 6 17 5 18 4 19 3 20 2 21 1 22 19 23 20 24 21 25 22 26 23 27
REMARK SMILES IDX 24 28 25 29 26 30 27 31 28 32 29 34 30 35 31 36 32 37 37 38
REMARK SMILES IDX 33 39 36 40 34 41 35 42 38 44 39 45 40 46 41 48 42 49 43 50
REMARK SMILES IDX 44 51 49 52 45 53 48 54 46 55 47 56 50 58 51 59 52 60
REMARK H PARENT 14 8 11 11 9 14 9 15 28 33 35 43 40 47 47 57 52 61
ROOT
ATOM      1  O   UNL     1      -7.083  -0.395  -4.848  1.00  0.00    -0.272 OA
ATOM      2  C   UNL     1      -7.403   0.792  -5.014  1.00  0.00     0.245 C 
ENDROOT
BRANCH   2   3
ATOM      3  C   UNL     1      -7.159   1.438  -6.400  1.00  0.00     0.168 C 
ATOM      4  C   UNL     1      -7.658   2.879  -6.422  1.00  0.00     0.041 C 
BRANCH   3   5
ATOM      5  N   UNL     1      -5.795   1.329  -6.894  1.00  0.00    -0.342 N 
ATOM      6  C   UNL     1      -5.395   0.289  -7.705  1.00  0.00     0.251 C 
ATOM      7  O   UNL     1      -6.133  -0.634  -8.034  1.00  0.00    -0.272 OA
ATOM      8  H   UNL     1      -5.084   2.018  -6.660  1.00  0.00     0.164 HD
BRANCH   6   9
ATOM      9  C   UNL     1      -3.957   0.455  -8.220  1.00  0.00     0.219 C 
BRANCH   9  10
ATOM     10  O   UNL     1      -3.111  -0.645  -7.862  1.00  0.00    -0.382 OA
ATOM     11  H   UNL     1      -2.276  -0.461  -8.346  1.00  0.00     0.211 HD
ENDBRANCH   9  10
BRANCH   9  12
ATOM     12  C   UNL     1      -3.884   0.733  -9.744  1.00  0.00     0.089 C 
BRANCH  12  13
ATOM     13  N   UNL     1      -5.111   1.456 -10.147  1.00  0.00    -0.325 NA
ATOM     14  H   UNL     1      -4.887   2.442 -10.293  1.00  0.00     0.119 HD
ATOM     15  H   UNL     1      -5.773   1.445  -9.367  1.00  0.00     0.119 HD
ENDBRANCH  12  13
BRANCH  12  16
ATOM     16  C   UNL     1      -2.631   1.497 -10.235  1.00  0.00     0.022 C 
BRANCH  16  17
ATOM     17  C   UNL     1      -1.978   1.088 -11.563  1.00  0.00     0.002 C 
BRANCH  17  18
ATOM     18  C   UNL     1      -1.315   2.228 -12.333  1.00  0.00     0.000 C 
BRANCH  18  19
ATOM     19  C   UNL     1       0.207   2.301 -12.153  1.00  0.00    -0.000 C 
BRANCH  19  20
ATOM     20  C   UNL     1       0.761   1.497 -10.973  1.00  0.00    -0.000 C 
BRANCH  20  21
ATOM     21  C   UNL     1       1.357   2.380  -9.873  1.00  0.00    -0.003 C 
ATOM     22  C   UNL     1       0.992   1.864  -8.490  1.00  0.00     0.004 C 
ENDBRANCH  20  21
ENDBRANCH  19  20
ENDBRANCH  18  19
ENDBRANCH  17  18
ENDBRANCH  16  17
ENDBRANCH  12  16
ENDBRANCH   9  12
ENDBRANCH   6   9
ENDBRANCH   3   5
ENDBRANCH   2   3
BRANCH   2  23
ATOM     23  N   UNL     1      -8.076   1.478  -4.008  1.00  0.00    -0.332 N 
ATOM     24  C   UNL     1      -9.514   1.699  -3.980  1.00  0.00     0.147 C 
BRANCH  23  25
ATOM     25  C   UNL     1      -7.348   1.932  -2.792  1.00  0.00     0.174 C 
BRANCH  25  26
ATOM     26  C   UNL     1      -8.176   1.765  -1.497  1.00  0.00     0.038 C 
BRANCH  26  27
ATOM     27  C   UNL     1      -7.419   1.909  -0.158  1.00  0.00    -0.015 C 
ATOM     28  C   UNL     1      -5.901   1.882  -0.339  1.00  0.00     0.007 C 
ATOM     29  C   UNL     1      -7.841   3.134   0.650  1.00  0.00     0.007 C 
ENDBRANCH  26  27
ENDBRANCH  25  26
BRANCH  25  30
ATOM     30  C   UNL     1      -6.804   3.364  -3.001  1.00  0.00     0.243 C 
ATOM     31  O   UNL     1      -7.460   4.359  -2.696  1.00  0.00    -0.273 OA
ATOM     32  N   UNL     1      -5.552   3.449  -3.553  1.00  0.00    -0.342 N 
ATOM     33  H   UNL     1      -5.016   2.582  -3.647  1.00  0.00     0.164 HD
BRANCH  32  34
ATOM     34  C   UNL     1      -4.890   4.723  -3.848  1.00  0.00     0.175 C 
BRANCH  34  35
ATOM     35  C   UNL     1      -5.742   5.591  -4.787  1.00  0.00     0.070 C 
BRANCH  35  36
ATOM     36  C   UNL     1      -4.937   6.192  -5.918  1.00  0.00    -0.045 A 
ATOM     37  C   UNL     1      -3.898   7.091  -5.638  1.00  0.00     0.007 A 
ATOM     38  C   UNL     1      -5.229   5.881  -7.252  1.00  0.00     0.007 A 
ATOM     39  C   UNL     1      -3.159   7.662  -6.676  1.00  0.00     0.046 A 
ATOM     40  C   UNL     1      -4.491   6.452  -8.291  1.00  0.00     0.046 A 
ATOM     41  C   UNL     1      -3.461   7.337  -7.993  1.00  0.00     0.115 A 
BRANCH  41  42
ATOM     42  O   UNL     1      -2.717   7.919  -8.977  1.00  0.00    -0.508 OA
ATOM     43  H   UNL     1      -2.075   7.265  -9.300  1.00  0.00     0.293 HD
ENDBRANCH  41  42
ENDBRANCH  35  36
ENDBRANCH  34  35
BRANCH  34  44
ATOM     44  C   UNL     1      -4.602   5.434  -2.507  1.00  0.00     0.243 C 
ATOM     45  O   UNL     1      -3.975   4.935  -1.577  1.00  0.00    -0.273 OA
ATOM     46  N   UNL     1      -5.232   6.655  -2.387  1.00  0.00    -0.341 N 
ATOM     47  H   UNL     1      -5.838   6.974  -3.139  1.00  0.00     0.164 HD
BRANCH  46  48
ATOM     48  C   UNL     1      -5.163   7.482  -1.180  1.00  0.00     0.196 C 
BRANCH  48  49
ATOM     49  C   UNL     1      -4.346   8.762  -1.425  1.00  0.00     0.072 C 
BRANCH  49  50
ATOM     50  C   UNL     1      -2.865   8.559  -1.201  1.00  0.00    -0.045 A 
ATOM     51  C   UNL     1      -1.937   9.227  -2.013  1.00  0.00     0.007 A 
ATOM     52  C   UNL     1      -2.399   7.694  -0.202  1.00  0.00     0.007 A 
ATOM     53  C   UNL     1      -0.568   9.038  -1.823  1.00  0.00     0.046 A 
ATOM     54  C   UNL     1      -1.029   7.503  -0.014  1.00  0.00     0.046 A 
ATOM     55  C   UNL     1      -0.124   8.178  -0.826  1.00  0.00     0.115 A 
BRANCH  55  56
ATOM     56  O   UNL     1       1.222   8.019  -0.675  1.00  0.00    -0.508 OA
ATOM     57  H   UNL     1       1.642   8.892  -0.734  1.00  0.00     0.293 HD
ENDBRANCH  55  56
ENDBRANCH  49  50
ENDBRANCH  48  49
BRANCH  48  58
ATOM     58  C   UNL     1      -6.588   7.855  -0.749  1.00  0.00     0.326 C 
ATOM     59  O   UNL     1      -6.917   8.730   0.036  1.00  0.00    -0.250 OA
BRANCH  58  60
ATOM     60  O   UNL     1      -7.548   7.106  -1.347  1.00  0.00    -0.480 OA
ATOM     61  H   UNL     1      -7.459   6.232  -0.908  1.00  0.00     0.296 HD
ENDBRANCH  58  60
ENDBRANCH  48  58
ENDBRANCH  46  48
ENDBRANCH  34  44
ENDBRANCH  32  34
ENDBRANCH  25  30
ENDBRANCH  23  25
ENDBRANCH   2  23
TORSDOF 28
ENDMDL
MODEL 38
REMARK VINA RESULT:    -5.955     12.015     17.376
REMARK INTER + INTRA:         -20.002
REMARK INTER:                 -15.467
REMARK INTRA:                  -4.536
REMARK UNBOUND:                -5.170
REMARK SMILES CCCCCCC[C@H](N)[C@H](O)C(=O)N[C@H](C)C(=O)N(C)[C@H](CC(C)C)C(=O)N[C@@H](Cc1ccc(O)cc1)C(=O)N[C@@H](Cc1ccc(O)cc1)C(=O)O
REMARK SMILES IDX 18 1 17 2 15 3 16 4 14 5 12 6 13 7 10 9 11 10 8 12 9 13 7 16
REMARK SMILES IDX 6 17 5 18 4 19 3 20 2 21 1 22 19 23 20 24 21 25 22 26 23 27
REMARK SMILES IDX 24 28 25 29 26 30 27 31 28 32 29 34 30 35 31 36 32 37 37 38
REMARK SMILES IDX 33 39 36 40 34 41 35 42 38 44 39 45 40 46 41 48 42 49 43 50
REMARK SMILES IDX 44 51 49 52 45 53 48 54 46 55 47 56 50 58 51 59 52 60
REMARK H PARENT 14 8 11 11 9 14 9 15 28 33 35 43 40 47 47 57 52 61
ROOT
ATOM      1  O   UNL     1      -4.492   4.359  -1.434  1.00  0.00    -0.272 OA
ATOM      2  C   UNL     1      -4.501   5.485  -1.951  1.00  0.00     0.245 C 
ENDROOT
BRANCH   2   3
ATOM      3  C   UNL     1      -3.430   6.513  -1.507  1.00  0.00     0.168 C 
ATOM      4  C   UNL     1      -2.174   5.805  -1.009  1.00  0.00     0.041 C 
BRANCH   3   5
ATOM      5  N   UNL     1      -3.120   7.537  -2.492  1.00  0.00    -0.342 N 
ATOM      6  C   UNL     1      -3.067   8.874  -2.160  1.00  0.00     0.251 C 
ATOM      7  O   UNL     1      -3.314   9.303  -1.038  1.00  0.00    -0.272 OA
ATOM      8  H   UNL     1      -2.931   7.306  -3.465  1.00  0.00     0.164 HD
BRANCH   6   9
ATOM      9  C   UNL     1      -2.584   9.757  -3.322  1.00  0.00     0.219 C 
BRANCH   9  10
ATOM     10  O   UNL     1      -3.054  11.107  -3.223  1.00  0.00    -0.382 OA
ATOM     11  H   UNL     1      -3.951  11.069  -3.623  1.00  0.00     0.211 HD
ENDBRANCH   9  10
BRANCH   9  12
ATOM     12  C   UNL     1      -1.045   9.722  -3.513  1.00  0.00     0.089 C 
BRANCH  12  13
ATOM     13  N   UNL     1      -0.410   9.633  -2.179  1.00  0.00    -0.325 NA
ATOM     14  H   UNL     1      -0.273   8.649  -1.937  1.00  0.00     0.119 HD
ATOM     15  H   UNL     1      -1.062   9.992  -1.477  1.00  0.00     0.119 HD
ENDBRANCH  12  13
BRANCH  12  16
ATOM     16  C   UNL     1      -0.502   8.606  -4.437  1.00  0.00     0.022 C 
BRANCH  16  17
ATOM     17  C   UNL     1      -0.352   8.885  -5.939  1.00  0.00     0.002 C 
BRANCH  17  18
ATOM     18  C   UNL     1      -1.016  10.172  -6.424  1.00  0.00     0.000 C 
BRANCH  18  19
ATOM     19  C   UNL     1      -0.856  10.428  -7.928  1.00  0.00    -0.000 C 
BRANCH  19  20
ATOM     20  C   UNL     1      -1.788   9.613  -8.829  1.00  0.00    -0.000 C 
BRANCH  20  21
ATOM     21  C   UNL     1      -1.055   8.526  -9.622  1.00  0.00    -0.003 C 
ATOM     22  C   UNL     1      -1.996   7.398 -10.015  1.00  0.00     0.004 C 
ENDBRANCH  20  21
ENDBRANCH  19  20
ENDBRANCH  18  19
ENDBRANCH  17  18
ENDBRANCH  16  17
ENDBRANCH  12  16
ENDBRANCH   9  12
ENDBRANCH   6   9
ENDBRANCH   3   5
ENDBRANCH   2   3
BRANCH   2  23
ATOM     23  N   UNL     1      -5.378   5.766  -2.993  1.00  0.00    -0.332 N 
ATOM     24  C   UNL     1      -6.542   6.633  -2.882  1.00  0.00     0.147 C 
BRANCH  23  25
ATOM     25  C   UNL     1      -5.093   5.274  -4.369  1.00  0.00     0.174 C 
BRANCH  25  26
ATOM     26  C   UNL     1      -5.918   6.005  -5.453  1.00  0.00     0.038 C 
BRANCH  26  27
ATOM     27  C   UNL     1      -5.975   5.348  -6.851  1.00  0.00    -0.015 C 
ATOM     28  C   UNL     1      -7.408   5.087  -7.315  1.00  0.00     0.007 C 
ATOM     29  C   UNL     1      -5.197   6.117  -7.915  1.00  0.00     0.007 C 
ENDBRANCH  26  27
ENDBRANCH  25  26
BRANCH  25  30
ATOM     30  C   UNL     1      -5.223   3.734  -4.421  1.00  0.00     0.243 C 
ATOM     31  O   UNL     1      -4.293   3.015  -4.781  1.00  0.00    -0.273 OA
ATOM     32  N   UNL     1      -6.441   3.229  -4.046  1.00  0.00    -0.342 N 
ATOM     33  H   UNL     1      -7.114   3.876  -3.626  1.00  0.00     0.164 HD
BRANCH  32  34
ATOM     34  C   UNL     1      -6.754   1.797  -4.059  1.00  0.00     0.175 C 
BRANCH  34  35
ATOM     35  C   UNL     1      -7.938   1.475  -3.134  1.00  0.00     0.070 C 
BRANCH  35  36
ATOM     36  C   UNL     1      -7.827   2.151  -1.786  1.00  0.00    -0.045 A 
ATOM     37  C   UNL     1      -8.706   3.191  -1.448  1.00  0.00     0.007 A 
ATOM     38  C   UNL     1      -6.838   1.769  -0.870  1.00  0.00     0.007 A 
ATOM     39  C   UNL     1      -8.602   3.829  -0.211  1.00  0.00     0.046 A 
ATOM     40  C   UNL     1      -6.733   2.408   0.368  1.00  0.00     0.046 A 
ATOM     41  C   UNL     1      -7.618   3.433   0.686  1.00  0.00     0.115 A 
BRANCH  41  42
ATOM     42  O   UNL     1      -7.549   4.085   1.882  1.00  0.00    -0.508 OA
ATOM     43  H   UNL     1      -8.452   4.185   2.227  1.00  0.00     0.293 HD
ENDBRANCH  41  42
ENDBRANCH  35  36
ENDBRANCH  34  35
BRANCH  34  44
ATOM     44  C   UNL     1      -7.034   1.382  -5.521  1.00  0.00     0.243 C 
ATOM     45  O   UNL     1      -8.156   1.254  -6.003  1.00  0.00    -0.273 OA
ATOM     46  N   UNL     1      -5.898   1.035  -6.220  1.00  0.00    -0.341 N 
ATOM     47  H   UNL     1      -5.001   1.045  -5.742  1.00  0.00     0.164 HD
BRANCH  46  48
ATOM     48  C   UNL     1      -5.919   0.544  -7.600  1.00  0.00     0.196 C 
BRANCH  48  49
ATOM     49  C   UNL     1      -4.638   0.937  -8.354  1.00  0.00     0.072 C 
BRANCH  49  50
ATOM     50  C   UNL     1      -4.852   2.098  -9.299  1.00  0.00    -0.045 A 
ATOM     51  C   UNL     1      -3.749   2.811  -9.791  1.00  0.00     0.007 A 
ATOM     52  C   UNL     1      -6.141   2.489  -9.680  1.00  0.00     0.007 A 
ATOM     53  C   UNL     1      -3.934   3.892 -10.653  1.00  0.00     0.046 A 
ATOM     54  C   UNL     1      -6.327   3.572 -10.542  1.00  0.00     0.046 A 
ATOM     55  C   UNL     1      -5.221   4.264 -11.022  1.00  0.00     0.115 A 
BRANCH  55  56
ATOM     56  O   UNL     1      -5.359   5.327 -11.865  1.00  0.00    -0.508 OA
ATOM     57  H   UNL     1      -6.300   5.425 -12.083  1.00  0.00     0.293 HD
ENDBRANCH  55  56
ENDBRANCH  49  50
ENDBRANCH  48  49
BRANCH  48  58
ATOM     58  C   UNL     1      -6.059  -0.985  -7.585  1.00  0.00     0.326 C 
ATOM     59  O   UNL     1      -7.083  -1.631  -7.432  1.00  0.00    -0.250 OA
BRANCH  58  60
ATOM     60  O   UNL     1      -4.886  -1.637  -7.780  1.00  0.00    -0.480 OA
ATOM     61  H   UNL     1      -4.614  -1.349  -8.679  1.00  0.00     0.296 HD
ENDBRANCH  58  60
ENDBRANCH  48  58
ENDBRANCH  46  48
ENDBRANCH  34  44
ENDBRANCH  32  34
ENDBRANCH  25  30
ENDBRANCH  23  25
ENDBRANCH   2  23
TORSDOF 28
ENDMDL
MODEL 39
REMARK VINA RESULT:    -5.947     11.375     15.768
REMARK INTER + INTRA:         -19.982
REMARK INTER:                 -14.834
REMARK INTRA:                  -5.148
REMARK UNBOUND:                -5.170
REMARK SMILES CCCCCCC[C@H](N)[C@H](O)C(=O)N[C@H](C)C(=O)N(C)[C@H](CC(C)C)C(=O)N[C@@H](Cc1ccc(O)cc1)C(=O)N[C@@H](Cc1ccc(O)cc1)C(=O)O
REMARK SMILES IDX 18 1 17 2 15 3 16 4 14 5 12 6 13 7 10 9 11 10 8 12 9 13 7 16
REMARK SMILES IDX 6 17 5 18 4 19 3 20 2 21 1 22 19 23 20 24 21 25 22 26 23 27
REMARK SMILES IDX 24 28 25 29 26 30 27 31 28 32 29 34 30 35 31 36 32 37 37 38
REMARK SMILES IDX 33 39 36 40 34 41 35 42 38 44 39 45 40 46 41 48 42 49 43 50
REMARK SMILES IDX 44 51 49 52 45 53 48 54 46 55 47 56 50 58 51 59 52 60
REMARK H PARENT 14 8 11 11 9 14 9 15 28 33 35 43 40 47 47 57 52 61
ROOT
ATOM      1  O   UNL     1      -3.358   7.045  -5.407  1.00  0.00    -0.272 OA
ATOM      2  C   UNL     1      -3.652   8.035  -6.093  1.00  0.00     0.245 C 
ENDROOT
BRANCH   2   3
ATOM      3  C   UNL     1      -3.522   9.442  -5.457  1.00  0.00     0.168 C 
ATOM      4  C   UNL     1      -4.889  10.105  -5.326  1.00  0.00     0.041 C 
BRANCH   3   5
ATOM      5  N   UNL     1      -2.779   9.481  -4.207  1.00  0.00    -0.342 N 
ATOM      6  C   UNL     1      -1.420   9.712  -4.176  1.00  0.00     0.251 C 
ATOM      7  O   UNL     1      -0.735   9.857  -5.183  1.00  0.00    -0.272 OA
ATOM      8  H   UNL     1      -3.233   9.339  -3.308  1.00  0.00     0.164 HD
BRANCH   6   9
ATOM      9  C   UNL     1      -0.874   9.852  -2.746  1.00  0.00     0.219 C 
BRANCH   9  10
ATOM     10  O   UNL     1      -1.465  10.945  -2.033  1.00  0.00    -0.382 OA
ATOM     11  H   UNL     1      -2.284  10.557  -1.653  1.00  0.00     0.211 HD
ENDBRANCH   9  10
BRANCH   9  12
ATOM     12  C   UNL     1      -0.974   8.540  -1.924  1.00  0.00     0.089 C 
BRANCH  12  13
ATOM     13  N   UNL     1      -1.119   7.408  -2.867  1.00  0.00    -0.325 NA
ATOM     14  H   UNL     1      -1.048   7.757  -3.825  1.00  0.00     0.119 HD
ATOM     15  H   UNL     1      -2.067   7.032  -2.790  1.00  0.00     0.119 HD
ENDBRANCH  12  13
BRANCH  12  16
ATOM     16  C   UNL     1       0.188   8.267  -0.940  1.00  0.00     0.022 C 
BRANCH  16  17
ATOM     17  C   UNL     1      -0.073   7.404   0.303  1.00  0.00     0.002 C 
BRANCH  17  18
ATOM     18  C   UNL     1      -0.193   8.180   1.613  1.00  0.00     0.000 C 
BRANCH  18  19
ATOM     19  C   UNL     1       0.330   7.420   2.839  1.00  0.00    -0.000 C 
BRANCH  19  20
ATOM     20  C   UNL     1      -0.441   7.672   4.137  1.00  0.00    -0.000 C 
BRANCH  20  21
ATOM     21  C   UNL     1      -1.114   6.412   4.690  1.00  0.00    -0.003 C 
ATOM     22  C   UNL     1      -0.350   5.158   4.296  1.00  0.00     0.004 C 
ENDBRANCH  20  21
ENDBRANCH  19  20
ENDBRANCH  18  19
ENDBRANCH  17  18
ENDBRANCH  16  17
ENDBRANCH  12  16
ENDBRANCH   9  12
ENDBRANCH   6   9
ENDBRANCH   3   5
ENDBRANCH   2   3
BRANCH   2  23
ATOM     23  N   UNL     1      -3.970   7.880  -7.438  1.00  0.00    -0.332 N 
ATOM     24  C   UNL     1      -3.947   8.953  -8.421  1.00  0.00     0.147 C 
BRANCH  23  25
ATOM     25  C   UNL     1      -4.240   6.526  -7.995  1.00  0.00     0.174 C 
BRANCH  25  26
ATOM     26  C   UNL     1      -4.315   6.514  -9.540  1.00  0.00     0.038 C 
BRANCH  26  27
ATOM     27  C   UNL     1      -4.672   5.170 -10.213  1.00  0.00    -0.015 C 
ATOM     28  C   UNL     1      -4.878   5.308 -11.721  1.00  0.00     0.007 C 
ATOM     29  C   UNL     1      -3.676   4.054  -9.907  1.00  0.00     0.007 C 
ENDBRANCH  26  27
ENDBRANCH  25  26
BRANCH  25  30
ATOM     30  C   UNL     1      -5.478   5.906  -7.307  1.00  0.00     0.243 C 
ATOM     31  O   UNL     1      -6.609   6.363  -7.470  1.00  0.00    -0.273 OA
ATOM     32  N   UNL     1      -5.231   4.822  -6.505  1.00  0.00    -0.342 N 
ATOM     33  H   UNL     1      -4.292   4.417  -6.533  1.00  0.00     0.164 HD
BRANCH  32  34
ATOM     34  C   UNL     1      -6.278   4.124  -5.754  1.00  0.00     0.175 C 
BRANCH  34  35
ATOM     35  C   UNL     1      -5.897   2.659  -5.493  1.00  0.00     0.070 C 
BRANCH  35  36
ATOM     36  C   UNL     1      -5.548   1.911  -6.760  1.00  0.00    -0.045 A 
ATOM     37  C   UNL     1      -4.350   1.184  -6.839  1.00  0.00     0.007 A 
ATOM     38  C   UNL     1      -6.397   1.949  -7.874  1.00  0.00     0.007 A 
ATOM     39  C   UNL     1      -4.013   0.502  -8.008  1.00  0.00     0.046 A 
ATOM     40  C   UNL     1      -6.060   1.267  -9.045  1.00  0.00     0.046 A 
ATOM     41  C   UNL     1      -4.870   0.548  -9.101  1.00  0.00     0.115 A 
BRANCH  41  42
ATOM     42  O   UNL     1      -4.503  -0.130 -10.226  1.00  0.00    -0.508 OA
ATOM     43  H   UNL     1      -5.095   0.135 -10.948  1.00  0.00     0.293 HD
ENDBRANCH  41  42
ENDBRANCH  35  36
ENDBRANCH  34  35
BRANCH  34  44
ATOM     44  C   UNL     1      -6.523   4.900  -4.440  1.00  0.00     0.243 C 
ATOM     45  O   UNL     1      -7.431   5.709  -4.271  1.00  0.00    -0.273 OA
ATOM     46  N   UNL     1      -5.540   4.702  -3.494  1.00  0.00    -0.341 N 
ATOM     47  H   UNL     1      -4.744   4.112  -3.725  1.00  0.00     0.164 HD
BRANCH  46  48
ATOM     48  C   UNL     1      -5.520   5.382  -2.197  1.00  0.00     0.196 C 
BRANCH  48  49
ATOM     49  C   UNL     1      -5.623   4.379  -1.037  1.00  0.00     0.072 C 
BRANCH  49  50
ATOM     50  C   UNL     1      -6.727   3.366  -1.239  1.00  0.00    -0.045 A 
ATOM     51  C   UNL     1      -8.064   3.789  -1.285  1.00  0.00     0.007 A 
ATOM     52  C   UNL     1      -6.440   2.001  -1.362  1.00  0.00     0.007 A 
ATOM     53  C   UNL     1      -9.092   2.862  -1.458  1.00  0.00     0.046 A 
ATOM     54  C   UNL     1      -7.469   1.073  -1.534  1.00  0.00     0.046 A 
ATOM     55  C   UNL     1      -8.788   1.512  -1.582  1.00  0.00     0.115 A 
BRANCH  55  56
ATOM     56  O   UNL     1      -9.822   0.639  -1.748  1.00  0.00    -0.508 OA
ATOM     57  H   UNL     1     -10.450   0.767  -1.020  1.00  0.00     0.293 HD
ENDBRANCH  55  56
ENDBRANCH  49  50
ENDBRANCH  48  49
BRANCH  48  58
ATOM     58  C   UNL     1      -4.216   6.182  -2.073  1.00  0.00     0.326 C 
ATOM     59  O   UNL     1      -3.179   5.826  -1.536  1.00  0.00    -0.250 OA
BRANCH  58  60
ATOM     60  O   UNL     1      -4.274   7.407  -2.653  1.00  0.00    -0.480 OA
ATOM     61  H   UNL     1      -3.828   7.988  -1.999  1.00  0.00     0.296 HD
ENDBRANCH  58  60
ENDBRANCH  48  58
ENDBRANCH  46  48
ENDBRANCH  34  44
ENDBRANCH  32  34
ENDBRANCH  25  30
ENDBRANCH  23  25
ENDBRANCH   2  23
TORSDOF 28
ENDMDL
MODEL 40
REMARK VINA RESULT:    -5.942     13.432     19.538
REMARK INTER + INTRA:         -19.969
REMARK INTER:                 -16.482
REMARK INTRA:                  -3.487
REMARK UNBOUND:                -5.170
REMARK SMILES CCCCCCC[C@H](N)[C@H](O)C(=O)N[C@H](C)C(=O)N(C)[C@H](CC(C)C)C(=O)N[C@@H](Cc1ccc(O)cc1)C(=O)N[C@@H](Cc1ccc(O)cc1)C(=O)O
REMARK SMILES IDX 18 1 17 2 15 3 16 4 14 5 12 6 13 7 10 9 11 10 8 12 9 13 7 16
REMARK SMILES IDX 6 17 5 18 4 19 3 20 2 21 1 22 19 23 20 24 21 25 22 26 23 27
REMARK SMILES IDX 24 28 25 29 26 30 27 31 28 32 29 34 30 35 31 36 32 37 37 38
REMARK SMILES IDX 33 39 36 40 34 41 35 42 38 44 39 45 40 46 41 48 42 49 43 50
REMARK SMILES IDX 44 51 49 52 45 53 48 54 46 55 47 56 50 58 51 59 52 60
REMARK H PARENT 14 8 11 11 9 14 9 15 28 33 35 43 40 47 47 57 52 61
ROOT
ATOM      1  O   UNL     1      -4.843   5.776  -9.038  1.00  0.00    -0.272 OA
ATOM      2  C   UNL     1      -4.946   4.605  -9.434  1.00  0.00     0.245 C 
ENDROOT
BRANCH   2   3
ATOM      3  C   UNL     1      -3.903   4.072 -10.449  1.00  0.00     0.168 C 
ATOM      4  C   UNL     1      -3.263   5.221 -11.221  1.00  0.00     0.041 C 
BRANCH   3   5
ATOM      5  N   UNL     1      -2.906   3.175  -9.886  1.00  0.00    -0.342 N 
ATOM      6  C   UNL     1      -3.052   1.805  -9.930  1.00  0.00     0.251 C 
ATOM      7  O   UNL     1      -4.037   1.244 -10.401  1.00  0.00    -0.272 OA
ATOM      8  H   UNL     1      -2.063   3.525  -9.437  1.00  0.00     0.164 HD
BRANCH   6   9
ATOM      9  C   UNL     1      -1.816   1.058  -9.406  1.00  0.00     0.219 C 
BRANCH   9  10
ATOM     10  O   UNL     1      -2.153  -0.138  -8.693  1.00  0.00    -0.382 OA
ATOM     11  H   UNL     1      -2.790   0.171  -8.012  1.00  0.00     0.211 HD
ENDBRANCH   9  10
BRANCH   9  12
ATOM     12  C   UNL     1      -0.768   0.763 -10.511  1.00  0.00     0.089 C 
BRANCH  12  13
ATOM     13  N   UNL     1      -1.241   1.371 -11.777  1.00  0.00    -0.325 NA
ATOM     14  H   UNL     1      -0.720   0.967 -12.558  1.00  0.00     0.119 HD
ATOM     15  H   UNL     1      -0.997   2.364 -11.778  1.00  0.00     0.119 HD
ENDBRANCH  12  13
BRANCH  12  16
ATOM     16  C   UNL     1       0.680   1.218 -10.212  1.00  0.00     0.022 C 
BRANCH  16  17
ATOM     17  C   UNL     1       1.842   0.264 -10.519  1.00  0.00     0.002 C 
BRANCH  17  18
ATOM     18  C   UNL     1       1.874  -0.273 -11.949  1.00  0.00     0.000 C 
BRANCH  18  19
ATOM     19  C   UNL     1       1.878  -1.805 -12.041  1.00  0.00    -0.000 C 
BRANCH  19  20
ATOM     20  C   UNL     1       0.631  -2.493 -11.479  1.00  0.00    -0.000 C 
BRANCH  20  21
ATOM     21  C   UNL     1       0.951  -3.511 -10.381  1.00  0.00    -0.003 C 
ATOM     22  C   UNL     1       2.418  -3.455  -9.985  1.00  0.00     0.004 C 
ENDBRANCH  20  21
ENDBRANCH  19  20
ENDBRANCH  18  19
ENDBRANCH  17  18
ENDBRANCH  16  17
ENDBRANCH  12  16
ENDBRANCH   9  12
ENDBRANCH   6   9
ENDBRANCH   3   5
ENDBRANCH   2   3
BRANCH   2  23
ATOM     23  N   UNL     1      -5.905   3.765  -8.880  1.00  0.00    -0.332 N 
ATOM     24  C   UNL     1      -7.146   3.382  -9.536  1.00  0.00     0.147 C 
BRANCH  23  25
ATOM     25  C   UNL     1      -5.646   3.082  -7.582  1.00  0.00     0.174 C 
BRANCH  25  26
ATOM     26  C   UNL     1      -6.237   1.654  -7.524  1.00  0.00     0.038 C 
BRANCH  26  27
ATOM     27  C   UNL     1      -5.482   0.618  -6.662  1.00  0.00    -0.015 C 
ATOM     28  C   UNL     1      -4.183   1.176  -6.082  1.00  0.00     0.007 C 
ATOM     29  C   UNL     1      -6.342   0.003  -5.561  1.00  0.00     0.007 C 
ENDBRANCH  26  27
ENDBRANCH  25  26
BRANCH  25  30
ATOM     30  C   UNL     1      -6.087   3.986  -6.408  1.00  0.00     0.243 C 
ATOM     31  O   UNL     1      -5.379   4.902  -5.992  1.00  0.00    -0.273 OA
ATOM     32  N   UNL     1      -7.311   3.695  -5.863  1.00  0.00    -0.342 N 
ATOM     33  H   UNL     1      -7.898   3.015  -6.352  1.00  0.00     0.164 HD
BRANCH  32  34
ATOM     34  C   UNL     1      -7.877   4.428  -4.727  1.00  0.00     0.175 C 
BRANCH  34  35
ATOM     35  C   UNL     1      -9.413   4.381  -4.742  1.00  0.00     0.070 C 
BRANCH  35  36
ATOM     36  C   UNL     1      -9.966   3.131  -4.095  1.00  0.00    -0.045 A 
ATOM     37  C   UNL     1      -9.901   1.903  -4.771  1.00  0.00     0.007 A 
ATOM     38  C   UNL     1     -10.568   3.182  -2.831  1.00  0.00     0.007 A 
ATOM     39  C   UNL     1     -10.421   0.747  -4.188  1.00  0.00     0.046 A 
ATOM     40  C   UNL     1     -11.090   2.025  -2.247  1.00  0.00     0.046 A 
ATOM     41  C   UNL     1     -11.010   0.817  -2.931  1.00  0.00     0.115 A 
BRANCH  41  42
ATOM     42  O   UNL     1     -11.509  -0.335  -2.398  1.00  0.00    -0.508 OA
ATOM     43  H   UNL     1     -11.579  -0.220  -1.436  1.00  0.00     0.293 HD
ENDBRANCH  41  42
ENDBRANCH  35  36
ENDBRANCH  34  35
BRANCH  34  44
ATOM     44  C   UNL     1      -7.293   3.825  -3.429  1.00  0.00     0.243 C 
ATOM     45  O   UNL     1      -7.014   2.639  -3.279  1.00  0.00    -0.273 OA
ATOM     46  N   UNL     1      -7.231   4.725  -2.387  1.00  0.00    -0.341 N 
ATOM     47  H   UNL     1      -7.583   5.669  -2.526  1.00  0.00     0.164 HD
BRANCH  46  48
ATOM     48  C   UNL     1      -6.777   4.368  -1.041  1.00  0.00     0.196 C 
BRANCH  48  49
ATOM     49  C   UNL     1      -7.860   3.595  -0.271  1.00  0.00     0.072 C 
BRANCH  49  50
ATOM     50  C   UNL     1      -8.921   4.502   0.311  1.00  0.00    -0.045 A 
ATOM     51  C   UNL     1     -10.135   3.961   0.758  1.00  0.00     0.007 A 
ATOM     52  C   UNL     1      -8.720   5.886   0.392  1.00  0.00     0.007 A 
ATOM     53  C   UNL     1     -11.126   4.789   1.285  1.00  0.00     0.046 A 
ATOM     54  C   UNL     1      -9.713   6.716   0.918  1.00  0.00     0.046 A 
ATOM     55  C   UNL     1     -10.908   6.160   1.361  1.00  0.00     0.115 A 
BRANCH  55  56
ATOM     56  O   UNL     1     -11.902   6.935   1.880  1.00  0.00    -0.508 OA
ATOM     57  H   UNL     1     -12.128   6.594   2.760  1.00  0.00     0.293 HD
ENDBRANCH  55  56
ENDBRANCH  49  50
ENDBRANCH  48  49
BRANCH  48  58
ATOM     58  C   UNL     1      -5.511   3.507  -1.153  1.00  0.00     0.326 C 
ATOM     59  O   UNL     1      -4.410   3.859  -1.545  1.00  0.00    -0.250 OA
BRANCH  58  60
ATOM     60  O   UNL     1      -5.690   2.226  -0.744  1.00  0.00    -0.480 OA
ATOM     61  H   UNL     1      -6.047   1.782  -1.543  1.00  0.00     0.296 HD
ENDBRANCH  58  60
ENDBRANCH  48  58
ENDBRANCH  46  48
ENDBRANCH  34  44
ENDBRANCH  32  34
ENDBRANCH  25  30
ENDBRANCH  23  25
ENDBRANCH   2  23
TORSDOF 28
ENDMDL
MODEL 41
REMARK VINA RESULT:    -5.925      3.604      7.122
REMARK INTER + INTRA:         -19.926
REMARK INTER:                 -14.404
REMARK INTRA:                  -5.522
REMARK UNBOUND:                -5.170
REMARK SMILES CCCCCCC[C@H](N)[C@H](O)C(=O)N[C@H](C)C(=O)N(C)[C@H](CC(C)C)C(=O)N[C@@H](Cc1ccc(O)cc1)C(=O)N[C@@H](Cc1ccc(O)cc1)C(=O)O
REMARK SMILES IDX 18 1 17 2 15 3 16 4 14 5 12 6 13 7 10 9 11 10 8 12 9 13 7 16
REMARK SMILES IDX 6 17 5 18 4 19 3 20 2 21 1 22 19 23 20 24 21 25 22 26 23 27
REMARK SMILES IDX 24 28 25 29 26 30 27 31 28 32 29 34 30 35 31 36 32 37 37 38
REMARK SMILES IDX 33 39 36 40 34 41 35 42 38 44 39 45 40 46 41 48 42 49 43 50
REMARK SMILES IDX 44 51 49 52 45 53 48 54 46 55 47 56 50 58 51 59 52 60
REMARK H PARENT 14 8 11 11 9 14 9 15 28 33 35 43 40 47 47 57 52 61
ROOT
ATOM      1  O   UNL     1      -5.782   9.408   4.927  1.00  0.00    -0.272 OA
ATOM      2  C   UNL     1      -4.823   9.409   5.712  1.00  0.00     0.245 C 
ENDROOT
BRANCH   2   3
ATOM      3  C   UNL     1      -3.474  10.000   5.234  1.00  0.00     0.168 C 
ATOM      4  C   UNL     1      -2.781  10.754   6.363  1.00  0.00     0.041 C 
BRANCH   3   5
ATOM      5  N   UNL     1      -2.582   9.046   4.593  1.00  0.00    -0.342 N 
ATOM      6  C   UNL     1      -2.044   9.276   3.344  1.00  0.00     0.251 C 
ATOM      7  O   UNL     1      -2.304  10.267   2.669  1.00  0.00    -0.272 OA
ATOM      8  H   UNL     1      -2.321   8.170   5.041  1.00  0.00     0.164 HD
BRANCH   6   9
ATOM      9  C   UNL     1      -1.023   8.205   2.930  1.00  0.00     0.219 C 
BRANCH   9  10
ATOM     10  O   UNL     1      -0.975   8.007   1.512  1.00  0.00    -0.382 OA
ATOM     11  H   UNL     1      -1.087   8.913   1.148  1.00  0.00     0.211 HD
ENDBRANCH   9  10
BRANCH   9  12
ATOM     12  C   UNL     1       0.397   8.466   3.498  1.00  0.00     0.089 C 
BRANCH  12  13
ATOM     13  N   UNL     1       0.489   9.891   3.889  1.00  0.00    -0.325 NA
ATOM     14  H   UNL     1       1.277  10.013   4.529  1.00  0.00     0.119 HD
ATOM     15  H   UNL     1      -0.339  10.139   4.435  1.00  0.00     0.119 HD
ENDBRANCH  12  13
BRANCH  12  16
ATOM     16  C   UNL     1       0.832   7.561   4.676  1.00  0.00     0.022 C 
BRANCH  16  17
ATOM     17  C   UNL     1       2.097   7.921   5.466  1.00  0.00     0.002 C 
BRANCH  17  18
ATOM     18  C   UNL     1       1.955   7.840   6.984  1.00  0.00     0.000 C 
BRANCH  18  19
ATOM     19  C   UNL     1       0.561   8.220   7.502  1.00  0.00    -0.000 C 
BRANCH  19  20
ATOM     20  C   UNL     1       0.277   7.826   8.954  1.00  0.00    -0.000 C 
BRANCH  20  21
ATOM     21  C   UNL     1       0.137   9.033   9.886  1.00  0.00    -0.003 C 
ATOM     22  C   UNL     1      -1.082   9.870   9.530  1.00  0.00     0.004 C 
ENDBRANCH  20  21
ENDBRANCH  19  20
ENDBRANCH  18  19
ENDBRANCH  17  18
ENDBRANCH  16  17
ENDBRANCH  12  16
ENDBRANCH   9  12
ENDBRANCH   6   9
ENDBRANCH   3   5
ENDBRANCH   2   3
BRANCH   2  23
ATOM     23  N   UNL     1      -5.003   9.000   7.030  1.00  0.00    -0.332 N 
ATOM     24  C   UNL     1      -5.520   9.847   8.094  1.00  0.00     0.147 C 
BRANCH  23  25
ATOM     25  C   UNL     1      -4.784   7.578   7.411  1.00  0.00     0.174 C 
BRANCH  25  26
ATOM     26  C   UNL     1      -3.743   6.867   6.514  1.00  0.00     0.038 C 
BRANCH  26  27
ATOM     27  C   UNL     1      -2.514   6.253   7.220  1.00  0.00    -0.015 C 
ATOM     28  C   UNL     1      -2.903   5.315   8.362  1.00  0.00     0.007 C 
ATOM     29  C   UNL     1      -1.547   5.561   6.263  1.00  0.00     0.007 C 
ENDBRANCH  26  27
ENDBRANCH  25  26
BRANCH  25  30
ATOM     30  C   UNL     1      -6.138   6.836   7.499  1.00  0.00     0.243 C 
ATOM     31  O   UNL     1      -7.191   7.362   7.141  1.00  0.00    -0.273 OA
ATOM     32  N   UNL     1      -6.086   5.563   8.006  1.00  0.00    -0.342 N 
ATOM     33  H   UNL     1      -5.161   5.147   8.147  1.00  0.00     0.164 HD
BRANCH  32  34
ATOM     34  C   UNL     1      -7.272   4.723   8.187  1.00  0.00     0.175 C 
BRANCH  34  35
ATOM     35  C   UNL     1      -7.338   3.613   7.127  1.00  0.00     0.070 C 
BRANCH  35  36
ATOM     36  C   UNL     1      -5.970   3.172   6.656  1.00  0.00    -0.045 A 
ATOM     37  C   UNL     1      -5.183   2.340   7.466  1.00  0.00     0.007 A 
ATOM     38  C   UNL     1      -5.461   3.604   5.424  1.00  0.00     0.007 A 
ATOM     39  C   UNL     1      -3.915   1.939   7.046  1.00  0.00     0.046 A 
ATOM     40  C   UNL     1      -4.190   3.204   5.003  1.00  0.00     0.046 A 
ATOM     41  C   UNL     1      -3.429   2.374   5.818  1.00  0.00     0.115 A 
BRANCH  41  42
ATOM     42  O   UNL     1      -2.183   1.962   5.446  1.00  0.00    -0.508 OA
ATOM     43  H   UNL     1      -1.712   2.722   5.066  1.00  0.00     0.293 HD
ENDBRANCH  41  42
ENDBRANCH  35  36
ENDBRANCH  34  35
BRANCH  34  44
ATOM     44  C   UNL     1      -7.239   4.150   9.622  1.00  0.00     0.243 C 
ATOM     45  O   UNL     1      -8.206   3.656  10.194  1.00  0.00    -0.273 OA
ATOM     46  N   UNL     1      -6.039   4.361  10.269  1.00  0.00    -0.341 N 
ATOM     47  H   UNL     1      -5.306   4.880   9.793  1.00  0.00     0.164 HD
BRANCH  46  48
ATOM     48  C   UNL     1      -5.793   3.968  11.658  1.00  0.00     0.196 C 
BRANCH  48  49
ATOM     49  C   UNL     1      -4.299   3.706  11.910  1.00  0.00     0.072 C 
BRANCH  49  50
ATOM     50  C   UNL     1      -3.818   2.423  11.271  1.00  0.00    -0.045 A 
ATOM     51  C   UNL     1      -2.681   2.435  10.449  1.00  0.00     0.007 A 
ATOM     52  C   UNL     1      -4.503   1.218  11.469  1.00  0.00     0.007 A 
ATOM     53  C   UNL     1      -2.235   1.260   9.844  1.00  0.00     0.046 A 
ATOM     54  C   UNL     1      -4.057   0.041  10.862  1.00  0.00     0.046 A 
ATOM     55  C   UNL     1      -2.926   0.073  10.055  1.00  0.00     0.115 A 
BRANCH  55  56
ATOM     56  O   UNL     1      -2.459  -1.053   9.443  1.00  0.00    -0.508 OA
ATOM     57  H   UNL     1      -2.613  -1.808  10.033  1.00  0.00     0.293 HD
ENDBRANCH  55  56
ENDBRANCH  49  50
ENDBRANCH  48  49
BRANCH  48  58
ATOM     58  C   UNL     1      -6.284   5.087  12.588  1.00  0.00     0.326 C 
ATOM     59  O   UNL     1      -6.179   6.290  12.415  1.00  0.00    -0.250 OA
BRANCH  58  60
ATOM     60  O   UNL     1      -6.907   4.629  13.703  1.00  0.00    -0.480 OA
ATOM     61  H   UNL     1      -7.410   5.412  14.018  1.00  0.00     0.296 HD
ENDBRANCH  58  60
ENDBRANCH  48  58
ENDBRANCH  46  48
ENDBRANCH  34  44
ENDBRANCH  32  34
ENDBRANCH  25  30
ENDBRANCH  23  25
ENDBRANCH   2  23
TORSDOF 28
ENDMDL
MODEL 42
REMARK VINA RESULT:    -5.922     10.930     15.171
REMARK INTER + INTRA:         -19.920
REMARK INTER:                 -15.483
REMARK INTRA:                  -4.438
REMARK UNBOUND:                -5.170
REMARK SMILES CCCCCCC[C@H](N)[C@H](O)C(=O)N[C@H](C)C(=O)N(C)[C@H](CC(C)C)C(=O)N[C@@H](Cc1ccc(O)cc1)C(=O)N[C@@H](Cc1ccc(O)cc1)C(=O)O
REMARK SMILES IDX 18 1 17 2 15 3 16 4 14 5 12 6 13 7 10 9 11 10 8 12 9 13 7 16
REMARK SMILES IDX 6 17 5 18 4 19 3 20 2 21 1 22 19 23 20 24 21 25 22 26 23 27
REMARK SMILES IDX 24 28 25 29 26 30 27 31 28 32 29 34 30 35 31 36 32 37 37 38
REMARK SMILES IDX 33 39 36 40 34 41 35 42 38 44 39 45 40 46 41 48 42 49 43 50
REMARK SMILES IDX 44 51 49 52 45 53 48 54 46 55 47 56 50 58 51 59 52 60
REMARK H PARENT 14 8 11 11 9 14 9 15 28 33 35 43 40 47 47 57 52 61
ROOT
ATOM      1  O   UNL     1      -6.871   8.671  -3.727  1.00  0.00    -0.272 OA
ATOM      2  C   UNL     1      -5.690   8.807  -3.374  1.00  0.00     0.245 C 
ENDROOT
BRANCH   2   3
ATOM      3  C   UNL     1      -5.279   8.325  -1.960  1.00  0.00     0.168 C 
ATOM      4  C   UNL     1      -6.370   7.456  -1.345  1.00  0.00     0.041 C 
BRANCH   3   5
ATOM      5  N   UNL     1      -3.973   7.688  -1.887  1.00  0.00    -0.342 N 
ATOM      6  C   UNL     1      -3.032   8.062  -0.951  1.00  0.00     0.251 C 
ATOM      7  O   UNL     1      -3.201   8.974  -0.149  1.00  0.00    -0.272 OA
ATOM      8  H   UNL     1      -3.704   6.942  -2.524  1.00  0.00     0.164 HD
BRANCH   6   9
ATOM      9  C   UNL     1      -1.787   7.161  -0.967  1.00  0.00     0.219 C 
BRANCH   9  10
ATOM     10  O   UNL     1      -1.717   6.336  -2.137  1.00  0.00    -0.382 OA
ATOM     11  H   UNL     1      -0.841   6.558  -2.523  1.00  0.00     0.211 HD
ENDBRANCH   9  10
BRANCH   9  12
ATOM     12  C   UNL     1      -0.464   7.945  -0.765  1.00  0.00     0.089 C 
BRANCH  12  13
ATOM     13  N   UNL     1      -0.656   9.323  -1.272  1.00  0.00    -0.325 NA
ATOM     14  H   UNL     1      -0.514   9.331  -2.283  1.00  0.00     0.119 HD
ATOM     15  H   UNL     1       0.083   9.920  -0.893  1.00  0.00     0.119 HD
ENDBRANCH  12  13
BRANCH  12  16
ATOM     16  C   UNL     1       0.088   7.982   0.680  1.00  0.00     0.022 C 
BRANCH  16  17
ATOM     17  C   UNL     1      -0.203   6.804   1.621  1.00  0.00     0.002 C 
BRANCH  17  18
ATOM     18  C   UNL     1       0.117   7.061   3.092  1.00  0.00     0.000 C 
BRANCH  18  19
ATOM     19  C   UNL     1       0.001   5.817   3.983  1.00  0.00    -0.000 C 
BRANCH  19  20
ATOM     20  C   UNL     1      -0.615   6.061   5.364  1.00  0.00    -0.000 C 
BRANCH  20  21
ATOM     21  C   UNL     1      -1.768   5.106   5.683  1.00  0.00    -0.003 C 
ATOM     22  C   UNL     1      -1.393   3.663   5.381  1.00  0.00     0.004 C 
ENDBRANCH  20  21
ENDBRANCH  19  20
ENDBRANCH  18  19
ENDBRANCH  17  18
ENDBRANCH  16  17
ENDBRANCH  12  16
ENDBRANCH   9  12
ENDBRANCH   6   9
ENDBRANCH   3   5
ENDBRANCH   2   3
BRANCH   2  23
ATOM     23  N   UNL     1      -4.741   9.267  -4.281  1.00  0.00    -0.332 N 
ATOM     24  C   UNL     1      -3.887  10.425  -4.066  1.00  0.00     0.147 C 
BRANCH  23  25
ATOM     25  C   UNL     1      -4.449   8.494  -5.519  1.00  0.00     0.174 C 
BRANCH  25  26
ATOM     26  C   UNL     1      -5.014   9.163  -6.794  1.00  0.00     0.038 C 
BRANCH  26  27
ATOM     27  C   UNL     1      -4.080   9.231  -8.023  1.00  0.00    -0.015 C 
ATOM     28  C   UNL     1      -2.921   8.239  -7.930  1.00  0.00     0.007 C 
ATOM     29  C   UNL     1      -4.813   9.078  -9.353  1.00  0.00     0.007 C 
ENDBRANCH  26  27
ENDBRANCH  25  26
BRANCH  25  30
ATOM     30  C   UNL     1      -4.887   7.022  -5.344  1.00  0.00     0.243 C 
ATOM     31  O   UNL     1      -4.242   6.229  -4.660  1.00  0.00    -0.273 OA
ATOM     32  N   UNL     1      -6.034   6.662  -6.003  1.00  0.00    -0.342 N 
ATOM     33  H   UNL     1      -6.588   7.407  -6.432  1.00  0.00     0.164 HD
BRANCH  32  34
ATOM     34  C   UNL     1      -6.583   5.303  -5.973  1.00  0.00     0.175 C 
BRANCH  34  35
ATOM     35  C   UNL     1      -5.608   4.292  -6.595  1.00  0.00     0.070 C 
BRANCH  35  36
ATOM     36  C   UNL     1      -5.712   4.231  -8.103  1.00  0.00    -0.045 A 
ATOM     37  C   UNL     1      -4.863   5.016  -8.898  1.00  0.00     0.007 A 
ATOM     38  C   UNL     1      -6.665   3.414  -8.724  1.00  0.00     0.007 A 
ATOM     39  C   UNL     1      -4.961   4.976 -10.289  1.00  0.00     0.046 A 
ATOM     40  C   UNL     1      -6.765   3.374 -10.117  1.00  0.00     0.046 A 
ATOM     41  C   UNL     1      -5.910   4.156 -10.887  1.00  0.00     0.115 A 
BRANCH  41  42
ATOM     42  O   UNL     1      -5.975   4.148 -12.249  1.00  0.00    -0.508 OA
ATOM     43  H   UNL     1      -5.070   4.207 -12.598  1.00  0.00     0.293 HD
ENDBRANCH  41  42
ENDBRANCH  35  36
ENDBRANCH  34  35
BRANCH  34  44
ATOM     44  C   UNL     1      -6.917   4.955  -4.505  1.00  0.00     0.243 C 
ATOM     45  O   UNL     1      -7.786   5.512  -3.840  1.00  0.00    -0.273 OA
ATOM     46  N   UNL     1      -6.054   4.034  -3.950  1.00  0.00    -0.341 N 
ATOM     47  H   UNL     1      -5.277   3.687  -4.506  1.00  0.00     0.164 HD
BRANCH  46  48
ATOM     48  C   UNL     1      -6.130   3.599  -2.553  1.00  0.00     0.196 C 
BRANCH  48  49
ATOM     49  C   UNL     1      -6.605   2.140  -2.446  1.00  0.00     0.072 C 
BRANCH  49  50
ATOM     50  C   UNL     1      -8.039   1.961  -2.891  1.00  0.00    -0.045 A 
ATOM     51  C   UNL     1      -8.317   1.374  -4.134  1.00  0.00     0.007 A 
ATOM     52  C   UNL     1      -9.102   2.392  -2.088  1.00  0.00     0.007 A 
ATOM     53  C   UNL     1      -9.635   1.215  -4.561  1.00  0.00     0.046 A 
ATOM     54  C   UNL     1     -10.422   2.235  -2.516  1.00  0.00     0.046 A 
ATOM     55  C   UNL     1     -10.677   1.646  -3.750  1.00  0.00     0.115 A 
BRANCH  55  56
ATOM     56  O   UNL     1     -11.951   1.475  -4.205  1.00  0.00    -0.508 OA
ATOM     57  H   UNL     1     -12.317   2.346  -4.425  1.00  0.00     0.293 HD
ENDBRANCH  55  56
ENDBRANCH  49  50
ENDBRANCH  48  49
BRANCH  48  58
ATOM     58  C   UNL     1      -4.742   3.737  -1.911  1.00  0.00     0.326 C 
ATOM     59  O   UNL     1      -4.234   4.751  -1.461  1.00  0.00    -0.250 OA
BRANCH  58  60
ATOM     60  O   UNL     1      -4.055   2.569  -1.852  1.00  0.00    -0.480 OA
ATOM     61  H   UNL     1      -3.271   2.738  -2.418  1.00  0.00     0.296 HD
ENDBRANCH  58  60
ENDBRANCH  48  58
ENDBRANCH  46  48
ENDBRANCH  34  44
ENDBRANCH  32  34
ENDBRANCH  25  30
ENDBRANCH  23  25
ENDBRANCH   2  23
TORSDOF 28
ENDMDL
MODEL 43
REMARK VINA RESULT:    -5.918      2.991      8.605
REMARK INTER + INTRA:         -19.909
REMARK INTER:                 -14.527
REMARK INTRA:                  -5.382
REMARK UNBOUND:                -5.170
REMARK SMILES CCCCCCC[C@H](N)[C@H](O)C(=O)N[C@H](C)C(=O)N(C)[C@H](CC(C)C)C(=O)N[C@@H](Cc1ccc(O)cc1)C(=O)N[C@@H](Cc1ccc(O)cc1)C(=O)O
REMARK SMILES IDX 18 1 17 2 15 3 16 4 14 5 12 6 13 7 10 9 11 10 8 12 9 13 7 16
REMARK SMILES IDX 6 17 5 18 4 19 3 20 2 21 1 22 19 23 20 24 21 25 22 26 23 27
REMARK SMILES IDX 24 28 25 29 26 30 27 31 28 32 29 34 30 35 31 36 32 37 37 38
REMARK SMILES IDX 33 39 36 40 34 41 35 42 38 44 39 45 40 46 41 48 42 49 43 50
REMARK SMILES IDX 44 51 49 52 45 53 48 54 46 55 47 56 50 58 51 59 52 60
REMARK H PARENT 14 8 11 11 9 14 9 15 28 33 35 43 40 47 47 57 52 61
ROOT
ATOM      1  O   UNL     1      -6.766   4.231  13.042  1.00  0.00    -0.272 OA
ATOM      2  C   UNL     1      -6.286   4.816  12.060  1.00  0.00     0.245 C 
ENDROOT
BRANCH   2   3
ATOM      3  C   UNL     1      -5.501   3.985  11.014  1.00  0.00     0.168 C 
ATOM      4  C   UNL     1      -5.067   2.647  11.601  1.00  0.00     0.041 C 
BRANCH   3   5
ATOM      5  N   UNL     1      -6.173   3.824   9.734  1.00  0.00    -0.342 N 
ATOM      6  C   UNL     1      -5.520   4.035   8.537  1.00  0.00     0.251 C 
ATOM      7  O   UNL     1      -4.355   4.411   8.460  1.00  0.00    -0.272 OA
ATOM      8  H   UNL     1      -7.150   3.549   9.672  1.00  0.00     0.164 HD
BRANCH   6   9
ATOM      9  C   UNL     1      -6.381   3.668   7.318  1.00  0.00     0.219 C 
BRANCH   9  10
ATOM     10  O   UNL     1      -7.785   3.748   7.588  1.00  0.00    -0.382 OA
ATOM     11  H   UNL     1      -8.199   3.550   6.720  1.00  0.00     0.211 HD
ENDBRANCH   9  10
BRANCH   9  12
ATOM     12  C   UNL     1      -6.017   4.482   6.049  1.00  0.00     0.089 C 
BRANCH  12  13
ATOM     13  N   UNL     1      -5.958   5.916   6.414  1.00  0.00    -0.325 NA
ATOM     14  H   UNL     1      -6.116   6.013   7.419  1.00  0.00     0.119 HD
ATOM     15  H   UNL     1      -6.742   6.402   5.973  1.00  0.00     0.119 HD
ENDBRANCH  12  13
BRANCH  12  16
ATOM     16  C   UNL     1      -4.714   4.064   5.325  1.00  0.00     0.022 C 
BRANCH  16  17
ATOM     17  C   UNL     1      -4.278   2.593   5.364  1.00  0.00     0.002 C 
BRANCH  17  18
ATOM     18  C   UNL     1      -2.914   2.342   6.004  1.00  0.00     0.000 C 
BRANCH  18  19
ATOM     19  C   UNL     1      -2.934   1.294   7.124  1.00  0.00    -0.000 C 
BRANCH  19  20
ATOM     20  C   UNL     1      -2.248   1.721   8.426  1.00  0.00    -0.000 C 
BRANCH  20  21
ATOM     21  C   UNL     1      -2.598   0.818   9.612  1.00  0.00    -0.003 C 
ATOM     22  C   UNL     1      -3.003  -0.573   9.149  1.00  0.00     0.004 C 
ENDBRANCH  20  21
ENDBRANCH  19  20
ENDBRANCH  18  19
ENDBRANCH  17  18
ENDBRANCH  16  17
ENDBRANCH  12  16
ENDBRANCH   9  12
ENDBRANCH   6   9
ENDBRANCH   3   5
ENDBRANCH   2   3
BRANCH   2  23
ATOM     23  N   UNL     1      -6.558   6.164  11.851  1.00  0.00    -0.332 N 
ATOM     24  C   UNL     1      -7.816   6.814  12.188  1.00  0.00     0.147 C 
BRANCH  23  25
ATOM     25  C   UNL     1      -5.489   7.080  11.367  1.00  0.00     0.174 C 
BRANCH  25  26
ATOM     26  C   UNL     1      -5.311   8.326  12.266  1.00  0.00     0.038 C 
BRANCH  26  27
ATOM     27  C   UNL     1      -4.047   8.374  13.153  1.00  0.00    -0.015 C 
ATOM     28  C   UNL     1      -2.811   8.843  12.385  1.00  0.00     0.007 C 
ATOM     29  C   UNL     1      -4.230   9.193  14.427  1.00  0.00     0.007 C 
ENDBRANCH  26  27
ENDBRANCH  25  26
BRANCH  25  30
ATOM     30  C   UNL     1      -5.713   7.417   9.874  1.00  0.00     0.243 C 
ATOM     31  O   UNL     1      -6.585   6.863   9.207  1.00  0.00    -0.273 OA
ATOM     32  N   UNL     1      -4.874   8.365   9.348  1.00  0.00    -0.342 N 
ATOM     33  H   UNL     1      -4.273   8.879   9.998  1.00  0.00     0.164 HD
BRANCH  32  34
ATOM     34  C   UNL     1      -4.922   8.789   7.946  1.00  0.00     0.175 C 
BRANCH  34  35
ATOM     35  C   UNL     1      -5.680  10.117   7.791  1.00  0.00     0.070 C 
BRANCH  35  36
ATOM     36  C   UNL     1      -6.976   9.964   7.026  1.00  0.00    -0.045 A 
ATOM     37  C   UNL     1      -7.043  10.344   5.676  1.00  0.00     0.007 A 
ATOM     38  C   UNL     1      -8.126   9.467   7.652  1.00  0.00     0.007 A 
ATOM     39  C   UNL     1      -8.237  10.220   4.966  1.00  0.00     0.046 A 
ATOM     40  C   UNL     1      -9.323   9.344   6.941  1.00  0.00     0.046 A 
ATOM     41  C   UNL     1      -9.367   9.721   5.603  1.00  0.00     0.115 A 
BRANCH  41  42
ATOM     42  O   UNL     1     -10.514   9.618   4.874  1.00  0.00    -0.508 OA
ATOM     43  H   UNL     1     -10.304   9.176   4.035  1.00  0.00     0.293 HD
ENDBRANCH  41  42
ENDBRANCH  35  36
ENDBRANCH  34  35
BRANCH  34  44
ATOM     44  C   UNL     1      -3.471   8.889   7.426  1.00  0.00     0.243 C 
ATOM     45  O   UNL     1      -2.739   9.860   7.593  1.00  0.00    -0.273 OA
ATOM     46  N   UNL     1      -3.100   7.827   6.629  1.00  0.00    -0.341 N 
ATOM     47  H   UNL     1      -3.783   7.101   6.423  1.00  0.00     0.164 HD
BRANCH  46  48
ATOM     48  C   UNL     1      -1.797   7.732   5.967  1.00  0.00     0.196 C 
BRANCH  48  49
ATOM     49  C   UNL     1      -1.329   6.271   5.856  1.00  0.00     0.072 C 
BRANCH  49  50
ATOM     50  C   UNL     1      -0.287   5.914   6.892  1.00  0.00    -0.045 A 
ATOM     51  C   UNL     1       0.613   6.890   7.343  1.00  0.00     0.007 A 
ATOM     52  C   UNL     1      -0.190   4.611   7.397  1.00  0.00     0.007 A 
ATOM     53  C   UNL     1       1.587   6.569   8.288  1.00  0.00     0.046 A 
ATOM     54  C   UNL     1       0.786   4.289   8.343  1.00  0.00     0.046 A 
ATOM     55  C   UNL     1       1.666   5.272   8.781  1.00  0.00     0.115 A 
BRANCH  55  56
ATOM     56  O   UNL     1       2.634   4.999   9.702  1.00  0.00    -0.508 OA
ATOM     57  H   UNL     1       3.140   5.811   9.864  1.00  0.00     0.293 HD
ENDBRANCH  55  56
ENDBRANCH  49  50
ENDBRANCH  48  49
BRANCH  48  58
ATOM     58  C   UNL     1      -1.904   8.346   4.564  1.00  0.00     0.326 C 
ATOM     59  O   UNL     1      -2.688   9.204   4.190  1.00  0.00    -0.250 OA
BRANCH  58  60
ATOM     60  O   UNL     1      -0.994   7.854   3.687  1.00  0.00    -0.480 OA
ATOM     61  H   UNL     1      -0.533   7.159   4.205  1.00  0.00     0.296 HD
ENDBRANCH  58  60
ENDBRANCH  48  58
ENDBRANCH  46  48
ENDBRANCH  34  44
ENDBRANCH  32  34
ENDBRANCH  25  30
ENDBRANCH  23  25
ENDBRANCH   2  23
TORSDOF 28
ENDMDL
MODEL 44
REMARK VINA RESULT:    -5.915     13.251     18.429
REMARK INTER + INTRA:         -19.903
REMARK INTER:                 -15.616
REMARK INTRA:                  -4.287
REMARK UNBOUND:                -5.170
REMARK SMILES CCCCCCC[C@H](N)[C@H](O)C(=O)N[C@H](C)C(=O)N(C)[C@H](CC(C)C)C(=O)N[C@@H](Cc1ccc(O)cc1)C(=O)N[C@@H](Cc1ccc(O)cc1)C(=O)O
REMARK SMILES IDX 18 1 17 2 15 3 16 4 14 5 12 6 13 7 10 9 11 10 8 12 9 13 7 16
REMARK SMILES IDX 6 17 5 18 4 19 3 20 2 21 1 22 19 23 20 24 21 25 22 26 23 27
REMARK SMILES IDX 24 28 25 29 26 30 27 31 28 32 29 34 30 35 31 36 32 37 37 38
REMARK SMILES IDX 33 39 36 40 34 41 35 42 38 44 39 45 40 46 41 48 42 49 43 50
REMARK SMILES IDX 44 51 49 52 45 53 48 54 46 55 47 56 50 58 51 59 52 60
REMARK H PARENT 14 8 11 11 9 14 9 15 28 33 35 43 40 47 47 57 52 61
ROOT
ATOM      1  O   UNL     1      -4.482   5.624  -5.120  1.00  0.00    -0.272 OA
ATOM      2  C   UNL     1      -4.944   4.657  -4.496  1.00  0.00     0.245 C 
ENDROOT
BRANCH   2   3
ATOM      3  C   UNL     1      -5.168   4.799  -2.970  1.00  0.00     0.168 C 
ATOM      4  C   UNL     1      -5.897   3.581  -2.414  1.00  0.00     0.041 C 
BRANCH   3   5
ATOM      5  N   UNL     1      -3.971   5.112  -2.204  1.00  0.00    -0.342 N 
ATOM      6  C   UNL     1      -3.664   6.402  -1.828  1.00  0.00     0.251 C 
ATOM      7  O   UNL     1      -4.339   7.377  -2.141  1.00  0.00    -0.272 OA
ATOM      8  H   UNL     1      -3.315   4.390  -1.915  1.00  0.00     0.164 HD
BRANCH   6   9
ATOM      9  C   UNL     1      -2.435   6.477  -0.907  1.00  0.00     0.219 C 
BRANCH   9  10
ATOM     10  O   UNL     1      -1.430   5.514  -1.248  1.00  0.00    -0.382 OA
ATOM     11  H   UNL     1      -0.588   6.006  -1.124  1.00  0.00     0.211 HD
ENDBRANCH   9  10
BRANCH   9  12
ATOM     12  C   UNL     1      -1.826   7.901  -0.818  1.00  0.00     0.089 C 
BRANCH  12  13
ATOM     13  N   UNL     1      -1.408   8.143   0.582  1.00  0.00    -0.325 NA
ATOM     14  H   UNL     1      -2.197   7.960   1.205  1.00  0.00     0.119 HD
ATOM     15  H   UNL     1      -1.201   9.138   0.698  1.00  0.00     0.119 HD
ENDBRANCH  12  13
BRANCH  12  16
ATOM     16  C   UNL     1      -0.654   8.198  -1.782  1.00  0.00     0.022 C 
BRANCH  16  17
ATOM     17  C   UNL     1      -0.781   9.360  -2.778  1.00  0.00     0.002 C 
BRANCH  17  18
ATOM     18  C   UNL     1      -0.729   8.956  -4.250  1.00  0.00     0.000 C 
BRANCH  18  19
ATOM     19  C   UNL     1      -1.878   8.037  -4.686  1.00  0.00    -0.000 C 
BRANCH  19  20
ATOM     20  C   UNL     1      -2.360   8.237  -6.126  1.00  0.00    -0.000 C 
BRANCH  20  21
ATOM     21  C   UNL     1      -1.666   9.405  -6.833  1.00  0.00    -0.003 C 
ATOM     22  C   UNL     1      -2.560  10.634  -6.881  1.00  0.00     0.004 C 
ENDBRANCH  20  21
ENDBRANCH  19  20
ENDBRANCH  18  19
ENDBRANCH  17  18
ENDBRANCH  16  17
ENDBRANCH  12  16
ENDBRANCH   9  12
ENDBRANCH   6   9
ENDBRANCH   3   5
ENDBRANCH   2   3
BRANCH   2  23
ATOM     23  N   UNL     1      -5.363   3.522  -5.182  1.00  0.00    -0.332 N 
ATOM     24  C   UNL     1      -4.644   2.257  -5.201  1.00  0.00     0.147 C 
BRANCH  23  25
ATOM     25  C   UNL     1      -6.688   3.501  -5.860  1.00  0.00     0.174 C 
BRANCH  25  26
ATOM     26  C   UNL     1      -7.441   2.163  -5.669  1.00  0.00     0.038 C 
BRANCH  26  27
ATOM     27  C   UNL     1      -8.868   2.241  -5.081  1.00  0.00    -0.015 C 
ATOM     28  C   UNL     1      -8.939   1.716  -3.647  1.00  0.00     0.007 C 
ATOM     29  C   UNL     1      -9.489   3.632  -5.176  1.00  0.00     0.007 C 
ENDBRANCH  26  27
ENDBRANCH  25  26
BRANCH  25  30
ATOM     30  C   UNL     1      -6.536   3.922  -7.340  1.00  0.00     0.243 C 
ATOM     31  O   UNL     1      -7.475   3.864  -8.132  1.00  0.00    -0.273 OA
ATOM     32  N   UNL     1      -5.288   4.356  -7.708  1.00  0.00    -0.342 N 
ATOM     33  H   UNL     1      -4.602   4.510  -6.964  1.00  0.00     0.164 HD
BRANCH  32  34
ATOM     34  C   UNL     1      -4.953   4.769  -9.073  1.00  0.00     0.175 C 
BRANCH  34  35
ATOM     35  C   UNL     1      -3.890   5.878  -9.077  1.00  0.00     0.070 C 
BRANCH  35  36
ATOM     36  C   UNL     1      -4.488   7.262  -8.966  1.00  0.00    -0.045 A 
ATOM     37  C   UNL     1      -5.433   7.540  -7.966  1.00  0.00     0.007 A 
ATOM     38  C   UNL     1      -4.130   8.275  -9.865  1.00  0.00     0.007 A 
ATOM     39  C   UNL     1      -6.001   8.811  -7.865  1.00  0.00     0.046 A 
ATOM     40  C   UNL     1      -4.699   9.547  -9.765  1.00  0.00     0.046 A 
ATOM     41  C   UNL     1      -5.629   9.803  -8.763  1.00  0.00     0.115 A 
BRANCH  41  42
ATOM     42  O   UNL     1      -6.210  11.030  -8.631  1.00  0.00    -0.508 OA
ATOM     43  H   UNL     1      -5.514  11.676  -8.428  1.00  0.00     0.293 HD
ENDBRANCH  41  42
ENDBRANCH  35  36
ENDBRANCH  34  35
BRANCH  34  44
ATOM     44  C   UNL     1      -4.486   3.518  -9.850  1.00  0.00     0.243 C 
ATOM     45  O   UNL     1      -4.685   3.330 -11.047  1.00  0.00    -0.273 OA
ATOM     46  N   UNL     1      -3.925   2.549  -9.045  1.00  0.00    -0.341 N 
ATOM     47  H   UNL     1      -3.888   2.703  -8.040  1.00  0.00     0.164 HD
BRANCH  46  48
ATOM     48  C   UNL     1      -3.470   1.250  -9.545  1.00  0.00     0.196 C 
BRANCH  48  49
ATOM     49  C   UNL     1      -2.238   0.753  -8.771  1.00  0.00     0.072 C 
BRANCH  49  50
ATOM     50  C   UNL     1      -0.944   1.312  -9.316  1.00  0.00    -0.045 A 
ATOM     51  C   UNL     1       0.198   1.353  -8.503  1.00  0.00     0.007 A 
ATOM     52  C   UNL     1      -0.869   1.813 -10.622  1.00  0.00     0.007 A 
ATOM     53  C   UNL     1       1.395   1.878  -8.991  1.00  0.00     0.046 A 
ATOM     54  C   UNL     1       0.329   2.341 -11.111  1.00  0.00     0.046 A 
ATOM     55  C   UNL     1       1.451   2.368 -10.290  1.00  0.00     0.115 A 
BRANCH  55  56
ATOM     56  O   UNL     1       2.639   2.875 -10.729  1.00  0.00    -0.508 OA
ATOM     57  H   UNL     1       3.130   2.165 -11.172  1.00  0.00     0.293 HD
ENDBRANCH  55  56
ENDBRANCH  49  50
ENDBRANCH  48  49
BRANCH  48  58
ATOM     58  C   UNL     1      -4.612   0.233  -9.404  1.00  0.00     0.326 C 
ATOM     59  O   UNL     1      -4.738  -0.621  -8.541  1.00  0.00    -0.250 OA
BRANCH  58  60
ATOM     60  O   UNL     1      -5.564   0.352 -10.363  1.00  0.00    -0.480 OA
ATOM     61  H   UNL     1      -5.041   0.460 -11.187  1.00  0.00     0.296 HD
ENDBRANCH  58  60
ENDBRANCH  48  58
ENDBRANCH  46  48
ENDBRANCH  34  44
ENDBRANCH  32  34
ENDBRANCH  25  30
ENDBRANCH  23  25
ENDBRANCH   2  23
TORSDOF 28
ENDMDL
MODEL 45
REMARK VINA RESULT:    -5.912      2.691      5.591
REMARK INTER + INTRA:         -19.896
REMARK INTER:                 -15.638
REMARK INTRA:                  -4.258
REMARK UNBOUND:                -5.170
REMARK SMILES CCCCCCC[C@H](N)[C@H](O)C(=O)N[C@H](C)C(=O)N(C)[C@H](CC(C)C)C(=O)N[C@@H](Cc1ccc(O)cc1)C(=O)N[C@@H](Cc1ccc(O)cc1)C(=O)O
REMARK SMILES IDX 18 1 17 2 15 3 16 4 14 5 12 6 13 7 10 9 11 10 8 12 9 13 7 16
REMARK SMILES IDX 6 17 5 18 4 19 3 20 2 21 1 22 19 23 20 24 21 25 22 26 23 27
REMARK SMILES IDX 24 28 25 29 26 30 27 31 28 32 29 34 30 35 31 36 32 37 37 38
REMARK SMILES IDX 33 39 36 40 34 41 35 42 38 44 39 45 40 46 41 48 42 49 43 50
REMARK SMILES IDX 44 51 49 52 45 53 48 54 46 55 47 56 50 58 51 59 52 60
REMARK H PARENT 14 8 11 11 9 14 9 15 28 33 35 43 40 47 47 57 52 61
ROOT
ATOM      1  O   UNL     1      -4.312   4.003   9.869  1.00  0.00    -0.272 OA
ATOM      2  C   UNL     1      -5.334   4.705   9.832  1.00  0.00     0.245 C 
ENDROOT
BRANCH   2   3
ATOM      3  C   UNL     1      -6.528   4.324  10.741  1.00  0.00     0.168 C 
ATOM      4  C   UNL     1      -6.403   2.884  11.226  1.00  0.00     0.041 C 
BRANCH   3   5
ATOM      5  N   UNL     1      -6.779   5.245  11.839  1.00  0.00    -0.342 N 
ATOM      6  C   UNL     1      -5.754   5.763  12.602  1.00  0.00     0.251 C 
ATOM      7  O   UNL     1      -4.576   5.461  12.447  1.00  0.00    -0.272 OA
ATOM      8  H   UNL     1      -7.720   5.542  12.085  1.00  0.00     0.164 HD
BRANCH   6   9
ATOM      9  C   UNL     1      -6.238   6.821  13.607  1.00  0.00     0.219 C 
BRANCH   9  10
ATOM     10  O   UNL     1      -5.414   6.889  14.777  1.00  0.00    -0.382 OA
ATOM     11  H   UNL     1      -4.692   6.250  14.589  1.00  0.00     0.211 HD
ENDBRANCH   9  10
BRANCH   9  12
ATOM     12  C   UNL     1      -6.415   8.226  12.975  1.00  0.00     0.089 C 
BRANCH  12  13
ATOM     13  N   UNL     1      -7.212   8.083  11.735  1.00  0.00    -0.325 NA
ATOM     14  H   UNL     1      -6.596   7.802  10.970  1.00  0.00     0.119 HD
ATOM     15  H   UNL     1      -7.571   9.002  11.465  1.00  0.00     0.119 HD
ENDBRANCH  12  13
BRANCH  12  16
ATOM     16  C   UNL     1      -7.042   9.306  13.889  1.00  0.00     0.022 C 
BRANCH  16  17
ATOM     17  C   UNL     1      -6.126  10.332  14.570  1.00  0.00     0.002 C 
BRANCH  17  18
ATOM     18  C   UNL     1      -4.964  10.829  13.711  1.00  0.00     0.000 C 
BRANCH  18  19
ATOM     19  C   UNL     1      -3.622  10.892  14.452  1.00  0.00    -0.000 C 
BRANCH  19  20
ATOM     20  C   UNL     1      -3.302   9.674  15.323  1.00  0.00    -0.000 C 
BRANCH  20  21
ATOM     21  C   UNL     1      -2.822  10.049  16.727  1.00  0.00    -0.003 C 
ATOM     22  C   UNL     1      -1.354   9.704  16.922  1.00  0.00     0.004 C 
ENDBRANCH  20  21
ENDBRANCH  19  20
ENDBRANCH  18  19
ENDBRANCH  17  18
ENDBRANCH  16  17
ENDBRANCH  12  16
ENDBRANCH   9  12
ENDBRANCH   6   9
ENDBRANCH   3   5
ENDBRANCH   2   3
BRANCH   2  23
ATOM     23  N   UNL     1      -5.347   5.874   9.078  1.00  0.00    -0.332 N 
ATOM     24  C   UNL     1      -6.431   6.275   8.195  1.00  0.00     0.147 C 
BRANCH  23  25
ATOM     25  C   UNL     1      -4.263   6.882   9.238  1.00  0.00     0.174 C 
BRANCH  25  26
ATOM     26  C   UNL     1      -4.797   8.330   9.337  1.00  0.00     0.038 C 
BRANCH  26  27
ATOM     27  C   UNL     1      -4.073   9.277  10.319  1.00  0.00    -0.015 C 
ATOM     28  C   UNL     1      -3.214   8.523  11.333  1.00  0.00     0.007 C 
ATOM     29  C   UNL     1      -3.255  10.363   9.625  1.00  0.00     0.007 C 
ENDBRANCH  26  27
ENDBRANCH  25  26
BRANCH  25  30
ATOM     30  C   UNL     1      -3.191   6.689   8.140  1.00  0.00     0.243 C 
ATOM     31  O   UNL     1      -3.060   7.486   7.213  1.00  0.00    -0.273 OA
ATOM     32  N   UNL     1      -2.406   5.572   8.268  1.00  0.00    -0.342 N 
ATOM     33  H   UNL     1      -2.480   5.037   9.137  1.00  0.00     0.164 HD
BRANCH  32  34
ATOM     34  C   UNL     1      -1.358   5.214   7.308  1.00  0.00     0.175 C 
BRANCH  34  35
ATOM     35  C   UNL     1      -0.007   5.005   8.007  1.00  0.00     0.070 C 
BRANCH  35  36
ATOM     36  C   UNL     1       1.087   5.882   7.440  1.00  0.00    -0.045 A 
ATOM     37  C   UNL     1       0.847   6.647   6.289  1.00  0.00     0.007 A 
ATOM     38  C   UNL     1       2.355   5.925   8.035  1.00  0.00     0.007 A 
ATOM     39  C   UNL     1       1.854   7.448   5.750  1.00  0.00     0.046 A 
ATOM     40  C   UNL     1       3.364   6.726   7.495  1.00  0.00     0.046 A 
ATOM     41  C   UNL     1       3.104   7.482   6.357  1.00  0.00     0.115 A 
BRANCH  41  42
ATOM     42  O   UNL     1       4.061   8.275   5.797  1.00  0.00    -0.508 OA
ATOM     43  H   UNL     1       3.625   8.898   5.192  1.00  0.00     0.293 HD
ENDBRANCH  41  42
ENDBRANCH  35  36
ENDBRANCH  34  35
BRANCH  34  44
ATOM     44  C   UNL     1      -1.817   3.949   6.548  1.00  0.00     0.243 C 
ATOM     45  O   UNL     1      -1.878   3.858   5.325  1.00  0.00    -0.273 OA
ATOM     46  N   UNL     1      -2.286   2.952   7.377  1.00  0.00    -0.341 N 
ATOM     47  H   UNL     1      -2.325   3.119   8.379  1.00  0.00     0.164 HD
BRANCH  46  48
ATOM     48  C   UNL     1      -2.837   1.687   6.883  1.00  0.00     0.196 C 
BRANCH  48  49
ATOM     49  C   UNL     1      -2.461   0.515   7.806  1.00  0.00     0.072 C 
BRANCH  49  50
ATOM     50  C   UNL     1      -2.604   0.859   9.271  1.00  0.00    -0.045 A 
ATOM     51  C   UNL     1      -1.671   1.710   9.883  1.00  0.00     0.007 A 
ATOM     52  C   UNL     1      -3.645   0.324  10.039  1.00  0.00     0.007 A 
ATOM     53  C   UNL     1      -1.785   2.024  11.238  1.00  0.00     0.046 A 
ATOM     54  C   UNL     1      -3.759   0.638  11.396  1.00  0.00     0.046 A 
ATOM     55  C   UNL     1      -2.827   1.486  11.983  1.00  0.00     0.115 A 
BRANCH  55  56
ATOM     56  O   UNL     1      -2.902   1.817  13.304  1.00  0.00    -0.508 OA
ATOM     57  H   UNL     1      -2.968   2.782  13.375  1.00  0.00     0.293 HD
ENDBRANCH  55  56
ENDBRANCH  49  50
ENDBRANCH  48  49
BRANCH  48  58
ATOM     58  C   UNL     1      -4.365   1.807   6.800  1.00  0.00     0.326 C 
ATOM     59  O   UNL     1      -5.140   1.020   6.281  1.00  0.00    -0.250 OA
BRANCH  58  60
ATOM     60  O   UNL     1      -4.854   2.923   7.396  1.00  0.00    -0.480 OA
ATOM     61  H   UNL     1      -5.705   2.620   7.779  1.00  0.00     0.296 HD
ENDBRANCH  58  60
ENDBRANCH  48  58
ENDBRANCH  46  48
ENDBRANCH  34  44
ENDBRANCH  32  34
ENDBRANCH  25  30
ENDBRANCH  23  25
ENDBRANCH   2  23
TORSDOF 28
ENDMDL
MODEL 46
REMARK VINA RESULT:    -5.907      3.888      7.876
REMARK INTER + INTRA:         -19.882
REMARK INTER:                 -15.047
REMARK INTRA:                  -4.835
REMARK UNBOUND:                -5.170
REMARK SMILES CCCCCCC[C@H](N)[C@H](O)C(=O)N[C@H](C)C(=O)N(C)[C@H](CC(C)C)C(=O)N[C@@H](Cc1ccc(O)cc1)C(=O)N[C@@H](Cc1ccc(O)cc1)C(=O)O
REMARK SMILES IDX 18 1 17 2 15 3 16 4 14 5 12 6 13 7 10 9 11 10 8 12 9 13 7 16
REMARK SMILES IDX 6 17 5 18 4 19 3 20 2 21 1 22 19 23 20 24 21 25 22 26 23 27
REMARK SMILES IDX 24 28 25 29 26 30 27 31 28 32 29 34 30 35 31 36 32 37 37 38
REMARK SMILES IDX 33 39 36 40 34 41 35 42 38 44 39 45 40 46 41 48 42 49 43 50
REMARK SMILES IDX 44 51 49 52 45 53 48 54 46 55 47 56 50 58 51 59 52 60
REMARK H PARENT 14 8 11 11 9 14 9 15 28 33 35 43 40 47 47 57 52 61
ROOT
ATOM      1  O   UNL     1       1.316   7.206   4.472  1.00  0.00    -0.272 OA
ATOM      2  C   UNL     1       1.495   7.416   5.681  1.00  0.00     0.245 C 
ENDROOT
BRANCH   2   3
ATOM      3  C   UNL     1       2.461   8.552   6.101  1.00  0.00     0.168 C 
ATOM      4  C   UNL     1       1.720   9.879   6.212  1.00  0.00     0.041 C 
BRANCH   3   5
ATOM      5  N   UNL     1       3.253   8.272   7.289  1.00  0.00    -0.342 N 
ATOM      6  C   UNL     1       4.507   7.704   7.210  1.00  0.00     0.251 C 
ATOM      7  O   UNL     1       5.028   7.357   6.156  1.00  0.00    -0.272 OA
ATOM      8  H   UNL     1       2.912   8.485   8.223  1.00  0.00     0.164 HD
BRANCH   6   9
ATOM      9  C   UNL     1       5.214   7.634   8.574  1.00  0.00     0.219 C 
BRANCH   9  10
ATOM     10  O   UNL     1       6.243   8.620   8.714  1.00  0.00    -0.382 OA
ATOM     11  H   UNL     1       6.691   8.612   7.840  1.00  0.00     0.211 HD
ENDBRANCH   9  10
BRANCH   9  12
ATOM     12  C   UNL     1       4.231   7.689   9.773  1.00  0.00     0.089 C 
BRANCH  12  13
ATOM     13  N   UNL     1       3.727   6.319  10.027  1.00  0.00    -0.325 NA
ATOM     14  H   UNL     1       4.068   5.694   9.294  1.00  0.00     0.119 HD
ATOM     15  H   UNL     1       2.710   6.317   9.928  1.00  0.00     0.119 HD
ENDBRANCH  12  13
BRANCH  12  16
ATOM     16  C   UNL     1       4.789   8.301  11.079  1.00  0.00     0.022 C 
BRANCH  16  17
ATOM     17  C   UNL     1       3.988   9.400  11.791  1.00  0.00     0.002 C 
BRANCH  17  18
ATOM     18  C   UNL     1       2.573   9.614  11.258  1.00  0.00     0.000 C 
BRANCH  18  19
ATOM     19  C   UNL     1       1.488   8.875  12.053  1.00  0.00    -0.000 C 
BRANCH  19  20
ATOM     20  C   UNL     1       0.050   9.283  11.724  1.00  0.00    -0.000 C 
BRANCH  20  21
ATOM     21  C   UNL     1      -0.044  10.647  11.036  1.00  0.00    -0.003 C 
ATOM     22  C   UNL     1      -1.359  11.341  11.358  1.00  0.00     0.004 C 
ENDBRANCH  20  21
ENDBRANCH  19  20
ENDBRANCH  18  19
ENDBRANCH  17  18
ENDBRANCH  16  17
ENDBRANCH  12  16
ENDBRANCH   9  12
ENDBRANCH   6   9
ENDBRANCH   3   5
ENDBRANCH   2   3
BRANCH   2  23
ATOM     23  N   UNL     1       0.746   6.722   6.625  1.00  0.00    -0.332 N 
ATOM     24  C   UNL     1       1.280   5.703   7.517  1.00  0.00     0.147 C 
BRANCH  23  25
ATOM     25  C   UNL     1      -0.675   7.088   6.873  1.00  0.00     0.174 C 
BRANCH  25  26
ATOM     26  C   UNL     1      -0.896   7.749   8.254  1.00  0.00     0.038 C 
BRANCH  26  27
ATOM     27  C   UNL     1      -1.767   9.024   8.289  1.00  0.00    -0.015 C 
ATOM     28  C   UNL     1      -1.990   9.618   6.899  1.00  0.00     0.007 C 
ATOM     29  C   UNL     1      -3.098   8.830   9.011  1.00  0.00     0.007 C 
ENDBRANCH  26  27
ENDBRANCH  25  26
BRANCH  25  30
ATOM     30  C   UNL     1      -1.592   5.871   6.613  1.00  0.00     0.243 C 
ATOM     31  O   UNL     1      -1.499   5.194   5.589  1.00  0.00    -0.273 OA
ATOM     32  N   UNL     1      -2.513   5.602   7.592  1.00  0.00    -0.342 N 
ATOM     33  H   UNL     1      -2.434   6.119   8.471  1.00  0.00     0.164 HD
BRANCH  32  34
ATOM     34  C   UNL     1      -3.481   4.505   7.503  1.00  0.00     0.175 C 
BRANCH  34  35
ATOM     35  C   UNL     1      -3.809   3.936   8.892  1.00  0.00     0.070 C 
BRANCH  35  36
ATOM     36  C   UNL     1      -3.497   2.461   9.009  1.00  0.00    -0.045 A 
ATOM     37  C   UNL     1      -3.026   1.753   7.892  1.00  0.00     0.007 A 
ATOM     38  C   UNL     1      -3.694   1.778  10.216  1.00  0.00     0.007 A 
ATOM     39  C   UNL     1      -2.749   0.389   7.987  1.00  0.00     0.046 A 
ATOM     40  C   UNL     1      -3.418   0.412  10.311  1.00  0.00     0.046 A 
ATOM     41  C   UNL     1      -2.946  -0.270   9.194  1.00  0.00     0.115 A 
BRANCH  41  42
ATOM     42  O   UNL     1      -2.666  -1.604   9.243  1.00  0.00    -0.508 OA
ATOM     43  H   UNL     1      -3.398  -2.085   8.822  1.00  0.00     0.293 HD
ENDBRANCH  41  42
ENDBRANCH  35  36
ENDBRANCH  34  35
BRANCH  34  44
ATOM     44  C   UNL     1      -4.741   5.035   6.783  1.00  0.00     0.243 C 
ATOM     45  O   UNL     1      -4.975   4.878   5.588  1.00  0.00    -0.273 OA
ATOM     46  N   UNL     1      -5.537   5.828   7.583  1.00  0.00    -0.341 N 
ATOM     47  H   UNL     1      -5.239   6.025   8.535  1.00  0.00     0.164 HD
BRANCH  46  48
ATOM     48  C   UNL     1      -6.748   6.497   7.103  1.00  0.00     0.196 C 
BRANCH  48  49
ATOM     49  C   UNL     1      -7.906   6.346   8.104  1.00  0.00     0.072 C 
BRANCH  49  50
ATOM     50  C   UNL     1      -7.508   5.571   9.340  1.00  0.00    -0.045 A 
ATOM     51  C   UNL     1      -7.067   6.255  10.482  1.00  0.00     0.007 A 
ATOM     52  C   UNL     1      -7.552   4.171   9.359  1.00  0.00     0.007 A 
ATOM     53  C   UNL     1      -6.685   5.551  11.624  1.00  0.00     0.046 A 
ATOM     54  C   UNL     1      -7.168   3.466  10.502  1.00  0.00     0.046 A 
ATOM     55  C   UNL     1      -6.739   4.162  11.626  1.00  0.00     0.115 A 
BRANCH  55  56
ATOM     56  O   UNL     1      -6.355   3.511  12.761  1.00  0.00    -0.508 OA
ATOM     57  H   UNL     1      -6.343   2.559  12.577  1.00  0.00     0.293 HD
ENDBRANCH  55  56
ENDBRANCH  49  50
ENDBRANCH  48  49
BRANCH  48  58
ATOM     58  C   UNL     1      -6.444   7.987   6.889  1.00  0.00     0.326 C 
ATOM     59  O   UNL     1      -6.510   8.881   7.717  1.00  0.00    -0.250 OA
BRANCH  58  60
ATOM     60  O   UNL     1      -6.050   8.283   5.625  1.00  0.00    -0.480 OA
ATOM     61  H   UNL     1      -5.075   8.165   5.659  1.00  0.00     0.296 HD
ENDBRANCH  58  60
ENDBRANCH  48  58
ENDBRANCH  46  48
ENDBRANCH  34  44
ENDBRANCH  32  34
ENDBRANCH  25  30
ENDBRANCH  23  25
ENDBRANCH   2  23
TORSDOF 28
ENDMDL
MODEL 47
REMARK VINA RESULT:    -5.898      2.088      8.058
REMARK INTER + INTRA:         -19.861
REMARK INTER:                 -13.010
REMARK INTRA:                  -6.851
REMARK UNBOUND:                -5.170
REMARK SMILES CCCCCCC[C@H](N)[C@H](O)C(=O)N[C@H](C)C(=O)N(C)[C@H](CC(C)C)C(=O)N[C@@H](Cc1ccc(O)cc1)C(=O)N[C@@H](Cc1ccc(O)cc1)C(=O)O
REMARK SMILES IDX 18 1 17 2 15 3 16 4 14 5 12 6 13 7 10 9 11 10 8 12 9 13 7 16
REMARK SMILES IDX 6 17 5 18 4 19 3 20 2 21 1 22 19 23 20 24 21 25 22 26 23 27
REMARK SMILES IDX 24 28 25 29 26 30 27 31 28 32 29 34 30 35 31 36 32 37 37 38
REMARK SMILES IDX 33 39 36 40 34 41 35 42 38 44 39 45 40 46 41 48 42 49 43 50
REMARK SMILES IDX 44 51 49 52 45 53 48 54 46 55 47 56 50 58 51 59 52 60
REMARK H PARENT 14 8 11 11 9 14 9 15 28 33 35 43 40 47 47 57 52 61
ROOT
ATOM      1  O   UNL     1      -2.614   7.945  13.548  1.00  0.00    -0.272 OA
ATOM      2  C   UNL     1      -3.097   9.086  13.514  1.00  0.00     0.245 C 
ENDROOT
BRANCH   2   3
ATOM      3  C   UNL     1      -3.280   9.772  12.137  1.00  0.00     0.168 C 
ATOM      4  C   UNL     1      -1.959  10.349  11.640  1.00  0.00     0.041 C 
BRANCH   3   5
ATOM      5  N   UNL     1      -3.927   8.951  11.126  1.00  0.00    -0.342 N 
ATOM      6  C   UNL     1      -4.918   9.450  10.308  1.00  0.00     0.251 C 
ATOM      7  O   UNL     1      -5.354  10.593  10.393  1.00  0.00    -0.272 OA
ATOM      8  H   UNL     1      -3.674   7.976  10.984  1.00  0.00     0.164 HD
BRANCH   6   9
ATOM      9  C   UNL     1      -5.354   8.450   9.224  1.00  0.00     0.219 C 
BRANCH   9  10
ATOM     10  O   UNL     1      -6.663   8.728   8.711  1.00  0.00    -0.382 OA
ATOM     11  H   UNL     1      -6.982   7.850   8.405  1.00  0.00     0.211 HD
ENDBRANCH   9  10
BRANCH   9  12
ATOM     12  C   UNL     1      -4.327   8.317   8.070  1.00  0.00     0.089 C 
BRANCH  12  13
ATOM     13  N   UNL     1      -3.376   9.448   8.158  1.00  0.00    -0.325 NA
ATOM     14  H   UNL     1      -3.103   9.583   9.133  1.00  0.00     0.119 HD
ATOM     15  H   UNL     1      -3.860  10.309   7.895  1.00  0.00     0.119 HD
ENDBRANCH  12  13
BRANCH  12  16
ATOM     16  C   UNL     1      -3.555   6.977   8.001  1.00  0.00     0.022 C 
BRANCH  16  17
ATOM     17  C   UNL     1      -2.890   6.566   6.680  1.00  0.00     0.002 C 
BRANCH  17  18
ATOM     18  C   UNL     1      -3.410   5.264   6.075  1.00  0.00     0.000 C 
BRANCH  18  19
ATOM     19  C   UNL     1      -4.938   5.133   6.093  1.00  0.00    -0.000 C 
BRANCH  19  20
ATOM     20  C   UNL     1      -5.489   3.848   5.469  1.00  0.00    -0.000 C 
BRANCH  20  21
ATOM     21  C   UNL     1      -5.470   2.658   6.431  1.00  0.00    -0.003 C 
ATOM     22  C   UNL     1      -4.335   1.699   6.106  1.00  0.00     0.004 C 
ENDBRANCH  20  21
ENDBRANCH  19  20
ENDBRANCH  18  19
ENDBRANCH  17  18
ENDBRANCH  16  17
ENDBRANCH  12  16
ENDBRANCH   9  12
ENDBRANCH   6   9
ENDBRANCH   3   5
ENDBRANCH   2   3
BRANCH   2  23
ATOM     23  N   UNL     1      -3.575   9.675  14.680  1.00  0.00    -0.332 N 
ATOM     24  C   UNL     1      -2.739  10.098  15.793  1.00  0.00     0.147 C 
BRANCH  23  25
ATOM     25  C   UNL     1      -5.014  10.033  14.805  1.00  0.00     0.174 C 
BRANCH  25  26
ATOM     26  C   UNL     1      -5.325  10.838  16.089  1.00  0.00     0.038 C 
BRANCH  26  27
ATOM     27  C   UNL     1      -6.056  12.187  15.911  1.00  0.00    -0.015 C 
ATOM     28  C   UNL     1      -6.294  12.533  14.441  1.00  0.00     0.007 C 
ATOM     29  C   UNL     1      -7.359  12.281  16.701  1.00  0.00     0.007 C 
ENDBRANCH  26  27
ENDBRANCH  25  26
BRANCH  25  30
ATOM     30  C   UNL     1      -5.893   8.774  14.633  1.00  0.00     0.243 C 
ATOM     31  O   UNL     1      -6.008   7.934  15.525  1.00  0.00    -0.273 OA
ATOM     32  N   UNL     1      -6.528   8.654  13.424  1.00  0.00    -0.342 N 
ATOM     33  H   UNL     1      -6.497   9.457  12.791  1.00  0.00     0.164 HD
BRANCH  32  34
ATOM     34  C   UNL     1      -7.379   7.513  13.074  1.00  0.00     0.175 C 
BRANCH  34  35
ATOM     35  C   UNL     1      -8.693   7.974  12.425  1.00  0.00     0.070 C 
BRANCH  35  36
ATOM     36  C   UNL     1      -9.048   9.402  12.774  1.00  0.00    -0.045 A 
ATOM     37  C   UNL     1      -9.557   9.708  14.045  1.00  0.00     0.007 A 
ATOM     38  C   UNL     1      -8.898  10.431  11.835  1.00  0.00     0.007 A 
ATOM     39  C   UNL     1      -9.901  11.020  14.372  1.00  0.00     0.046 A 
ATOM     40  C   UNL     1      -9.243  11.745  12.161  1.00  0.00     0.046 A 
ATOM     41  C   UNL     1      -9.740  12.028  13.428  1.00  0.00     0.115 A 
BRANCH  41  42
ATOM     42  O   UNL     1     -10.090  13.296  13.786  1.00  0.00    -0.508 OA
ATOM     43  H   UNL     1      -9.319  13.721  14.196  1.00  0.00     0.293 HD
ENDBRANCH  41  42
ENDBRANCH  35  36
ENDBRANCH  34  35
BRANCH  34  44
ATOM     44  C   UNL     1      -6.572   6.581  12.144  1.00  0.00     0.243 C 
ATOM     45  O   UNL     1      -5.351   6.452  12.180  1.00  0.00    -0.273 OA
ATOM     46  N   UNL     1      -7.337   5.988  11.162  1.00  0.00    -0.341 N 
ATOM     47  H   UNL     1      -8.326   6.218  11.101  1.00  0.00     0.164 HD
BRANCH  46  48
ATOM     48  C   UNL     1      -6.783   5.118  10.123  1.00  0.00     0.196 C 
BRANCH  48  49
ATOM     49  C   UNL     1      -6.609   3.677  10.633  1.00  0.00     0.072 C 
BRANCH  49  50
ATOM     50  C   UNL     1      -5.176   3.200  10.551  1.00  0.00    -0.045 A 
ATOM     51  C   UNL     1      -4.703   2.249  11.467  1.00  0.00     0.007 A 
ATOM     52  C   UNL     1      -4.301   3.709   9.583  1.00  0.00     0.007 A 
ATOM     53  C   UNL     1      -3.380   1.811  11.409  1.00  0.00     0.046 A 
ATOM     54  C   UNL     1      -2.976   3.271   9.526  1.00  0.00     0.046 A 
ATOM     55  C   UNL     1      -2.527   2.324  10.440  1.00  0.00     0.115 A 
BRANCH  55  56
ATOM     56  O   UNL     1      -1.241   1.872  10.418  1.00  0.00    -0.508 OA
ATOM     57  H   UNL     1      -1.147   1.252   9.678  1.00  0.00     0.293 HD
ENDBRANCH  55  56
ENDBRANCH  49  50
ENDBRANCH  48  49
BRANCH  48  58
ATOM     58  C   UNL     1      -7.724   5.124   8.911  1.00  0.00     0.326 C 
ATOM     59  O   UNL     1      -8.047   4.171   8.220  1.00  0.00    -0.250 OA
BRANCH  58  60
ATOM     60  O   UNL     1      -8.236   6.349   8.629  1.00  0.00    -0.480 OA
ATOM     61  H   UNL     1      -7.856   6.919   9.332  1.00  0.00     0.296 HD
ENDBRANCH  58  60
ENDBRANCH  48  58
ENDBRANCH  46  48
ENDBRANCH  34  44
ENDBRANCH  32  34
ENDBRANCH  25  30
ENDBRANCH  23  25
ENDBRANCH   2  23
TORSDOF 28
ENDMDL
MODEL 48
REMARK VINA RESULT:    -5.881      2.864      6.360
REMARK INTER + INTRA:         -19.818
REMARK INTER:                 -15.144
REMARK INTRA:                  -4.674
REMARK UNBOUND:                -5.170
REMARK SMILES CCCCCCC[C@H](N)[C@H](O)C(=O)N[C@H](C)C(=O)N(C)[C@H](CC(C)C)C(=O)N[C@@H](Cc1ccc(O)cc1)C(=O)N[C@@H](Cc1ccc(O)cc1)C(=O)O
REMARK SMILES IDX 18 1 17 2 15 3 16 4 14 5 12 6 13 7 10 9 11 10 8 12 9 13 7 16
REMARK SMILES IDX 6 17 5 18 4 19 3 20 2 21 1 22 19 23 20 24 21 25 22 26 23 27
REMARK SMILES IDX 24 28 25 29 26 30 27 31 28 32 29 34 30 35 31 36 32 37 37 38
REMARK SMILES IDX 33 39 36 40 34 41 35 42 38 44 39 45 40 46 41 48 42 49 43 50
REMARK SMILES IDX 44 51 49 52 45 53 48 54 46 55 47 56 50 58 51 59 52 60
REMARK H PARENT 14 8 11 11 9 14 9 15 28 33 35 43 40 47 47 57 52 61
ROOT
ATOM      1  O   UNL     1      -4.315   4.106   9.663  1.00  0.00    -0.272 OA
ATOM      2  C   UNL     1      -5.420   4.663   9.591  1.00  0.00     0.245 C 
ENDROOT
BRANCH   2   3
ATOM      3  C   UNL     1      -6.493   4.323  10.655  1.00  0.00     0.168 C 
ATOM      4  C   UNL     1      -6.279   2.919  11.210  1.00  0.00     0.041 C 
BRANCH   3   5
ATOM      5  N   UNL     1      -6.637   5.309  11.715  1.00  0.00    -0.342 N 
ATOM      6  C   UNL     1      -5.572   5.692  12.502  1.00  0.00     0.251 C 
ATOM      7  O   UNL     1      -4.449   5.210  12.402  1.00  0.00    -0.272 OA
ATOM      8  H   UNL     1      -7.529   5.754  11.916  1.00  0.00     0.164 HD
BRANCH   6   9
ATOM      9  C   UNL     1      -5.922   6.845  13.457  1.00  0.00     0.219 C 
BRANCH   9  10
ATOM     10  O   UNL     1      -5.359   6.672  14.763  1.00  0.00    -0.382 OA
ATOM     11  H   UNL     1      -4.408   6.503  14.583  1.00  0.00     0.211 HD
ENDBRANCH   9  10
BRANCH   9  12
ATOM     12  C   UNL     1      -5.565   8.241  12.883  1.00  0.00     0.089 C 
BRANCH  12  13
ATOM     13  N   UNL     1      -6.618   9.198  13.292  1.00  0.00    -0.325 NA
ATOM     14  H   UNL     1      -7.530   8.835  13.010  1.00  0.00     0.119 HD
ATOM     15  H   UNL     1      -6.500  10.065  12.764  1.00  0.00     0.119 HD
ENDBRANCH  12  13
BRANCH  12  16
ATOM     16  C   UNL     1      -4.169   8.792  13.262  1.00  0.00     0.022 C 
BRANCH  16  17
ATOM     17  C   UNL     1      -3.053   8.787  12.208  1.00  0.00     0.002 C 
BRANCH  17  18
ATOM     18  C   UNL     1      -1.670   9.165  12.732  1.00  0.00     0.000 C 
BRANCH  18  19
ATOM     19  C   UNL     1      -0.751   9.793  11.675  1.00  0.00    -0.000 C 
BRANCH  19  20
ATOM     20  C   UNL     1       0.696   9.292  11.691  1.00  0.00    -0.000 C 
BRANCH  20  21
ATOM     21  C   UNL     1       1.086   8.546  10.412  1.00  0.00    -0.003 C 
ATOM     22  C   UNL     1       0.286   9.040   9.217  1.00  0.00     0.004 C 
ENDBRANCH  20  21
ENDBRANCH  19  20
ENDBRANCH  18  19
ENDBRANCH  17  18
ENDBRANCH  16  17
ENDBRANCH  12  16
ENDBRANCH   9  12
ENDBRANCH   6   9
ENDBRANCH   3   5
ENDBRANCH   2   3
BRANCH   2  23
ATOM     23  N   UNL     1      -5.635   5.660   8.645  1.00  0.00    -0.332 N 
ATOM     24  C   UNL     1      -6.810   5.749   7.792  1.00  0.00     0.147 C 
BRANCH  23  25
ATOM     25  C   UNL     1      -4.694   6.809   8.538  1.00  0.00     0.174 C 
BRANCH  25  26
ATOM     26  C   UNL     1      -5.416   8.161   8.329  1.00  0.00     0.038 C 
BRANCH  26  27
ATOM     27  C   UNL     1      -5.926   8.885   9.594  1.00  0.00    -0.015 C 
ATOM     28  C   UNL     1      -5.374  10.305   9.718  1.00  0.00     0.007 C 
ATOM     29  C   UNL     1      -7.447   8.888   9.721  1.00  0.00     0.007 C 
ENDBRANCH  26  27
ENDBRANCH  25  26
BRANCH  25  30
ATOM     30  C   UNL     1      -3.611   6.512   7.475  1.00  0.00     0.243 C 
ATOM     31  O   UNL     1      -3.735   6.867   6.304  1.00  0.00    -0.273 OA
ATOM     32  N   UNL     1      -2.512   5.825   7.924  1.00  0.00    -0.342 N 
ATOM     33  H   UNL     1      -2.418   5.691   8.934  1.00  0.00     0.164 HD
BRANCH  32  34
ATOM     34  C   UNL     1      -1.401   5.434   7.053  1.00  0.00     0.175 C 
BRANCH  34  35
ATOM     35  C   UNL     1      -0.109   5.222   7.857  1.00  0.00     0.070 C 
BRANCH  35  36
ATOM     36  C   UNL     1       1.059   6.006   7.303  1.00  0.00    -0.045 A 
ATOM     37  C   UNL     1       2.279   6.032   7.996  1.00  0.00     0.007 A 
ATOM     38  C   UNL     1       0.937   6.733   6.112  1.00  0.00     0.007 A 
ATOM     39  C   UNL     1       3.359   6.763   7.500  1.00  0.00     0.046 A 
ATOM     40  C   UNL     1       2.017   7.468   5.615  1.00  0.00     0.046 A 
ATOM     41  C   UNL     1       3.220   7.475   6.314  1.00  0.00     0.115 A 
BRANCH  41  42
ATOM     42  O   UNL     1       4.297   8.179   5.866  1.00  0.00    -0.508 OA
ATOM     43  H   UNL     1       5.026   8.056   6.497  1.00  0.00     0.293 HD
ENDBRANCH  41  42
ENDBRANCH  35  36
ENDBRANCH  34  35
BRANCH  34  44
ATOM     44  C   UNL     1      -1.819   4.158   6.287  1.00  0.00     0.243 C 
ATOM     45  O   UNL     1      -1.856   4.065   5.063  1.00  0.00    -0.273 OA
ATOM     46  N   UNL     1      -2.282   3.152   7.108  1.00  0.00    -0.341 N 
ATOM     47  H   UNL     1      -2.343   3.320   8.109  1.00  0.00     0.164 HD
BRANCH  46  48
ATOM     48  C   UNL     1      -2.797   1.876   6.606  1.00  0.00     0.196 C 
BRANCH  48  49
ATOM     49  C   UNL     1      -2.337   0.702   7.487  1.00  0.00     0.072 C 
BRANCH  49  50
ATOM     50  C   UNL     1      -2.469   0.996   8.964  1.00  0.00    -0.045 A 
ATOM     51  C   UNL     1      -3.492   0.392   9.709  1.00  0.00     0.007 A 
ATOM     52  C   UNL     1      -1.594   1.884   9.603  1.00  0.00     0.007 A 
ATOM     53  C   UNL     1      -3.631   0.666  11.070  1.00  0.00     0.046 A 
ATOM     54  C   UNL     1      -1.733   2.159  10.965  1.00  0.00     0.046 A 
ATOM     55  C   UNL     1      -2.751   1.546  11.687  1.00  0.00     0.115 A 
BRANCH  55  56
ATOM     56  O   UNL     1      -2.922   1.789  13.018  1.00  0.00    -0.508 OA
ATOM     57  H   UNL     1      -2.086   1.602  13.473  1.00  0.00     0.293 HD
ENDBRANCH  55  56
ENDBRANCH  49  50
ENDBRANCH  48  49
BRANCH  48  58
ATOM     58  C   UNL     1      -4.331   1.931   6.582  1.00  0.00     0.326 C 
ATOM     59  O   UNL     1      -5.037   2.915   6.731  1.00  0.00    -0.250 OA
BRANCH  58  60
ATOM     60  O   UNL     1      -4.912   0.727   6.352  1.00  0.00    -0.480 OA
ATOM     61  H   UNL     1      -4.257   0.088   6.708  1.00  0.00     0.296 HD
ENDBRANCH  58  60
ENDBRANCH  48  58
ENDBRANCH  46  48
ENDBRANCH  34  44
ENDBRANCH  32  34
ENDBRANCH  25  30
ENDBRANCH  23  25
ENDBRANCH   2  23
TORSDOF 28
ENDMDL
MODEL 49
REMARK VINA RESULT:    -5.821      3.056      6.778
REMARK INTER + INTRA:         -19.669
REMARK INTER:                 -16.526
REMARK INTRA:                  -3.143
REMARK UNBOUND:                -5.170
REMARK SMILES CCCCCCC[C@H](N)[C@H](O)C(=O)N[C@H](C)C(=O)N(C)[C@H](CC(C)C)C(=O)N[C@@H](Cc1ccc(O)cc1)C(=O)N[C@@H](Cc1ccc(O)cc1)C(=O)O
REMARK SMILES IDX 18 1 17 2 15 3 16 4 14 5 12 6 13 7 10 9 11 10 8 12 9 13 7 16
REMARK SMILES IDX 6 17 5 18 4 19 3 20 2 21 1 22 19 23 20 24 21 25 22 26 23 27
REMARK SMILES IDX 24 28 25 29 26 30 27 31 28 32 29 34 30 35 31 36 32 37 37 38
REMARK SMILES IDX 33 39 36 40 34 41 35 42 38 44 39 45 40 46 41 48 42 49 43 50
REMARK SMILES IDX 44 51 49 52 45 53 48 54 46 55 47 56 50 58 51 59 52 60
REMARK H PARENT 14 8 11 11 9 14 9 15 28 33 35 43 40 47 47 57 52 61
ROOT
ATOM      1  O   UNL     1      -8.006   6.343   8.527  1.00  0.00    -0.272 OA
ATOM      2  C   UNL     1      -6.909   6.271   9.101  1.00  0.00     0.245 C 
ENDROOT
BRANCH   2   3
ATOM      3  C   UNL     1      -6.404   7.504   9.892  1.00  0.00     0.168 C 
ATOM      4  C   UNL     1      -7.484   8.578   9.968  1.00  0.00     0.041 C 
BRANCH   3   5
ATOM      5  N   UNL     1      -5.845   7.203  11.201  1.00  0.00    -0.342 N 
ATOM      6  C   UNL     1      -4.802   7.932  11.732  1.00  0.00     0.251 C 
ATOM      7  O   UNL     1      -4.244   8.847  11.136  1.00  0.00    -0.272 OA
ATOM      8  H   UNL     1      -6.203   6.443  11.775  1.00  0.00     0.164 HD
BRANCH   6   9
ATOM      9  C   UNL     1      -4.472   7.530  13.178  1.00  0.00     0.219 C 
BRANCH   9  10
ATOM     10  O   UNL     1      -3.288   8.167  13.672  1.00  0.00    -0.382 OA
ATOM     11  H   UNL     1      -3.368   8.080  14.648  1.00  0.00     0.211 HD
ENDBRANCH   9  10
BRANCH   9  12
ATOM     12  C   UNL     1      -5.659   7.742  14.154  1.00  0.00     0.089 C 
BRANCH  12  13
ATOM     13  N   UNL     1      -5.490   6.822  15.302  1.00  0.00    -0.325 NA
ATOM     14  H   UNL     1      -5.336   5.874  14.953  1.00  0.00     0.119 HD
ATOM     15  H   UNL     1      -6.369   6.776  15.822  1.00  0.00     0.119 HD
ENDBRANCH  12  13
BRANCH  12  16
ATOM     16  C   UNL     1      -5.872   9.189  14.660  1.00  0.00     0.022 C 
BRANCH  16  17
ATOM     17  C   UNL     1      -7.257   9.605  15.173  1.00  0.00     0.002 C 
BRANCH  17  18
ATOM     18  C   UNL     1      -8.276   9.934  14.084  1.00  0.00     0.000 C 
BRANCH  18  19
ATOM     19  C   UNL     1      -8.946  11.304  14.250  1.00  0.00    -0.000 C 
BRANCH  19  20
ATOM     20  C   UNL     1     -10.434  11.261  14.610  1.00  0.00    -0.000 C 
BRANCH  20  21
ATOM     21  C   UNL     1     -11.064   9.883  14.392  1.00  0.00    -0.003 C 
ATOM     22  C   UNL     1     -11.765   9.800  13.045  1.00  0.00     0.004 C 
ENDBRANCH  20  21
ENDBRANCH  19  20
ENDBRANCH  18  19
ENDBRANCH  17  18
ENDBRANCH  16  17
ENDBRANCH  12  16
ENDBRANCH   9  12
ENDBRANCH   6   9
ENDBRANCH   3   5
ENDBRANCH   2   3
BRANCH   2  23
ATOM     23  N   UNL     1      -6.216   5.066   9.128  1.00  0.00    -0.332 N 
ATOM     24  C   UNL     1      -6.380   4.042  10.150  1.00  0.00     0.147 C 
BRANCH  23  25
ATOM     25  C   UNL     1      -5.323   4.687   7.999  1.00  0.00     0.174 C 
BRANCH  25  26
ATOM     26  C   UNL     1      -5.456   3.199   7.600  1.00  0.00     0.038 C 
BRANCH  26  27
ATOM     27  C   UNL     1      -5.558   2.885   6.090  1.00  0.00    -0.015 C 
ATOM     28  C   UNL     1      -5.644   4.149   5.235  1.00  0.00     0.007 C 
ATOM     29  C   UNL     1      -4.447   1.969   5.584  1.00  0.00     0.007 C 
ENDBRANCH  26  27
ENDBRANCH  25  26
BRANCH  25  30
ATOM     30  C   UNL     1      -3.870   5.122   8.300  1.00  0.00     0.243 C 
ATOM     31  O   UNL     1      -3.617   6.097   9.006  1.00  0.00    -0.273 OA
ATOM     32  N   UNL     1      -2.890   4.357   7.723  1.00  0.00    -0.342 N 
ATOM     33  H   UNL     1      -3.175   3.485   7.269  1.00  0.00     0.164 HD
BRANCH  32  34
ATOM     34  C   UNL     1      -1.460   4.637   7.876  1.00  0.00     0.175 C 
BRANCH  34  35
ATOM     35  C   UNL     1      -0.696   3.395   8.361  1.00  0.00     0.070 C 
BRANCH  35  36
ATOM     36  C   UNL     1      -1.598   2.370   9.011  1.00  0.00    -0.045 A 
ATOM     37  C   UNL     1      -2.118   1.311   8.251  1.00  0.00     0.007 A 
ATOM     38  C   UNL     1      -1.946   2.473  10.364  1.00  0.00     0.007 A 
ATOM     39  C   UNL     1      -2.962   0.368   8.838  1.00  0.00     0.046 A 
ATOM     40  C   UNL     1      -2.792   1.530  10.952  1.00  0.00     0.046 A 
ATOM     41  C   UNL     1      -3.292   0.485  10.183  1.00  0.00     0.115 A 
BRANCH  41  42
ATOM     42  O   UNL     1      -4.123  -0.456  10.718  1.00  0.00    -0.508 OA
ATOM     43  H   UNL     1      -5.032  -0.249  10.445  1.00  0.00     0.293 HD
ENDBRANCH  41  42
ENDBRANCH  35  36
ENDBRANCH  34  35
BRANCH  34  44
ATOM     44  C   UNL     1      -0.925   5.150   6.520  1.00  0.00     0.243 C 
ATOM     45  O   UNL     1      -1.294   4.733   5.426  1.00  0.00    -0.273 OA
ATOM     46  N   UNL     1       0.118   6.044   6.645  1.00  0.00    -0.341 N 
ATOM     47  H   UNL     1       0.466   6.270   7.573  1.00  0.00     0.164 HD
BRANCH  46  48
ATOM     48  C   UNL     1       0.831   6.615   5.500  1.00  0.00     0.196 C 
BRANCH  48  49
ATOM     49  C   UNL     1       0.154   7.905   5.005  1.00  0.00     0.072 C 
BRANCH  49  50
ATOM     50  C   UNL     1       0.123   8.004   3.497  1.00  0.00    -0.045 A 
ATOM     51  C   UNL     1      -0.122   6.858   2.726  1.00  0.00     0.007 A 
ATOM     52  C   UNL     1       0.358   9.224   2.850  1.00  0.00     0.007 A 
ATOM     53  C   UNL     1      -0.139   6.935   1.333  1.00  0.00     0.046 A 
ATOM     54  C   UNL     1       0.342   9.300   1.455  1.00  0.00     0.046 A 
ATOM     55  C   UNL     1       0.092   8.154   0.708  1.00  0.00     0.115 A 
BRANCH  55  56
ATOM     56  O   UNL     1       0.068   8.186  -0.654  1.00  0.00    -0.508 OA
ATOM     57  H   UNL     1      -0.631   7.588  -0.962  1.00  0.00     0.293 HD
ENDBRANCH  55  56
ENDBRANCH  49  50
ENDBRANCH  48  49
BRANCH  48  58
ATOM     58  C   UNL     1       2.277   6.919   5.914  1.00  0.00     0.326 C 
ATOM     59  O   UNL     1       2.995   6.249   6.638  1.00  0.00    -0.250 OA
BRANCH  58  60
ATOM     60  O   UNL     1       2.764   8.066   5.376  1.00  0.00    -0.480 OA
ATOM     61  H   UNL     1       3.737   7.930   5.398  1.00  0.00     0.296 HD
ENDBRANCH  58  60
ENDBRANCH  48  58
ENDBRANCH  46  48
ENDBRANCH  34  44
ENDBRANCH  32  34
ENDBRANCH  25  30
ENDBRANCH  23  25
ENDBRANCH   2  23
TORSDOF 28
ENDMDL
MODEL 50
REMARK VINA RESULT:    -5.771     12.378     17.723
REMARK INTER + INTRA:         -19.543
REMARK INTER:                 -13.379
REMARK INTRA:                  -6.164
REMARK UNBOUND:                -5.170
REMARK SMILES CCCCCCC[C@H](N)[C@H](O)C(=O)N[C@H](C)C(=O)N(C)[C@H](CC(C)C)C(=O)N[C@@H](Cc1ccc(O)cc1)C(=O)N[C@@H](Cc1ccc(O)cc1)C(=O)O
REMARK SMILES IDX 18 1 17 2 15 3 16 4 14 5 12 6 13 7 10 9 11 10 8 12 9 13 7 16
REMARK SMILES IDX 6 17 5 18 4 19 3 20 2 21 1 22 19 23 20 24 21 25 22 26 23 27
REMARK SMILES IDX 24 28 25 29 26 30 27 31 28 32 29 34 30 35 31 36 32 37 37 38
REMARK SMILES IDX 33 39 36 40 34 41 35 42 38 44 39 45 40 46 41 48 42 49 43 50
REMARK SMILES IDX 44 51 49 52 45 53 48 54 46 55 47 56 50 58 51 59 52 60
REMARK H PARENT 14 8 11 11 9 14 9 15 28 33 35 43 40 47 47 57 52 61
ROOT
ATOM      1  O   UNL     1      -5.691   4.297  -1.513  1.00  0.00    -0.272 OA
ATOM      2  C   UNL     1      -6.769   3.688  -1.583  1.00  0.00     0.245 C 
ENDROOT
BRANCH   2   3
ATOM      3  C   UNL     1      -6.743   2.170  -1.894  1.00  0.00     0.168 C 
ATOM      4  C   UNL     1      -7.367   1.373  -0.754  1.00  0.00     0.041 C 
BRANCH   3   5
ATOM      5  N   UNL     1      -7.304   1.802  -3.185  1.00  0.00    -0.342 N 
ATOM      6  C   UNL     1      -6.516   1.660  -4.307  1.00  0.00     0.251 C 
ATOM      7  O   UNL     1      -5.307   1.870  -4.316  1.00  0.00    -0.272 OA
ATOM      8  H   UNL     1      -8.300   1.635  -3.308  1.00  0.00     0.164 HD
BRANCH   6   9
ATOM      9  C   UNL     1      -7.298   1.128  -5.519  1.00  0.00     0.219 C 
BRANCH   9  10
ATOM     10  O   UNL     1      -8.121   2.130  -6.128  1.00  0.00    -0.382 OA
ATOM     11  H   UNL     1      -9.027   1.902  -5.822  1.00  0.00     0.211 HD
ENDBRANCH   9  10
BRANCH   9  12
ATOM     12  C   UNL     1      -6.392   0.443  -6.575  1.00  0.00     0.089 C 
BRANCH  12  13
ATOM     13  N   UNL     1      -6.844  -0.957  -6.741  1.00  0.00    -0.325 NA
ATOM     14  H   UNL     1      -6.071  -1.520  -7.100  1.00  0.00     0.119 HD
ATOM     15  H   UNL     1      -7.559  -0.990  -7.471  1.00  0.00     0.119 HD
ENDBRANCH  12  13
BRANCH  12  16
ATOM     16  C   UNL     1      -6.310   1.142  -7.954  1.00  0.00     0.022 C 
BRANCH  16  17
ATOM     17  C   UNL     1      -4.940   1.311  -8.625  1.00  0.00     0.002 C 
BRANCH  17  18
ATOM     18  C   UNL     1      -4.887   2.370  -9.724  1.00  0.00     0.000 C 
BRANCH  18  19
ATOM     19  C   UNL     1      -6.122   3.278  -9.776  1.00  0.00    -0.000 C 
BRANCH  19  20
ATOM     20  C   UNL     1      -5.942   4.659  -9.138  1.00  0.00    -0.000 C 
BRANCH  20  21
ATOM     21  C   UNL     1      -6.530   4.749  -7.727  1.00  0.00    -0.003 C 
ATOM     22  C   UNL     1      -7.862   5.483  -7.728  1.00  0.00     0.004 C 
ENDBRANCH  20  21
ENDBRANCH  19  20
ENDBRANCH  18  19
ENDBRANCH  17  18
ENDBRANCH  16  17
ENDBRANCH  12  16
ENDBRANCH   9  12
ENDBRANCH   6   9
ENDBRANCH   3   5
ENDBRANCH   2   3
BRANCH   2  23
ATOM     23  N   UNL     1      -7.957   4.337  -1.265  1.00  0.00    -0.332 N 
ATOM     24  C   UNL     1      -8.585   4.312   0.048  1.00  0.00     0.147 C 
BRANCH  23  25
ATOM     25  C   UNL     1      -8.612   5.232  -2.257  1.00  0.00     0.174 C 
BRANCH  25  26
ATOM     26  C   UNL     1     -10.071   4.822  -2.567  1.00  0.00     0.038 C 
BRANCH  26  27
ATOM     27  C   UNL     1     -10.310   3.358  -3.000  1.00  0.00    -0.015 C 
ATOM     28  C   UNL     1     -11.103   2.563  -1.964  1.00  0.00     0.007 C 
ATOM     29  C   UNL     1     -10.950   3.230  -4.380  1.00  0.00     0.007 C 
ENDBRANCH  26  27
ENDBRANCH  25  26
BRANCH  25  30
ATOM     30  C   UNL     1      -7.725   5.372  -3.515  1.00  0.00     0.243 C 
ATOM     31  O   UNL     1      -7.791   4.573  -4.448  1.00  0.00    -0.273 OA
ATOM     32  N   UNL     1      -6.862   6.437  -3.517  1.00  0.00    -0.342 N 
ATOM     33  H   UNL     1      -6.966   7.132  -2.774  1.00  0.00     0.164 HD
BRANCH  32  34
ATOM     34  C   UNL     1      -5.928   6.710  -4.613  1.00  0.00     0.175 C 
BRANCH  34  35
ATOM     35  C   UNL     1      -5.949   8.194  -5.009  1.00  0.00     0.070 C 
BRANCH  35  36
ATOM     36  C   UNL     1      -5.469   8.429  -6.423  1.00  0.00    -0.045 A 
ATOM     37  C   UNL     1      -5.983   9.500  -7.170  1.00  0.00     0.007 A 
ATOM     38  C   UNL     1      -4.528   7.576  -7.014  1.00  0.00     0.007 A 
ATOM     39  C   UNL     1      -5.556   9.717  -8.480  1.00  0.00     0.046 A 
ATOM     40  C   UNL     1      -4.102   7.791  -8.327  1.00  0.00     0.046 A 
ATOM     41  C   UNL     1      -4.619   8.862  -9.048  1.00  0.00     0.115 A 
BRANCH  41  42
ATOM     42  O   UNL     1      -4.231   9.107 -10.332  1.00  0.00    -0.508 OA
ATOM     43  H   UNL     1      -3.921  10.027 -10.386  1.00  0.00     0.293 HD
ENDBRANCH  41  42
ENDBRANCH  35  36
ENDBRANCH  34  35
BRANCH  34  44
ATOM     44  C   UNL     1      -4.521   6.251  -4.168  1.00  0.00     0.243 C 
ATOM     45  O   UNL     1      -4.100   5.102  -4.274  1.00  0.00    -0.273 OA
ATOM     46  N   UNL     1      -3.806   7.230  -3.511  1.00  0.00    -0.341 N 
ATOM     47  H   UNL     1      -4.244   8.133  -3.345  1.00  0.00     0.164 HD
BRANCH  46  48
ATOM     48  C   UNL     1      -2.477   7.010  -2.938  1.00  0.00     0.196 C 
BRANCH  48  49
ATOM     49  C   UNL     1      -1.626   8.290  -2.989  1.00  0.00     0.072 C 
BRANCH  49  50
ATOM     50  C   UNL     1      -1.772   9.034  -4.297  1.00  0.00    -0.045 A 
ATOM     51  C   UNL     1      -1.046   8.618  -5.423  1.00  0.00     0.007 A 
ATOM     52  C   UNL     1      -2.609  10.152  -4.401  1.00  0.00     0.007 A 
ATOM     53  C   UNL     1      -1.162   9.305  -6.631  1.00  0.00     0.046 A 
ATOM     54  C   UNL     1      -2.725  10.840  -5.611  1.00  0.00     0.046 A 
ATOM     55  C   UNL     1      -2.000  10.409  -6.717  1.00  0.00     0.115 A 
BRANCH  55  56
ATOM     56  O   UNL     1      -2.084  11.054  -7.916  1.00  0.00    -0.508 OA
ATOM     57  H   UNL     1      -1.467  10.632  -8.534  1.00  0.00     0.293 HD
ENDBRANCH  55  56
ENDBRANCH  49  50
ENDBRANCH  48  49
BRANCH  48  58
ATOM     58  C   UNL     1      -2.630   6.551  -1.482  1.00  0.00     0.326 C 
ATOM     59  O   UNL     1      -2.503   7.230  -0.476  1.00  0.00    -0.250 OA
BRANCH  58  60
ATOM     60  O   UNL     1      -2.956   5.239  -1.359  1.00  0.00    -0.480 OA
ATOM     61  H   UNL     1      -2.934   5.091  -0.389  1.00  0.00     0.296 HD
ENDBRANCH  58  60
ENDBRANCH  48  58
ENDBRANCH  46  48
ENDBRANCH  34  44
ENDBRANCH  32  34
ENDBRANCH  25  30
ENDBRANCH  23  25
ENDBRANCH   2  23
TORSDOF 28
ENDMDL
