MODEL 1
REMARK VINA RESULT:    -6.751      0.000      0.000
REMARK INTER + INTRA:         -25.146
REMARK INTER:                 -19.379
REMARK INTRA:                  -5.767
REMARK UNBOUND:                -5.767
REMARK SMILES CCCCCC(=O)N[C@H](CC(=O)O)C(=O)N[C@H]1C(=O)N[C@H](CCCN=C(N)N)C(=O)N[C@@H]2CC[C@H](O)N(C2=O)[C@@H](CC(C)C)C(=O)N(C)[C@@H](Cc2ccccc2)C(=O)N[C@H](C(C)C)C(=O)O[C@@H]1C
REMARK SMILES IDX 30 1 31 2 29 3 32 5 35 6 37 7 34 8 38 9 33 10 39 11 36 12
REMARK SMILES IDX 40 14 41 15 42 16 43 17 44 18 45 19 46 20 47 21 48 22 49 23
REMARK SMILES IDX 50 24 51 25 52 26 56 27 53 28 55 29 54 30 57 31 58 32 59 33
REMARK SMILES IDX 60 35 61 36 62 37 63 38 64 39 65 40 66 41 67 42 68 43 21 45
REMARK SMILES IDX 20 46 18 47 19 48 17 50 16 52 14 53 15 54 9 56 8 57 6 58
REMARK SMILES IDX 7 59 5 61 4 62 3 63 2 64 1 65 10 66 11 67 12 68 13 69 22 71
REMARK SMILES IDX 23 72 24 73 25 74 26 75 27 76 28 77
REMARK H PARENT 31 4 36 13 59 34 20 49 16 55 8 60 13 70 27 78 27 79 28 80
REMARK H PARENT 28 81
REMARK Flexibility Score:  259.900
ROOT
ATOM      1  O   UNL     1      -1.237   1.301  -3.855  1.00  0.00    -0.273 OA
ATOM      2  N   UNL     1      -2.108  -0.814  -3.873  1.00  0.00    -0.343 N 
ATOM      3  C   UNL     1      -1.675   0.341  -4.489  1.00  0.00     0.243 C 
ATOM      4  H   UNL     1      -2.448  -1.589  -4.428  1.00  0.00     0.164 HD
ENDROOT
BRANCH   2   5
ATOM      5  C   UNL     1      -2.176  -0.898  -2.418  1.00  0.00     0.171 C 
ATOM      6  C   UNL     1      -2.477  -3.130  -0.592  1.00  0.00     0.214 C 
ATOM      7  N   UNL     1      -3.652  -2.441  -1.072  1.00  0.00    -0.303 N 
ATOM      8  C   UNL     1      -1.251  -2.235  -0.500  1.00  0.00     0.057 C 
ATOM      9  C   UNL     1      -3.583  -1.401  -1.985  1.00  0.00     0.247 C 
ATOM     10  C   UNL     1      -0.957  -1.626  -1.854  1.00  0.00     0.040 C 
ATOM     11  O   UNL     1      -4.599  -0.874  -2.457  1.00  0.00    -0.272 OA
BRANCH   6  12
ATOM     12  O   UNL     1      -2.230  -4.215  -1.457  1.00  0.00    -0.373 OA
ATOM     13  H   UNL     1      -1.509  -4.744  -1.055  1.00  0.00     0.213 HD
ENDBRANCH   6  12
BRANCH   7  14
ATOM     14  C   UNL     1      -4.964  -2.988  -0.663  1.00  0.00     0.177 C 
BRANCH  14  15
ATOM     15  C   UNL     1      -5.398  -4.271  -1.397  1.00  0.00     0.038 C 
BRANCH  15  16
ATOM     16  C   UNL     1      -6.123  -4.161  -2.757  1.00  0.00    -0.015 C 
ATOM     17  C   UNL     1      -7.265  -3.140  -2.729  1.00  0.00     0.007 C 
ATOM     18  C   UNL     1      -6.708  -5.525  -3.145  1.00  0.00     0.007 C 
ENDBRANCH  15  16
ENDBRANCH  14  15
BRANCH  14  19
ATOM     19  C   UNL     1      -5.236  -2.671   0.848  1.00  0.00     0.245 C 
ATOM     20  O   UNL     1      -5.102  -3.611   1.650  1.00  0.00    -0.272 OA
BRANCH  19  21
ATOM     21  N   UNL     1      -5.717  -1.457   1.307  1.00  0.00    -0.332 N 
ATOM     22  C   UNL     1      -6.254  -0.395   0.476  1.00  0.00     0.147 C 
BRANCH  21  23
ATOM     23  C   UNL     1      -5.676  -1.202   2.774  1.00  0.00     0.178 C 
BRANCH  23  24
ATOM     24  C   UNL     1      -4.807   0.000   3.196  1.00  0.00     0.070 C 
BRANCH  24  25
ATOM     25  C   UNL     1      -3.399  -0.296   3.657  1.00  0.00    -0.045 A 
ATOM     26  C   UNL     1      -2.518  -1.028   2.851  1.00  0.00     0.004 A 
ATOM     27  C   UNL     1      -2.955   0.157   4.908  1.00  0.00     0.004 A 
ATOM     28  C   UNL     1      -1.224  -1.312   3.292  1.00  0.00     0.000 A 
ATOM     29  C   UNL     1      -1.660  -0.127   5.348  1.00  0.00     0.000 A 
ATOM     30  C   UNL     1      -0.797  -0.864   4.540  1.00  0.00     0.000 A 
ENDBRANCH  24  25
ENDBRANCH  23  24
BRANCH  23  31
ATOM     31  C   UNL     1      -7.073  -1.261   3.436  1.00  0.00     0.243 C 
ATOM     32  O   UNL     1      -7.949  -2.062   3.121  1.00  0.00    -0.273 OA
ATOM     33  N   UNL     1      -7.322  -0.205   4.297  1.00  0.00    -0.341 N 
ATOM     34  H   UNL     1      -6.553   0.433   4.516  1.00  0.00     0.164 HD
BRANCH  33  35
ATOM     35  C   UNL     1      -8.619   0.009   4.944  1.00  0.00     0.194 C 
BRANCH  35  36
ATOM     36  C   UNL     1      -9.474   1.133   4.295  1.00  0.00     0.017 C 
ATOM     37  C   UNL     1     -10.641   0.549   3.480  1.00  0.00     0.010 C 
ATOM     38  C   UNL     1      -8.669   2.041   3.358  1.00  0.00     0.010 C 
ENDBRANCH  35  36
BRANCH  35  39
ATOM     39  C   UNL     1      -8.496   0.187   6.483  1.00  0.00     0.329 C 
ATOM     40  O   UNL     1      -7.440   0.396   7.068  1.00  0.00    -0.250 OA
BRANCH  39  41
ATOM     41  O   UNL     1      -9.713   0.172   7.107  1.00  0.00    -0.458 OA
BRANCH  41  42
ATOM     42  C   UNL     1      -9.711  -0.185   8.510  1.00  0.00     0.205 CG0
ATOM     43  C   UNL     1     -10.574  -1.435   8.662  1.00  0.00     0.056 C 
ATOM     44  G   UNL     1     -10.253   1.008   9.322  1.00  0.00     0.000 G0
ENDBRANCH  41  42
ENDBRANCH  39  41
ENDBRANCH  35  39
ENDBRANCH  33  35
ENDBRANCH  23  31
ENDBRANCH  21  23
ENDBRANCH  19  21
ENDBRANCH  14  19
ENDBRANCH   7  14
ENDBRANCH   2   5
BRANCH   3  45
ATOM     45  C   UNL     1      -1.756   0.338  -6.021  1.00  0.00     0.171 C 
BRANCH  45  46
ATOM     46  N   UNL     1      -0.459  -0.139  -6.483  1.00  0.00    -0.342 N 
ATOM     47  C   UNL     1      -0.173  -1.474  -6.624  1.00  0.00     0.247 C 
ATOM     48  O   UNL     1      -1.009  -2.360  -6.442  1.00  0.00    -0.273 OA
ATOM     49  H   UNL     1       0.246   0.563  -6.700  1.00  0.00     0.164 HD
BRANCH  47  50
ATOM     50  C   UNL     1       1.281  -1.791  -7.001  1.00  0.00     0.212 CG0
ATOM     51  G   UNL     1       1.254  -2.710  -8.239  1.00  0.00     0.000 G0
BRANCH  50  52
ATOM     52  N   UNL     1       1.909  -0.497  -7.256  1.00  0.00    -0.339 N 
ATOM     53  C   UNL     1       2.486   0.270  -6.273  1.00  0.00     0.243 C 
ATOM     54  O   UNL     1       2.472  -0.052  -5.089  1.00  0.00    -0.273 OA
ATOM     55  H   UNL     1       1.854  -0.124  -8.202  1.00  0.00     0.164 HD
BRANCH  53  56
ATOM     56  C   UNL     1       3.006   1.635  -6.768  1.00  0.00     0.182 C 
BRANCH  56  57
ATOM     57  N   UNL     1       2.519   1.926  -8.120  1.00  0.00    -0.344 N 
ATOM     58  C   UNL     1       2.174   3.194  -8.520  1.00  0.00     0.220 C 
ATOM     59  O   UNL     1       2.179   4.155  -7.759  1.00  0.00    -0.275 OA
ATOM     60  H   UNL     1       2.596   1.181  -8.807  1.00  0.00     0.164 HD
BRANCH  58  61
ATOM     61  C   UNL     1       1.753   3.271  -9.976  1.00  0.00     0.100 C 
BRANCH  61  62
ATOM     62  C   UNL     1       0.988   4.546 -10.330  1.00  0.00     0.010 C 
BRANCH  62  63
ATOM     63  C   UNL     1       0.345   4.526 -11.723  1.00  0.00     0.000 C 
BRANCH  63  64
ATOM     64  C   UNL     1       0.867   3.419 -12.638  1.00  0.00    -0.003 C 
ATOM     65  C   UNL     1       0.319   3.563 -14.051  1.00  0.00     0.004 C 
ENDBRANCH  63  64
ENDBRANCH  62  63
ENDBRANCH  61  62
ENDBRANCH  58  61
ENDBRANCH  56  57
BRANCH  56  66
ATOM     66  C   UNL     1       4.529   1.722  -6.672  1.00  0.00     0.157 C 
BRANCH  66  67
ATOM     67  C   UNL     1       4.954   2.515  -5.470  1.00  0.00     0.305 C 
ATOM     68  O   UNL     1       5.577   3.566  -5.468  1.00  0.00    -0.252 OA
BRANCH  67  69
ATOM     69  O   UNL     1       4.524   1.967  -4.317  1.00  0.00    -0.481 OA
ATOM     70  H   UNL     1       3.755   1.416  -4.574  1.00  0.00     0.296 HD
ENDBRANCH  67  69
ENDBRANCH  66  67
ENDBRANCH  56  66
ENDBRANCH  53  56
ENDBRANCH  50  52
ENDBRANCH  47  50
ENDBRANCH  45  46
BRANCH  45  71
ATOM     71  C   UNL     1      -2.058   1.747  -6.543  1.00  0.00     0.037 C 
BRANCH  71  72
ATOM     72  C   UNL     1      -3.550   2.081  -6.467  1.00  0.00     0.026 C 
BRANCH  72  73
ATOM     73  C   UNL     1      -3.839   3.107  -5.372  1.00  0.00     0.146 C 
BRANCH  73  74
ATOM     74  N   UNL     1      -4.720   2.478  -4.393  1.00  0.00    -0.254 NA
ATOM     75  C   UNL     1      -4.399   2.565  -3.155  1.00  0.00     0.185 C 
ATOM     76  N   UNL     1      -5.190   1.998  -2.230  1.00  0.00    -0.370 N 
ATOM     77  N   UNL     1      -3.333   3.168  -2.599  1.00  0.00    -0.370 N 
ATOM     78  H   UNL     1      -6.012   1.516  -2.565  1.00  0.00     0.159 HD
ATOM     79  H   UNL     1      -4.931   1.900  -1.264  1.00  0.00     0.159 HD
ATOM     80  H   UNL     1      -2.652   3.640  -3.174  1.00  0.00     0.159 HD
ATOM     81  H   UNL     1      -3.245   3.270  -1.602  1.00  0.00     0.159 HD
ENDBRANCH  73  74
ENDBRANCH  72  73
ENDBRANCH  71  72
ENDBRANCH  45  71
ENDBRANCH   3  45
TORSDOF 20
ENDMDL
MODEL 2
REMARK VINA RESULT:    -6.586      3.680     13.125
REMARK INTER + INTRA:         -24.673
REMARK INTER:                 -18.230
REMARK INTRA:                  -6.443
REMARK UNBOUND:                -5.767
REMARK SMILES CCCCCC(=O)N[C@H](CC(=O)O)C(=O)N[C@H]1C(=O)N[C@H](CCCN=C(N)N)C(=O)N[C@@H]2CC[C@H](O)N(C2=O)[C@@H](CC(C)C)C(=O)N(C)[C@@H](Cc2ccccc2)C(=O)N[C@H](C(C)C)C(=O)O[C@@H]1C
REMARK SMILES IDX 30 1 31 2 29 3 32 5 35 6 37 7 34 8 38 9 33 10 39 11 36 12
REMARK SMILES IDX 40 14 41 15 42 16 43 17 44 18 45 19 46 20 47 21 48 22 49 23
REMARK SMILES IDX 50 24 51 25 52 26 56 27 53 28 55 29 54 30 57 31 58 32 59 33
REMARK SMILES IDX 60 35 61 36 62 37 63 38 64 39 65 40 66 41 67 42 68 43 21 45
REMARK SMILES IDX 20 46 18 47 19 48 17 50 16 52 14 53 15 54 9 56 8 57 6 58
REMARK SMILES IDX 7 59 5 61 4 62 3 63 2 64 1 65 10 66 11 67 12 68 13 69 22 71
REMARK SMILES IDX 23 72 24 73 25 74 26 75 27 76 28 77
REMARK H PARENT 31 4 36 13 59 34 20 49 16 55 8 60 13 70 27 78 27 79 28 80
REMARK H PARENT 28 81
REMARK Flexibility Score:  259.900
ROOT
ATOM      1  O   UNL     1      -4.819  -2.056   2.571  1.00  0.00    -0.273 OA
ATOM      2  N   UNL     1      -4.078  -0.895   0.745  1.00  0.00    -0.343 N 
ATOM      3  C   UNL     1      -4.995  -1.166   1.739  1.00  0.00     0.243 C 
ATOM      4  H   UNL     1      -4.250  -0.146   0.087  1.00  0.00     0.164 HD
ENDROOT
BRANCH   2   5
ATOM      5  C   UNL     1      -2.904  -1.742   0.567  1.00  0.00     0.171 C 
ATOM      6  C   UNL     1      -0.244  -1.221  -0.461  1.00  0.00     0.214 C 
ATOM      7  N   UNL     1      -1.279  -1.668  -1.363  1.00  0.00    -0.303 N 
ATOM      8  C   UNL     1      -0.420  -1.736   0.959  1.00  0.00     0.057 C 
ATOM      9  C   UNL     1      -2.583  -1.887  -0.948  1.00  0.00     0.247 C 
ATOM     10  C   UNL     1      -1.770  -1.310   1.495  1.00  0.00     0.040 C 
ATOM     11  O   UNL     1      -3.483  -2.186  -1.743  1.00  0.00    -0.272 OA
BRANCH   6  12
ATOM     12  O   UNL     1      -0.238   0.187  -0.477  1.00  0.00    -0.373 OA
ATOM     13  H   UNL     1      -1.155   0.477  -0.670  1.00  0.00     0.213 HD
ENDBRANCH   6  12
BRANCH   7  14
ATOM     14  C   UNL     1      -0.930  -1.747  -2.798  1.00  0.00     0.177 C 
BRANCH  14  15
ATOM     15  C   UNL     1      -1.362  -0.534  -3.645  1.00  0.00     0.038 C 
BRANCH  15  16
ATOM     16  C   UNL     1      -2.434  -0.716  -4.743  1.00  0.00    -0.015 C 
ATOM     17  C   UNL     1      -1.893  -1.455  -5.971  1.00  0.00     0.007 C 
ATOM     18  C   UNL     1      -2.950   0.656  -5.196  1.00  0.00     0.007 C 
ENDBRANCH  15  16
ENDBRANCH  14  15
BRANCH  14  19
ATOM     19  C   UNL     1       0.394  -2.563  -2.991  1.00  0.00     0.245 C 
ATOM     20  O   UNL     1       0.415  -3.714  -2.524  1.00  0.00    -0.272 OA
BRANCH  19  21
ATOM     21  N   UNL     1       1.550  -2.039  -3.542  1.00  0.00    -0.332 N 
ATOM     22  C   UNL     1       2.681  -1.522  -2.793  1.00  0.00     0.147 C 
BRANCH  21  23
ATOM     23  C   UNL     1       1.650  -1.984  -5.027  1.00  0.00     0.178 C 
BRANCH  23  24
ATOM     24  C   UNL     1       2.298  -0.699  -5.583  1.00  0.00     0.070 C 
BRANCH  24  25
ATOM     25  C   UNL     1       1.376   0.323  -6.205  1.00  0.00    -0.045 A 
ATOM     26  C   UNL     1       0.964   1.451  -5.484  1.00  0.00     0.004 A 
ATOM     27  C   UNL     1       0.914   0.153  -7.519  1.00  0.00     0.004 A 
ATOM     28  C   UNL     1       0.097   2.382  -6.060  1.00  0.00     0.000 A 
ATOM     29  C   UNL     1       0.049   1.085  -8.094  1.00  0.00     0.000 A 
ATOM     30  C   UNL     1      -0.361   2.198  -7.363  1.00  0.00     0.000 A 
ENDBRANCH  24  25
ENDBRANCH  23  24
BRANCH  23  31
ATOM     31  C   UNL     1       2.178  -3.300  -5.645  1.00  0.00     0.243 C 
ATOM     32  O   UNL     1       2.999  -4.034  -5.100  1.00  0.00    -0.273 OA
ATOM     33  N   UNL     1       1.785  -3.491  -6.959  1.00  0.00    -0.341 N 
ATOM     34  H   UNL     1       1.103  -2.842  -7.360  1.00  0.00     0.164 HD
BRANCH  33  35
ATOM     35  C   UNL     1       2.261  -4.606  -7.781  1.00  0.00     0.194 C 
BRANCH  35  36
ATOM     36  C   UNL     1       3.244  -4.188  -8.911  1.00  0.00     0.017 C 
ATOM     37  C   UNL     1       4.675  -4.667  -8.613  1.00  0.00     0.010 C 
ATOM     38  C   UNL     1       3.304  -2.671  -9.129  1.00  0.00     0.010 C 
ENDBRANCH  35  36
BRANCH  35  39
ATOM     39  C   UNL     1       1.101  -5.490  -8.319  1.00  0.00     0.329 C 
ATOM     40  O   UNL     1       0.045  -5.673  -7.725  1.00  0.00    -0.250 OA
BRANCH  39  41
ATOM     41  O   UNL     1       1.354  -5.974  -9.573  1.00  0.00    -0.458 OA
BRANCH  41  42
ATOM     42  C   UNL     1       1.264  -7.410  -9.736  1.00  0.00     0.205 CG0
ATOM     43  C   UNL     1       2.467  -8.025  -9.023  1.00  0.00     0.056 C 
ATOM     44  G   UNL     1       1.244  -7.733 -11.243  1.00  0.00     0.000 G0
ENDBRANCH  41  42
ENDBRANCH  39  41
ENDBRANCH  35  39
ENDBRANCH  33  35
ENDBRANCH  23  31
ENDBRANCH  21  23
ENDBRANCH  19  21
ENDBRANCH  14  19
ENDBRANCH   7  14
ENDBRANCH   2   5
BRANCH   3  45
ATOM     45  C   UNL     1      -6.238  -0.267   1.749  1.00  0.00     0.171 C 
BRANCH  45  46
ATOM     46  N   UNL     1      -6.370   0.207   3.120  1.00  0.00    -0.342 N 
ATOM     47  C   UNL     1      -6.856   1.454   3.424  1.00  0.00     0.247 C 
ATOM     48  O   UNL     1      -7.282   2.232   2.569  1.00  0.00    -0.273 OA
ATOM     49  H   UNL     1      -6.082  -0.427   3.862  1.00  0.00     0.164 HD
BRANCH  47  50
ATOM     50  C   UNL     1      -6.806   1.826   4.912  1.00  0.00     0.212 CG0
ATOM     51  G   UNL     1      -8.152   1.417   5.542  1.00  0.00     0.000 G0
BRANCH  50  52
ATOM     52  N   UNL     1      -5.667   1.094   5.459  1.00  0.00    -0.339 N 
ATOM     53  C   UNL     1      -4.597   1.705   6.067  1.00  0.00     0.243 C 
ATOM     54  O   UNL     1      -4.491   2.925   6.151  1.00  0.00    -0.273 OA
ATOM     55  H   UNL     1      -5.643   0.086   5.321  1.00  0.00     0.164 HD
BRANCH  53  56
ATOM     56  C   UNL     1      -3.475   0.733   6.487  1.00  0.00     0.182 C 
BRANCH  56  57
ATOM     57  N   UNL     1      -2.223   1.040   5.787  1.00  0.00    -0.344 N 
ATOM     58  C   UNL     1      -1.099   1.473   6.446  1.00  0.00     0.220 C 
ATOM     59  O   UNL     1      -1.083   1.702   7.651  1.00  0.00    -0.275 OA
ATOM     60  H   UNL     1      -2.164   0.768   4.809  1.00  0.00     0.164 HD
BRANCH  58  61
ATOM     61  C   UNL     1       0.095   1.672   5.531  1.00  0.00     0.100 C 
BRANCH  61  62
ATOM     62  C   UNL     1       0.425   0.451   4.673  1.00  0.00     0.010 C 
BRANCH  62  63
ATOM     63  C   UNL     1       1.305  -0.591   5.375  1.00  0.00     0.000 C 
BRANCH  63  64
ATOM     64  C   UNL     1       0.794  -2.026   5.254  1.00  0.00    -0.003 C 
ATOM     65  C   UNL     1      -0.716  -2.065   5.069  1.00  0.00     0.004 C 
ENDBRANCH  63  64
ENDBRANCH  62  63
ENDBRANCH  61  62
ENDBRANCH  58  61
ENDBRANCH  56  57
BRANCH  56  66
ATOM     66  C   UNL     1      -3.897  -0.723   6.301  1.00  0.00     0.157 C 
BRANCH  66  67
ATOM     67  C   UNL     1      -3.714  -1.508   7.568  1.00  0.00     0.305 C 
ATOM     68  O   UNL     1      -3.329  -1.081   8.646  1.00  0.00    -0.252 OA
BRANCH  67  69
ATOM     69  O   UNL     1      -4.078  -2.797   7.428  1.00  0.00    -0.481 OA
ATOM     70  H   UNL     1      -3.454  -3.296   7.996  1.00  0.00     0.296 HD
ENDBRANCH  67  69
ENDBRANCH  66  67
ENDBRANCH  56  66
ENDBRANCH  53  56
ENDBRANCH  50  52
ENDBRANCH  47  50
ENDBRANCH  45  46
BRANCH  45  71
ATOM     71  C   UNL     1      -7.473  -1.059   1.303  1.00  0.00     0.037 C 
BRANCH  71  72
ATOM     72  C   UNL     1      -8.377  -0.242   0.377  1.00  0.00     0.026 C 
BRANCH  72  73
ATOM     73  C   UNL     1      -9.626  -1.026  -0.021  1.00  0.00     0.146 C 
BRANCH  73  74
ATOM     74  N   UNL     1     -10.322  -0.264  -1.053  1.00  0.00    -0.254 NA
ATOM     75  C   UNL     1     -10.201  -0.652  -2.269  1.00  0.00     0.185 C 
ATOM     76  N   UNL     1     -10.831   0.029  -3.240  1.00  0.00    -0.370 N 
ATOM     77  N   UNL     1      -9.504  -1.692  -2.758  1.00  0.00    -0.370 N 
ATOM     78  H   UNL     1     -11.373   0.833  -2.958  1.00  0.00     0.159 HD
ATOM     79  H   UNL     1     -10.668  -0.126  -4.219  1.00  0.00     0.159 HD
ATOM     80  H   UNL     1      -8.983  -2.297  -2.141  1.00  0.00     0.159 HD
ATOM     81  H   UNL     1      -9.577  -1.969  -3.723  1.00  0.00     0.159 HD
ENDBRANCH  73  74
ENDBRANCH  72  73
ENDBRANCH  71  72
ENDBRANCH  45  71
ENDBRANCH   3  45
TORSDOF 20
ENDMDL
MODEL 3
REMARK VINA RESULT:    -6.580      3.832      6.724
REMARK INTER + INTRA:         -24.656
REMARK INTER:                 -19.858
REMARK INTRA:                  -4.798
REMARK UNBOUND:                -5.767
REMARK SMILES CCCCCC(=O)N[C@H](CC(=O)O)C(=O)N[C@H]1C(=O)N[C@H](CCCN=C(N)N)C(=O)N[C@@H]2CC[C@H](O)N(C2=O)[C@@H](CC(C)C)C(=O)N(C)[C@@H](Cc2ccccc2)C(=O)N[C@H](C(C)C)C(=O)O[C@@H]1C
REMARK SMILES IDX 30 1 31 2 29 3 32 5 35 6 37 7 34 8 38 9 33 10 39 11 36 12
REMARK SMILES IDX 40 14 41 15 42 16 43 17 44 18 45 19 46 20 47 21 48 22 49 23
REMARK SMILES IDX 50 24 51 25 52 26 56 27 53 28 55 29 54 30 57 31 58 32 59 33
REMARK SMILES IDX 60 35 61 36 62 37 63 38 64 39 65 40 66 41 67 42 68 43 21 45
REMARK SMILES IDX 20 46 18 47 19 48 17 50 16 52 14 53 15 54 9 56 8 57 6 58
REMARK SMILES IDX 7 59 5 61 4 62 3 63 2 64 1 65 10 66 11 67 12 68 13 69 22 71
REMARK SMILES IDX 23 72 24 73 25 74 26 75 27 76 28 77
REMARK H PARENT 31 4 36 13 59 34 20 49 16 55 8 60 13 70 27 78 27 79 28 80
REMARK H PARENT 28 81
REMARK Flexibility Score:  259.900
ROOT
ATOM      1  O   UNL     1      -2.014  -1.053   1.420  1.00  0.00    -0.273 OA
ATOM      2  N   UNL     1      -4.087  -1.045   2.386  1.00  0.00    -0.343 N 
ATOM      3  C   UNL     1      -3.210  -1.339   1.364  1.00  0.00     0.243 C 
ATOM      4  H   UNL     1      -5.062  -1.308   2.311  1.00  0.00     0.164 HD
ENDROOT
BRANCH   2   5
ATOM      5  C   UNL     1      -3.649  -0.265   3.539  1.00  0.00     0.171 C 
ATOM      6  C   UNL     1      -4.556  -0.147   6.289  1.00  0.00     0.214 C 
ATOM      7  N   UNL     1      -5.129   0.750   5.314  1.00  0.00    -0.303 N 
ATOM      8  C   UNL     1      -3.118  -0.532   5.982  1.00  0.00     0.057 C 
ATOM      9  C   UNL     1      -4.778   0.713   3.974  1.00  0.00     0.247 C 
ATOM     10  C   UNL     1      -3.039  -1.167   4.611  1.00  0.00     0.040 C 
ATOM     11  O   UNL     1      -5.335   1.426   3.129  1.00  0.00    -0.272 OA
BRANCH   6  12
ATOM     12  O   UNL     1      -5.371  -1.295   6.349  1.00  0.00    -0.373 OA
ATOM     13  H   UNL     1      -6.051  -1.130   7.037  1.00  0.00     0.213 HD
ENDBRANCH   6  12
BRANCH   7  14
ATOM     14  C   UNL     1      -6.227   1.628   5.772  1.00  0.00     0.177 C 
BRANCH  14  15
ATOM     15  C   UNL     1      -7.598   1.356   5.125  1.00  0.00     0.038 C 
BRANCH  15  16
ATOM     16  C   UNL     1      -8.252  -0.035   5.282  1.00  0.00    -0.015 C 
ATOM     17  C   UNL     1      -8.132  -0.884   4.013  1.00  0.00     0.007 C 
ATOM     18  C   UNL     1      -9.741   0.126   5.613  1.00  0.00     0.007 C 
ENDBRANCH  15  16
ENDBRANCH  14  15
BRANCH  14  19
ATOM     19  C   UNL     1      -5.996   2.052   7.264  1.00  0.00     0.245 C 
ATOM     20  O   UNL     1      -6.474   1.308   8.137  1.00  0.00    -0.272 OA
BRANCH  19  21
ATOM     21  N   UNL     1      -5.402   3.242   7.644  1.00  0.00    -0.332 N 
ATOM     22  C   UNL     1      -5.954   4.567   7.428  1.00  0.00     0.147 C 
BRANCH  21  23
ATOM     23  C   UNL     1      -4.078   3.173   8.323  1.00  0.00     0.178 C 
BRANCH  23  24
ATOM     24  C   UNL     1      -2.954   3.967   7.627  1.00  0.00     0.070 C 
BRANCH  24  25
ATOM     25  C   UNL     1      -1.673   3.225   7.323  1.00  0.00    -0.045 A 
ATOM     26  C   UNL     1      -0.674   3.088   8.295  1.00  0.00     0.004 A 
ATOM     27  C   UNL     1      -1.466   2.663   6.054  1.00  0.00     0.004 A 
ATOM     28  C   UNL     1       0.513   2.415   8.000  1.00  0.00     0.000 A 
ATOM     29  C   UNL     1      -0.279   1.990   5.761  1.00  0.00     0.000 A 
ATOM     30  C   UNL     1       0.711   1.869   6.734  1.00  0.00     0.000 A 
ENDBRANCH  24  25
ENDBRANCH  23  24
BRANCH  23  31
ATOM     31  C   UNL     1      -4.173   3.382   9.853  1.00  0.00     0.243 C 
ATOM     32  O   UNL     1      -3.373   4.047  10.506  1.00  0.00    -0.273 OA
ATOM     33  N   UNL     1      -5.139   2.597  10.459  1.00  0.00    -0.341 N 
ATOM     34  H   UNL     1      -5.772   2.059   9.863  1.00  0.00     0.164 HD
BRANCH  33  35
ATOM     35  C   UNL     1      -5.327   2.541  11.912  1.00  0.00     0.194 C 
BRANCH  35  36
ATOM     36  C   UNL     1      -4.919   1.185  12.553  1.00  0.00     0.017 C 
ATOM     37  C   UNL     1      -6.075   0.172  12.501  1.00  0.00     0.010 C 
ATOM     38  C   UNL     1      -4.489   1.315  14.020  1.00  0.00     0.010 C 
ENDBRANCH  35  36
BRANCH  35  39
ATOM     39  C   UNL     1      -6.751   2.984  12.348  1.00  0.00     0.329 C 
ATOM     40  O   UNL     1      -7.754   2.845  11.658  1.00  0.00    -0.250 OA
BRANCH  39  41
ATOM     41  O   UNL     1      -6.777   3.469  13.626  1.00  0.00    -0.458 OA
BRANCH  41  42
ATOM     42  C   UNL     1      -7.315   4.802  13.796  1.00  0.00     0.205 CG0
ATOM     43  C   UNL     1      -6.143   5.778  13.724  1.00  0.00     0.056 C 
ATOM     44  G   UNL     1      -8.052   4.866  15.149  1.00  0.00     0.000 G0
ENDBRANCH  41  42
ENDBRANCH  39  41
ENDBRANCH  35  39
ENDBRANCH  33  35
ENDBRANCH  23  31
ENDBRANCH  21  23
ENDBRANCH  19  21
ENDBRANCH  14  19
ENDBRANCH   7  14
ENDBRANCH   2   5
BRANCH   3  45
ATOM     45  C   UNL     1      -3.823  -2.068   0.161  1.00  0.00     0.171 C 
BRANCH  45  46
ATOM     46  N   UNL     1      -2.703  -2.416  -0.702  1.00  0.00    -0.342 N 
ATOM     47  C   UNL     1      -2.507  -3.688  -1.178  1.00  0.00     0.247 C 
ATOM     48  O   UNL     1      -3.299  -4.608  -0.972  1.00  0.00    -0.273 OA
ATOM     49  H   UNL     1      -2.053  -1.670  -0.944  1.00  0.00     0.164 HD
BRANCH  47  50
ATOM     50  C   UNL     1      -1.207  -3.893  -1.969  1.00  0.00     0.212 CG0
ATOM     51  G   UNL     1      -1.587  -4.439  -3.360  1.00  0.00     0.000 G0
BRANCH  50  52
ATOM     52  N   UNL     1      -0.571  -2.579  -2.020  1.00  0.00    -0.339 N 
ATOM     53  C   UNL     1      -0.074  -2.024  -3.174  1.00  0.00     0.243 C 
ATOM     54  O   UNL     1      -0.079  -2.617  -4.250  1.00  0.00    -0.273 OA
ATOM     55  H   UNL     1      -0.436  -2.084  -1.141  1.00  0.00     0.164 HD
BRANCH  53  56
ATOM     56  C   UNL     1       0.630  -0.668  -2.966  1.00  0.00     0.182 C 
BRANCH  56  57
ATOM     57  N   UNL     1       1.256  -0.204  -4.208  1.00  0.00    -0.344 N 
ATOM     58  C   UNL     1       0.730   0.818  -4.961  1.00  0.00     0.220 C 
ATOM     59  O   UNL     1      -0.334   1.363  -4.688  1.00  0.00    -0.275 OA
ATOM     60  H   UNL     1       2.187  -0.556  -4.414  1.00  0.00     0.164 HD
BRANCH  58  61
ATOM     61  C   UNL     1       1.575   1.170  -6.171  1.00  0.00     0.100 C 
BRANCH  61  62
ATOM     62  C   UNL     1       1.758   2.674  -6.379  1.00  0.00     0.010 C 
BRANCH  62  63
ATOM     63  C   UNL     1       0.992   3.238  -7.583  1.00  0.00     0.000 C 
BRANCH  63  64
ATOM     64  C   UNL     1       0.812   4.755  -7.556  1.00  0.00    -0.003 C 
ATOM     65  C   UNL     1       1.539   5.421  -8.715  1.00  0.00     0.004 C 
ENDBRANCH  63  64
ENDBRANCH  62  63
ENDBRANCH  61  62
ENDBRANCH  58  61
ENDBRANCH  56  57
BRANCH  56  66
ATOM     66  C   UNL     1       1.622  -0.724  -1.806  1.00  0.00     0.157 C 
BRANCH  66  67
ATOM     67  C   UNL     1       2.950  -1.266  -2.252  1.00  0.00     0.305 C 
ATOM     68  O   UNL     1       3.225  -2.434  -2.481  1.00  0.00    -0.252 OA
BRANCH  67  69
ATOM     69  O   UNL     1       3.863  -0.293  -2.440  1.00  0.00    -0.481 OA
ATOM     70  H   UNL     1       4.284  -0.173  -1.562  1.00  0.00     0.296 HD
ENDBRANCH  67  69
ENDBRANCH  66  67
ENDBRANCH  56  66
ENDBRANCH  53  56
ENDBRANCH  50  52
ENDBRANCH  47  50
ENDBRANCH  45  46
BRANCH  45  71
ATOM     71  C   UNL     1      -4.830  -1.162  -0.556  1.00  0.00     0.037 C 
BRANCH  71  72
ATOM     72  C   UNL     1      -4.236  -0.524  -1.814  1.00  0.00     0.026 C 
BRANCH  72  73
ATOM     73  C   UNL     1      -4.281   1.001  -1.743  1.00  0.00     0.146 C 
BRANCH  73  74
ATOM     74  N   UNL     1      -3.262   1.521  -2.650  1.00  0.00    -0.254 NA
ATOM     75  C   UNL     1      -3.454   2.678  -3.167  1.00  0.00     0.185 C 
ATOM     76  N   UNL     1      -2.534   3.184  -4.004  1.00  0.00    -0.370 N 
ATOM     77  N   UNL     1      -4.491   3.518  -2.998  1.00  0.00    -0.370 N 
ATOM     78  H   UNL     1      -1.723   2.611  -4.193  1.00  0.00     0.159 HD
ATOM     79  H   UNL     1      -2.682   4.010  -4.556  1.00  0.00     0.159 HD
ATOM     80  H   UNL     1      -5.258   3.271  -2.391  1.00  0.00     0.159 HD
ATOM     81  H   UNL     1      -4.478   4.454  -3.368  1.00  0.00     0.159 HD
ENDBRANCH  73  74
ENDBRANCH  72  73
ENDBRANCH  71  72
ENDBRANCH  45  71
ENDBRANCH   3  45
TORSDOF 20
ENDMDL
MODEL 4
REMARK VINA RESULT:    -6.502      4.631      8.765
REMARK INTER + INTRA:         -24.433
REMARK INTER:                 -17.888
REMARK INTRA:                  -6.545
REMARK UNBOUND:                -5.767
REMARK SMILES CCCCCC(=O)N[C@H](CC(=O)O)C(=O)N[C@H]1C(=O)N[C@H](CCCN=C(N)N)C(=O)N[C@@H]2CC[C@H](O)N(C2=O)[C@@H](CC(C)C)C(=O)N(C)[C@@H](Cc2ccccc2)C(=O)N[C@H](C(C)C)C(=O)O[C@@H]1C
REMARK SMILES IDX 30 1 31 2 29 3 32 5 35 6 37 7 34 8 38 9 33 10 39 11 36 12
REMARK SMILES IDX 40 14 41 15 42 16 43 17 44 18 45 19 46 20 47 21 48 22 49 23
REMARK SMILES IDX 50 24 51 25 52 26 56 27 53 28 55 29 54 30 57 31 58 32 59 33
REMARK SMILES IDX 60 35 61 36 62 37 63 38 64 39 65 40 66 41 67 42 68 43 21 45
REMARK SMILES IDX 20 46 18 47 19 48 17 50 16 52 14 53 15 54 9 56 8 57 6 58
REMARK SMILES IDX 7 59 5 61 4 62 3 63 2 64 1 65 10 66 11 67 12 68 13 69 22 71
REMARK SMILES IDX 23 72 24 73 25 74 26 75 27 76 28 77
REMARK H PARENT 31 4 36 13 59 34 20 49 16 55 8 60 13 70 27 78 27 79 28 80
REMARK H PARENT 28 81
REMARK Flexibility Score:  259.900
ROOT
ATOM      1  O   UNL     1      -2.693  -0.654   0.907  1.00  0.00    -0.273 OA
ATOM      2  N   UNL     1      -4.657  -0.785   2.072  1.00  0.00    -0.343 N 
ATOM      3  C   UNL     1      -3.883  -0.968   0.946  1.00  0.00     0.243 C 
ATOM      4  H   UNL     1      -5.628  -1.069   2.073  1.00  0.00     0.164 HD
ENDROOT
BRANCH   2   5
ATOM      5  C   UNL     1      -4.118  -0.092   3.238  1.00  0.00     0.171 C 
ATOM      6  C   UNL     1      -4.799  -0.167   6.055  1.00  0.00     0.214 C 
ATOM      7  N   UNL     1      -5.439   0.801   5.195  1.00  0.00    -0.303 N 
ATOM      8  C   UNL     1      -3.394  -0.535   5.604  1.00  0.00     0.057 C 
ATOM      9  C   UNL     1      -5.198   0.858   3.832  1.00  0.00     0.247 C 
ATOM     10  C   UNL     1      -3.434  -1.071   4.190  1.00  0.00     0.040 C 
ATOM     11  O   UNL     1      -5.814   1.632   3.088  1.00  0.00    -0.272 OA
BRANCH   6  12
ATOM     12  O   UNL     1      -5.619  -1.312   6.099  1.00  0.00    -0.373 OA
ATOM     13  H   UNL     1      -6.218  -1.266   5.324  1.00  0.00     0.213 HD
ENDBRANCH   6  12
BRANCH   7  14
ATOM     14  C   UNL     1      -6.487   1.649   5.803  1.00  0.00     0.177 C 
BRANCH  14  15
ATOM     15  C   UNL     1      -7.842   0.952   6.035  1.00  0.00     0.038 C 
BRANCH  15  16
ATOM     16  C   UNL     1      -8.584   0.314   4.839  1.00  0.00    -0.015 C 
ATOM     17  C   UNL     1      -9.133   1.361   3.866  1.00  0.00     0.007 C 
ATOM     18  C   UNL     1      -9.758  -0.531   5.349  1.00  0.00     0.007 C 
ENDBRANCH  15  16
ENDBRANCH  14  15
BRANCH  14  19
ATOM     19  C   UNL     1      -5.840   2.714   6.754  1.00  0.00     0.245 C 
ATOM     20  O   UNL     1      -5.577   3.822   6.256  1.00  0.00    -0.272 OA
BRANCH  19  21
ATOM     21  N   UNL     1      -5.454   2.452   8.056  1.00  0.00    -0.332 N 
ATOM     22  C   UNL     1      -6.276   1.807   9.065  1.00  0.00     0.147 C 
BRANCH  21  23
ATOM     23  C   UNL     1      -4.088   2.871   8.475  1.00  0.00     0.178 C 
BRANCH  23  24
ATOM     24  C   UNL     1      -3.040   2.880   7.343  1.00  0.00     0.070 C 
BRANCH  24  25
ATOM     25  C   UNL     1      -1.637   3.303   7.708  1.00  0.00    -0.045 A 
ATOM     26  C   UNL     1      -0.783   2.435   8.401  1.00  0.00     0.004 A 
ATOM     27  C   UNL     1      -1.169   4.579   7.360  1.00  0.00     0.004 A 
ATOM     28  C   UNL     1       0.507   2.840   8.750  1.00  0.00     0.000 A 
ATOM     29  C   UNL     1       0.121   4.982   7.708  1.00  0.00     0.000 A 
ATOM     30  C   UNL     1       0.957   4.113   8.405  1.00  0.00     0.000 A 
ENDBRANCH  24  25
ENDBRANCH  23  24
BRANCH  23  31
ATOM     31  C   UNL     1      -4.092   4.134   9.369  1.00  0.00     0.243 C 
ATOM     32  O   UNL     1      -4.379   5.259   8.968  1.00  0.00    -0.273 OA
ATOM     33  N   UNL     1      -3.560   3.920  10.630  1.00  0.00    -0.341 N 
ATOM     34  H   UNL     1      -3.334   2.961  10.905  1.00  0.00     0.164 HD
BRANCH  33  35
ATOM     35  C   UNL     1      -3.354   4.997  11.602  1.00  0.00     0.194 C 
BRANCH  35  36
ATOM     36  C   UNL     1      -1.868   5.418  11.778  1.00  0.00     0.017 C 
ATOM     37  C   UNL     1      -1.432   6.404  10.681  1.00  0.00     0.010 C 
ATOM     38  C   UNL     1      -0.896   4.233  11.743  1.00  0.00     0.010 C 
ENDBRANCH  35  36
BRANCH  35  39
ATOM     39  C   UNL     1      -4.041   4.709  12.967  1.00  0.00     0.329 C 
ATOM     40  O   UNL     1      -4.917   3.868  13.130  1.00  0.00    -0.250 OA
BRANCH  39  41
ATOM     41  O   UNL     1      -3.497   5.440  13.987  1.00  0.00    -0.458 OA
BRANCH  41  42
ATOM     42  C   UNL     1      -4.178   6.672  14.327  1.00  0.00     0.205 CG0
ATOM     43  C   UNL     1      -3.121   7.773  14.386  1.00  0.00     0.056 C 
ATOM     44  G   UNL     1      -4.903   6.478  15.673  1.00  0.00     0.000 G0
ENDBRANCH  41  42
ENDBRANCH  39  41
ENDBRANCH  35  39
ENDBRANCH  33  35
ENDBRANCH  23  31
ENDBRANCH  21  23
ENDBRANCH  19  21
ENDBRANCH  14  19
ENDBRANCH   7  14
ENDBRANCH   2   5
BRANCH   3  45
ATOM     45  C   UNL     1      -4.602  -1.612  -0.247  1.00  0.00     0.171 C 
BRANCH  45  46
ATOM     46  N   UNL     1      -3.602  -1.712  -1.302  1.00  0.00    -0.342 N 
ATOM     47  C   UNL     1      -3.300  -2.899  -1.920  1.00  0.00     0.247 C 
ATOM     48  O   UNL     1      -3.900  -3.948  -1.682  1.00  0.00    -0.273 OA
ATOM     49  H   UNL     1      -3.121  -0.855  -1.570  1.00  0.00     0.164 HD
BRANCH  47  50
ATOM     50  C   UNL     1      -2.135  -2.835  -2.918  1.00  0.00     0.212 CG0
ATOM     51  G   UNL     1      -2.591  -1.976  -4.114  1.00  0.00     0.000 G0
BRANCH  50  52
ATOM     52  N   UNL     1      -1.020  -2.249  -2.178  1.00  0.00    -0.339 N 
ATOM     53  C   UNL     1      -0.053  -2.997  -1.551  1.00  0.00     0.243 C 
ATOM     54  O   UNL     1      -0.081  -4.224  -1.521  1.00  0.00    -0.273 OA
ATOM     55  H   UNL     1      -1.003  -1.237  -2.072  1.00  0.00     0.164 HD
BRANCH  53  56
ATOM     56  C   UNL     1       0.973  -2.160  -0.761  1.00  0.00     0.182 C 
BRANCH  56  57
ATOM     57  N   UNL     1       0.401  -1.680   0.501  1.00  0.00    -0.344 N 
ATOM     58  C   UNL     1       0.496  -2.395   1.671  1.00  0.00     0.220 C 
ATOM     59  O   UNL     1       0.999  -3.511   1.727  1.00  0.00    -0.275 OA
ATOM     60  H   UNL     1       0.067  -0.720   0.520  1.00  0.00     0.164 HD
BRANCH  58  61
ATOM     61  C   UNL     1      -0.115  -1.681   2.863  1.00  0.00     0.100 C 
BRANCH  61  62
ATOM     62  C   UNL     1       0.915  -1.171   3.870  1.00  0.00     0.010 C 
BRANCH  62  63
ATOM     63  C   UNL     1       0.351  -0.929   5.276  1.00  0.00     0.000 C 
BRANCH  63  64
ATOM     64  C   UNL     1       0.010   0.531   5.572  1.00  0.00    -0.003 C 
ATOM     65  C   UNL     1       0.837   1.479   4.715  1.00  0.00     0.004 C 
ENDBRANCH  63  64
ENDBRANCH  62  63
ENDBRANCH  61  62
ENDBRANCH  58  61
ENDBRANCH  56  57
BRANCH  56  66
ATOM     66  C   UNL     1       1.538  -1.020  -1.607  1.00  0.00     0.157 C 
BRANCH  66  67
ATOM     67  C   UNL     1       2.548  -1.527  -2.597  1.00  0.00     0.305 C 
ATOM     68  O   UNL     1       2.683  -1.165  -3.756  1.00  0.00    -0.252 OA
BRANCH  67  69
ATOM     69  O   UNL     1       3.381  -2.437  -2.057  1.00  0.00    -0.481 OA
ATOM     70  H   UNL     1       4.264  -2.214  -2.421  1.00  0.00     0.296 HD
ENDBRANCH  67  69
ENDBRANCH  66  67
ENDBRANCH  56  66
ENDBRANCH  53  56
ENDBRANCH  50  52
ENDBRANCH  47  50
ENDBRANCH  45  46
BRANCH  45  71
ATOM     71  C   UNL     1      -5.795  -0.752  -0.679  1.00  0.00     0.037 C 
BRANCH  71  72
ATOM     72  C   UNL     1      -6.047  -0.831  -2.186  1.00  0.00     0.026 C 
BRANCH  72  73
ATOM     73  C   UNL     1      -5.960   0.545  -2.842  1.00  0.00     0.146 C 
BRANCH  73  74
ATOM     74  N   UNL     1      -4.711   1.167  -2.413  1.00  0.00    -0.254 NA
ATOM     75  C   UNL     1      -4.472   2.364  -2.804  1.00  0.00     0.185 C 
ATOM     76  N   UNL     1      -3.332   2.963  -2.424  1.00  0.00    -0.370 N 
ATOM     77  N   UNL     1      -5.224   3.166  -3.578  1.00  0.00    -0.370 N 
ATOM     78  H   UNL     1      -2.704   2.426  -1.844  1.00  0.00     0.159 HD
ATOM     79  H   UNL     1      -3.012   3.836  -2.805  1.00  0.00     0.159 HD
ATOM     80  H   UNL     1      -6.113   2.849  -3.935  1.00  0.00     0.159 HD
ATOM     81  H   UNL     1      -4.986   4.133  -3.724  1.00  0.00     0.159 HD
ENDBRANCH  73  74
ENDBRANCH  72  73
ENDBRANCH  71  72
ENDBRANCH  45  71
ENDBRANCH   3  45
TORSDOF 20
ENDMDL
MODEL 5
REMARK VINA RESULT:    -6.378      5.809     10.000
REMARK INTER + INTRA:         -24.076
REMARK INTER:                 -17.425
REMARK INTRA:                  -6.651
REMARK UNBOUND:                -5.767
REMARK SMILES CCCCCC(=O)N[C@H](CC(=O)O)C(=O)N[C@H]1C(=O)N[C@H](CCCN=C(N)N)C(=O)N[C@@H]2CC[C@H](O)N(C2=O)[C@@H](CC(C)C)C(=O)N(C)[C@@H](Cc2ccccc2)C(=O)N[C@H](C(C)C)C(=O)O[C@@H]1C
REMARK SMILES IDX 30 1 31 2 29 3 32 5 35 6 37 7 34 8 38 9 33 10 39 11 36 12
REMARK SMILES IDX 40 14 41 15 42 16 43 17 44 18 45 19 46 20 47 21 48 22 49 23
REMARK SMILES IDX 50 24 51 25 52 26 56 27 53 28 55 29 54 30 57 31 58 32 59 33
REMARK SMILES IDX 60 35 61 36 62 37 63 38 64 39 65 40 66 41 67 42 68 43 21 45
REMARK SMILES IDX 20 46 18 47 19 48 17 50 16 52 14 53 15 54 9 56 8 57 6 58
REMARK SMILES IDX 7 59 5 61 4 62 3 63 2 64 1 65 10 66 11 67 12 68 13 69 22 71
REMARK SMILES IDX 23 72 24 73 25 74 26 75 27 76 28 77
REMARK H PARENT 31 4 36 13 59 34 20 49 16 55 8 60 13 70 27 78 27 79 28 80
REMARK H PARENT 28 81
REMARK Flexibility Score:  259.900
ROOT
ATOM      1  O   UNL     1      -4.337  -2.790   1.468  1.00  0.00    -0.273 OA
ATOM      2  N   UNL     1      -6.390  -2.582   0.481  1.00  0.00    -0.343 N 
ATOM      3  C   UNL     1      -5.062  -2.245   0.635  1.00  0.00     0.243 C 
ATOM      4  H   UNL     1      -6.952  -2.123  -0.225  1.00  0.00     0.164 HD
ENDROOT
BRANCH   2   5
ATOM      5  C   UNL     1      -7.027  -3.525   1.393  1.00  0.00     0.171 C 
ATOM      6  C   UNL     1      -9.789  -4.312   1.791  1.00  0.00     0.214 C 
ATOM      7  N   UNL     1      -9.243  -3.219   2.562  1.00  0.00    -0.303 N 
ATOM      8  C   UNL     1      -8.751  -5.356   1.409  1.00  0.00     0.057 C 
ATOM      9  C   UNL     1      -7.948  -2.760   2.385  1.00  0.00     0.247 C 
ATOM     10  C   UNL     1      -7.630  -4.703   0.630  1.00  0.00     0.040 C 
ATOM     11  O   UNL     1      -7.516  -1.768   2.988  1.00  0.00    -0.272 OA
BRANCH   6  12
ATOM     12  O   UNL     1     -10.388  -3.768   0.638  1.00  0.00    -0.373 OA
ATOM     13  H   UNL     1     -11.339  -3.641   0.841  1.00  0.00     0.213 HD
ENDBRANCH   6  12
BRANCH   7  14
ATOM     14  C   UNL     1     -10.174  -2.501   3.458  1.00  0.00     0.177 C 
BRANCH  14  15
ATOM     15  C   UNL     1     -10.757  -1.193   2.886  1.00  0.00     0.038 C 
BRANCH  15  16
ATOM     16  C   UNL     1     -10.755   0.084   3.755  1.00  0.00    -0.015 C 
ATOM     17  C   UNL     1     -10.333   1.327   2.966  1.00  0.00     0.007 C 
ATOM     18  C   UNL     1      -9.786  -0.090   4.931  1.00  0.00     0.007 C 
ENDBRANCH  15  16
ENDBRANCH  14  15
BRANCH  14  19
ATOM     19  C   UNL     1     -10.948  -3.517   4.367  1.00  0.00     0.245 C 
ATOM     20  O   UNL     1     -10.259  -4.312   5.028  1.00  0.00    -0.272 OA
BRANCH  19  21
ATOM     21  N   UNL     1     -12.325  -3.645   4.382  1.00  0.00    -0.332 N 
ATOM     22  C   UNL     1     -13.161  -3.896   3.221  1.00  0.00     0.147 C 
BRANCH  21  23
ATOM     23  C   UNL     1     -13.023  -3.504   5.689  1.00  0.00     0.178 C 
BRANCH  23  24
ATOM     24  C   UNL     1     -13.301  -2.049   6.119  1.00  0.00     0.070 C 
BRANCH  24  25
ATOM     25  C   UNL     1     -12.355  -1.435   7.125  1.00  0.00    -0.045 A 
ATOM     26  C   UNL     1     -12.468  -0.087   7.487  1.00  0.00     0.004 A 
ATOM     27  C   UNL     1     -11.342  -2.211   7.708  1.00  0.00     0.004 A 
ATOM     28  C   UNL     1     -11.579   0.477   8.404  1.00  0.00     0.000 A 
ATOM     29  C   UNL     1     -10.454  -1.646   8.625  1.00  0.00     0.000 A 
ATOM     30  C   UNL     1     -10.572  -0.301   8.971  1.00  0.00     0.000 A 
ENDBRANCH  24  25
ENDBRANCH  23  24
BRANCH  23  31
ATOM     31  C   UNL     1     -14.223  -4.468   5.840  1.00  0.00     0.243 C 
ATOM     32  O   UNL     1     -15.390  -4.101   5.949  1.00  0.00    -0.273 OA
ATOM     33  N   UNL     1     -13.851  -5.788   6.031  1.00  0.00    -0.341 N 
ATOM     34  H   UNL     1     -12.863  -6.033   5.934  1.00  0.00     0.164 HD
BRANCH  33  35
ATOM     35  C   UNL     1     -14.814  -6.856   6.314  1.00  0.00     0.194 C 
BRANCH  35  36
ATOM     36  C   UNL     1     -15.872  -7.070   5.195  1.00  0.00     0.017 C 
ATOM     37  C   UNL     1     -16.548  -8.447   5.320  1.00  0.00     0.010 C 
ATOM     38  C   UNL     1     -15.285  -6.974   3.782  1.00  0.00     0.010 C 
ENDBRANCH  35  36
BRANCH  35  39
ATOM     39  C   UNL     1     -15.472  -6.713   7.715  1.00  0.00     0.329 C 
ATOM     40  O   UNL     1     -14.883  -6.904   8.772  1.00  0.00    -0.250 OA
BRANCH  39  41
ATOM     41  O   UNL     1     -16.761  -6.264   7.640  1.00  0.00    -0.458 OA
BRANCH  41  42
ATOM     42  C   UNL     1     -17.612  -6.565   8.772  1.00  0.00     0.205 CG0
ATOM     43  C   UNL     1     -18.440  -7.794   8.403  1.00  0.00     0.056 C 
ATOM     44  G   UNL     1     -18.487  -5.332   9.072  1.00  0.00     0.000 G0
ENDBRANCH  41  42
ENDBRANCH  39  41
ENDBRANCH  35  39
ENDBRANCH  33  35
ENDBRANCH  23  31
ENDBRANCH  21  23
ENDBRANCH  19  21
ENDBRANCH  14  19
ENDBRANCH   7  14
ENDBRANCH   2   5
BRANCH   3  45
ATOM     45  C   UNL     1      -4.544  -1.161  -0.319  1.00  0.00     0.171 C 
BRANCH  45  46
ATOM     46  N   UNL     1      -3.153  -0.939   0.054  1.00  0.00    -0.342 N 
ATOM     47  C   UNL     1      -2.117  -1.109  -0.830  1.00  0.00     0.247 C 
ATOM     48  O   UNL     1      -2.291  -1.389  -2.017  1.00  0.00    -0.273 OA
ATOM     49  H   UNL     1      -2.969  -0.652   1.014  1.00  0.00     0.164 HD
BRANCH  47  50
ATOM     50  C   UNL     1      -0.715  -0.953  -0.225  1.00  0.00     0.212 CG0
ATOM     51  G   UNL     1      -0.114   0.358  -0.772  1.00  0.00     0.000 G0
BRANCH  50  52
ATOM     52  N   UNL     1      -0.913  -0.937   1.221  1.00  0.00    -0.339 N 
ATOM     53  C   UNL     1      -0.154  -1.675   2.096  1.00  0.00     0.243 C 
ATOM     54  O   UNL     1       0.722  -2.450   1.722  1.00  0.00    -0.273 OA
ATOM     55  H   UNL     1      -1.697  -0.399   1.585  1.00  0.00     0.164 HD
BRANCH  53  56
ATOM     56  C   UNL     1      -0.605  -1.563   3.567  1.00  0.00     0.182 C 
BRANCH  56  57
ATOM     57  N   UNL     1      -1.603  -0.502   3.732  1.00  0.00    -0.344 N 
ATOM     58  C   UNL     1      -2.762  -0.686   4.445  1.00  0.00     0.220 C 
ATOM     59  O   UNL     1      -3.079  -1.768   4.929  1.00  0.00    -0.275 OA
ATOM     60  H   UNL     1      -1.334   0.433   3.436  1.00  0.00     0.164 HD
BRANCH  58  61
ATOM     61  C   UNL     1      -3.618   0.563   4.535  1.00  0.00     0.100 C 
BRANCH  61  62
ATOM     62  C   UNL     1      -5.029   0.386   3.972  1.00  0.00     0.010 C 
BRANCH  62  63
ATOM     63  C   UNL     1      -6.147   0.628   4.993  1.00  0.00     0.000 C 
BRANCH  63  64
ATOM     64  C   UNL     1      -6.705   2.051   4.986  1.00  0.00    -0.003 C 
ATOM     65  C   UNL     1      -6.167   2.864   6.155  1.00  0.00     0.004 C 
ENDBRANCH  63  64
ENDBRANCH  62  63
ENDBRANCH  61  62
ENDBRANCH  58  61
ENDBRANCH  56  57
BRANCH  56  66
ATOM     66  C   UNL     1       0.587  -1.386   4.506  1.00  0.00     0.157 C 
BRANCH  66  67
ATOM     67  C   UNL     1       0.821  -2.621   5.328  1.00  0.00     0.305 C 
ATOM     68  O   UNL     1       0.422  -2.833   6.463  1.00  0.00    -0.252 OA
BRANCH  67  69
ATOM     69  O   UNL     1       1.509  -3.562   4.653  1.00  0.00    -0.481 OA
ATOM     70  H   UNL     1       1.705  -3.153   3.784  1.00  0.00     0.296 HD
ENDBRANCH  67  69
ENDBRANCH  66  67
ENDBRANCH  56  66
ENDBRANCH  53  56
ENDBRANCH  50  52
ENDBRANCH  47  50
ENDBRANCH  45  46
BRANCH  45  71
ATOM     71  C   UNL     1      -5.378   0.117  -0.178  1.00  0.00     0.037 C 
BRANCH  71  72
ATOM     72  C   UNL     1      -6.052   0.513  -1.493  1.00  0.00     0.026 C 
BRANCH  72  73
ATOM     73  C   UNL     1      -7.563   0.302  -1.434  1.00  0.00     0.146 C 
BRANCH  73  74
ATOM     74  N   UNL     1      -7.850  -1.028  -1.965  1.00  0.00    -0.254 NA
ATOM     75  C   UNL     1      -8.904  -1.625  -1.547  1.00  0.00     0.185 C 
ATOM     76  N   UNL     1      -9.195  -2.849  -2.018  1.00  0.00    -0.370 N 
ATOM     77  N   UNL     1      -9.822  -1.199  -0.662  1.00  0.00    -0.370 N 
ATOM     78  H   UNL     1      -8.550  -3.247  -2.685  1.00  0.00     0.159 HD
ATOM     79  H   UNL     1      -9.917  -3.433  -1.633  1.00  0.00     0.159 HD
ATOM     80  H   UNL     1      -9.735  -0.293  -0.228  1.00  0.00     0.159 HD
ATOM     81  H   UNL     1     -10.674  -1.709  -0.497  1.00  0.00     0.159 HD
ENDBRANCH  73  74
ENDBRANCH  72  73
ENDBRANCH  71  72
ENDBRANCH  45  71
ENDBRANCH   3  45
TORSDOF 20
ENDMDL
MODEL 6
REMARK VINA RESULT:    -6.325      4.215      7.076
REMARK INTER + INTRA:         -23.924
REMARK INTER:                 -18.413
REMARK INTRA:                  -5.510
REMARK UNBOUND:                -5.767
REMARK SMILES CCCCCC(=O)N[C@H](CC(=O)O)C(=O)N[C@H]1C(=O)N[C@H](CCCN=C(N)N)C(=O)N[C@@H]2CC[C@H](O)N(C2=O)[C@@H](CC(C)C)C(=O)N(C)[C@@H](Cc2ccccc2)C(=O)N[C@H](C(C)C)C(=O)O[C@@H]1C
REMARK SMILES IDX 30 1 31 2 29 3 32 5 35 6 37 7 34 8 38 9 33 10 39 11 36 12
REMARK SMILES IDX 40 14 41 15 42 16 43 17 44 18 45 19 46 20 47 21 48 22 49 23
REMARK SMILES IDX 50 24 51 25 52 26 56 27 53 28 55 29 54 30 57 31 58 32 59 33
REMARK SMILES IDX 60 35 61 36 62 37 63 38 64 39 65 40 66 41 67 42 68 43 21 45
REMARK SMILES IDX 20 46 18 47 19 48 17 50 16 52 14 53 15 54 9 56 8 57 6 58
REMARK SMILES IDX 7 59 5 61 4 62 3 63 2 64 1 65 10 66 11 67 12 68 13 69 22 71
REMARK SMILES IDX 23 72 24 73 25 74 26 75 27 76 28 77
REMARK H PARENT 31 4 36 13 59 34 20 49 16 55 8 60 13 70 27 78 27 79 28 80
REMARK H PARENT 28 81
REMARK Flexibility Score:  259.900
ROOT
ATOM      1  O   UNL     1      -1.134  -1.310   1.721  1.00  0.00    -0.273 OA
ATOM      2  N   UNL     1      -3.243  -1.329   2.606  1.00  0.00    -0.343 N 
ATOM      3  C   UNL     1      -2.337  -1.540   1.589  1.00  0.00     0.243 C 
ATOM      4  H   UNL     1      -4.223  -1.544   2.466  1.00  0.00     0.164 HD
ENDROOT
BRANCH   2   5
ATOM      5  C   UNL     1      -2.825  -0.704   3.856  1.00  0.00     0.171 C 
ATOM      6  C   UNL     1      -3.691  -1.035   6.603  1.00  0.00     0.214 C 
ATOM      7  N   UNL     1      -4.324  -0.036   5.774  1.00  0.00    -0.303 N 
ATOM      8  C   UNL     1      -2.240  -1.297   6.229  1.00  0.00     0.057 C 
ATOM      9  C   UNL     1      -3.994   0.140   4.440  1.00  0.00     0.247 C 
ATOM     10  C   UNL     1      -2.153  -1.720   4.778  1.00  0.00     0.040 C 
ATOM     11  O   UNL     1      -4.600   0.939   3.714  1.00  0.00    -0.272 OA
BRANCH   6  12
ATOM     12  O   UNL     1      -4.447  -2.220   6.501  1.00  0.00    -0.373 OA
ATOM     13  H   UNL     1      -3.853  -2.961   6.747  1.00  0.00     0.213 HD
ENDBRANCH   6  12
BRANCH   7  14
ATOM     14  C   UNL     1      -5.456   0.708   6.367  1.00  0.00     0.177 C 
BRANCH  14  15
ATOM     15  C   UNL     1      -6.840   0.057   6.175  1.00  0.00     0.038 C 
BRANCH  15  16
ATOM     16  C   UNL     1      -8.059   0.946   5.845  1.00  0.00    -0.015 C 
ATOM     17  C   UNL     1      -9.388   0.206   6.027  1.00  0.00     0.007 C 
ATOM     18  C   UNL     1      -7.972   1.426   4.390  1.00  0.00     0.007 C 
ENDBRANCH  15  16
ENDBRANCH  14  15
BRANCH  14  19
ATOM     19  C   UNL     1      -4.987   1.483   7.646  1.00  0.00     0.245 C 
ATOM     20  O   UNL     1      -5.343   1.019   8.742  1.00  0.00    -0.272 OA
BRANCH  19  21
ATOM     21  N   UNL     1      -4.310   2.689   7.612  1.00  0.00    -0.332 N 
ATOM     22  C   UNL     1      -4.865   3.954   7.164  1.00  0.00     0.147 C 
BRANCH  21  23
ATOM     23  C   UNL     1      -2.890   2.703   8.059  1.00  0.00     0.178 C 
BRANCH  23  24
ATOM     24  C   UNL     1      -1.895   3.276   7.030  1.00  0.00     0.070 C 
BRANCH  24  25
ATOM     25  C   UNL     1      -0.649   2.467   6.753  1.00  0.00    -0.045 A 
ATOM     26  C   UNL     1      -0.516   1.737   5.565  1.00  0.00     0.004 A 
ATOM     27  C   UNL     1       0.395   2.432   7.690  1.00  0.00     0.004 A 
ATOM     28  C   UNL     1       0.631   0.978   5.324  1.00  0.00     0.000 A 
ATOM     29  C   UNL     1       1.542   1.674   7.447  1.00  0.00     0.000 A 
ATOM     30  C   UNL     1       1.657   0.945   6.266  1.00  0.00     0.000 A 
ENDBRANCH  24  25
ENDBRANCH  23  24
BRANCH  23  31
ATOM     31  C   UNL     1      -2.716   3.238   9.501  1.00  0.00     0.243 C 
ATOM     32  O   UNL     1      -2.099   4.261   9.784  1.00  0.00    -0.273 OA
ATOM     33  N   UNL     1      -3.162   2.360  10.474  1.00  0.00    -0.341 N 
ATOM     34  H   UNL     1      -3.664   1.520  10.176  1.00  0.00     0.164 HD
BRANCH  33  35
ATOM     35  C   UNL     1      -2.991   2.604  11.909  1.00  0.00     0.194 C 
BRANCH  35  36
ATOM     36  C   UNL     1      -2.695   1.323  12.740  1.00  0.00     0.017 C 
ATOM     37  C   UNL     1      -3.893   0.943  13.627  1.00  0.00     0.010 C 
ATOM     38  C   UNL     1      -1.473   1.466  13.655  1.00  0.00     0.010 C 
ENDBRANCH  35  36
BRANCH  35  39
ATOM     39  C   UNL     1      -4.156   3.434  12.517  1.00  0.00     0.329 C 
ATOM     40  O   UNL     1      -5.330   3.308  12.192  1.00  0.00    -0.250 OA
BRANCH  39  41
ATOM     41  O   UNL     1      -3.735   4.262  13.521  1.00  0.00    -0.458 OA
BRANCH  41  42
ATOM     42  C   UNL     1      -4.215   5.626  13.470  1.00  0.00     0.205 CG0
ATOM     43  C   UNL     1      -3.419   6.347  12.384  1.00  0.00     0.056 C 
ATOM     44  G   UNL     1      -4.029   6.265  14.861  1.00  0.00     0.000 G0
ENDBRANCH  41  42
ENDBRANCH  39  41
ENDBRANCH  35  39
ENDBRANCH  33  35
ENDBRANCH  23  31
ENDBRANCH  21  23
ENDBRANCH  19  21
ENDBRANCH  14  19
ENDBRANCH   7  14
ENDBRANCH   2   5
BRANCH   3  45
ATOM     45  C   UNL     1      -2.926  -2.102   0.289  1.00  0.00     0.171 C 
BRANCH  45  46
ATOM     46  N   UNL     1      -1.785  -2.538  -0.505  1.00  0.00    -0.342 N 
ATOM     47  C   UNL     1      -1.835  -3.638  -1.324  1.00  0.00     0.247 C 
ATOM     48  O   UNL     1      -2.863  -4.292  -1.504  1.00  0.00    -0.273 OA
ATOM     49  H   UNL     1      -0.929  -1.990  -0.430  1.00  0.00     0.164 HD
BRANCH  47  50
ATOM     50  C   UNL     1      -0.502  -4.016  -1.985  1.00  0.00     0.212 CG0
ATOM     51  G   UNL     1      -0.809  -5.020  -3.115  1.00  0.00     0.000 G0
BRANCH  50  52
ATOM     52  N   UNL     1       0.065  -2.760  -2.468  1.00  0.00    -0.339 N 
ATOM     53  C   UNL     1      -0.240  -2.213  -3.691  1.00  0.00     0.243 C 
ATOM     54  O   UNL     1      -0.977  -2.771  -4.499  1.00  0.00    -0.273 OA
ATOM     55  H   UNL     1       0.769  -2.305  -1.889  1.00  0.00     0.164 HD
BRANCH  53  56
ATOM     56  C   UNL     1       0.546  -0.928  -4.018  1.00  0.00     0.182 C 
BRANCH  56  57
ATOM     57  N   UNL     1      -0.010  -0.256  -5.197  1.00  0.00    -0.344 N 
ATOM     58  C   UNL     1      -0.750   0.898  -5.106  1.00  0.00     0.220 C 
ATOM     59  O   UNL     1      -1.059   1.405  -4.033  1.00  0.00    -0.275 OA
ATOM     60  H   UNL     1       0.306  -0.584  -6.105  1.00  0.00     0.164 HD
BRANCH  58  61
ATOM     61  C   UNL     1      -1.173   1.449  -6.455  1.00  0.00     0.100 C 
BRANCH  61  62
ATOM     62  C   UNL     1      -0.002   1.872  -7.342  1.00  0.00     0.010 C 
BRANCH  62  63
ATOM     63  C   UNL     1       0.866   2.988  -6.746  1.00  0.00     0.000 C 
BRANCH  63  64
ATOM     64  C   UNL     1       2.339   2.618  -6.584  1.00  0.00    -0.003 C 
ATOM     65  C   UNL     1       2.681   1.349  -7.352  1.00  0.00     0.004 C 
ENDBRANCH  63  64
ENDBRANCH  62  63
ENDBRANCH  61  62
ENDBRANCH  58  61
ENDBRANCH  56  57
BRANCH  56  66
ATOM     66  C   UNL     1       2.041  -1.207  -4.164  1.00  0.00     0.157 C 
BRANCH  66  67
ATOM     67  C   UNL     1       2.289  -2.364  -5.089  1.00  0.00     0.305 C 
ATOM     68  O   UNL     1       2.701  -3.473  -4.781  1.00  0.00    -0.252 OA
BRANCH  67  69
ATOM     69  O   UNL     1       1.954  -2.083  -6.362  1.00  0.00    -0.481 OA
ATOM     70  H   UNL     1       2.806  -2.075  -6.849  1.00  0.00     0.296 HD
ENDBRANCH  67  69
ENDBRANCH  66  67
ENDBRANCH  56  66
ENDBRANCH  53  56
ENDBRANCH  50  52
ENDBRANCH  47  50
ENDBRANCH  45  46
BRANCH  45  71
ATOM     71  C   UNL     1      -3.742  -1.026  -0.436  1.00  0.00     0.037 C 
BRANCH  71  72
ATOM     72  C   UNL     1      -2.941  -0.350  -1.552  1.00  0.00     0.026 C 
BRANCH  72  73
ATOM     73  C   UNL     1      -3.843   0.474  -2.469  1.00  0.00     0.146 C 
BRANCH  73  74
ATOM     74  N   UNL     1      -4.244   1.674  -1.741  1.00  0.00    -0.254 NA
ATOM     75  C   UNL     1      -4.087   2.806  -2.321  1.00  0.00     0.185 C 
ATOM     76  N   UNL     1      -4.448   3.928  -1.677  1.00  0.00    -0.370 N 
ATOM     77  N   UNL     1      -3.592   3.069  -3.543  1.00  0.00    -0.370 N 
ATOM     78  H   UNL     1      -4.824   3.821  -0.746  1.00  0.00     0.159 HD
ATOM     79  H   UNL     1      -4.223   4.851  -2.005  1.00  0.00     0.159 HD
ATOM     80  H   UNL     1      -3.283   2.319  -4.143  1.00  0.00     0.159 HD
ATOM     81  H   UNL     1      -3.625   3.994  -3.938  1.00  0.00     0.159 HD
ENDBRANCH  73  74
ENDBRANCH  72  73
ENDBRANCH  71  72
ENDBRANCH  45  71
ENDBRANCH   3  45
TORSDOF 20
ENDMDL
MODEL 7
REMARK VINA RESULT:    -6.297      4.791      9.075
REMARK INTER + INTRA:         -23.844
REMARK INTER:                 -17.854
REMARK INTRA:                  -5.990
REMARK UNBOUND:                -5.767
REMARK SMILES CCCCCC(=O)N[C@H](CC(=O)O)C(=O)N[C@H]1C(=O)N[C@H](CCCN=C(N)N)C(=O)N[C@@H]2CC[C@H](O)N(C2=O)[C@@H](CC(C)C)C(=O)N(C)[C@@H](Cc2ccccc2)C(=O)N[C@H](C(C)C)C(=O)O[C@@H]1C
REMARK SMILES IDX 30 1 31 2 29 3 32 5 35 6 37 7 34 8 38 9 33 10 39 11 36 12
REMARK SMILES IDX 40 14 41 15 42 16 43 17 44 18 45 19 46 20 47 21 48 22 49 23
REMARK SMILES IDX 50 24 51 25 52 26 56 27 53 28 55 29 54 30 57 31 58 32 59 33
REMARK SMILES IDX 60 35 61 36 62 37 63 38 64 39 65 40 66 41 67 42 68 43 21 45
REMARK SMILES IDX 20 46 18 47 19 48 17 50 16 52 14 53 15 54 9 56 8 57 6 58
REMARK SMILES IDX 7 59 5 61 4 62 3 63 2 64 1 65 10 66 11 67 12 68 13 69 22 71
REMARK SMILES IDX 23 72 24 73 25 74 26 75 27 76 28 77
REMARK H PARENT 31 4 36 13 59 34 20 49 16 55 8 60 13 70 27 78 27 79 28 80
REMARK H PARENT 28 81
REMARK Flexibility Score:  259.900
ROOT
ATOM      1  O   UNL     1      -2.603  -0.980   0.946  1.00  0.00    -0.273 OA
ATOM      2  N   UNL     1      -4.540  -0.959   2.161  1.00  0.00    -0.343 N 
ATOM      3  C   UNL     1      -3.815  -1.183   1.010  1.00  0.00     0.243 C 
ATOM      4  H   UNL     1      -5.534  -1.152   2.182  1.00  0.00     0.164 HD
ENDROOT
BRANCH   2   5
ATOM      5  C   UNL     1      -3.911  -0.352   3.329  1.00  0.00     0.171 C 
ATOM      6  C   UNL     1      -4.701  -0.165   6.112  1.00  0.00     0.214 C 
ATOM      7  N   UNL     1      -5.082   0.882   5.194  1.00  0.00    -0.303 N 
ATOM      8  C   UNL     1      -3.393  -0.846   5.740  1.00  0.00     0.057 C 
ATOM      9  C   UNL     1      -4.781   0.831   3.842  1.00  0.00     0.247 C 
ATOM     10  C   UNL     1      -3.492  -1.417   4.342  1.00  0.00     0.040 C 
ATOM     11  O   UNL     1      -5.186   1.689   3.047  1.00  0.00    -0.272 OA
BRANCH   6  12
ATOM     12  O   UNL     1      -5.750  -1.104   6.153  1.00  0.00    -0.373 OA
ATOM     13  H   UNL     1      -5.667  -1.663   5.351  1.00  0.00     0.213 HD
ENDBRANCH   6  12
BRANCH   7  14
ATOM     14  C   UNL     1      -5.944   1.959   5.725  1.00  0.00     0.177 C 
BRANCH  14  15
ATOM     15  C   UNL     1      -7.375   1.528   6.102  1.00  0.00     0.038 C 
BRANCH  15  16
ATOM     16  C   UNL     1      -8.234   0.761   5.072  1.00  0.00    -0.015 C 
ATOM     17  C   UNL     1      -8.696   1.653   3.916  1.00  0.00     0.007 C 
ATOM     18  C   UNL     1      -9.479   0.186   5.762  1.00  0.00     0.007 C 
ENDBRANCH  15  16
ENDBRANCH  14  15
BRANCH  14  19
ATOM     19  C   UNL     1      -5.081   3.014   6.499  1.00  0.00     0.245 C 
ATOM     20  O   UNL     1      -3.863   3.027   6.256  1.00  0.00    -0.272 OA
BRANCH  19  21
ATOM     21  N   UNL     1      -5.578   3.833   7.498  1.00  0.00    -0.332 N 
ATOM     22  C   UNL     1      -6.329   5.058   7.287  1.00  0.00     0.147 C 
BRANCH  21  23
ATOM     23  C   UNL     1      -5.317   3.444   8.911  1.00  0.00     0.178 C 
BRANCH  23  24
ATOM     24  C   UNL     1      -5.538   1.949   9.220  1.00  0.00     0.070 C 
BRANCH  24  25
ATOM     25  C   UNL     1      -5.901   1.587  10.642  1.00  0.00    -0.045 A 
ATOM     26  C   UNL     1      -7.218   1.720  11.102  1.00  0.00     0.004 A 
ATOM     27  C   UNL     1      -4.919   1.115  11.525  1.00  0.00     0.004 A 
ATOM     28  C   UNL     1      -7.542   1.399  12.422  1.00  0.00     0.000 A 
ATOM     29  C   UNL     1      -5.245   0.793  12.843  1.00  0.00     0.000 A 
ATOM     30  C   UNL     1      -6.556   0.939  13.292  1.00  0.00     0.000 A 
ENDBRANCH  24  25
ENDBRANCH  23  24
BRANCH  23  31
ATOM     31  C   UNL     1      -4.001   4.037   9.468  1.00  0.00     0.243 C 
ATOM     32  O   UNL     1      -2.881   3.658   9.133  1.00  0.00    -0.273 OA
ATOM     33  N   UNL     1      -4.191   4.913  10.523  1.00  0.00    -0.341 N 
ATOM     34  H   UNL     1      -5.148   5.187  10.759  1.00  0.00     0.164 HD
BRANCH  33  35
ATOM     35  C   UNL     1      -3.084   5.503  11.281  1.00  0.00     0.194 C 
BRANCH  35  36
ATOM     36  C   UNL     1      -2.851   4.853  12.674  1.00  0.00     0.017 C 
ATOM     37  C   UNL     1      -1.850   3.687  12.586  1.00  0.00     0.010 C 
ATOM     38  C   UNL     1      -4.136   4.307  13.309  1.00  0.00     0.010 C 
ENDBRANCH  35  36
BRANCH  35  39
ATOM     39  C   UNL     1      -3.181   7.052  11.373  1.00  0.00     0.329 C 
ATOM     40  O   UNL     1      -2.231   7.809  11.214  1.00  0.00    -0.250 OA
BRANCH  39  41
ATOM     41  O   UNL     1      -4.465   7.482  11.566  1.00  0.00    -0.458 OA
BRANCH  41  42
ATOM     42  C   UNL     1      -4.791   7.950  12.896  1.00  0.00     0.205 CG0
ATOM     43  C   UNL     1      -6.231   7.532  13.184  1.00  0.00     0.056 C 
ATOM     44  G   UNL     1      -4.602   9.480  12.939  1.00  0.00     0.000 G0
ENDBRANCH  41  42
ENDBRANCH  39  41
ENDBRANCH  35  39
ENDBRANCH  33  35
ENDBRANCH  23  31
ENDBRANCH  21  23
ENDBRANCH  19  21
ENDBRANCH  14  19
ENDBRANCH   7  14
ENDBRANCH   2   5
BRANCH   3  45
ATOM     45  C   UNL     1      -4.621  -1.723  -0.179  1.00  0.00     0.171 C 
BRANCH  45  46
ATOM     46  N   UNL     1      -3.653  -1.933  -1.247  1.00  0.00    -0.342 N 
ATOM     47  C   UNL     1      -3.353  -3.181  -1.735  1.00  0.00     0.247 C 
ATOM     48  O   UNL     1      -3.931  -4.201  -1.359  1.00  0.00    -0.273 OA
ATOM     49  H   UNL     1      -3.192  -1.108  -1.627  1.00  0.00     0.164 HD
BRANCH  47  50
ATOM     50  C   UNL     1      -2.221  -3.219  -2.770  1.00  0.00     0.212 CG0
ATOM     51  G   UNL     1      -2.719  -2.492  -4.035  1.00  0.00     0.000 G0
BRANCH  50  52
ATOM     52  N   UNL     1      -1.087  -2.555  -2.133  1.00  0.00    -0.339 N 
ATOM     53  C   UNL     1      -0.202  -3.201  -1.304  1.00  0.00     0.243 C 
ATOM     54  O   UNL     1      -0.328  -4.382  -0.992  1.00  0.00    -0.273 OA
ATOM     55  H   UNL     1      -0.993  -1.550  -2.263  1.00  0.00     0.164 HD
BRANCH  53  56
ATOM     56  C   UNL     1       0.862  -2.276  -0.679  1.00  0.00     0.182 C 
BRANCH  56  57
ATOM     57  N   UNL     1       0.372  -1.674   0.564  1.00  0.00    -0.344 N 
ATOM     58  C   UNL     1       0.589  -2.245   1.794  1.00  0.00     0.220 C 
ATOM     59  O   UNL     1       1.142  -3.331   1.933  1.00  0.00    -0.275 OA
ATOM     60  H   UNL     1       0.000  -0.729   0.504  1.00  0.00     0.164 HD
BRANCH  58  61
ATOM     61  C   UNL     1       0.044  -1.420   2.946  1.00  0.00     0.100 C 
BRANCH  61  62
ATOM     62  C   UNL     1       1.103  -1.022   3.974  1.00  0.00     0.010 C 
BRANCH  62  63
ATOM     63  C   UNL     1       0.565  -0.871   5.403  1.00  0.00     0.000 C 
BRANCH  63  64
ATOM     64  C   UNL     1       0.157   0.555   5.771  1.00  0.00    -0.003 C 
ATOM     65  C   UNL     1       0.800   1.574   4.842  1.00  0.00     0.004 C 
ENDBRANCH  63  64
ENDBRANCH  62  63
ENDBRANCH  61  62
ENDBRANCH  58  61
ENDBRANCH  56  57
BRANCH  56  66
ATOM     66  C   UNL     1       1.346  -1.225  -1.677  1.00  0.00     0.157 C 
BRANCH  66  67
ATOM     67  C   UNL     1       2.486  -1.744  -2.505  1.00  0.00     0.305 C 
ATOM     68  O   UNL     1       2.670  -1.559  -3.698  1.00  0.00    -0.252 OA
BRANCH  67  69
ATOM     69  O   UNL     1       3.377  -2.437  -1.770  1.00  0.00    -0.481 OA
ATOM     70  H   UNL     1       4.253  -2.160  -2.113  1.00  0.00     0.296 HD
ENDBRANCH  67  69
ENDBRANCH  66  67
ENDBRANCH  56  66
ENDBRANCH  53  56
ENDBRANCH  50  52
ENDBRANCH  47  50
ENDBRANCH  45  46
BRANCH  45  71
ATOM     71  C   UNL     1      -5.706  -0.722  -0.588  1.00  0.00     0.037 C 
BRANCH  71  72
ATOM     72  C   UNL     1      -6.081  -0.851  -2.066  1.00  0.00     0.026 C 
BRANCH  72  73
ATOM     73  C   UNL     1      -5.932   0.480  -2.801  1.00  0.00     0.146 C 
BRANCH  73  74
ATOM     74  N   UNL     1      -4.617   1.024  -2.476  1.00  0.00    -0.254 NA
ATOM     75  C   UNL     1      -4.391   2.254  -2.760  1.00  0.00     0.185 C 
ATOM     76  N   UNL     1      -3.191   2.784  -2.472  1.00  0.00    -0.370 N 
ATOM     77  N   UNL     1      -5.210   3.153  -3.333  1.00  0.00    -0.370 N 
ATOM     78  H   UNL     1      -2.511   2.171  -2.044  1.00  0.00     0.159 HD
ATOM     79  H   UNL     1      -2.894   3.688  -2.793  1.00  0.00     0.159 HD
ATOM     80  H   UNL     1      -6.148   2.896  -3.601  1.00  0.00     0.159 HD
ATOM     81  H   UNL     1      -4.960   4.126  -3.402  1.00  0.00     0.159 HD
ENDBRANCH  73  74
ENDBRANCH  72  73
ENDBRANCH  71  72
ENDBRANCH  45  71
ENDBRANCH   3  45
TORSDOF 20
ENDMDL
MODEL 8
REMARK VINA RESULT:    -6.290      3.822      6.782
REMARK INTER + INTRA:         -23.823
REMARK INTER:                 -18.482
REMARK INTRA:                  -5.341
REMARK UNBOUND:                -5.767
REMARK SMILES CCCCCC(=O)N[C@H](CC(=O)O)C(=O)N[C@H]1C(=O)N[C@H](CCCN=C(N)N)C(=O)N[C@@H]2CC[C@H](O)N(C2=O)[C@@H](CC(C)C)C(=O)N(C)[C@@H](Cc2ccccc2)C(=O)N[C@H](C(C)C)C(=O)O[C@@H]1C
REMARK SMILES IDX 30 1 31 2 29 3 32 5 35 6 37 7 34 8 38 9 33 10 39 11 36 12
REMARK SMILES IDX 40 14 41 15 42 16 43 17 44 18 45 19 46 20 47 21 48 22 49 23
REMARK SMILES IDX 50 24 51 25 52 26 56 27 53 28 55 29 54 30 57 31 58 32 59 33
REMARK SMILES IDX 60 35 61 36 62 37 63 38 64 39 65 40 66 41 67 42 68 43 21 45
REMARK SMILES IDX 20 46 18 47 19 48 17 50 16 52 14 53 15 54 9 56 8 57 6 58
REMARK SMILES IDX 7 59 5 61 4 62 3 63 2 64 1 65 10 66 11 67 12 68 13 69 22 71
REMARK SMILES IDX 23 72 24 73 25 74 26 75 27 76 28 77
REMARK H PARENT 31 4 36 13 59 34 20 49 16 55 8 60 13 70 27 78 27 79 28 80
REMARK H PARENT 28 81
REMARK Flexibility Score:  259.900
ROOT
ATOM      1  O   UNL     1      -1.137  -1.164   1.857  1.00  0.00    -0.273 OA
ATOM      2  N   UNL     1      -3.278  -1.384   2.633  1.00  0.00    -0.343 N 
ATOM      3  C   UNL     1      -2.287  -1.573   1.693  1.00  0.00     0.243 C 
ATOM      4  H   UNL     1      -4.209  -1.748   2.470  1.00  0.00     0.164 HD
ENDROOT
BRANCH   2   5
ATOM      5  C   UNL     1      -3.028  -0.579   3.823  1.00  0.00     0.171 C 
ATOM      6  C   UNL     1      -4.156  -0.619   6.493  1.00  0.00     0.214 C 
ATOM      7  N   UNL     1      -4.754   0.221   5.482  1.00  0.00    -0.303 N 
ATOM      8  C   UNL     1      -2.662  -0.824   6.299  1.00  0.00     0.057 C 
ATOM      9  C   UNL     1      -4.297   0.249   4.175  1.00  0.00     0.247 C 
ATOM     10  C   UNL     1      -2.400  -1.420   4.933  1.00  0.00     0.040 C 
ATOM     11  O   UNL     1      -4.869   0.905   3.294  1.00  0.00    -0.272 OA
BRANCH   6  12
ATOM     12  O   UNL     1      -4.829  -1.857   6.478  1.00  0.00    -0.373 OA
ATOM     13  H   UNL     1      -4.287  -2.484   7.003  1.00  0.00     0.213 HD
ENDBRANCH   6  12
BRANCH   7  14
ATOM     14  C   UNL     1      -5.982   0.953   5.859  1.00  0.00     0.177 C 
BRANCH  14  15
ATOM     15  C   UNL     1      -7.294   0.362   5.306  1.00  0.00     0.038 C 
BRANCH  15  16
ATOM     16  C   UNL     1      -8.413   1.312   4.825  1.00  0.00    -0.015 C 
ATOM     17  C   UNL     1      -9.657   0.556   4.349  1.00  0.00     0.007 C 
ATOM     18  C   UNL     1      -7.900   2.171   3.662  1.00  0.00     0.007 C 
ENDBRANCH  15  16
ENDBRANCH  14  15
BRANCH  14  19
ATOM     19  C   UNL     1      -5.810   1.614   7.270  1.00  0.00     0.245 C 
ATOM     20  O   UNL     1      -6.210   0.960   8.247  1.00  0.00    -0.272 OA
BRANCH  19  21
ATOM     21  N   UNL     1      -5.350   2.904   7.465  1.00  0.00    -0.332 N 
ATOM     22  C   UNL     1      -5.945   4.105   6.905  1.00  0.00     0.147 C 
BRANCH  21  23
ATOM     23  C   UNL     1      -4.138   3.091   8.310  1.00  0.00     0.178 C 
BRANCH  23  24
ATOM     24  C   UNL     1      -3.023   3.936   7.661  1.00  0.00     0.070 C 
BRANCH  24  25
ATOM     25  C   UNL     1      -1.804   3.197   7.158  1.00  0.00    -0.045 A 
ATOM     26  C   UNL     1      -1.764   2.684   5.855  1.00  0.00     0.004 A 
ATOM     27  C   UNL     1      -0.694   3.011   7.994  1.00  0.00     0.004 A 
ATOM     28  C   UNL     1      -0.641   1.988   5.403  1.00  0.00     0.000 A 
ATOM     29  C   UNL     1       0.428   2.316   7.541  1.00  0.00     0.000 A 
ATOM     30  C   UNL     1       0.452   1.802   6.246  1.00  0.00     0.000 A 
ENDBRANCH  24  25
ENDBRANCH  23  24
BRANCH  23  31
ATOM     31  C   UNL     1      -4.474   3.468   9.773  1.00  0.00     0.243 C 
ATOM     32  O   UNL     1      -3.804   4.240  10.454  1.00  0.00    -0.273 OA
ATOM     33  N   UNL     1      -5.499   2.713  10.317  1.00  0.00    -0.341 N 
ATOM     34  H   UNL     1      -6.017   2.083   9.701  1.00  0.00     0.164 HD
BRANCH  33  35
ATOM     35  C   UNL     1      -5.907   2.815  11.721  1.00  0.00     0.194 C 
BRANCH  35  36
ATOM     36  C   UNL     1      -6.609   1.541  12.272  1.00  0.00     0.017 C 
ATOM     37  C   UNL     1      -6.977   1.704  13.757  1.00  0.00     0.010 C 
ATOM     38  C   UNL     1      -5.750   0.277  12.148  1.00  0.00     0.010 C 
ENDBRANCH  35  36
BRANCH  35  39
ATOM     39  C   UNL     1      -6.728   4.102  12.013  1.00  0.00     0.329 C 
ATOM     40  O   UNL     1      -7.829   4.338  11.530  1.00  0.00    -0.250 OA
BRANCH  39  41
ATOM     41  O   UNL     1      -6.123   4.905  12.941  1.00  0.00    -0.458 OA
BRANCH  41  42
ATOM     42  C   UNL     1      -6.457   6.312  12.885  1.00  0.00     0.205 CG0
ATOM     43  C   UNL     1      -5.371   7.005  12.065  1.00  0.00     0.056 C 
ATOM     44  G   UNL     1      -6.544   6.854  14.326  1.00  0.00     0.000 G0
ENDBRANCH  41  42
ENDBRANCH  39  41
ENDBRANCH  35  39
ENDBRANCH  33  35
ENDBRANCH  23  31
ENDBRANCH  21  23
ENDBRANCH  19  21
ENDBRANCH  14  19
ENDBRANCH   7  14
ENDBRANCH   2   5
BRANCH   3  45
ATOM     45  C   UNL     1      -2.711  -2.346   0.437  1.00  0.00     0.171 C 
BRANCH  45  46
ATOM     46  N   UNL     1      -1.485  -2.583  -0.312  1.00  0.00    -0.342 N 
ATOM     47  C   UNL     1      -1.372  -3.587  -1.241  1.00  0.00     0.247 C 
ATOM     48  O   UNL     1      -2.315  -4.311  -1.561  1.00  0.00    -0.273 OA
ATOM     49  H   UNL     1      -0.695  -1.970  -0.119  1.00  0.00     0.164 HD
BRANCH  47  50
ATOM     50  C   UNL     1       0.031  -3.765  -1.839  1.00  0.00     0.212 CG0
ATOM     51  G   UNL     1       0.271  -5.276  -2.027  1.00  0.00     0.000 G0
BRANCH  50  52
ATOM     52  N   UNL     1       0.016  -3.022  -3.096  1.00  0.00    -0.339 N 
ATOM     53  C   UNL     1       1.133  -2.435  -3.640  1.00  0.00     0.243 C 
ATOM     54  O   UNL     1       2.226  -2.447  -3.081  1.00  0.00    -0.273 OA
ATOM     55  H   UNL     1      -0.883  -2.882  -3.552  1.00  0.00     0.164 HD
BRANCH  53  56
ATOM     56  C   UNL     1       0.855  -1.632  -4.927  1.00  0.00     0.182 C 
BRANCH  56  57
ATOM     57  N   UNL     1       1.650  -0.400  -4.960  1.00  0.00    -0.344 N 
ATOM     58  C   UNL     1       2.475  -0.084  -6.012  1.00  0.00     0.220 C 
ATOM     59  O   UNL     1       2.660  -0.840  -6.960  1.00  0.00    -0.275 OA
ATOM     60  H   UNL     1       1.450   0.297  -4.248  1.00  0.00     0.164 HD
BRANCH  58  61
ATOM     61  C   UNL     1       3.154   1.264  -5.861  1.00  0.00     0.100 C 
BRANCH  61  62
ATOM     62  C   UNL     1       2.804   2.258  -6.968  1.00  0.00     0.010 C 
BRANCH  62  63
ATOM     63  C   UNL     1       1.700   3.254  -6.591  1.00  0.00     0.000 C 
BRANCH  63  64
ATOM     64  C   UNL     1       0.348   2.608  -6.295  1.00  0.00    -0.003 C 
ATOM     65  C   UNL     1      -0.573   3.564  -5.551  1.00  0.00     0.004 C 
ENDBRANCH  63  64
ENDBRANCH  62  63
ENDBRANCH  61  62
ENDBRANCH  58  61
ENDBRANCH  56  57
BRANCH  56  66
ATOM     66  C   UNL     1      -0.637  -1.360  -5.106  1.00  0.00     0.157 C 
BRANCH  66  67
ATOM     67  C   UNL     1      -1.083  -0.198  -4.265  1.00  0.00     0.305 C 
ATOM     68  O   UNL     1      -0.577   0.188  -3.223  1.00  0.00    -0.252 OA
BRANCH  67  69
ATOM     69  O   UNL     1      -2.125   0.458  -4.810  1.00  0.00    -0.481 OA
ATOM     70  H   UNL     1      -2.762   0.571  -4.074  1.00  0.00     0.296 HD
ENDBRANCH  67  69
ENDBRANCH  66  67
ENDBRANCH  56  66
ENDBRANCH  53  56
ENDBRANCH  50  52
ENDBRANCH  47  50
ENDBRANCH  45  46
BRANCH  45  71
ATOM     71  C   UNL     1      -3.722  -1.530  -0.376  1.00  0.00     0.037 C 
BRANCH  71  72
ATOM     72  C   UNL     1      -3.148  -0.183  -0.824  1.00  0.00     0.026 C 
BRANCH  72  73
ATOM     73  C   UNL     1      -4.254   0.801  -1.198  1.00  0.00     0.146 C 
BRANCH  73  74
ATOM     74  N   UNL     1      -3.946   1.338  -2.520  1.00  0.00    -0.254 NA
ATOM     75  C   UNL     1      -3.890   2.612  -2.651  1.00  0.00     0.185 C 
ATOM     76  N   UNL     1      -3.608   3.137  -3.854  1.00  0.00    -0.370 N 
ATOM     77  N   UNL     1      -4.080   3.566  -1.722  1.00  0.00    -0.370 N 
ATOM     78  H   UNL     1      -3.457   2.487  -4.612  1.00  0.00     0.159 HD
ATOM     79  H   UNL     1      -3.689   4.116  -4.064  1.00  0.00     0.159 HD
ATOM     80  H   UNL     1      -4.297   3.318  -0.768  1.00  0.00     0.159 HD
ATOM     81  H   UNL     1      -3.897   4.536  -1.916  1.00  0.00     0.159 HD
ENDBRANCH  73  74
ENDBRANCH  72  73
ENDBRANCH  71  72
ENDBRANCH  45  71
ENDBRANCH   3  45
TORSDOF 20
ENDMDL
MODEL 9
REMARK VINA RESULT:    -6.255      3.483     14.092
REMARK INTER + INTRA:         -23.724
REMARK INTER:                 -18.532
REMARK INTRA:                  -5.192
REMARK UNBOUND:                -5.767
REMARK SMILES CCCCCC(=O)N[C@H](CC(=O)O)C(=O)N[C@H]1C(=O)N[C@H](CCCN=C(N)N)C(=O)N[C@@H]2CC[C@H](O)N(C2=O)[C@@H](CC(C)C)C(=O)N(C)[C@@H](Cc2ccccc2)C(=O)N[C@H](C(C)C)C(=O)O[C@@H]1C
REMARK SMILES IDX 30 1 31 2 29 3 32 5 35 6 37 7 34 8 38 9 33 10 39 11 36 12
REMARK SMILES IDX 40 14 41 15 42 16 43 17 44 18 45 19 46 20 47 21 48 22 49 23
REMARK SMILES IDX 50 24 51 25 52 26 56 27 53 28 55 29 54 30 57 31 58 32 59 33
REMARK SMILES IDX 60 35 61 36 62 37 63 38 64 39 65 40 66 41 67 42 68 43 21 45
REMARK SMILES IDX 20 46 18 47 19 48 17 50 16 52 14 53 15 54 9 56 8 57 6 58
REMARK SMILES IDX 7 59 5 61 4 62 3 63 2 64 1 65 10 66 11 67 12 68 13 69 22 71
REMARK SMILES IDX 23 72 24 73 25 74 26 75 27 76 28 77
REMARK H PARENT 31 4 36 13 59 34 20 49 16 55 8 60 13 70 27 78 27 79 28 80
REMARK H PARENT 28 81
REMARK Flexibility Score:  259.900
ROOT
ATOM      1  O   UNL     1      -5.544   1.456   1.544  1.00  0.00    -0.273 OA
ATOM      2  N   UNL     1      -5.416  -0.409   0.225  1.00  0.00    -0.343 N 
ATOM      3  C   UNL     1      -5.689   0.240   1.410  1.00  0.00     0.243 C 
ATOM      4  H   UNL     1      -5.561  -1.408   0.147  1.00  0.00     0.164 HD
ENDROOT
BRANCH   2   5
ATOM      5  C   UNL     1      -4.823   0.312  -0.896  1.00  0.00     0.171 C 
ATOM      6  C   UNL     1      -3.859  -0.545  -3.493  1.00  0.00     0.214 C 
ATOM      7  N   UNL     1      -2.944  -0.498  -2.376  1.00  0.00    -0.303 N 
ATOM      8  C   UNL     1      -4.975   0.483  -3.401  1.00  0.00     0.057 C 
ATOM      9  C   UNL     1      -3.350  -0.147  -1.098  1.00  0.00     0.247 C 
ATOM     10  C   UNL     1      -5.746   0.289  -2.113  1.00  0.00     0.040 C 
ATOM     11  O   UNL     1      -2.580  -0.193  -0.130  1.00  0.00    -0.272 OA
BRANCH   6  12
ATOM     12  O   UNL     1      -4.393  -1.847  -3.557  1.00  0.00    -0.373 OA
ATOM     13  H   UNL     1      -5.368  -1.761  -3.488  1.00  0.00     0.213 HD
ENDBRANCH   6  12
BRANCH   7  14
ATOM     14  C   UNL     1      -1.569  -0.985  -2.614  1.00  0.00     0.177 C 
BRANCH  14  15
ATOM     15  C   UNL     1      -1.083  -2.078  -1.642  1.00  0.00     0.038 C 
BRANCH  15  16
ATOM     16  C   UNL     1       0.090  -2.995  -2.054  1.00  0.00    -0.015 C 
ATOM     17  C   UNL     1       0.047  -4.352  -1.345  1.00  0.00     0.007 C 
ATOM     18  C   UNL     1       1.423  -2.317  -1.712  1.00  0.00     0.007 C 
ENDBRANCH  15  16
ENDBRANCH  14  15
BRANCH  14  19
ATOM     19  C   UNL     1      -1.223  -0.911  -4.141  1.00  0.00     0.245 C 
ATOM     20  O   UNL     1      -1.673  -1.817  -4.862  1.00  0.00    -0.272 OA
BRANCH  19  21
ATOM     21  N   UNL     1      -0.369   0.028  -4.694  1.00  0.00    -0.332 N 
ATOM     22  C   UNL     1       1.034   0.189  -4.360  1.00  0.00     0.147 C 
BRANCH  21  23
ATOM     23  C   UNL     1      -0.927   0.964  -5.709  1.00  0.00     0.178 C 
BRANCH  23  24
ATOM     24  C   UNL     1      -1.375   2.330  -5.150  1.00  0.00     0.070 C 
BRANCH  24  25
ATOM     25  C   UNL     1      -2.785   2.772  -5.462  1.00  0.00    -0.045 A 
ATOM     26  C   UNL     1      -3.522   3.527  -4.540  1.00  0.00     0.004 A 
ATOM     27  C   UNL     1      -3.381   2.427  -6.685  1.00  0.00     0.004 A 
ATOM     28  C   UNL     1      -4.831   3.918  -4.830  1.00  0.00     0.000 A 
ATOM     29  C   UNL     1      -4.689   2.819  -6.973  1.00  0.00     0.000 A 
ATOM     30  C   UNL     1      -5.414   3.562  -6.044  1.00  0.00     0.000 A 
ENDBRANCH  24  25
ENDBRANCH  23  24
BRANCH  23  31
ATOM     31  C   UNL     1      -0.073   1.035  -6.997  1.00  0.00     0.243 C 
ATOM     32  O   UNL     1       0.015   0.122  -7.814  1.00  0.00    -0.273 OA
ATOM     33  N   UNL     1       0.737   2.156  -7.062  1.00  0.00    -0.341 N 
ATOM     34  H   UNL     1       0.622   2.880  -6.349  1.00  0.00     0.164 HD
BRANCH  33  35
ATOM     35  C   UNL     1       1.715   2.373  -8.132  1.00  0.00     0.194 C 
BRANCH  35  36
ATOM     36  C   UNL     1       3.194   2.188  -7.688  1.00  0.00     0.017 C 
ATOM     37  C   UNL     1       3.689   0.760  -7.975  1.00  0.00     0.010 C 
ATOM     38  C   UNL     1       3.415   2.459  -6.195  1.00  0.00     0.010 C 
ENDBRANCH  35  36
BRANCH  35  39
ATOM     39  C   UNL     1       1.497   3.721  -8.876  1.00  0.00     0.329 C 
ATOM     40  O   UNL     1       0.407   4.267  -9.002  1.00  0.00    -0.250 OA
BRANCH  39  41
ATOM     41  O   UNL     1       2.672   4.276  -9.301  1.00  0.00    -0.458 OA
BRANCH  41  42
ATOM     42  C   UNL     1       2.806   4.480 -10.728  1.00  0.00     0.205 CG0
ATOM     43  C   UNL     1       3.931   3.569 -11.214  1.00  0.00     0.056 C 
ATOM     44  G   UNL     1       3.101   5.971 -10.986  1.00  0.00     0.000 G0
ENDBRANCH  41  42
ENDBRANCH  39  41
ENDBRANCH  35  39
ENDBRANCH  33  35
ENDBRANCH  23  31
ENDBRANCH  21  23
ENDBRANCH  19  21
ENDBRANCH  14  19
ENDBRANCH   7  14
ENDBRANCH   2   5
BRANCH   3  45
ATOM     45  C   UNL     1      -6.208  -0.654   2.544  1.00  0.00     0.171 C 
BRANCH  45  46
ATOM     46  N   UNL     1      -6.257   0.197   3.725  1.00  0.00    -0.342 N 
ATOM     47  C   UNL     1      -7.416   0.416   4.427  1.00  0.00     0.247 C 
ATOM     48  O   UNL     1      -8.478  -0.145   4.156  1.00  0.00    -0.273 OA
ATOM     49  H   UNL     1      -5.387   0.638   4.019  1.00  0.00     0.164 HD
BRANCH  47  50
ATOM     50  C   UNL     1      -7.303   1.439   5.567  1.00  0.00     0.212 CG0
ATOM     51  G   UNL     1      -8.300   1.025   6.667  1.00  0.00     0.000 G0
BRANCH  50  52
ATOM     52  N   UNL     1      -5.909   1.385   6.001  1.00  0.00    -0.339 N 
ATOM     53  C   UNL     1      -5.529   1.365   7.321  1.00  0.00     0.243 C 
ATOM     54  O   UNL     1      -6.336   1.445   8.243  1.00  0.00    -0.273 OA
ATOM     55  H   UNL     1      -5.188   1.429   5.284  1.00  0.00     0.164 HD
BRANCH  53  56
ATOM     56  C   UNL     1      -4.003   1.396   7.535  1.00  0.00     0.182 C 
BRANCH  56  57
ATOM     57  N   UNL     1      -3.673   1.574   8.953  1.00  0.00    -0.344 N 
ATOM     58  C   UNL     1      -3.324   0.523   9.765  1.00  0.00     0.220 C 
ATOM     59  O   UNL     1      -3.335  -0.643   9.384  1.00  0.00    -0.275 OA
ATOM     60  H   UNL     1      -3.554   2.528   9.281  1.00  0.00     0.164 HD
BRANCH  58  61
ATOM     61  C   UNL     1      -2.968   0.947  11.178  1.00  0.00     0.100 C 
BRANCH  61  62
ATOM     62  C   UNL     1      -1.464   1.000  11.445  1.00  0.00     0.010 C 
BRANCH  62  63
ATOM     63  C   UNL     1      -1.048   0.440  12.811  1.00  0.00     0.000 C 
BRANCH  63  64
ATOM     64  C   UNL     1       0.305   0.944  13.310  1.00  0.00    -0.003 C 
ATOM     65  C   UNL     1       1.354  -0.158  13.279  1.00  0.00     0.004 C 
ENDBRANCH  63  64
ENDBRANCH  62  63
ENDBRANCH  61  62
ENDBRANCH  58  61
ENDBRANCH  56  57
BRANCH  56  66
ATOM     66  C   UNL     1      -3.334   2.447   6.651  1.00  0.00     0.157 C 
BRANCH  66  67
ATOM     67  C   UNL     1      -1.913   2.074   6.342  1.00  0.00     0.305 C 
ATOM     68  O   UNL     1      -1.083   2.761   5.766  1.00  0.00    -0.252 OA
BRANCH  67  69
ATOM     69  O   UNL     1      -1.586   0.860   6.825  1.00  0.00    -0.481 OA
ATOM     70  H   UNL     1      -0.768   1.009   7.344  1.00  0.00     0.296 HD
ENDBRANCH  67  69
ENDBRANCH  66  67
ENDBRANCH  56  66
ENDBRANCH  53  56
ENDBRANCH  50  52
ENDBRANCH  47  50
ENDBRANCH  45  46
BRANCH  45  71
ATOM     71  C   UNL     1      -5.274  -1.852   2.749  1.00  0.00     0.037 C 
BRANCH  71  72
ATOM     72  C   UNL     1      -4.232  -1.590   3.840  1.00  0.00     0.026 C 
BRANCH  72  73
ATOM     73  C   UNL     1      -2.881  -1.203   3.243  1.00  0.00     0.146 C 
BRANCH  73  74
ATOM     74  N   UNL     1      -1.929  -1.069   4.341  1.00  0.00    -0.254 NA
ATOM     75  C   UNL     1      -0.687  -0.952   4.047  1.00  0.00     0.185 C 
ATOM     76  N   UNL     1       0.213  -0.826   5.036  1.00  0.00    -0.370 N 
ATOM     77  N   UNL     1      -0.104  -0.935   2.836  1.00  0.00    -0.370 N 
ATOM     78  H   UNL     1      -0.142  -0.837   5.981  1.00  0.00     0.159 HD
ATOM     79  H   UNL     1       1.206  -0.876   4.891  1.00  0.00     0.159 HD
ATOM     80  H   UNL     1      -0.659  -1.016   1.997  1.00  0.00     0.159 HD
ATOM     81  H   UNL     1       0.874  -0.721   2.723  1.00  0.00     0.159 HD
ENDBRANCH  73  74
ENDBRANCH  72  73
ENDBRANCH  71  72
ENDBRANCH  45  71
ENDBRANCH   3  45
TORSDOF 20
ENDMDL
MODEL 10
REMARK VINA RESULT:    -6.254      3.406      5.832
REMARK INTER + INTRA:         -23.721
REMARK INTER:                 -17.735
REMARK INTRA:                  -5.986
REMARK UNBOUND:                -5.767
REMARK SMILES CCCCCC(=O)N[C@H](CC(=O)O)C(=O)N[C@H]1C(=O)N[C@H](CCCN=C(N)N)C(=O)N[C@@H]2CC[C@H](O)N(C2=O)[C@@H](CC(C)C)C(=O)N(C)[C@@H](Cc2ccccc2)C(=O)N[C@H](C(C)C)C(=O)O[C@@H]1C
REMARK SMILES IDX 30 1 31 2 29 3 32 5 35 6 37 7 34 8 38 9 33 10 39 11 36 12
REMARK SMILES IDX 40 14 41 15 42 16 43 17 44 18 45 19 46 20 47 21 48 22 49 23
REMARK SMILES IDX 50 24 51 25 52 26 56 27 53 28 55 29 54 30 57 31 58 32 59 33
REMARK SMILES IDX 60 35 61 36 62 37 63 38 64 39 65 40 66 41 67 42 68 43 21 45
REMARK SMILES IDX 20 46 18 47 19 48 17 50 16 52 14 53 15 54 9 56 8 57 6 58
REMARK SMILES IDX 7 59 5 61 4 62 3 63 2 64 1 65 10 66 11 67 12 68 13 69 22 71
REMARK SMILES IDX 23 72 24 73 25 74 26 75 27 76 28 77
REMARK H PARENT 31 4 36 13 59 34 20 49 16 55 8 60 13 70 27 78 27 79 28 80
REMARK H PARENT 28 81
REMARK Flexibility Score:  259.900
ROOT
ATOM      1  O   UNL     1      -5.354   0.578  -2.827  1.00  0.00    -0.273 OA
ATOM      2  N   UNL     1      -5.585  -1.695  -2.736  1.00  0.00    -0.343 N 
ATOM      3  C   UNL     1      -5.647  -0.480  -3.384  1.00  0.00     0.243 C 
ATOM      4  H   UNL     1      -5.819  -2.548  -3.230  1.00  0.00     0.164 HD
ENDROOT
BRANCH   2   5
ATOM      5  C   UNL     1      -5.280  -1.762  -1.311  1.00  0.00     0.171 C 
ATOM      6  C   UNL     1      -5.250  -3.950   0.591  1.00  0.00     0.214 C 
ATOM      7  N   UNL     1      -6.459  -3.181   0.412  1.00  0.00    -0.303 N 
ATOM      8  C   UNL     1      -3.983  -3.146   0.340  1.00  0.00     0.057 C 
ATOM      9  C   UNL     1      -6.557  -2.157  -0.516  1.00  0.00     0.247 C 
ATOM     10  C   UNL     1      -4.009  -2.573  -1.060  1.00  0.00     0.040 C 
ATOM     11  O   UNL     1      -7.622  -1.560  -0.724  1.00  0.00    -0.272 OA
BRANCH   6  12
ATOM     12  O   UNL     1      -5.310  -5.057  -0.278  1.00  0.00    -0.373 OA
ATOM     13  H   UNL     1      -6.058  -5.617   0.022  1.00  0.00     0.213 HD
ENDBRANCH   6  12
BRANCH   7  14
ATOM     14  C   UNL     1      -7.654  -3.626   1.160  1.00  0.00     0.177 C 
BRANCH  14  15
ATOM     15  C   UNL     1      -7.834  -5.154   1.261  1.00  0.00     0.038 C 
BRANCH  15  16
ATOM     16  C   UNL     1      -9.255  -5.746   1.380  1.00  0.00    -0.015 C 
ATOM     17  C   UNL     1      -9.330  -6.885   2.401  1.00  0.00     0.007 C 
ATOM     18  C   UNL     1      -9.706  -6.291   0.018  1.00  0.00     0.007 C 
ENDBRANCH  15  16
ENDBRANCH  14  15
BRANCH  14  19
ATOM     19  C   UNL     1      -8.003  -2.596   2.289  1.00  0.00     0.245 C 
ATOM     20  O   UNL     1      -7.047  -2.041   2.855  1.00  0.00    -0.272 OA
BRANCH  19  21
ATOM     21  N   UNL     1      -9.287  -2.365   2.751  1.00  0.00    -0.332 N 
ATOM     22  C   UNL     1     -10.500  -2.474   1.961  1.00  0.00     0.147 C 
BRANCH  21  23
ATOM     23  C   UNL     1      -9.451  -1.958   4.174  1.00  0.00     0.178 C 
BRANCH  23  24
ATOM     24  C   UNL     1     -10.090  -0.569   4.379  1.00  0.00     0.070 C 
BRANCH  24  25
ATOM     25  C   UNL     1      -9.395   0.610   3.739  1.00  0.00    -0.045 A 
ATOM     26  C   UNL     1      -8.109   0.991   4.143  1.00  0.00     0.004 A 
ATOM     27  C   UNL     1     -10.034   1.345   2.729  1.00  0.00     0.004 A 
ATOM     28  C   UNL     1      -7.480   2.092   3.558  1.00  0.00     0.000 A 
ATOM     29  C   UNL     1      -9.404   2.445   2.145  1.00  0.00     0.000 A 
ATOM     30  C   UNL     1      -8.128   2.819   2.563  1.00  0.00     0.000 A 
ENDBRANCH  24  25
ENDBRANCH  23  24
BRANCH  23  31
ATOM     31  C   UNL     1     -10.038  -3.082   5.060  1.00  0.00     0.243 C 
ATOM     32  O   UNL     1      -9.783  -4.275   4.914  1.00  0.00    -0.273 OA
ATOM     33  N   UNL     1     -11.029  -2.646   5.923  1.00  0.00    -0.341 N 
ATOM     34  H   UNL     1     -11.200  -1.640   5.996  1.00  0.00     0.164 HD
BRANCH  33  35
ATOM     35  C   UNL     1     -11.807  -3.554   6.770  1.00  0.00     0.194 C 
BRANCH  35  36
ATOM     36  C   UNL     1     -13.289  -3.721   6.330  1.00  0.00     0.017 C 
ATOM     37  C   UNL     1     -13.560  -5.141   5.804  1.00  0.00     0.010 C 
ATOM     38  C   UNL     1     -13.706  -2.737   5.229  1.00  0.00     0.010 C 
ENDBRANCH  35  36
BRANCH  35  39
ATOM     39  C   UNL     1     -11.686  -3.213   8.281  1.00  0.00     0.329 C 
ATOM     40  O   UNL     1     -11.286  -3.999   9.133  1.00  0.00    -0.250 OA
BRANCH  39  41
ATOM     41  O   UNL     1     -11.993  -1.907   8.546  1.00  0.00    -0.458 OA
BRANCH  41  42
ATOM     42  C   UNL     1     -12.403  -1.606   9.901  1.00  0.00     0.205 CG0
ATOM     43  C   UNL     1     -11.514  -0.469  10.403  1.00  0.00     0.056 C 
ATOM     44  G   UNL     1     -12.262  -2.884  10.752  1.00  0.00     0.000 G0
ENDBRANCH  41  42
ENDBRANCH  39  41
ENDBRANCH  35  39
ENDBRANCH  33  35
ENDBRANCH  23  31
ENDBRANCH  21  23
ENDBRANCH  19  21
ENDBRANCH  14  19
ENDBRANCH   7  14
ENDBRANCH   2   5
BRANCH   3  45
ATOM     45  C   UNL     1      -6.085  -0.541  -4.853  1.00  0.00     0.171 C 
BRANCH  45  46
ATOM     46  N   UNL     1      -4.857  -0.674  -5.625  1.00  0.00    -0.342 N 
ATOM     47  C   UNL     1      -4.591  -1.774  -6.401  1.00  0.00     0.247 C 
ATOM     48  O   UNL     1      -5.397  -2.691  -6.559  1.00  0.00    -0.273 OA
ATOM     49  H   UNL     1      -4.186   0.090  -5.567  1.00  0.00     0.164 HD
BRANCH  47  50
ATOM     50  C   UNL     1      -3.195  -1.795  -7.042  1.00  0.00     0.212 CG0
ATOM     51  G   UNL     1      -3.351  -1.366  -8.514  1.00  0.00     0.000 G0
BRANCH  50  52
ATOM     52  N   UNL     1      -2.390  -0.867  -6.252  1.00  0.00    -0.339 N 
ATOM     53  C   UNL     1      -1.058  -1.065  -5.980  1.00  0.00     0.243 C 
ATOM     54  O   UNL     1      -0.452  -2.072  -6.337  1.00  0.00    -0.273 OA
ATOM     55  H   UNL     1      -2.863  -0.069  -5.834  1.00  0.00     0.164 HD
BRANCH  53  56
ATOM     56  C   UNL     1      -0.441   0.004  -5.056  1.00  0.00     0.182 C 
BRANCH  56  57
ATOM     57  N   UNL     1       0.013  -0.590  -3.794  1.00  0.00    -0.344 N 
ATOM     58  C   UNL     1       1.326  -0.544  -3.390  1.00  0.00     0.220 C 
ATOM     59  O   UNL     1       2.218  -0.072  -4.086  1.00  0.00    -0.275 OA
ATOM     60  H   UNL     1      -0.705  -0.898  -3.145  1.00  0.00     0.164 HD
BRANCH  58  61
ATOM     61  C   UNL     1       1.557  -1.169  -2.027  1.00  0.00     0.100 C 
BRANCH  61  62
ATOM     62  C   UNL     1       0.284  -1.316  -1.192  1.00  0.00     0.010 C 
BRANCH  62  63
ATOM     63  C   UNL     1       0.130  -2.686  -0.520  1.00  0.00     0.000 C 
BRANCH  63  64
ATOM     64  C   UNL     1       0.674  -2.749   0.906  1.00  0.00    -0.003 C 
ATOM     65  C   UNL     1       0.022  -1.702   1.797  1.00  0.00     0.004 C 
ENDBRANCH  63  64
ENDBRANCH  62  63
ENDBRANCH  61  62
ENDBRANCH  58  61
ENDBRANCH  56  57
BRANCH  56  66
ATOM     66  C   UNL     1      -1.401   1.171  -4.831  1.00  0.00     0.157 C 
BRANCH  66  67
ATOM     67  C   UNL     1      -0.728   2.487  -5.098  1.00  0.00     0.305 C 
ATOM     68  O   UNL     1      -1.271   3.572  -5.241  1.00  0.00    -0.252 OA
BRANCH  67  69
ATOM     69  O   UNL     1       0.614   2.381  -5.119  1.00  0.00    -0.481 OA
ATOM     70  H   UNL     1       0.876   2.699  -6.009  1.00  0.00     0.296 HD
ENDBRANCH  67  69
ENDBRANCH  66  67
ENDBRANCH  56  66
ENDBRANCH  53  56
ENDBRANCH  50  52
ENDBRANCH  47  50
ENDBRANCH  45  46
BRANCH  45  71
ATOM     71  C   UNL     1      -6.857   0.728  -5.233  1.00  0.00     0.037 C 
BRANCH  71  72
ATOM     72  C   UNL     1      -6.368   1.325  -6.554  1.00  0.00     0.026 C 
BRANCH  72  73
ATOM     73  C   UNL     1      -5.867   2.756  -6.370  1.00  0.00     0.146 C 
BRANCH  73  74
ATOM     74  N   UNL     1      -4.754   2.722  -5.426  1.00  0.00    -0.254 NA
ATOM     75  C   UNL     1      -4.847   3.433  -4.364  1.00  0.00     0.185 C 
ATOM     76  N   UNL     1      -3.840   3.422  -3.476  1.00  0.00    -0.370 N 
ATOM     77  N   UNL     1      -5.850   4.237  -3.971  1.00  0.00    -0.370 N 
ATOM     78  H   UNL     1      -3.040   2.846  -3.699  1.00  0.00     0.159 HD
ATOM     79  H   UNL     1      -3.778   4.058  -2.701  1.00  0.00     0.159 HD
ATOM     80  H   UNL     1      -6.677   4.342  -4.539  1.00  0.00     0.159 HD
ATOM     81  H   UNL     1      -5.862   4.659  -3.057  1.00  0.00     0.159 HD
ENDBRANCH  73  74
ENDBRANCH  72  73
ENDBRANCH  71  72
ENDBRANCH  45  71
ENDBRANCH   3  45
TORSDOF 20
ENDMDL
MODEL 11
REMARK VINA RESULT:    -6.210      3.389     13.403
REMARK INTER + INTRA:         -23.596
REMARK INTER:                 -17.295
REMARK INTRA:                  -6.300
REMARK UNBOUND:                -5.767
REMARK SMILES CCCCCC(=O)N[C@H](CC(=O)O)C(=O)N[C@H]1C(=O)N[C@H](CCCN=C(N)N)C(=O)N[C@@H]2CC[C@H](O)N(C2=O)[C@@H](CC(C)C)C(=O)N(C)[C@@H](Cc2ccccc2)C(=O)N[C@H](C(C)C)C(=O)O[C@@H]1C
REMARK SMILES IDX 30 1 31 2 29 3 32 5 35 6 37 7 34 8 38 9 33 10 39 11 36 12
REMARK SMILES IDX 40 14 41 15 42 16 43 17 44 18 45 19 46 20 47 21 48 22 49 23
REMARK SMILES IDX 50 24 51 25 52 26 56 27 53 28 55 29 54 30 57 31 58 32 59 33
REMARK SMILES IDX 60 35 61 36 62 37 63 38 64 39 65 40 66 41 67 42 68 43 21 45
REMARK SMILES IDX 20 46 18 47 19 48 17 50 16 52 14 53 15 54 9 56 8 57 6 58
REMARK SMILES IDX 7 59 5 61 4 62 3 63 2 64 1 65 10 66 11 67 12 68 13 69 22 71
REMARK SMILES IDX 23 72 24 73 25 74 26 75 27 76 28 77
REMARK H PARENT 31 4 36 13 59 34 20 49 16 55 8 60 13 70 27 78 27 79 28 80
REMARK H PARENT 28 81
REMARK Flexibility Score:  259.900
ROOT
ATOM      1  O   UNL     1      -4.577  -2.600   2.700  1.00  0.00    -0.273 OA
ATOM      2  N   UNL     1      -4.063  -1.281   0.903  1.00  0.00    -0.343 N 
ATOM      3  C   UNL     1      -4.881  -1.681   1.938  1.00  0.00     0.243 C 
ATOM      4  H   UNL     1      -4.339  -0.511   0.306  1.00  0.00     0.164 HD
ENDROOT
BRANCH   2   5
ATOM      5  C   UNL     1      -2.844  -2.019   0.592  1.00  0.00     0.171 C 
ATOM      6  C   UNL     1      -0.249  -1.195  -0.405  1.00  0.00     0.214 C 
ATOM      7  N   UNL     1      -1.278  -1.585  -1.340  1.00  0.00    -0.303 N 
ATOM      8  C   UNL     1      -0.356  -1.903   0.937  1.00  0.00     0.057 C 
ATOM      9  C   UNL     1      -2.555  -1.940  -0.935  1.00  0.00     0.247 C 
ATOM     10  C   UNL     1      -1.715  -1.640   1.548  1.00  0.00     0.040 C 
ATOM     11  O   UNL     1      -3.456  -2.189  -1.746  1.00  0.00    -0.272 OA
BRANCH   6  12
ATOM     12  O   UNL     1      -0.331   0.201  -0.232  1.00  0.00    -0.373 OA
ATOM     13  H   UNL     1      -0.666   0.576  -1.075  1.00  0.00     0.213 HD
ENDBRANCH   6  12
BRANCH   7  14
ATOM     14  C   UNL     1      -0.963  -1.450  -2.778  1.00  0.00     0.177 C 
BRANCH  14  15
ATOM     15  C   UNL     1      -1.171  -0.040  -3.366  1.00  0.00     0.038 C 
BRANCH  15  16
ATOM     16  C   UNL     1      -2.339   0.212  -4.344  1.00  0.00    -0.015 C 
ATOM     17  C   UNL     1      -3.554   0.840  -3.654  1.00  0.00     0.007 C 
ATOM     18  C   UNL     1      -2.779  -1.113  -4.980  1.00  0.00     0.007 C 
ENDBRANCH  15  16
ENDBRANCH  14  15
BRANCH  14  19
ATOM     19  C   UNL     1       0.185  -2.439  -3.178  1.00  0.00     0.245 C 
ATOM     20  O   UNL     1       0.118  -3.590  -2.714  1.00  0.00    -0.272 OA
BRANCH  19  21
ATOM     21  N   UNL     1       1.299  -2.072  -3.912  1.00  0.00    -0.332 N 
ATOM     22  C   UNL     1       2.664  -2.056  -3.419  1.00  0.00     0.147 C 
BRANCH  21  23
ATOM     23  C   UNL     1       1.093  -1.644  -5.323  1.00  0.00     0.178 C 
BRANCH  23  24
ATOM     24  C   UNL     1       2.163  -0.676  -5.867  1.00  0.00     0.070 C 
BRANCH  24  25
ATOM     25  C   UNL     1       1.712   0.723  -6.217  1.00  0.00    -0.045 A 
ATOM     26  C   UNL     1       0.390   0.974  -6.609  1.00  0.00     0.004 A 
ATOM     27  C   UNL     1       2.616   1.794  -6.158  1.00  0.00     0.004 A 
ATOM     28  C   UNL     1      -0.015   2.267  -6.947  1.00  0.00     0.000 A 
ATOM     29  C   UNL     1       2.209   3.086  -6.495  1.00  0.00     0.000 A 
ATOM     30  C   UNL     1       0.895   3.321  -6.892  1.00  0.00     0.000 A 
ENDBRANCH  24  25
ENDBRANCH  23  24
BRANCH  23  31
ATOM     31  C   UNL     1       0.739  -2.820  -6.265  1.00  0.00     0.243 C 
ATOM     32  O   UNL     1      -0.336  -3.413  -6.249  1.00  0.00    -0.273 OA
ATOM     33  N   UNL     1       1.814  -3.274  -7.010  1.00  0.00    -0.341 N 
ATOM     34  H   UNL     1       2.687  -2.742  -6.977  1.00  0.00     0.164 HD
BRANCH  33  35
ATOM     35  C   UNL     1       1.743  -4.452  -7.880  1.00  0.00     0.194 C 
BRANCH  35  36
ATOM     36  C   UNL     1       2.610  -5.649  -7.399  1.00  0.00     0.017 C 
ATOM     37  C   UNL     1       1.795  -6.610  -6.515  1.00  0.00     0.010 C 
ATOM     38  C   UNL     1       3.842  -5.219  -6.595  1.00  0.00     0.010 C 
ENDBRANCH  35  36
BRANCH  35  39
ATOM     39  C   UNL     1       2.004  -4.108  -9.373  1.00  0.00     0.329 C 
ATOM     40  O   UNL     1       1.119  -3.880 -10.190  1.00  0.00    -0.250 OA
BRANCH  39  41
ATOM     41  O   UNL     1       3.338  -4.004  -9.657  1.00  0.00    -0.458 OA
BRANCH  41  42
ATOM     42  C   UNL     1       3.736  -4.358 -11.003  1.00  0.00     0.205 CG0
ATOM     43  C   UNL     1       4.166  -5.823 -10.979  1.00  0.00     0.056 C 
ATOM     44  G   UNL     1       4.875  -3.416 -11.442  1.00  0.00     0.000 G0
ENDBRANCH  41  42
ENDBRANCH  39  41
ENDBRANCH  35  39
ENDBRANCH  33  35
ENDBRANCH  23  31
ENDBRANCH  21  23
ENDBRANCH  19  21
ENDBRANCH  14  19
ENDBRANCH   7  14
ENDBRANCH   2   5
BRANCH   3  45
ATOM     45  C   UNL     1      -6.185  -0.887   2.090  1.00  0.00     0.171 C 
BRANCH  45  46
ATOM     46  N   UNL     1      -6.530  -0.962   3.503  1.00  0.00    -0.342 N 
ATOM     47  C   UNL     1      -7.105   0.086   4.177  1.00  0.00     0.247 C 
ATOM     48  O   UNL     1      -7.438   1.135   3.623  1.00  0.00    -0.273 OA
ATOM     49  H   UNL     1      -6.323  -1.833   3.988  1.00  0.00     0.164 HD
BRANCH  47  50
ATOM     50  C   UNL     1      -7.281  -0.130   5.687  1.00  0.00     0.212 CG0
ATOM     51  G   UNL     1      -6.973  -1.611   5.986  1.00  0.00     0.000 G0
BRANCH  50  52
ATOM     52  N   UNL     1      -6.347   0.794   6.324  1.00  0.00    -0.339 N 
ATOM     53  C   UNL     1      -5.056   0.458   6.651  1.00  0.00     0.243 C 
ATOM     54  O   UNL     1      -4.602  -0.669   6.478  1.00  0.00    -0.273 OA
ATOM     55  H   UNL     1      -6.699   1.711   6.594  1.00  0.00     0.164 HD
BRANCH  53  56
ATOM     56  C   UNL     1      -4.287   1.569   7.394  1.00  0.00     0.182 C 
BRANCH  56  57
ATOM     57  N   UNL     1      -2.881   1.603   6.981  1.00  0.00    -0.344 N 
ATOM     58  C   UNL     1      -2.321   2.695   6.363  1.00  0.00     0.220 C 
ATOM     59  O   UNL     1      -2.972   3.685   6.048  1.00  0.00    -0.275 OA
ATOM     60  H   UNL     1      -2.285   0.849   7.313  1.00  0.00     0.164 HD
BRANCH  58  61
ATOM     61  C   UNL     1      -0.839   2.531   6.079  1.00  0.00     0.100 C 
BRANCH  61  62
ATOM     62  C   UNL     1      -0.362   1.079   6.111  1.00  0.00     0.010 C 
BRANCH  62  63
ATOM     63  C   UNL     1       0.599   0.709   4.974  1.00  0.00     0.000 C 
BRANCH  63  64
ATOM     64  C   UNL     1       0.324  -0.652   4.338  1.00  0.00    -0.003 C 
ATOM     65  C   UNL     1       0.813  -1.788   5.225  1.00  0.00     0.004 C 
ENDBRANCH  63  64
ENDBRANCH  62  63
ENDBRANCH  61  62
ENDBRANCH  58  61
ENDBRANCH  56  57
BRANCH  56  66
ATOM     66  C   UNL     1      -4.441   1.440   8.908  1.00  0.00     0.157 C 
BRANCH  66  67
ATOM     67  C   UNL     1      -3.357   0.581   9.493  1.00  0.00     0.305 C 
ATOM     68  O   UNL     1      -3.331  -0.640   9.534  1.00  0.00    -0.252 OA
BRANCH  67  69
ATOM     69  O   UNL     1      -2.323   1.307   9.958  1.00  0.00    -0.481 OA
ATOM     70  H   UNL     1      -2.736   2.011  10.501  1.00  0.00     0.296 HD
ENDBRANCH  67  69
ENDBRANCH  66  67
ENDBRANCH  56  66
ENDBRANCH  53  56
ENDBRANCH  50  52
ENDBRANCH  47  50
ENDBRANCH  45  46
BRANCH  45  71
ATOM     71  C   UNL     1      -7.283  -1.492   1.207  1.00  0.00     0.037 C 
BRANCH  71  72
ATOM     72  C   UNL     1      -7.783  -2.834   1.749  1.00  0.00     0.026 C 
BRANCH  72  73
ATOM     73  C   UNL     1      -7.833  -3.896   0.653  1.00  0.00     0.146 C 
BRANCH  73  74
ATOM     74  N   UNL     1      -6.528  -4.549   0.604  1.00  0.00    -0.254 NA
ATOM     75  C   UNL     1      -5.785  -4.326  -0.417  1.00  0.00     0.185 C 
ATOM     76  N   UNL     1      -4.579  -4.911  -0.491  1.00  0.00    -0.370 N 
ATOM     77  N   UNL     1      -6.033  -3.555  -1.490  1.00  0.00    -0.370 N 
ATOM     78  H   UNL     1      -4.316  -5.516   0.275  1.00  0.00     0.159 HD
ATOM     79  H   UNL     1      -4.008  -4.901  -1.317  1.00  0.00     0.159 HD
ATOM     80  H   UNL     1      -6.902  -3.050  -1.570  1.00  0.00     0.159 HD
ATOM     81  H   UNL     1      -5.324  -3.365  -2.179  1.00  0.00     0.159 HD
ENDBRANCH  73  74
ENDBRANCH  72  73
ENDBRANCH  71  72
ENDBRANCH  45  71
ENDBRANCH   3  45
TORSDOF 20
ENDMDL
MODEL 12
REMARK VINA RESULT:    -6.210      4.718      9.357
REMARK INTER + INTRA:         -23.594
REMARK INTER:                 -17.492
REMARK INTRA:                  -6.102
REMARK UNBOUND:                -5.767
REMARK SMILES CCCCCC(=O)N[C@H](CC(=O)O)C(=O)N[C@H]1C(=O)N[C@H](CCCN=C(N)N)C(=O)N[C@@H]2CC[C@H](O)N(C2=O)[C@@H](CC(C)C)C(=O)N(C)[C@@H](Cc2ccccc2)C(=O)N[C@H](C(C)C)C(=O)O[C@@H]1C
REMARK SMILES IDX 30 1 31 2 29 3 32 5 35 6 37 7 34 8 38 9 33 10 39 11 36 12
REMARK SMILES IDX 40 14 41 15 42 16 43 17 44 18 45 19 46 20 47 21 48 22 49 23
REMARK SMILES IDX 50 24 51 25 52 26 56 27 53 28 55 29 54 30 57 31 58 32 59 33
REMARK SMILES IDX 60 35 61 36 62 37 63 38 64 39 65 40 66 41 67 42 68 43 21 45
REMARK SMILES IDX 20 46 18 47 19 48 17 50 16 52 14 53 15 54 9 56 8 57 6 58
REMARK SMILES IDX 7 59 5 61 4 62 3 63 2 64 1 65 10 66 11 67 12 68 13 69 22 71
REMARK SMILES IDX 23 72 24 73 25 74 26 75 27 76 28 77
REMARK H PARENT 31 4 36 13 59 34 20 49 16 55 8 60 13 70 27 78 27 79 28 80
REMARK H PARENT 28 81
REMARK Flexibility Score:  259.900
ROOT
ATOM      1  O   UNL     1      -2.811  -0.489  -1.378  1.00  0.00    -0.273 OA
ATOM      2  N   UNL     1      -3.510  -2.639  -1.033  1.00  0.00    -0.343 N 
ATOM      3  C   UNL     1      -2.653  -1.696  -1.559  1.00  0.00     0.243 C 
ATOM      4  H   UNL     1      -3.341  -3.625  -1.190  1.00  0.00     0.164 HD
ENDROOT
BRANCH   2   5
ATOM      5  C   UNL     1      -4.722  -2.231  -0.331  1.00  0.00     0.171 C 
ATOM      6  C   UNL     1      -6.978  -3.717   0.720  1.00  0.00     0.214 C 
ATOM      7  N   UNL     1      -7.031  -3.207  -0.630  1.00  0.00    -0.303 N 
ATOM      8  C   UNL     1      -6.131  -2.865   1.653  1.00  0.00     0.057 C 
ATOM      9  C   UNL     1      -5.969  -2.533  -1.211  1.00  0.00     0.247 C 
ATOM     10  C   UNL     1      -4.725  -2.750   1.106  1.00  0.00     0.040 C 
ATOM     11  O   UNL     1      -5.988  -2.176  -2.396  1.00  0.00    -0.272 OA
BRANCH   6  12
ATOM     12  O   UNL     1      -6.478  -5.033   0.665  1.00  0.00    -0.373 OA
ATOM     13  H   UNL     1      -5.546  -4.973   0.364  1.00  0.00     0.213 HD
ENDBRANCH   6  12
BRANCH   7  14
ATOM     14  C   UNL     1      -8.220  -3.561  -1.434  1.00  0.00     0.177 C 
BRANCH  14  15
ATOM     15  C   UNL     1      -8.502  -5.071  -1.559  1.00  0.00     0.038 C 
BRANCH  15  16
ATOM     16  C   UNL     1      -9.019  -5.640  -2.899  1.00  0.00    -0.015 C 
ATOM     17  C   UNL     1     -10.493  -5.304  -3.146  1.00  0.00     0.007 C 
ATOM     18  C   UNL     1      -8.867  -7.166  -2.907  1.00  0.00     0.007 C 
ENDBRANCH  15  16
ENDBRANCH  14  15
BRANCH  14  19
ATOM     19  C   UNL     1      -9.310  -2.441  -1.314  1.00  0.00     0.245 C 
ATOM     20  O   UNL     1      -9.277  -1.535  -2.163  1.00  0.00    -0.272 OA
BRANCH  19  21
ATOM     21  N   UNL     1     -10.214  -2.354  -0.270  1.00  0.00    -0.332 N 
ATOM     22  C   UNL     1     -10.003  -1.625   0.969  1.00  0.00     0.147 C 
BRANCH  21  23
ATOM     23  C   UNL     1     -11.511  -3.072  -0.410  1.00  0.00     0.178 C 
BRANCH  23  24
ATOM     24  C   UNL     1     -11.890  -3.960   0.793  1.00  0.00     0.070 C 
BRANCH  24  25
ATOM     25  C   UNL     1     -11.129  -5.254   0.960  1.00  0.00    -0.045 A 
ATOM     26  C   UNL     1     -10.045  -5.341   1.844  1.00  0.00     0.004 A 
ATOM     27  C   UNL     1     -11.496  -6.391   0.224  1.00  0.00     0.004 A 
ATOM     28  C   UNL     1      -9.336  -6.536   1.979  1.00  0.00     0.000 A 
ATOM     29  C   UNL     1     -10.787  -7.586   0.362  1.00  0.00     0.000 A 
ATOM     30  C   UNL     1      -9.705  -7.656   1.237  1.00  0.00     0.000 A 
ENDBRANCH  24  25
ENDBRANCH  23  24
BRANCH  23  31
ATOM     31  C   UNL     1     -12.649  -2.165  -0.934  1.00  0.00     0.243 C 
ATOM     32  O   UNL     1     -12.644  -1.625  -2.037  1.00  0.00    -0.273 OA
ATOM     33  N   UNL     1     -13.600  -1.861   0.025  1.00  0.00    -0.341 N 
ATOM     34  H   UNL     1     -13.549  -2.338   0.928  1.00  0.00     0.164 HD
BRANCH  33  35
ATOM     35  C   UNL     1     -14.703  -0.925  -0.213  1.00  0.00     0.194 C 
BRANCH  35  36
ATOM     36  C   UNL     1     -15.134  -0.119   1.045  1.00  0.00     0.017 C 
ATOM     37  C   UNL     1     -15.695   1.261   0.660  1.00  0.00     0.010 C 
ATOM     38  C   UNL     1     -13.987   0.113   2.036  1.00  0.00     0.010 C 
ENDBRANCH  35  36
BRANCH  35  39
ATOM     39  C   UNL     1     -15.916  -1.597  -0.916  1.00  0.00     0.329 C 
ATOM     40  O   UNL     1     -16.046  -1.678  -2.131  1.00  0.00    -0.250 OA
BRANCH  39  41
ATOM     41  O   UNL     1     -16.783  -2.165  -0.024  1.00  0.00    -0.458 OA
BRANCH  41  42
ATOM     42  C   UNL     1     -18.192  -1.938  -0.267  1.00  0.00     0.205 CG0
ATOM     43  C   UNL     1     -18.930  -2.226   1.039  1.00  0.00     0.056 C 
ATOM     44  G   UNL     1     -18.648  -2.858  -1.417  1.00  0.00     0.000 G0
ENDBRANCH  41  42
ENDBRANCH  39  41
ENDBRANCH  35  39
ENDBRANCH  33  35
ENDBRANCH  23  31
ENDBRANCH  21  23
ENDBRANCH  19  21
ENDBRANCH  14  19
ENDBRANCH   7  14
ENDBRANCH   2   5
BRANCH   3  45
ATOM     45  C   UNL     1      -1.475  -2.258  -2.367  1.00  0.00     0.171 C 
BRANCH  45  46
ATOM     46  N   UNL     1      -0.315  -2.162  -1.491  1.00  0.00    -0.342 N 
ATOM     47  C   UNL     1       0.136  -3.224  -0.748  1.00  0.00     0.247 C 
ATOM     48  O   UNL     1      -0.358  -4.350  -0.822  1.00  0.00    -0.273 OA
ATOM     49  H   UNL     1       0.159  -1.262  -1.442  1.00  0.00     0.164 HD
BRANCH  47  50
ATOM     50  C   UNL     1       1.292  -2.903   0.210  1.00  0.00     0.212 CG0
ATOM     51  G   UNL     1       1.980  -1.622  -0.301  1.00  0.00     0.000 G0
BRANCH  50  52
ATOM     52  N   UNL     1       0.675  -2.741   1.524  1.00  0.00    -0.339 N 
ATOM     53  C   UNL     1      -0.138  -1.684   1.852  1.00  0.00     0.243 C 
ATOM     54  O   UNL     1      -0.368  -0.760   1.077  1.00  0.00    -0.273 OA
ATOM     55  H   UNL     1       0.917  -3.417   2.246  1.00  0.00     0.164 HD
BRANCH  53  56
ATOM     56  C   UNL     1      -0.602  -1.682   3.323  1.00  0.00     0.182 C 
BRANCH  56  57
ATOM     57  N   UNL     1      -1.688  -0.720   3.532  1.00  0.00    -0.344 N 
ATOM     58  C   UNL     1      -2.763  -0.987   4.343  1.00  0.00     0.220 C 
ATOM     59  O   UNL     1      -2.928  -2.072   4.891  1.00  0.00    -0.275 OA
ATOM     60  H   UNL     1      -1.541   0.223   3.181  1.00  0.00     0.164 HD
BRANCH  58  61
ATOM     61  C   UNL     1      -3.734   0.174   4.458  1.00  0.00     0.100 C 
BRANCH  61  62
ATOM     62  C   UNL     1      -4.649   0.094   5.680  1.00  0.00     0.010 C 
BRANCH  62  63
ATOM     63  C   UNL     1      -5.879   1.006   5.604  1.00  0.00     0.000 C 
BRANCH  63  64
ATOM     64  C   UNL     1      -6.757   0.773   4.375  1.00  0.00    -0.003 C 
ATOM     65  C   UNL     1      -7.380  -0.615   4.392  1.00  0.00     0.004 C 
ENDBRANCH  63  64
ENDBRANCH  62  63
ENDBRANCH  61  62
ENDBRANCH  58  61
ENDBRANCH  56  57
BRANCH  56  66
ATOM     66  C   UNL     1       0.567  -1.449   4.279  1.00  0.00     0.157 C 
BRANCH  66  67
ATOM     67  C   UNL     1       0.807  -2.649   5.149  1.00  0.00     0.305 C 
ATOM     68  O   UNL     1       0.420  -2.812   6.296  1.00  0.00    -0.252 OA
BRANCH  67  69
ATOM     69  O   UNL     1       1.485  -3.619   4.507  1.00  0.00    -0.481 OA
ATOM     70  H   UNL     1       0.912  -3.867   3.751  1.00  0.00     0.296 HD
ENDBRANCH  67  69
ENDBRANCH  66  67
ENDBRANCH  56  66
ENDBRANCH  53  56
ENDBRANCH  50  52
ENDBRANCH  47  50
ENDBRANCH  45  46
BRANCH  45  71
ATOM     71  C   UNL     1      -1.279  -1.451  -3.655  1.00  0.00     0.037 C 
BRANCH  71  72
ATOM     72  C   UNL     1       0.156  -0.939  -3.801  1.00  0.00     0.026 C 
BRANCH  72  73
ATOM     73  C   UNL     1       0.206   0.376  -4.575  1.00  0.00     0.146 C 
BRANCH  73  74
ATOM     74  N   UNL     1       1.103   0.192  -5.712  1.00  0.00    -0.254 NA
ATOM     75  C   UNL     1       2.356   0.387  -5.524  1.00  0.00     0.185 C 
ATOM     76  N   UNL     1       3.207   0.225  -6.550  1.00  0.00    -0.370 N 
ATOM     77  N   UNL     1       2.995   0.750  -4.398  1.00  0.00    -0.370 N 
ATOM     78  H   UNL     1       2.806  -0.041  -7.439  1.00  0.00     0.159 HD
ATOM     79  H   UNL     1       4.173   0.498  -6.517  1.00  0.00     0.159 HD
ATOM     80  H   UNL     1       2.482   0.904  -3.543  1.00  0.00     0.159 HD
ATOM     81  H   UNL     1       4.000   0.761  -4.341  1.00  0.00     0.159 HD
ENDBRANCH  73  74
ENDBRANCH  72  73
ENDBRANCH  71  72
ENDBRANCH  45  71
ENDBRANCH   3  45
TORSDOF 20
ENDMDL
MODEL 13
REMARK VINA RESULT:    -6.157     11.325     14.541
REMARK INTER + INTRA:         -23.442
REMARK INTER:                 -16.734
REMARK INTRA:                  -6.708
REMARK UNBOUND:                -5.767
REMARK SMILES CCCCCC(=O)N[C@H](CC(=O)O)C(=O)N[C@H]1C(=O)N[C@H](CCCN=C(N)N)C(=O)N[C@@H]2CC[C@H](O)N(C2=O)[C@@H](CC(C)C)C(=O)N(C)[C@@H](Cc2ccccc2)C(=O)N[C@H](C(C)C)C(=O)O[C@@H]1C
REMARK SMILES IDX 30 1 31 2 29 3 32 5 35 6 37 7 34 8 38 9 33 10 39 11 36 12
REMARK SMILES IDX 40 14 41 15 42 16 43 17 44 18 45 19 46 20 47 21 48 22 49 23
REMARK SMILES IDX 50 24 51 25 52 26 56 27 53 28 55 29 54 30 57 31 58 32 59 33
REMARK SMILES IDX 60 35 61 36 62 37 63 38 64 39 65 40 66 41 67 42 68 43 21 45
REMARK SMILES IDX 20 46 18 47 19 48 17 50 16 52 14 53 15 54 9 56 8 57 6 58
REMARK SMILES IDX 7 59 5 61 4 62 3 63 2 64 1 65 10 66 11 67 12 68 13 69 22 71
REMARK SMILES IDX 23 72 24 73 25 74 26 75 27 76 28 77
REMARK H PARENT 31 4 36 13 59 34 20 49 16 55 8 60 13 70 27 78 27 79 28 80
REMARK H PARENT 28 81
REMARK Flexibility Score:  259.900
ROOT
ATOM      1  O   UNL     1     -13.837  -7.017  -5.971  1.00  0.00    -0.273 OA
ATOM      2  N   UNL     1     -15.829  -6.900  -4.853  1.00  0.00    -0.343 N 
ATOM      3  C   UNL     1     -15.067  -6.949  -6.000  1.00  0.00     0.243 C 
ATOM      4  H   UNL     1     -16.839  -6.859  -4.916  1.00  0.00     0.164 HD
ENDROOT
BRANCH   2   5
ATOM      5  C   UNL     1     -15.195  -6.805  -3.543  1.00  0.00     0.171 C 
ATOM      6  C   UNL     1     -15.960  -7.764  -0.916  1.00  0.00     0.214 C 
ATOM      7  N   UNL     1     -16.361  -6.441  -1.334  1.00  0.00    -0.303 N 
ATOM      8  C   UNL     1     -14.648  -8.219  -1.537  1.00  0.00     0.057 C 
ATOM      9  C   UNL     1     -16.073  -5.940  -2.593  1.00  0.00     0.247 C 
ATOM     10  C   UNL     1     -14.755  -8.181  -3.046  1.00  0.00     0.040 C 
ATOM     11  O   UNL     1     -16.495  -4.840  -2.974  1.00  0.00    -0.272 OA
BRANCH   6  12
ATOM     12  O   UNL     1     -16.998  -8.655  -1.252  1.00  0.00    -0.373 OA
ATOM     13  H   UNL     1     -17.537  -8.785  -0.442  1.00  0.00     0.213 HD
ENDBRANCH   6  12
BRANCH   7  14
ATOM     14  C   UNL     1     -17.229  -5.681  -0.410  1.00  0.00     0.177 C 
BRANCH  14  15
ATOM     15  C   UNL     1     -18.625  -5.330  -0.961  1.00  0.00     0.038 C 
BRANCH  15  16
ATOM     16  C   UNL     1     -19.231  -3.939  -0.670  1.00  0.00    -0.015 C 
ATOM     17  C   UNL     1     -18.186  -2.821  -0.736  1.00  0.00     0.007 C 
ATOM     18  C   UNL     1     -19.857  -3.929   0.731  1.00  0.00     0.007 C 
ENDBRANCH  15  16
ENDBRANCH  14  15
BRANCH  14  19
ATOM     19  C   UNL     1     -16.911  -6.066   1.076  1.00  0.00     0.245 C 
ATOM     20  O   UNL     1     -17.627  -6.940   1.593  1.00  0.00    -0.272 OA
BRANCH  19  21
ATOM     21  N   UNL     1     -15.971  -5.417   1.856  1.00  0.00    -0.332 N 
ATOM     22  C   UNL     1     -15.526  -4.047   1.675  1.00  0.00     0.147 C 
BRANCH  21  23
ATOM     23  C   UNL     1     -15.347  -6.180   2.973  1.00  0.00     0.178 C 
BRANCH  23  24
ATOM     24  C   UNL     1     -13.806  -6.123   3.012  1.00  0.00     0.070 C 
BRANCH  24  25
ATOM     25  C   UNL     1     -13.059  -7.320   2.473  1.00  0.00    -0.045 A 
ATOM     26  C   UNL     1     -11.660  -7.322   2.403  1.00  0.00     0.004 A 
ATOM     27  C   UNL     1     -13.761  -8.451   2.028  1.00  0.00     0.004 A 
ATOM     28  C   UNL     1     -10.978  -8.426   1.888  1.00  0.00     0.000 A 
ATOM     29  C   UNL     1     -13.078  -9.554   1.514  1.00  0.00     0.000 A 
ATOM     30  C   UNL     1     -11.686  -9.539   1.442  1.00  0.00     0.000 A 
ENDBRANCH  24  25
ENDBRANCH  23  24
BRANCH  23  31
ATOM     31  C   UNL     1     -16.043  -5.937   4.333  1.00  0.00     0.243 C 
ATOM     32  O   UNL     1     -16.903  -5.080   4.521  1.00  0.00    -0.273 OA
ATOM     33  N   UNL     1     -15.479  -6.648   5.378  1.00  0.00    -0.341 N 
ATOM     34  H   UNL     1     -14.761  -7.344   5.160  1.00  0.00     0.164 HD
BRANCH  33  35
ATOM     35  C   UNL     1     -15.897  -6.486   6.773  1.00  0.00     0.194 C 
BRANCH  35  36
ATOM     36  C   UNL     1     -14.718  -6.357   7.779  1.00  0.00     0.017 C 
ATOM     37  C   UNL     1     -13.454  -5.812   7.092  1.00  0.00     0.010 C 
ATOM     38  C   UNL     1     -14.342  -7.687   8.443  1.00  0.00     0.010 C 
ENDBRANCH  35  36
BRANCH  35  39
ATOM     39  C   UNL     1     -16.924  -7.564   7.219  1.00  0.00     0.329 C 
ATOM     40  O   UNL     1     -17.039  -8.663   6.689  1.00  0.00    -0.250 OA
BRANCH  39  41
ATOM     41  O   UNL     1     -17.631  -7.183   8.326  1.00  0.00    -0.458 OA
BRANCH  41  42
ATOM     42  C   UNL     1     -18.705  -8.062   8.735  1.00  0.00     0.205 CG0
ATOM     43  C   UNL     1     -20.012  -7.438   8.250  1.00  0.00     0.056 C 
ATOM     44  G   UNL     1     -18.659  -8.216  10.268  1.00  0.00     0.000 G0
ENDBRANCH  41  42
ENDBRANCH  39  41
ENDBRANCH  35  39
ENDBRANCH  33  35
ENDBRANCH  23  31
ENDBRANCH  21  23
ENDBRANCH  19  21
ENDBRANCH  14  19
ENDBRANCH   7  14
ENDBRANCH   2   5
BRANCH   3  45
ATOM     45  C   UNL     1     -15.856  -6.936  -7.316  1.00  0.00     0.171 C 
BRANCH  45  46
ATOM     46  N   UNL     1     -14.866  -7.105  -8.371  1.00  0.00    -0.342 N 
ATOM     47  C   UNL     1     -14.709  -8.286  -9.051  1.00  0.00     0.247 C 
ATOM     48  O   UNL     1     -15.438  -9.263  -8.872  1.00  0.00    -0.273 OA
ATOM     49  H   UNL     1     -14.279  -6.303  -8.591  1.00  0.00     0.164 HD
BRANCH  47  50
ATOM     50  C   UNL     1     -13.535  -8.316 -10.040  1.00  0.00     0.212 CG0
ATOM     51  G   UNL     1     -13.962  -7.531 -11.296  1.00  0.00     0.000 G0
BRANCH  50  52
ATOM     52  N   UNL     1     -12.414  -7.705  -9.332  1.00  0.00    -0.339 N 
ATOM     53  C   UNL     1     -11.495  -8.425  -8.607  1.00  0.00     0.243 C 
ATOM     54  O   UNL     1     -11.579  -9.641  -8.455  1.00  0.00    -0.273 OA
ATOM     55  H   UNL     1     -12.354  -6.689  -9.328  1.00  0.00     0.164 HD
BRANCH  53  56
ATOM     56  C   UNL     1     -10.452  -7.556  -7.876  1.00  0.00     0.182 C 
BRANCH  56  57
ATOM     57  N   UNL     1     -11.083  -6.745  -6.830  1.00  0.00    -0.344 N 
ATOM     58  C   UNL     1     -10.511  -6.562  -5.594  1.00  0.00     0.220 C 
ATOM     59  O   UNL     1      -9.474  -7.121  -5.254  1.00  0.00    -0.275 OA
ATOM     60  H   UNL     1     -11.887  -6.185  -7.103  1.00  0.00     0.164 HD
BRANCH  58  61
ATOM     61  C   UNL     1     -11.309  -5.639  -4.693  1.00  0.00     0.100 C 
BRANCH  61  62
ATOM     62  C   UNL     1     -11.535  -6.195  -3.286  1.00  0.00     0.010 C 
BRANCH  62  63
ATOM     63  C   UNL     1     -12.162  -5.192  -2.309  1.00  0.00     0.000 C 
BRANCH  63  64
ATOM     64  C   UNL     1     -12.143  -5.644  -0.850  1.00  0.00    -0.003 C 
ATOM     65  C   UNL     1     -12.109  -4.455   0.099  1.00  0.00     0.004 C 
ENDBRANCH  63  64
ENDBRANCH  62  63
ENDBRANCH  61  62
ENDBRANCH  58  61
ENDBRANCH  56  57
BRANCH  56  66
ATOM     66  C   UNL     1      -9.645  -6.707  -8.856  1.00  0.00     0.157 C 
BRANCH  66  67
ATOM     67  C   UNL     1     -10.045  -5.262  -8.781  1.00  0.00     0.305 C 
ATOM     68  O   UNL     1      -9.476  -4.375  -8.164  1.00  0.00    -0.252 OA
BRANCH  67  69
ATOM     69  O   UNL     1     -11.126  -4.991  -9.538  1.00  0.00    -0.481 OA
ATOM     70  H   UNL     1     -11.030  -4.046  -9.782  1.00  0.00     0.296 HD
ENDBRANCH  67  69
ENDBRANCH  66  67
ENDBRANCH  56  66
ENDBRANCH  53  56
ENDBRANCH  50  52
ENDBRANCH  47  50
ENDBRANCH  45  46
BRANCH  45  71
ATOM     71  C   UNL     1     -16.623  -5.617  -7.465  1.00  0.00     0.037 C 
BRANCH  71  72
ATOM     72  C   UNL     1     -17.412  -5.555  -8.775  1.00  0.00     0.026 C 
BRANCH  72  73
ATOM     73  C   UNL     1     -16.816  -4.534  -9.741  1.00  0.00     0.146 C 
BRANCH  73  74
ATOM     74  N   UNL     1     -16.053  -5.265 -10.749  1.00  0.00    -0.254 NA
ATOM     75  C   UNL     1     -16.128  -4.864 -11.964  1.00  0.00     0.185 C 
ATOM     76  N   UNL     1     -15.437  -5.515 -12.913  1.00  0.00    -0.370 N 
ATOM     77  N   UNL     1     -16.828  -3.835 -12.473  1.00  0.00    -0.370 N 
ATOM     78  H   UNL     1     -14.887  -6.308 -12.616  1.00  0.00     0.159 HD
ATOM     79  H   UNL     1     -15.558  -5.351 -13.897  1.00  0.00     0.159 HD
ATOM     80  H   UNL     1     -17.393  -3.252 -11.873  1.00  0.00     0.159 HD
ATOM     81  H   UNL     1     -16.719  -3.543 -13.430  1.00  0.00     0.159 HD
ENDBRANCH  73  74
ENDBRANCH  72  73
ENDBRANCH  71  72
ENDBRANCH  45  71
ENDBRANCH   3  45
TORSDOF 20
ENDMDL
MODEL 14
REMARK VINA RESULT:    -6.156      3.513     15.046
REMARK INTER + INTRA:         -23.439
REMARK INTER:                 -18.306
REMARK INTRA:                  -5.134
REMARK UNBOUND:                -5.767
REMARK SMILES CCCCCC(=O)N[C@H](CC(=O)O)C(=O)N[C@H]1C(=O)N[C@H](CCCN=C(N)N)C(=O)N[C@@H]2CC[C@H](O)N(C2=O)[C@@H](CC(C)C)C(=O)N(C)[C@@H](Cc2ccccc2)C(=O)N[C@H](C(C)C)C(=O)O[C@@H]1C
REMARK SMILES IDX 30 1 31 2 29 3 32 5 35 6 37 7 34 8 38 9 33 10 39 11 36 12
REMARK SMILES IDX 40 14 41 15 42 16 43 17 44 18 45 19 46 20 47 21 48 22 49 23
REMARK SMILES IDX 50 24 51 25 52 26 56 27 53 28 55 29 54 30 57 31 58 32 59 33
REMARK SMILES IDX 60 35 61 36 62 37 63 38 64 39 65 40 66 41 67 42 68 43 21 45
REMARK SMILES IDX 20 46 18 47 19 48 17 50 16 52 14 53 15 54 9 56 8 57 6 58
REMARK SMILES IDX 7 59 5 61 4 62 3 63 2 64 1 65 10 66 11 67 12 68 13 69 22 71
REMARK SMILES IDX 23 72 24 73 25 74 26 75 27 76 28 77
REMARK H PARENT 31 4 36 13 59 34 20 49 16 55 8 60 13 70 27 78 27 79 28 80
REMARK H PARENT 28 81
REMARK Flexibility Score:  259.900
ROOT
ATOM      1  O   UNL     1      -4.529  -3.338   1.567  1.00  0.00    -0.273 OA
ATOM      2  N   UNL     1      -3.508  -1.500   0.667  1.00  0.00    -0.343 N 
ATOM      3  C   UNL     1      -4.553  -2.135   1.303  1.00  0.00     0.243 C 
ATOM      4  H   UNL     1      -3.556  -0.506   0.479  1.00  0.00     0.164 HD
ENDROOT
BRANCH   2   5
ATOM      5  C   UNL     1      -2.368  -2.262   0.169  1.00  0.00     0.171 C 
ATOM      6  C   UNL     1      -0.182  -1.588  -1.612  1.00  0.00     0.214 C 
ATOM      7  N   UNL     1      -1.393  -2.156  -2.157  1.00  0.00    -0.303 N 
ATOM      8  C   UNL     1       0.111  -2.045  -0.192  1.00  0.00     0.057 C 
ATOM      9  C   UNL     1      -2.493  -2.454  -1.370  1.00  0.00     0.247 C 
ATOM     10  C   UNL     1      -1.054  -1.699   0.709  1.00  0.00     0.040 C 
ATOM     11  O   UNL     1      -3.557  -2.859  -1.856  1.00  0.00    -0.272 OA
BRANCH   6  12
ATOM     12  O   UNL     1      -0.304  -0.186  -1.663  1.00  0.00    -0.373 OA
ATOM     13  H   UNL     1      -0.680   0.101  -0.803  1.00  0.00     0.213 HD
ENDBRANCH   6  12
BRANCH   7  14
ATOM     14  C   UNL     1      -1.474  -2.277  -3.628  1.00  0.00     0.177 C 
BRANCH  14  15
ATOM     15  C   UNL     1      -1.979  -1.019  -4.363  1.00  0.00     0.038 C 
BRANCH  15  16
ATOM     16  C   UNL     1      -0.974  -0.130  -5.128  1.00  0.00    -0.015 C 
ATOM     17  C   UNL     1      -1.078   1.345  -4.728  1.00  0.00     0.007 C 
ATOM     18  C   UNL     1      -1.229  -0.238  -6.636  1.00  0.00     0.007 C 
ENDBRANCH  15  16
ENDBRANCH  14  15
BRANCH  14  19
ATOM     19  C   UNL     1      -0.365  -3.251  -4.156  1.00  0.00     0.245 C 
ATOM     20  O   UNL     1       0.358  -3.791  -3.302  1.00  0.00    -0.272 OA
BRANCH  19  21
ATOM     21  N   UNL     1      -0.085  -3.447  -5.497  1.00  0.00    -0.332 N 
ATOM     22  C   UNL     1      -1.022  -3.943  -6.490  1.00  0.00     0.147 C 
BRANCH  21  23
ATOM     23  C   UNL     1       1.292  -3.138  -5.973  1.00  0.00     0.178 C 
BRANCH  23  24
ATOM     24  C   UNL     1       2.029  -2.056  -5.157  1.00  0.00     0.070 C 
BRANCH  24  25
ATOM     25  C   UNL     1       2.421  -0.792  -5.886  1.00  0.00    -0.045 A 
ATOM     26  C   UNL     1       2.644  -0.801  -7.269  1.00  0.00     0.004 A 
ATOM     27  C   UNL     1       2.574   0.412  -5.182  1.00  0.00     0.004 A 
ATOM     28  C   UNL     1       3.023   0.368  -7.932  1.00  0.00     0.000 A 
ATOM     29  C   UNL     1       2.951   1.580  -5.847  1.00  0.00     0.000 A 
ATOM     30  C   UNL     1       3.178   1.556  -7.222  1.00  0.00     0.000 A 
ENDBRANCH  24  25
ENDBRANCH  23  24
BRANCH  23  31
ATOM     31  C   UNL     1       2.125  -4.406  -6.276  1.00  0.00     0.243 C 
ATOM     32  O   UNL     1       2.867  -4.951  -5.463  1.00  0.00    -0.273 OA
ATOM     33  N   UNL     1       2.106  -4.773  -7.611  1.00  0.00    -0.341 N 
ATOM     34  H   UNL     1       1.472  -4.278  -8.242  1.00  0.00     0.164 HD
BRANCH  33  35
ATOM     35  C   UNL     1       2.916  -5.870  -8.149  1.00  0.00     0.194 C 
BRANCH  35  36
ATOM     36  C   UNL     1       2.545  -7.270  -7.582  1.00  0.00     0.017 C 
ATOM     37  C   UNL     1       3.096  -8.398  -8.472  1.00  0.00     0.010 C 
ATOM     38  C   UNL     1       1.032  -7.487  -7.451  1.00  0.00     0.010 C 
ENDBRANCH  35  36
BRANCH  35  39
ATOM     39  C   UNL     1       4.442  -5.591  -8.051  1.00  0.00     0.329 C 
ATOM     40  O   UNL     1       5.158  -6.002  -7.146  1.00  0.00    -0.250 OA
BRANCH  39  41
ATOM     41  O   UNL     1       4.915  -4.907  -9.137  1.00  0.00    -0.458 OA
BRANCH  41  42
ATOM     42  C   UNL     1       4.547  -5.431 -10.435  1.00  0.00     0.205 CG0
ATOM     43  C   UNL     1       5.435  -6.644 -10.704  1.00  0.00     0.056 C 
ATOM     44  G   UNL     1       4.736  -4.318 -11.486  1.00  0.00     0.000 G0
ENDBRANCH  41  42
ENDBRANCH  39  41
ENDBRANCH  35  39
ENDBRANCH  33  35
ENDBRANCH  23  31
ENDBRANCH  21  23
ENDBRANCH  19  21
ENDBRANCH  14  19
ENDBRANCH   7  14
ENDBRANCH   2   5
BRANCH   3  45
ATOM     45  C   UNL     1      -5.738  -1.236   1.678  1.00  0.00     0.171 C 
BRANCH  45  46
ATOM     46  N   UNL     1      -5.841  -1.306   3.130  1.00  0.00    -0.342 N 
ATOM     47  C   UNL     1      -5.344  -0.325   3.951  1.00  0.00     0.247 C 
ATOM     48  O   UNL     1      -4.842   0.715   3.522  1.00  0.00    -0.273 OA
ATOM     49  H   UNL     1      -6.299  -2.124   3.525  1.00  0.00     0.164 HD
BRANCH  47  50
ATOM     50  C   UNL     1      -5.432  -0.629   5.453  1.00  0.00     0.212 CG0
ATOM     51  G   UNL     1      -4.893   0.601   6.211  1.00  0.00     0.000 G0
BRANCH  50  52
ATOM     52  N   UNL     1      -6.844  -0.895   5.715  1.00  0.00    -0.339 N 
ATOM     53  C   UNL     1      -7.781   0.096   5.883  1.00  0.00     0.243 C 
ATOM     54  O   UNL     1      -7.491   1.289   5.879  1.00  0.00    -0.273 OA
ATOM     55  H   UNL     1      -7.127  -1.864   5.841  1.00  0.00     0.164 HD
BRANCH  53  56
ATOM     56  C   UNL     1      -9.189  -0.426   6.235  1.00  0.00     0.182 C 
BRANCH  56  57
ATOM     57  N   UNL     1      -9.329  -0.627   7.680  1.00  0.00    -0.344 N 
ATOM     58  C   UNL     1     -10.398  -0.139   8.391  1.00  0.00     0.220 C 
ATOM     59  O   UNL     1     -11.269   0.560   7.883  1.00  0.00    -0.275 OA
ATOM     60  H   UNL     1      -8.688  -1.283   8.119  1.00  0.00     0.164 HD
BRANCH  58  61
ATOM     61  C   UNL     1     -10.367  -0.517   9.860  1.00  0.00     0.100 C 
BRANCH  61  62
ATOM     62  C   UNL     1      -9.890   0.610  10.777  1.00  0.00     0.010 C 
BRANCH  62  63
ATOM     63  C   UNL     1     -10.862   0.947  11.915  1.00  0.00     0.000 C 
BRANCH  63  64
ATOM     64  C   UNL     1     -10.185   1.215  13.258  1.00  0.00    -0.003 C 
ATOM     65  C   UNL     1      -8.690   0.942  13.191  1.00  0.00     0.004 C 
ENDBRANCH  63  64
ENDBRANCH  62  63
ENDBRANCH  61  62
ENDBRANCH  58  61
ENDBRANCH  56  57
BRANCH  56  66
ATOM     66  C   UNL     1      -9.534  -1.684   5.441  1.00  0.00     0.157 C 
BRANCH  66  67
ATOM     67  C   UNL     1     -10.411  -2.607   6.238  1.00  0.00     0.305 C 
ATOM     68  O   UNL     1     -11.631  -2.590   6.296  1.00  0.00    -0.252 OA
BRANCH  67  69
ATOM     69  O   UNL     1      -9.703  -3.549   6.890  1.00  0.00    -0.481 OA
ATOM     70  H   UNL     1      -9.104  -3.047   7.482  1.00  0.00     0.296 HD
ENDBRANCH  67  69
ENDBRANCH  66  67
ENDBRANCH  56  66
ENDBRANCH  53  56
ENDBRANCH  50  52
ENDBRANCH  47  50
ENDBRANCH  45  46
BRANCH  45  71
ATOM     71  C   UNL     1      -7.019  -1.729   0.996  1.00  0.00     0.037 C 
BRANCH  71  72
ATOM     72  C   UNL     1      -8.261  -1.482   1.856  1.00  0.00     0.026 C 
BRANCH  72  73
ATOM     73  C   UNL     1      -8.917  -0.144   1.522  1.00  0.00     0.146 C 
BRANCH  73  74
ATOM     74  N   UNL     1      -8.557   0.805   2.572  1.00  0.00    -0.254 NA
ATOM     75  C   UNL     1      -7.782   1.777   2.261  1.00  0.00     0.185 C 
ATOM     76  N   UNL     1      -7.434   2.667   3.205  1.00  0.00    -0.370 N 
ATOM     77  N   UNL     1      -7.226   2.068   1.071  1.00  0.00    -0.370 N 
ATOM     78  H   UNL     1      -7.804   2.517   4.133  1.00  0.00     0.159 HD
ATOM     79  H   UNL     1      -6.722   3.364   3.073  1.00  0.00     0.159 HD
ATOM     80  H   UNL     1      -7.403   1.486   0.266  1.00  0.00     0.159 HD
ATOM     81  H   UNL     1      -6.724   2.927   0.919  1.00  0.00     0.159 HD
ENDBRANCH  73  74
ENDBRANCH  72  73
ENDBRANCH  71  72
ENDBRANCH  45  71
ENDBRANCH   3  45
TORSDOF 20
ENDMDL
MODEL 15
REMARK VINA RESULT:    -6.154      3.971     12.403
REMARK INTER + INTRA:         -23.433
REMARK INTER:                 -16.781
REMARK INTRA:                  -6.652
REMARK UNBOUND:                -5.767
REMARK SMILES CCCCCC(=O)N[C@H](CC(=O)O)C(=O)N[C@H]1C(=O)N[C@H](CCCN=C(N)N)C(=O)N[C@@H]2CC[C@H](O)N(C2=O)[C@@H](CC(C)C)C(=O)N(C)[C@@H](Cc2ccccc2)C(=O)N[C@H](C(C)C)C(=O)O[C@@H]1C
REMARK SMILES IDX 30 1 31 2 29 3 32 5 35 6 37 7 34 8 38 9 33 10 39 11 36 12
REMARK SMILES IDX 40 14 41 15 42 16 43 17 44 18 45 19 46 20 47 21 48 22 49 23
REMARK SMILES IDX 50 24 51 25 52 26 56 27 53 28 55 29 54 30 57 31 58 32 59 33
REMARK SMILES IDX 60 35 61 36 62 37 63 38 64 39 65 40 66 41 67 42 68 43 21 45
REMARK SMILES IDX 20 46 18 47 19 48 17 50 16 52 14 53 15 54 9 56 8 57 6 58
REMARK SMILES IDX 7 59 5 61 4 62 3 63 2 64 1 65 10 66 11 67 12 68 13 69 22 71
REMARK SMILES IDX 23 72 24 73 25 74 26 75 27 76 28 77
REMARK H PARENT 31 4 36 13 59 34 20 49 16 55 8 60 13 70 27 78 27 79 28 80
REMARK H PARENT 28 81
REMARK Flexibility Score:  259.900
ROOT
ATOM      1  O   UNL     1      -5.969  -5.106   0.831  1.00  0.00    -0.273 OA
ATOM      2  N   UNL     1      -6.024  -2.827   0.647  1.00  0.00    -0.343 N 
ATOM      3  C   UNL     1      -6.592  -4.049   0.936  1.00  0.00     0.243 C 
ATOM      4  H   UNL     1      -6.563  -1.977   0.759  1.00  0.00     0.164 HD
ENDROOT
BRANCH   2   5
ATOM      5  C   UNL     1      -4.681  -2.747   0.084  1.00  0.00     0.171 C 
ATOM      6  C   UNL     1      -3.011  -0.511  -0.702  1.00  0.00     0.214 C 
ATOM      7  N   UNL     1      -3.885  -1.122  -1.676  1.00  0.00    -0.303 N 
ATOM      8  C   UNL     1      -2.525  -1.482   0.363  1.00  0.00     0.057 C 
ATOM      9  C   UNL     1      -4.746  -2.159  -1.354  1.00  0.00     0.247 C 
ATOM     10  C   UNL     1      -3.711  -2.100   1.072  1.00  0.00     0.040 C 
ATOM     11  O   UNL     1      -5.553  -2.619  -2.172  1.00  0.00    -0.272 OA
BRANCH   6  12
ATOM     12  O   UNL     1      -3.707   0.561  -0.110  1.00  0.00    -0.373 OA
ATOM     13  H   UNL     1      -4.470   0.764  -0.692  1.00  0.00     0.213 HD
ENDBRANCH   6  12
BRANCH   7  14
ATOM     14  C   UNL     1      -3.938  -0.496  -3.014  1.00  0.00     0.177 C 
BRANCH  14  15
ATOM     15  C   UNL     1      -5.216   0.312  -3.311  1.00  0.00     0.038 C 
BRANCH  15  16
ATOM     16  C   UNL     1      -5.383   0.994  -4.687  1.00  0.00    -0.015 C 
ATOM     17  C   UNL     1      -6.275   2.238  -4.618  1.00  0.00     0.007 C 
ATOM     18  C   UNL     1      -6.009   0.009  -5.682  1.00  0.00     0.007 C 
ENDBRANCH  15  16
ENDBRANCH  14  15
BRANCH  14  19
ATOM     19  C   UNL     1      -2.495  -0.120  -3.496  1.00  0.00     0.245 C 
ATOM     20  O   UNL     1      -2.123   1.048  -3.290  1.00  0.00    -0.272 OA
BRANCH  19  21
ATOM     21  N   UNL     1      -1.678  -0.969  -4.222  1.00  0.00    -0.332 N 
ATOM     22  C   UNL     1      -2.127  -2.108  -5.002  1.00  0.00     0.147 C 
BRANCH  21  23
ATOM     23  C   UNL     1      -0.211  -0.710  -4.200  1.00  0.00     0.178 C 
BRANCH  23  24
ATOM     24  C   UNL     1       0.657  -1.941  -3.868  1.00  0.00     0.070 C 
BRANCH  24  25
ATOM     25  C   UNL     1       0.526  -2.520  -2.478  1.00  0.00    -0.045 A 
ATOM     26  C   UNL     1      -0.194  -3.701  -2.258  1.00  0.00     0.004 A 
ATOM     27  C   UNL     1       1.123  -1.875  -1.384  1.00  0.00     0.004 A 
ATOM     28  C   UNL     1      -0.324  -4.220  -0.968  1.00  0.00     0.000 A 
ATOM     29  C   UNL     1       0.993  -2.396  -0.096  1.00  0.00     0.000 A 
ATOM     30  C   UNL     1       0.266  -3.567   0.111  1.00  0.00     0.000 A 
ENDBRANCH  24  25
ENDBRANCH  23  24
BRANCH  23  31
ATOM     31  C   UNL     1       0.273   0.120  -5.413  1.00  0.00     0.243 C 
ATOM     32  O   UNL     1       0.524  -0.358  -6.516  1.00  0.00    -0.273 OA
ATOM     33  N   UNL     1       0.579   1.433  -5.098  1.00  0.00    -0.341 N 
ATOM     34  H   UNL     1       0.352   1.773  -4.160  1.00  0.00     0.164 HD
BRANCH  33  35
ATOM     35  C   UNL     1       1.166   2.370  -6.060  1.00  0.00     0.194 C 
BRANCH  35  36
ATOM     36  C   UNL     1       0.398   2.459  -7.409  1.00  0.00     0.017 C 
ATOM     37  C   UNL     1       1.017   3.520  -8.336  1.00  0.00     0.010 C 
ATOM     38  C   UNL     1      -1.085   2.809  -7.237  1.00  0.00     0.010 C 
ENDBRANCH  35  36
BRANCH  35  39
ATOM     39  C   UNL     1       2.687   2.132  -6.274  1.00  0.00     0.329 C 
ATOM     40  O   UNL     1       3.153   1.192  -6.908  1.00  0.00    -0.250 OA
BRANCH  39  41
ATOM     41  O   UNL     1       3.450   3.138  -5.749  1.00  0.00    -0.458 OA
BRANCH  41  42
ATOM     42  C   UNL     1       4.834   2.816  -5.471  1.00  0.00     0.205 CG0
ATOM     43  C   UNL     1       4.924   2.437  -3.995  1.00  0.00     0.056 C 
ATOM     44  G   UNL     1       5.703   4.041  -5.821  1.00  0.00     0.000 G0
ENDBRANCH  41  42
ENDBRANCH  39  41
ENDBRANCH  35  39
ENDBRANCH  33  35
ENDBRANCH  23  31
ENDBRANCH  21  23
ENDBRANCH  19  21
ENDBRANCH  14  19
ENDBRANCH   7  14
ENDBRANCH   2   5
BRANCH   3  45
ATOM     45  C   UNL     1      -8.048  -3.999   1.418  1.00  0.00     0.171 C 
BRANCH  45  46
ATOM     46  N   UNL     1      -8.715  -5.123   0.773  1.00  0.00    -0.342 N 
ATOM     47  C   UNL     1      -9.220  -6.184   1.482  1.00  0.00     0.247 C 
ATOM     48  O   UNL     1      -9.212  -6.231   2.712  1.00  0.00    -0.273 OA
ATOM     49  H   UNL     1      -8.793  -5.098  -0.242  1.00  0.00     0.164 HD
BRANCH  47  50
ATOM     50  C   UNL     1      -9.775  -7.332   0.626  1.00  0.00     0.212 CG0
ATOM     51  G   UNL     1     -10.712  -8.169   1.518  1.00  0.00     0.000 G0
BRANCH  50  52
ATOM     52  N   UNL     1     -10.463  -6.689  -0.490  1.00  0.00    -0.339 N 
ATOM     53  C   UNL     1     -10.009  -6.735  -1.786  1.00  0.00     0.243 C 
ATOM     54  O   UNL     1      -8.954  -7.280  -2.098  1.00  0.00    -0.273 OA
ATOM     55  H   UNL     1     -11.285  -6.127  -0.278  1.00  0.00     0.164 HD
BRANCH  53  56
ATOM     56  C   UNL     1     -10.854  -5.909  -2.777  1.00  0.00     0.182 C 
BRANCH  56  57
ATOM     57  N   UNL     1     -11.352  -4.681  -2.148  1.00  0.00    -0.344 N 
ATOM     58  C   UNL     1     -11.377  -3.476  -2.806  1.00  0.00     0.220 C 
ATOM     59  O   UNL     1     -10.918  -3.326  -3.933  1.00  0.00    -0.275 OA
ATOM     60  H   UNL     1     -11.832  -4.782  -1.258  1.00  0.00     0.164 HD
BRANCH  58  61
ATOM     61  C   UNL     1     -11.987  -2.355  -1.985  1.00  0.00     0.100 C 
BRANCH  61  62
ATOM     62  C   UNL     1     -10.989  -1.263  -1.595  1.00  0.00     0.010 C 
BRANCH  62  63
ATOM     63  C   UNL     1     -10.881  -0.121  -2.613  1.00  0.00     0.000 C 
BRANCH  63  64
ATOM     64  C   UNL     1      -9.492   0.040  -3.229  1.00  0.00    -0.003 C 
ATOM     65  C   UNL     1      -8.492  -0.920  -2.602  1.00  0.00     0.004 C 
ENDBRANCH  63  64
ENDBRANCH  62  63
ENDBRANCH  61  62
ENDBRANCH  58  61
ENDBRANCH  56  57
BRANCH  56  66
ATOM     66  C   UNL     1     -11.981  -6.744  -3.383  1.00  0.00     0.157 C 
BRANCH  66  67
ATOM     67  C   UNL     1     -13.226  -6.666  -2.547  1.00  0.00     0.305 C 
ATOM     68  O   UNL     1     -13.384  -7.118  -1.424  1.00  0.00    -0.252 OA
BRANCH  67  69
ATOM     69  O   UNL     1     -14.206  -5.969  -3.154  1.00  0.00    -0.481 OA
ATOM     70  H   UNL     1     -14.107  -6.176  -4.107  1.00  0.00     0.296 HD
ENDBRANCH  67  69
ENDBRANCH  66  67
ENDBRANCH  56  66
ENDBRANCH  53  56
ENDBRANCH  50  52
ENDBRANCH  47  50
ENDBRANCH  45  46
BRANCH  45  71
ATOM     71  C   UNL     1      -8.693  -2.663   1.033  1.00  0.00     0.037 C 
BRANCH  71  72
ATOM     72  C   UNL     1      -9.162  -1.876   2.259  1.00  0.00     0.026 C 
BRANCH  72  73
ATOM     73  C   UNL     1      -8.791  -0.398   2.152  1.00  0.00     0.146 C 
BRANCH  73  74
ATOM     74  N   UNL     1      -7.786  -0.265   1.102  1.00  0.00    -0.254 NA
ATOM     75  C   UNL     1      -7.412   0.917   0.778  1.00  0.00     0.185 C 
ATOM     76  N   UNL     1      -6.487   1.072  -0.183  1.00  0.00    -0.370 N 
ATOM     77  N   UNL     1      -7.819   2.099   1.275  1.00  0.00    -0.370 N 
ATOM     78  H   UNL     1      -6.132   0.232  -0.616  1.00  0.00     0.159 HD
ATOM     79  H   UNL     1      -6.253   1.962  -0.588  1.00  0.00     0.159 HD
ATOM     80  H   UNL     1      -8.510   2.136   2.008  1.00  0.00     0.159 HD
ATOM     81  H   UNL     1      -7.368   2.962   1.021  1.00  0.00     0.159 HD
ENDBRANCH  73  74
ENDBRANCH  72  73
ENDBRANCH  71  72
ENDBRANCH  45  71
ENDBRANCH   3  45
TORSDOF 20
ENDMDL
MODEL 16
REMARK VINA RESULT:    -6.124      5.025     14.704
REMARK INTER + INTRA:         -23.349
REMARK INTER:                 -18.510
REMARK INTRA:                  -4.839
REMARK UNBOUND:                -5.767
REMARK SMILES CCCCCC(=O)N[C@H](CC(=O)O)C(=O)N[C@H]1C(=O)N[C@H](CCCN=C(N)N)C(=O)N[C@@H]2CC[C@H](O)N(C2=O)[C@@H](CC(C)C)C(=O)N(C)[C@@H](Cc2ccccc2)C(=O)N[C@H](C(C)C)C(=O)O[C@@H]1C
REMARK SMILES IDX 30 1 31 2 29 3 32 5 35 6 37 7 34 8 38 9 33 10 39 11 36 12
REMARK SMILES IDX 40 14 41 15 42 16 43 17 44 18 45 19 46 20 47 21 48 22 49 23
REMARK SMILES IDX 50 24 51 25 52 26 56 27 53 28 55 29 54 30 57 31 58 32 59 33
REMARK SMILES IDX 60 35 61 36 62 37 63 38 64 39 65 40 66 41 67 42 68 43 21 45
REMARK SMILES IDX 20 46 18 47 19 48 17 50 16 52 14 53 15 54 9 56 8 57 6 58
REMARK SMILES IDX 7 59 5 61 4 62 3 63 2 64 1 65 10 66 11 67 12 68 13 69 22 71
REMARK SMILES IDX 23 72 24 73 25 74 26 75 27 76 28 77
REMARK H PARENT 31 4 36 13 59 34 20 49 16 55 8 60 13 70 27 78 27 79 28 80
REMARK H PARENT 28 81
REMARK Flexibility Score:  259.900
ROOT
ATOM      1  O   UNL     1      -6.340  -5.186   1.199  1.00  0.00    -0.273 OA
ATOM      2  N   UNL     1      -6.393  -2.921   0.889  1.00  0.00    -0.343 N 
ATOM      3  C   UNL     1      -6.961  -4.124   1.250  1.00  0.00     0.243 C 
ATOM      4  H   UNL     1      -6.929  -2.065   0.958  1.00  0.00     0.164 HD
ENDROOT
BRANCH   2   5
ATOM      5  C   UNL     1      -5.053  -2.875   0.314  1.00  0.00     0.171 C 
ATOM      6  C   UNL     1      -3.239  -0.690  -0.268  1.00  0.00     0.214 C 
ATOM      7  N   UNL     1      -4.165  -1.134  -1.284  1.00  0.00    -0.303 N 
ATOM      8  C   UNL     1      -2.811  -1.797   0.682  1.00  0.00     0.057 C 
ATOM      9  C   UNL     1      -5.092  -2.138  -1.055  1.00  0.00     0.247 C 
ATOM     10  C   UNL     1      -4.029  -2.403   1.345  1.00  0.00     0.040 C 
ATOM     11  O   UNL     1      -5.939  -2.453  -1.901  1.00  0.00    -0.272 OA
BRANCH   6  12
ATOM     12  O   UNL     1      -3.852   0.360   0.444  1.00  0.00    -0.373 OA
ATOM     13  H   UNL     1      -3.322   0.505   1.256  1.00  0.00     0.213 HD
ENDBRANCH   6  12
BRANCH   7  14
ATOM     14  C   UNL     1      -4.189  -0.371  -2.550  1.00  0.00     0.177 C 
BRANCH  14  15
ATOM     15  C   UNL     1      -5.494   0.401  -2.826  1.00  0.00     0.038 C 
BRANCH  15  16
ATOM     16  C   UNL     1      -5.894   0.722  -4.283  1.00  0.00    -0.015 C 
ATOM     17  C   UNL     1      -7.075   1.693  -4.364  1.00  0.00     0.007 C 
ATOM     18  C   UNL     1      -6.284  -0.571  -5.011  1.00  0.00     0.007 C 
ENDBRANCH  15  16
ENDBRANCH  14  15
BRANCH  14  19
ATOM     19  C   UNL     1      -2.747   0.127  -2.911  1.00  0.00     0.245 C 
ATOM     20  O   UNL     1      -2.347   1.150  -2.331  1.00  0.00    -0.272 OA
BRANCH  19  21
ATOM     21  N   UNL     1      -1.963  -0.436  -3.902  1.00  0.00    -0.332 N 
ATOM     22  C   UNL     1      -2.397  -1.451  -4.845  1.00  0.00     0.147 C 
BRANCH  21  23
ATOM     23  C   UNL     1      -0.550   0.021  -4.015  1.00  0.00     0.178 C 
BRANCH  23  24
ATOM     24  C   UNL     1       0.505  -1.085  -3.808  1.00  0.00     0.070 C 
BRANCH  24  25
ATOM     25  C   UNL     1       0.412  -1.894  -2.535  1.00  0.00    -0.045 A 
ATOM     26  C   UNL     1       0.814  -1.351  -1.308  1.00  0.00     0.004 A 
ATOM     27  C   UNL     1      -0.077  -3.209  -2.566  1.00  0.00     0.004 A 
ATOM     28  C   UNL     1       0.742  -2.111  -0.139  1.00  0.00     0.000 A 
ATOM     29  C   UNL     1      -0.150  -3.967  -1.397  1.00  0.00     0.000 A 
ATOM     30  C   UNL     1       0.262  -3.418  -0.184  1.00  0.00     0.000 A 
ENDBRANCH  24  25
ENDBRANCH  23  24
BRANCH  23  31
ATOM     31  C   UNL     1      -0.306   0.932  -5.242  1.00  0.00     0.243 C 
ATOM     32  O   UNL     1      -1.199   1.512  -5.855  1.00  0.00    -0.273 OA
ATOM     33  N   UNL     1       0.996   0.891  -5.711  1.00  0.00    -0.341 N 
ATOM     34  H   UNL     1       1.695   0.386  -5.160  1.00  0.00     0.164 HD
BRANCH  33  35
ATOM     35  C   UNL     1       1.428   1.580  -6.931  1.00  0.00     0.194 C 
BRANCH  35  36
ATOM     36  C   UNL     1       2.509   0.813  -7.743  1.00  0.00     0.017 C 
ATOM     37  C   UNL     1       2.097   0.661  -9.218  1.00  0.00     0.010 C 
ATOM     38  C   UNL     1       2.792  -0.592  -7.198  1.00  0.00     0.010 C 
ENDBRANCH  35  36
BRANCH  35  39
ATOM     39  C   UNL     1       1.836   3.057  -6.670  1.00  0.00     0.329 C 
ATOM     40  O   UNL     1       2.954   3.407  -6.311  1.00  0.00    -0.250 OA
BRANCH  39  41
ATOM     41  O   UNL     1       0.832   3.935  -6.973  1.00  0.00    -0.458 OA
BRANCH  41  42
ATOM     42  C   UNL     1       1.174   5.015  -7.873  1.00  0.00     0.205 CG0
ATOM     43  C   UNL     1       1.226   4.431  -9.284  1.00  0.00     0.056 C 
ATOM     44  G   UNL     1       2.524   5.613  -7.433  1.00  0.00     0.000 G0
ENDBRANCH  41  42
ENDBRANCH  39  41
ENDBRANCH  35  39
ENDBRANCH  33  35
ENDBRANCH  23  31
ENDBRANCH  21  23
ENDBRANCH  19  21
ENDBRANCH  14  19
ENDBRANCH   7  14
ENDBRANCH   2   5
BRANCH   3  45
ATOM     45  C   UNL     1      -8.413  -4.045   1.739  1.00  0.00     0.171 C 
BRANCH  45  46
ATOM     46  N   UNL     1      -8.920  -5.410   1.690  1.00  0.00    -0.342 N 
ATOM     47  C   UNL     1      -9.502  -6.018   2.774  1.00  0.00     0.247 C 
ATOM     48  O   UNL     1      -9.704  -5.434   3.839  1.00  0.00    -0.273 OA
ATOM     49  H   UNL     1      -8.824  -5.911   0.809  1.00  0.00     0.164 HD
BRANCH  47  50
ATOM     50  C   UNL     1      -9.862  -7.497   2.574  1.00  0.00     0.212 CG0
ATOM     51  G   UNL     1      -9.749  -8.195   3.943  1.00  0.00     0.000 G0
BRANCH  50  52
ATOM     52  N   UNL     1     -11.220  -7.498   2.036  1.00  0.00    -0.339 N 
ATOM     53  C   UNL     1     -11.831  -8.620   1.530  1.00  0.00     0.243 C 
ATOM     54  O   UNL     1     -11.260  -9.703   1.443  1.00  0.00    -0.273 OA
ATOM     55  H   UNL     1     -11.706  -6.606   1.978  1.00  0.00     0.164 HD
BRANCH  53  56
ATOM     56  C   UNL     1     -13.232  -8.359   0.940  1.00  0.00     0.182 C 
BRANCH  56  57
ATOM     57  N   UNL     1     -14.276  -8.568   1.949  1.00  0.00    -0.344 N 
ATOM     58  C   UNL     1     -14.675  -7.577   2.811  1.00  0.00     0.220 C 
ATOM     59  O   UNL     1     -14.140  -6.474   2.849  1.00  0.00    -0.275 OA
ATOM     60  H   UNL     1     -14.812  -9.429   1.884  1.00  0.00     0.164 HD
BRANCH  58  61
ATOM     61  C   UNL     1     -15.808  -7.998   3.729  1.00  0.00     0.100 C 
BRANCH  61  62
ATOM     62  C   UNL     1     -16.038  -7.046   4.902  1.00  0.00     0.010 C 
BRANCH  62  63
ATOM     63  C   UNL     1     -15.816  -7.683   6.280  1.00  0.00     0.000 C 
BRANCH  63  64
ATOM     64  C   UNL     1     -15.324  -6.708   7.349  1.00  0.00    -0.003 C 
ATOM     65  C   UNL     1     -14.200  -7.313   8.177  1.00  0.00     0.004 C 
ENDBRANCH  63  64
ENDBRANCH  62  63
ENDBRANCH  61  62
ENDBRANCH  58  61
ENDBRANCH  56  57
BRANCH  56  66
ATOM     66  C   UNL     1     -13.473  -9.189  -0.320  1.00  0.00     0.157 C 
BRANCH  66  67
ATOM     67  C   UNL     1     -14.324  -8.444  -1.307  1.00  0.00     0.305 C 
ATOM     68  O   UNL     1     -13.976  -8.011  -2.395  1.00  0.00    -0.252 OA
BRANCH  67  69
ATOM     69  O   UNL     1     -15.600  -8.324  -0.894  1.00  0.00    -0.481 OA
ATOM     70  H   UNL     1     -16.138  -8.659  -1.643  1.00  0.00     0.296 HD
ENDBRANCH  67  69
ENDBRANCH  66  67
ENDBRANCH  56  66
ENDBRANCH  53  56
ENDBRANCH  50  52
ENDBRANCH  47  50
ENDBRANCH  45  46
BRANCH  45  71
ATOM     71  C   UNL     1      -9.228  -3.107   0.842  1.00  0.00     0.037 C 
BRANCH  71  72
ATOM     72  C   UNL     1     -10.290  -2.336   1.629  1.00  0.00     0.026 C 
BRANCH  72  73
ATOM     73  C   UNL     1      -9.766  -0.981   2.099  1.00  0.00     0.146 C 
BRANCH  73  74
ATOM     74  N   UNL     1      -8.617  -0.633   1.268  1.00  0.00    -0.254 NA
ATOM     75  C   UNL     1      -8.498   0.585   0.889  1.00  0.00     0.185 C 
ATOM     76  N   UNL     1      -7.451   0.936   0.125  1.00  0.00    -0.370 N 
ATOM     77  N   UNL     1      -9.299   1.633   1.150  1.00  0.00    -0.370 N 
ATOM     78  H   UNL     1      -6.801   0.204  -0.124  1.00  0.00     0.159 HD
ATOM     79  H   UNL     1      -7.369   1.830  -0.326  1.00  0.00     0.159 HD
ATOM     80  H   UNL     1     -10.125   1.519   1.717  1.00  0.00     0.159 HD
ATOM     81  H   UNL     1      -9.041   2.572   0.893  1.00  0.00     0.159 HD
ENDBRANCH  73  74
ENDBRANCH  72  73
ENDBRANCH  71  72
ENDBRANCH  45  71
ENDBRANCH   3  45
TORSDOF 20
ENDMDL
MODEL 17
REMARK VINA RESULT:    -6.107      6.759     11.838
REMARK INTER + INTRA:         -23.299
REMARK INTER:                 -17.133
REMARK INTRA:                  -6.166
REMARK UNBOUND:                -5.767
REMARK SMILES CCCCCC(=O)N[C@H](CC(=O)O)C(=O)N[C@H]1C(=O)N[C@H](CCCN=C(N)N)C(=O)N[C@@H]2CC[C@H](O)N(C2=O)[C@@H](CC(C)C)C(=O)N(C)[C@@H](Cc2ccccc2)C(=O)N[C@H](C(C)C)C(=O)O[C@@H]1C
REMARK SMILES IDX 30 1 31 2 29 3 32 5 35 6 37 7 34 8 38 9 33 10 39 11 36 12
REMARK SMILES IDX 40 14 41 15 42 16 43 17 44 18 45 19 46 20 47 21 48 22 49 23
REMARK SMILES IDX 50 24 51 25 52 26 56 27 53 28 55 29 54 30 57 31 58 32 59 33
REMARK SMILES IDX 60 35 61 36 62 37 63 38 64 39 65 40 66 41 67 42 68 43 21 45
REMARK SMILES IDX 20 46 18 47 19 48 17 50 16 52 14 53 15 54 9 56 8 57 6 58
REMARK SMILES IDX 7 59 5 61 4 62 3 63 2 64 1 65 10 66 11 67 12 68 13 69 22 71
REMARK SMILES IDX 23 72 24 73 25 74 26 75 27 76 28 77
REMARK H PARENT 31 4 36 13 59 34 20 49 16 55 8 60 13 70 27 78 27 79 28 80
REMARK H PARENT 28 81
REMARK Flexibility Score:  259.900
ROOT
ATOM      1  O   UNL     1      -8.077  -1.538   3.784  1.00  0.00    -0.273 OA
ATOM      2  N   UNL     1      -9.555  -0.454   5.152  1.00  0.00    -0.343 N 
ATOM      3  C   UNL     1      -9.110  -1.556   4.454  1.00  0.00     0.243 C 
ATOM      4  H   UNL     1     -10.402  -0.510   5.704  1.00  0.00     0.164 HD
ENDROOT
BRANCH   2   5
ATOM      5  C   UNL     1      -8.873   0.830   5.026  1.00  0.00     0.171 C 
ATOM      6  C   UNL     1      -6.551   1.680   3.514  1.00  0.00     0.214 C 
ATOM      7  N   UNL     1      -6.381   1.195   4.864  1.00  0.00    -0.303 N 
ATOM      8  C   UNL     1      -7.894   2.353   3.281  1.00  0.00     0.057 C 
ATOM      9  C   UNL     1      -7.440   0.726   5.623  1.00  0.00     0.247 C 
ATOM     10  C   UNL     1      -9.013   1.389   3.611  1.00  0.00     0.040 C 
ATOM     11  O   UNL     1      -7.275   0.232   6.746  1.00  0.00    -0.272 OA
BRANCH   6  12
ATOM     12  O   UNL     1      -6.389   0.587   2.640  1.00  0.00    -0.373 OA
ATOM     13  H   UNL     1      -7.284   0.230   2.458  1.00  0.00     0.213 HD
ENDBRANCH   6  12
BRANCH   7  14
ATOM     14  C   UNL     1      -4.995   1.078   5.364  1.00  0.00     0.177 C 
BRANCH  14  15
ATOM     15  C   UNL     1      -4.002   0.405   4.396  1.00  0.00     0.038 C 
BRANCH  15  16
ATOM     16  C   UNL     1      -3.681  -1.097   4.558  1.00  0.00    -0.015 C 
ATOM     17  C   UNL     1      -4.073  -1.915   3.324  1.00  0.00     0.007 C 
ATOM     18  C   UNL     1      -4.436  -1.661   5.769  1.00  0.00     0.007 C 
ENDBRANCH  15  16
ENDBRANCH  14  15
BRANCH  14  19
ATOM     19  C   UNL     1      -4.659   2.274   6.321  1.00  0.00     0.245 C 
ATOM     20  O   UNL     1      -5.303   3.323   6.153  1.00  0.00    -0.272 OA
BRANCH  19  21
ATOM     21  N   UNL     1      -3.630   2.256   7.245  1.00  0.00    -0.332 N 
ATOM     22  C   UNL     1      -2.947   1.068   7.725  1.00  0.00     0.147 C 
BRANCH  21  23
ATOM     23  C   UNL     1      -3.181   3.558   7.812  1.00  0.00     0.178 C 
BRANCH  23  24
ATOM     24  C   UNL     1      -3.361   3.695   9.338  1.00  0.00     0.070 C 
BRANCH  24  25
ATOM     25  C   UNL     1      -4.777   3.762   9.861  1.00  0.00    -0.045 A 
ATOM     26  C   UNL     1      -5.398   4.996  10.095  1.00  0.00     0.004 A 
ATOM     27  C   UNL     1      -5.490   2.583  10.124  1.00  0.00     0.004 A 
ATOM     28  C   UNL     1      -6.701   5.049  10.594  1.00  0.00     0.000 A 
ATOM     29  C   UNL     1      -6.793   2.638  10.623  1.00  0.00     0.000 A 
ATOM     30  C   UNL     1      -7.396   3.871  10.860  1.00  0.00     0.000 A 
ENDBRANCH  24  25
ENDBRANCH  23  24
BRANCH  23  31
ATOM     31  C   UNL     1      -1.800   4.006   7.276  1.00  0.00     0.243 C 
ATOM     32  O   UNL     1      -1.354   3.688   6.176  1.00  0.00    -0.273 OA
ATOM     33  N   UNL     1      -1.022   4.651   8.222  1.00  0.00    -0.341 N 
ATOM     34  H   UNL     1      -1.448   4.884   9.123  1.00  0.00     0.164 HD
BRANCH  33  35
ATOM     35  C   UNL     1       0.364   5.058   7.974  1.00  0.00     0.194 C 
BRANCH  35  36
ATOM     36  C   UNL     1       1.411   4.308   8.844  1.00  0.00     0.017 C 
ATOM     37  C   UNL     1       1.558   2.841   8.402  1.00  0.00     0.010 C 
ATOM     38  C   UNL     1       1.065   4.304  10.338  1.00  0.00     0.010 C 
ENDBRANCH  35  36
BRANCH  35  39
ATOM     39  C   UNL     1       0.554   6.599   8.037  1.00  0.00     0.329 C 
ATOM     40  O   UNL     1      -0.363   7.399   8.184  1.00  0.00    -0.250 OA
BRANCH  39  41
ATOM     41  O   UNL     1       1.872   6.962   7.997  1.00  0.00    -0.458 OA
BRANCH  41  42
ATOM     42  C   UNL     1       2.145   8.384   7.971  1.00  0.00     0.205 CG0
ATOM     43  C   UNL     1       2.482   8.754   6.528  1.00  0.00     0.056 C 
ATOM     44  G   UNL     1       3.306   8.680   8.941  1.00  0.00     0.000 G0
ENDBRANCH  41  42
ENDBRANCH  39  41
ENDBRANCH  35  39
ENDBRANCH  33  35
ENDBRANCH  23  31
ENDBRANCH  21  23
ENDBRANCH  19  21
ENDBRANCH  14  19
ENDBRANCH   7  14
ENDBRANCH   2   5
BRANCH   3  45
ATOM     45  C   UNL     1      -9.979  -2.813   4.587  1.00  0.00     0.171 C 
BRANCH  45  46
ATOM     46  N   UNL     1     -10.163  -3.311   3.230  1.00  0.00    -0.342 N 
ATOM     47  C   UNL     1      -9.971  -4.628   2.897  1.00  0.00     0.247 C 
ATOM     48  O   UNL     1      -9.703  -5.496   3.729  1.00  0.00    -0.273 OA
ATOM     49  H   UNL     1     -10.440  -2.636   2.520  1.00  0.00     0.164 HD
BRANCH  47  50
ATOM     50  C   UNL     1     -10.088  -4.943   1.399  1.00  0.00     0.212 CG0
ATOM     51  G   UNL     1     -11.589  -5.033   1.056  1.00  0.00     0.000 G0
BRANCH  50  52
ATOM     52  N   UNL     1      -9.405  -3.848   0.716  1.00  0.00    -0.339 N 
ATOM     53  C   UNL     1      -8.122  -3.942   0.233  1.00  0.00     0.243 C 
ATOM     54  O   UNL     1      -7.429  -4.944   0.386  1.00  0.00    -0.273 OA
ATOM     55  H   UNL     1      -9.888  -2.954   0.656  1.00  0.00     0.164 HD
BRANCH  53  56
ATOM     56  C   UNL     1      -7.582  -2.631  -0.372  1.00  0.00     0.182 C 
BRANCH  56  57
ATOM     57  N   UNL     1      -6.152  -2.472  -0.091  1.00  0.00    -0.344 N 
ATOM     58  C   UNL     1      -5.179  -2.853  -0.983  1.00  0.00     0.220 C 
ATOM     59  O   UNL     1      -5.435  -3.419  -2.041  1.00  0.00    -0.275 OA
ATOM     60  H   UNL     1      -5.901  -1.918   0.724  1.00  0.00     0.164 HD
BRANCH  58  61
ATOM     61  C   UNL     1      -3.772  -2.541  -0.509  1.00  0.00     0.100 C 
BRANCH  61  62
ATOM     62  C   UNL     1      -2.810  -3.725  -0.612  1.00  0.00     0.010 C 
BRANCH  62  63
ATOM     63  C   UNL     1      -1.734  -3.567  -1.693  1.00  0.00     0.000 C 
BRANCH  63  64
ATOM     64  C   UNL     1      -0.322  -3.920  -1.228  1.00  0.00    -0.003 C 
ATOM     65  C   UNL     1       0.041  -3.185   0.054  1.00  0.00     0.004 C 
ENDBRANCH  63  64
ENDBRANCH  62  63
ENDBRANCH  61  62
ENDBRANCH  58  61
ENDBRANCH  56  57
BRANCH  56  66
ATOM     66  C   UNL     1      -8.398  -1.424   0.087  1.00  0.00     0.157 C 
BRANCH  66  67
ATOM     67  C   UNL     1      -7.987  -0.179  -0.644  1.00  0.00     0.305 C 
ATOM     68  O   UNL     1      -8.567   0.345  -1.583  1.00  0.00    -0.252 OA
BRANCH  67  69
ATOM     69  O   UNL     1      -6.880   0.381  -0.119  1.00  0.00    -0.481 OA
ATOM     70  H   UNL     1      -6.161   0.148  -0.744  1.00  0.00     0.296 HD
ENDBRANCH  67  69
ENDBRANCH  66  67
ENDBRANCH  56  66
ENDBRANCH  53  56
ENDBRANCH  50  52
ENDBRANCH  47  50
ENDBRANCH  45  46
BRANCH  45  71
ATOM     71  C   UNL     1     -11.318  -2.469   5.249  1.00  0.00     0.037 C 
BRANCH  71  72
ATOM     72  C   UNL     1     -11.668  -3.440   6.380  1.00  0.00     0.026 C 
BRANCH  72  73
ATOM     73  C   UNL     1     -11.697  -2.735   7.735  1.00  0.00     0.146 C 
BRANCH  73  74
ATOM     74  N   UNL     1     -10.773  -1.606   7.671  1.00  0.00    -0.254 NA
ATOM     75  C   UNL     1     -10.450  -1.034   8.772  1.00  0.00     0.185 C 
ATOM     76  N   UNL     1      -9.601   0.006   8.746  1.00  0.00    -0.370 N 
ATOM     77  N   UNL     1     -10.847  -1.324  10.023  1.00  0.00    -0.370 N 
ATOM     78  H   UNL     1      -9.260   0.295   7.841  1.00  0.00     0.159 HD
ATOM     79  H   UNL     1      -9.417   0.591   9.542  1.00  0.00     0.159 HD
ATOM     80  H   UNL     1     -11.484  -2.087  10.196  1.00  0.00     0.159 HD
ATOM     81  H   UNL     1     -10.435  -0.876  10.825  1.00  0.00     0.159 HD
ENDBRANCH  73  74
ENDBRANCH  72  73
ENDBRANCH  71  72
ENDBRANCH  45  71
ENDBRANCH   3  45
TORSDOF 20
ENDMDL
MODEL 18
REMARK VINA RESULT:    -6.102      4.659      8.474
REMARK INTER + INTRA:         -23.286
REMARK INTER:                 -17.248
REMARK INTRA:                  -6.038
REMARK UNBOUND:                -5.767
REMARK SMILES CCCCCC(=O)N[C@H](CC(=O)O)C(=O)N[C@H]1C(=O)N[C@H](CCCN=C(N)N)C(=O)N[C@@H]2CC[C@H](O)N(C2=O)[C@@H](CC(C)C)C(=O)N(C)[C@@H](Cc2ccccc2)C(=O)N[C@H](C(C)C)C(=O)O[C@@H]1C
REMARK SMILES IDX 30 1 31 2 29 3 32 5 35 6 37 7 34 8 38 9 33 10 39 11 36 12
REMARK SMILES IDX 40 14 41 15 42 16 43 17 44 18 45 19 46 20 47 21 48 22 49 23
REMARK SMILES IDX 50 24 51 25 52 26 56 27 53 28 55 29 54 30 57 31 58 32 59 33
REMARK SMILES IDX 60 35 61 36 62 37 63 38 64 39 65 40 66 41 67 42 68 43 21 45
REMARK SMILES IDX 20 46 18 47 19 48 17 50 16 52 14 53 15 54 9 56 8 57 6 58
REMARK SMILES IDX 7 59 5 61 4 62 3 63 2 64 1 65 10 66 11 67 12 68 13 69 22 71
REMARK SMILES IDX 23 72 24 73 25 74 26 75 27 76 28 77
REMARK H PARENT 31 4 36 13 59 34 20 49 16 55 8 60 13 70 27 78 27 79 28 80
REMARK H PARENT 28 81
REMARK Flexibility Score:  259.900
ROOT
ATOM      1  O   UNL     1      -3.863  -2.029   1.042  1.00  0.00    -0.273 OA
ATOM      2  N   UNL     1      -5.235  -1.530   2.802  1.00  0.00    -0.343 N 
ATOM      3  C   UNL     1      -4.984  -2.051   1.551  1.00  0.00     0.243 C 
ATOM      4  H   UNL     1      -6.167  -1.579   3.196  1.00  0.00     0.164 HD
ENDROOT
BRANCH   2   5
ATOM      5  C   UNL     1      -4.193  -0.817   3.532  1.00  0.00     0.171 C 
ATOM      6  C   UNL     1      -3.925  -0.035   6.311  1.00  0.00     0.214 C 
ATOM      7  N   UNL     1      -4.540   0.875   5.374  1.00  0.00    -0.303 N 
ATOM      8  C   UNL     1      -2.882  -0.941   5.675  1.00  0.00     0.057 C 
ATOM      9  C   UNL     1      -4.745   0.545   4.044  1.00  0.00     0.247 C 
ATOM     10  C   UNL     1      -3.510  -1.732   4.548  1.00  0.00     0.040 C 
ATOM     11  O   UNL     1      -5.351   1.295   3.267  1.00  0.00    -0.272 OA
BRANCH   6  12
ATOM     12  O   UNL     1      -4.949  -0.802   6.902  1.00  0.00    -0.373 OA
ATOM     13  H   UNL     1      -4.513  -1.502   7.434  1.00  0.00     0.213 HD
ENDBRANCH   6  12
BRANCH   7  14
ATOM     14  C   UNL     1      -5.085   2.135   5.922  1.00  0.00     0.177 C 
BRANCH  14  15
ATOM     15  C   UNL     1      -6.595   2.118   6.230  1.00  0.00     0.038 C 
BRANCH  15  16
ATOM     16  C   UNL     1      -7.453   0.922   5.763  1.00  0.00    -0.015 C 
ATOM     17  C   UNL     1      -8.457   1.312   4.674  1.00  0.00     0.007 C 
ATOM     18  C   UNL     1      -8.234   0.348   6.953  1.00  0.00     0.007 C 
ENDBRANCH  15  16
ENDBRANCH  14  15
BRANCH  14  19
ATOM     19  C   UNL     1      -3.994   2.875   6.771  1.00  0.00     0.245 C 
ATOM     20  O   UNL     1      -3.171   3.564   6.146  1.00  0.00    -0.272 OA
BRANCH  19  21
ATOM     21  N   UNL     1      -3.838   2.711   8.136  1.00  0.00    -0.332 N 
ATOM     22  C   UNL     1      -2.659   2.171   8.790  1.00  0.00     0.147 C 
BRANCH  21  23
ATOM     23  C   UNL     1      -4.969   3.108   9.019  1.00  0.00     0.178 C 
BRANCH  23  24
ATOM     24  C   UNL     1      -4.969   2.440  10.409  1.00  0.00     0.070 C 
BRANCH  24  25
ATOM     25  C   UNL     1      -6.233   1.730  10.832  1.00  0.00    -0.045 A 
ATOM     26  C   UNL     1      -7.442   1.955  10.160  1.00  0.00     0.004 A 
ATOM     27  C   UNL     1      -6.215   0.835  11.913  1.00  0.00     0.004 A 
ATOM     28  C   UNL     1      -8.610   1.308  10.568  1.00  0.00     0.000 A 
ATOM     29  C   UNL     1      -7.383   0.188  12.318  1.00  0.00     0.000 A 
ATOM     30  C   UNL     1      -8.580   0.427  11.647  1.00  0.00     0.000 A 
ENDBRANCH  24  25
ENDBRANCH  23  24
BRANCH  23  31
ATOM     31  C   UNL     1      -5.219   4.635   9.030  1.00  0.00     0.243 C 
ATOM     32  O   UNL     1      -6.023   5.205   8.296  1.00  0.00    -0.273 OA
ATOM     33  N   UNL     1      -4.321   5.337   9.815  1.00  0.00    -0.341 N 
ATOM     34  H   UNL     1      -3.671   4.807  10.401  1.00  0.00     0.164 HD
BRANCH  33  35
ATOM     35  C   UNL     1      -4.293   6.801   9.883  1.00  0.00     0.194 C 
BRANCH  35  36
ATOM     36  C   UNL     1      -2.861   7.407   9.918  1.00  0.00     0.017 C 
ATOM     37  C   UNL     1      -1.930   6.591  10.831  1.00  0.00     0.010 C 
ATOM     38  C   UNL     1      -2.832   8.859  10.412  1.00  0.00     0.010 C 
ENDBRANCH  35  36
BRANCH  35  39
ATOM     39  C   UNL     1      -5.190   7.364  11.020  1.00  0.00     0.329 C 
ATOM     40  O   UNL     1      -5.989   8.281  10.873  1.00  0.00    -0.250 OA
BRANCH  39  41
ATOM     41  O   UNL     1      -5.052   6.664  12.186  1.00  0.00    -0.458 OA
BRANCH  41  42
ATOM     42  C   UNL     1      -5.235   7.414  13.411  1.00  0.00     0.205 CG0
ATOM     43  C   UNL     1      -3.867   7.954  13.822  1.00  0.00     0.056 C 
ATOM     44  G   UNL     1      -5.844   6.479  14.474  1.00  0.00     0.000 G0
ENDBRANCH  41  42
ENDBRANCH  39  41
ENDBRANCH  35  39
ENDBRANCH  33  35
ENDBRANCH  23  31
ENDBRANCH  21  23
ENDBRANCH  19  21
ENDBRANCH  14  19
ENDBRANCH   7  14
ENDBRANCH   2   5
BRANCH   3  45
ATOM     45  C   UNL     1      -6.194  -2.679   0.846  1.00  0.00     0.171 C 
BRANCH  45  46
ATOM     46  N   UNL     1      -5.811  -2.808  -0.553  1.00  0.00    -0.342 N 
ATOM     47  C   UNL     1      -5.507  -4.019  -1.125  1.00  0.00     0.247 C 
ATOM     48  O   UNL     1      -5.607  -5.087  -0.520  1.00  0.00    -0.273 OA
ATOM     49  H   UNL     1      -5.770  -1.954  -1.106  1.00  0.00     0.164 HD
BRANCH  47  50
ATOM     50  C   UNL     1      -5.005  -3.945  -2.574  1.00  0.00     0.212 CG0
ATOM     51  G   UNL     1      -6.192  -3.517  -3.459  1.00  0.00     0.000 G0
BRANCH  50  52
ATOM     52  N   UNL     1      -3.915  -2.973  -2.560  1.00  0.00    -0.339 N 
ATOM     53  C   UNL     1      -2.717  -3.190  -1.923  1.00  0.00     0.243 C 
ATOM     54  O   UNL     1      -2.490  -4.203  -1.267  1.00  0.00    -0.273 OA
ATOM     55  H   UNL     1      -4.084  -2.067  -2.992  1.00  0.00     0.164 HD
BRANCH  53  56
ATOM     56  C   UNL     1      -1.754  -1.986  -1.971  1.00  0.00     0.182 C 
BRANCH  56  57
ATOM     57  N   UNL     1      -1.436  -1.622  -3.355  1.00  0.00    -0.344 N 
ATOM     58  C   UNL     1      -1.268  -0.318  -3.753  1.00  0.00     0.220 C 
ATOM     59  O   UNL     1      -1.443   0.633  -2.999  1.00  0.00    -0.275 OA
ATOM     60  H   UNL     1      -1.184  -2.379  -3.985  1.00  0.00     0.164 HD
BRANCH  58  61
ATOM     61  C   UNL     1      -0.887  -0.180  -5.215  1.00  0.00     0.100 C 
BRANCH  61  62
ATOM     62  C   UNL     1       0.610   0.030  -5.445  1.00  0.00     0.010 C 
BRANCH  62  63
ATOM     63  C   UNL     1       1.404  -1.269  -5.637  1.00  0.00     0.000 C 
BRANCH  63  64
ATOM     64  C   UNL     1       2.296  -1.639  -4.453  1.00  0.00    -0.003 C 
ATOM     65  C   UNL     1       2.334  -0.526  -3.417  1.00  0.00     0.004 C 
ENDBRANCH  63  64
ENDBRANCH  62  63
ENDBRANCH  61  62
ENDBRANCH  58  61
ENDBRANCH  56  57
BRANCH  56  66
ATOM     66  C   UNL     1      -0.498  -2.240  -1.139  1.00  0.00     0.157 C 
BRANCH  66  67
ATOM     67  C   UNL     1      -0.423  -1.303   0.032  1.00  0.00     0.305 C 
ATOM     68  O   UNL     1      -0.553  -1.592   1.212  1.00  0.00    -0.252 OA
BRANCH  67  69
ATOM     69  O   UNL     1      -0.133  -0.042  -0.340  1.00  0.00    -0.481 OA
ATOM     70  H   UNL     1      -0.566   0.524   0.334  1.00  0.00     0.296 HD
ENDBRANCH  67  69
ENDBRANCH  66  67
ENDBRANCH  56  66
ENDBRANCH  53  56
ENDBRANCH  50  52
ENDBRANCH  47  50
ENDBRANCH  45  46
BRANCH  45  71
ATOM     71  C   UNL     1      -7.431  -1.790   1.014  1.00  0.00     0.037 C 
BRANCH  71  72
ATOM     72  C   UNL     1      -7.886  -1.180  -0.314  1.00  0.00     0.026 C 
BRANCH  72  73
ATOM     73  C   UNL     1      -7.374   0.249  -0.479  1.00  0.00     0.146 C 
BRANCH  73  74
ATOM     74  N   UNL     1      -6.076   0.185  -1.145  1.00  0.00    -0.254 NA
ATOM     75  C   UNL     1      -5.156   0.982  -0.742  1.00  0.00     0.185 C 
ATOM     76  N   UNL     1      -3.952   0.946  -1.334  1.00  0.00    -0.370 N 
ATOM     77  N   UNL     1      -5.205   1.902   0.237  1.00  0.00    -0.370 N 
ATOM     78  H   UNL     1      -3.832   0.284  -2.088  1.00  0.00     0.159 HD
ATOM     79  H   UNL     1      -3.235   1.631  -1.173  1.00  0.00     0.159 HD
ATOM     80  H   UNL     1      -6.048   2.038   0.773  1.00  0.00     0.159 HD
ATOM     81  H   UNL     1      -4.380   2.392   0.543  1.00  0.00     0.159 HD
ENDBRANCH  73  74
ENDBRANCH  72  73
ENDBRANCH  71  72
ENDBRANCH  45  71
ENDBRANCH   3  45
TORSDOF 20
ENDMDL
MODEL 19
REMARK VINA RESULT:    -6.095      5.921     10.155
REMARK INTER + INTRA:         -23.263
REMARK INTER:                 -16.399
REMARK INTRA:                  -6.864
REMARK UNBOUND:                -5.767
REMARK SMILES CCCCCC(=O)N[C@H](CC(=O)O)C(=O)N[C@H]1C(=O)N[C@H](CCCN=C(N)N)C(=O)N[C@@H]2CC[C@H](O)N(C2=O)[C@@H](CC(C)C)C(=O)N(C)[C@@H](Cc2ccccc2)C(=O)N[C@H](C(C)C)C(=O)O[C@@H]1C
REMARK SMILES IDX 30 1 31 2 29 3 32 5 35 6 37 7 34 8 38 9 33 10 39 11 36 12
REMARK SMILES IDX 40 14 41 15 42 16 43 17 44 18 45 19 46 20 47 21 48 22 49 23
REMARK SMILES IDX 50 24 51 25 52 26 56 27 53 28 55 29 54 30 57 31 58 32 59 33
REMARK SMILES IDX 60 35 61 36 62 37 63 38 64 39 65 40 66 41 67 42 68 43 21 45
REMARK SMILES IDX 20 46 18 47 19 48 17 50 16 52 14 53 15 54 9 56 8 57 6 58
REMARK SMILES IDX 7 59 5 61 4 62 3 63 2 64 1 65 10 66 11 67 12 68 13 69 22 71
REMARK SMILES IDX 23 72 24 73 25 74 26 75 27 76 28 77
REMARK H PARENT 31 4 36 13 59 34 20 49 16 55 8 60 13 70 27 78 27 79 28 80
REMARK H PARENT 28 81
REMARK Flexibility Score:  259.900
ROOT
ATOM      1  O   UNL     1      -4.651  -2.881   1.708  1.00  0.00    -0.273 OA
ATOM      2  N   UNL     1      -6.647  -2.784   0.596  1.00  0.00    -0.343 N 
ATOM      3  C   UNL     1      -5.340  -2.402   0.806  1.00  0.00     0.243 C 
ATOM      4  H   UNL     1      -7.179  -2.379  -0.165  1.00  0.00     0.164 HD
ENDROOT
BRANCH   2   5
ATOM      5  C   UNL     1      -7.312  -3.696   1.519  1.00  0.00     0.171 C 
ATOM      6  C   UNL     1     -10.064  -4.571   1.776  1.00  0.00     0.214 C 
ATOM      7  N   UNL     1      -9.616  -3.412   2.512  1.00  0.00    -0.303 N 
ATOM      8  C   UNL     1      -8.964  -5.592   1.532  1.00  0.00     0.057 C 
ATOM      9  C   UNL     1      -8.330  -2.911   2.396  1.00  0.00     0.247 C 
ATOM     10  C   UNL     1      -7.816  -4.942   0.792  1.00  0.00     0.040 C 
ATOM     11  O   UNL     1      -7.979  -1.868   2.963  1.00  0.00    -0.272 OA
BRANCH   6  12
ATOM     12  O   UNL     1     -10.600  -4.123   0.552  1.00  0.00    -0.373 OA
ATOM     13  H   UNL     1     -11.378  -4.687   0.355  1.00  0.00     0.213 HD
ENDBRANCH   6  12
BRANCH   7  14
ATOM     14  C   UNL     1     -10.634  -2.680   3.295  1.00  0.00     0.177 C 
BRANCH  14  15
ATOM     15  C   UNL     1     -11.265  -1.469   2.580  1.00  0.00     0.038 C 
BRANCH  15  16
ATOM     16  C   UNL     1     -11.251  -0.087   3.270  1.00  0.00    -0.015 C 
ATOM     17  C   UNL     1     -10.586   0.990   2.407  1.00  0.00     0.007 C 
ATOM     18  C   UNL     1     -10.488  -0.177   4.598  1.00  0.00     0.007 C 
ENDBRANCH  15  16
ENDBRANCH  14  15
BRANCH  14  19
ATOM     19  C   UNL     1     -11.390  -3.661   4.256  1.00  0.00     0.245 C 
ATOM     20  O   UNL     1     -10.702  -4.258   5.100  1.00  0.00    -0.272 OA
BRANCH  19  21
ATOM     21  N   UNL     1     -12.733  -3.973   4.139  1.00  0.00    -0.332 N 
ATOM     22  C   UNL     1     -13.276  -5.089   3.385  1.00  0.00     0.147 C 
BRANCH  21  23
ATOM     23  C   UNL     1     -13.715  -3.093   4.830  1.00  0.00     0.178 C 
BRANCH  23  24
ATOM     24  C   UNL     1     -14.647  -2.302   3.890  1.00  0.00     0.070 C 
BRANCH  24  25
ATOM     25  C   UNL     1     -14.644  -0.797   4.024  1.00  0.00    -0.045 A 
ATOM     26  C   UNL     1     -14.986   0.020   2.939  1.00  0.00     0.004 A 
ATOM     27  C   UNL     1     -14.292  -0.196   5.241  1.00  0.00     0.004 A 
ATOM     28  C   UNL     1     -14.964   1.411   3.066  1.00  0.00     0.000 A 
ATOM     29  C   UNL     1     -14.272   1.194   5.367  1.00  0.00     0.000 A 
ATOM     30  C   UNL     1     -14.606   1.996   4.278  1.00  0.00     0.000 A 
ENDBRANCH  24  25
ENDBRANCH  23  24
BRANCH  23  31
ATOM     31  C   UNL     1     -14.424  -3.793   6.014  1.00  0.00     0.243 C 
ATOM     32  O   UNL     1     -15.623  -3.681   6.259  1.00  0.00    -0.273 OA
ATOM     33  N   UNL     1     -13.553  -4.415   6.891  1.00  0.00    -0.341 N 
ATOM     34  H   UNL     1     -12.564  -4.471   6.635  1.00  0.00     0.164 HD
BRANCH  33  35
ATOM     35  C   UNL     1     -13.990  -5.039   8.143  1.00  0.00     0.194 C 
BRANCH  35  36
ATOM     36  C   UNL     1     -14.614  -6.452   7.965  1.00  0.00     0.017 C 
ATOM     37  C   UNL     1     -13.851  -7.508   8.782  1.00  0.00     0.010 C 
ATOM     38  C   UNL     1     -14.632  -6.924   6.506  1.00  0.00     0.010 C 
ENDBRANCH  35  36
BRANCH  35  39
ATOM     39  C   UNL     1     -14.899  -4.106   8.991  1.00  0.00     0.329 C 
ATOM     40  O   UNL     1     -14.525  -3.049   9.486  1.00  0.00    -0.250 OA
BRANCH  39  41
ATOM     41  O   UNL     1     -16.190  -4.552   9.051  1.00  0.00    -0.458 OA
BRANCH  41  42
ATOM     42  C   UNL     1     -17.072  -3.842   9.953  1.00  0.00     0.205 CG0
ATOM     43  C   UNL     1     -17.199  -4.685  11.220  1.00  0.00     0.056 C 
ATOM     44  G   UNL     1     -18.427  -3.629   9.249  1.00  0.00     0.000 G0
ENDBRANCH  41  42
ENDBRANCH  39  41
ENDBRANCH  35  39
ENDBRANCH  33  35
ENDBRANCH  23  31
ENDBRANCH  21  23
ENDBRANCH  19  21
ENDBRANCH  14  19
ENDBRANCH   7  14
ENDBRANCH   2   5
BRANCH   3  45
ATOM     45  C   UNL     1      -4.795  -1.355  -0.174  1.00  0.00     0.171 C 
BRANCH  45  46
ATOM     46  N   UNL     1      -3.399  -1.159   0.194  1.00  0.00    -0.342 N 
ATOM     47  C   UNL     1      -2.418  -0.924  -0.736  1.00  0.00     0.247 C 
ATOM     48  O   UNL     1      -2.655  -0.788  -1.937  1.00  0.00    -0.273 OA
ATOM     49  H   UNL     1      -3.168  -1.207   1.185  1.00  0.00     0.164 HD
BRANCH  47  50
ATOM     50  C   UNL     1      -0.990  -0.868  -0.175  1.00  0.00     0.212 CG0
ATOM     51  G   UNL     1      -0.348   0.447  -0.661  1.00  0.00     0.000 G0
BRANCH  50  52
ATOM     52  N   UNL     1      -1.139  -0.935   1.276  1.00  0.00    -0.339 N 
ATOM     53  C   UNL     1      -0.321  -1.686   2.086  1.00  0.00     0.243 C 
ATOM     54  O   UNL     1       0.570  -2.405   1.642  1.00  0.00    -0.273 OA
ATOM     55  H   UNL     1      -1.930  -0.449   1.694  1.00  0.00     0.164 HD
BRANCH  53  56
ATOM     56  C   UNL     1      -0.725  -1.669   3.574  1.00  0.00     0.182 C 
BRANCH  56  57
ATOM     57  N   UNL     1      -1.819  -0.723   3.812  1.00  0.00    -0.344 N 
ATOM     58  C   UNL     1      -2.830  -0.976   4.706  1.00  0.00     0.220 C 
ATOM     59  O   UNL     1      -2.929  -2.038   5.312  1.00  0.00    -0.275 OA
ATOM     60  H   UNL     1      -1.720   0.206   3.409  1.00  0.00     0.164 HD
BRANCH  58  61
ATOM     61  C   UNL     1      -3.821   0.166   4.834  1.00  0.00     0.100 C 
BRANCH  61  62
ATOM     62  C   UNL     1      -5.229  -0.183   4.354  1.00  0.00     0.010 C 
BRANCH  62  63
ATOM     63  C   UNL     1      -6.350   0.342   5.260  1.00  0.00     0.000 C 
BRANCH  63  64
ATOM     64  C   UNL     1      -6.652   1.830   5.086  1.00  0.00    -0.003 C 
ATOM     65  C   UNL     1      -7.544   2.077   3.878  1.00  0.00     0.004 C 
ENDBRANCH  63  64
ENDBRANCH  62  63
ENDBRANCH  61  62
ENDBRANCH  58  61
ENDBRANCH  56  57
BRANCH  56  66
ATOM     66  C   UNL     1       0.478  -1.400   4.477  1.00  0.00     0.157 C 
BRANCH  66  67
ATOM     67  C   UNL     1       0.805  -2.599   5.319  1.00  0.00     0.305 C 
ATOM     68  O   UNL     1       0.439  -2.812   6.465  1.00  0.00    -0.252 OA
BRANCH  67  69
ATOM     69  O   UNL     1       1.542  -3.507   4.652  1.00  0.00    -0.481 OA
ATOM     70  H   UNL     1       2.335  -3.014   4.351  1.00  0.00     0.296 HD
ENDBRANCH  67  69
ENDBRANCH  66  67
ENDBRANCH  56  66
ENDBRANCH  53  56
ENDBRANCH  50  52
ENDBRANCH  47  50
ENDBRANCH  45  46
BRANCH  45  71
ATOM     71  C   UNL     1      -5.597  -0.053  -0.063  1.00  0.00     0.037 C 
BRANCH  71  72
ATOM     72  C   UNL     1      -6.236   0.345  -1.396  1.00  0.00     0.026 C 
BRANCH  72  73
ATOM     73  C   UNL     1      -7.747   0.122  -1.382  1.00  0.00     0.146 C 
BRANCH  73  74
ATOM     74  N   UNL     1      -8.006  -1.217  -1.901  1.00  0.00    -0.254 NA
ATOM     75  C   UNL     1      -9.082  -1.806  -1.528  1.00  0.00     0.185 C 
ATOM     76  N   UNL     1      -9.349  -3.039  -1.989  1.00  0.00    -0.370 N 
ATOM     77  N   UNL     1     -10.045  -1.363  -0.700  1.00  0.00    -0.370 N 
ATOM     78  H   UNL     1      -8.671  -3.450  -2.614  1.00  0.00     0.159 HD
ATOM     79  H   UNL     1     -10.091  -3.615  -1.632  1.00  0.00     0.159 HD
ATOM     80  H   UNL     1      -9.979  -0.448  -0.279  1.00  0.00     0.159 HD
ATOM     81  H   UNL     1     -10.905  -1.870  -0.571  1.00  0.00     0.159 HD
ENDBRANCH  73  74
ENDBRANCH  72  73
ENDBRANCH  71  72
ENDBRANCH  45  71
ENDBRANCH   3  45
TORSDOF 20
ENDMDL
MODEL 20
REMARK VINA RESULT:    -6.057      4.486      8.761
REMARK INTER + INTRA:         -23.154
REMARK INTER:                 -17.836
REMARK INTRA:                  -5.318
REMARK UNBOUND:                -5.767
REMARK SMILES CCCCCC(=O)N[C@H](CC(=O)O)C(=O)N[C@H]1C(=O)N[C@H](CCCN=C(N)N)C(=O)N[C@@H]2CC[C@H](O)N(C2=O)[C@@H](CC(C)C)C(=O)N(C)[C@@H](Cc2ccccc2)C(=O)N[C@H](C(C)C)C(=O)O[C@@H]1C
REMARK SMILES IDX 30 1 31 2 29 3 32 5 35 6 37 7 34 8 38 9 33 10 39 11 36 12
REMARK SMILES IDX 40 14 41 15 42 16 43 17 44 18 45 19 46 20 47 21 48 22 49 23
REMARK SMILES IDX 50 24 51 25 52 26 56 27 53 28 55 29 54 30 57 31 58 32 59 33
REMARK SMILES IDX 60 35 61 36 62 37 63 38 64 39 65 40 66 41 67 42 68 43 21 45
REMARK SMILES IDX 20 46 18 47 19 48 17 50 16 52 14 53 15 54 9 56 8 57 6 58
REMARK SMILES IDX 7 59 5 61 4 62 3 63 2 64 1 65 10 66 11 67 12 68 13 69 22 71
REMARK SMILES IDX 23 72 24 73 25 74 26 75 27 76 28 77
REMARK H PARENT 31 4 36 13 59 34 20 49 16 55 8 60 13 70 27 78 27 79 28 80
REMARK H PARENT 28 81
REMARK Flexibility Score:  259.900
ROOT
ATOM      1  O   UNL     1      -3.002  -2.822  -2.679  1.00  0.00    -0.273 OA
ATOM      2  N   UNL     1      -2.966  -1.333  -0.944  1.00  0.00    -0.343 N 
ATOM      3  C   UNL     1      -2.441  -1.901  -2.085  1.00  0.00     0.243 C 
ATOM      4  H   UNL     1      -2.485  -0.567  -0.490  1.00  0.00     0.164 HD
ENDROOT
BRANCH   2   5
ATOM      5  C   UNL     1      -4.162  -1.888  -0.321  1.00  0.00     0.171 C 
ATOM      6  C   UNL     1      -5.960  -4.031  -1.084  1.00  0.00     0.214 C 
ATOM      7  N   UNL     1      -6.244  -2.680  -1.510  1.00  0.00    -0.303 N 
ATOM      8  C   UNL     1      -5.217  -4.101   0.241  1.00  0.00     0.057 C 
ATOM      9  C   UNL     1      -5.400  -1.619  -1.223  1.00  0.00     0.247 C 
ATOM     10  C   UNL     1      -3.922  -3.324   0.144  1.00  0.00     0.040 C 
ATOM     11  O   UNL     1      -5.605  -0.481  -1.665  1.00  0.00    -0.272 OA
BRANCH   6  12
ATOM     12  O   UNL     1      -5.212  -4.655  -2.101  1.00  0.00    -0.373 OA
ATOM     13  H   UNL     1      -5.823  -4.812  -2.853  1.00  0.00     0.213 HD
ENDBRANCH   6  12
BRANCH   7  14
ATOM     14  C   UNL     1      -7.408  -2.489  -2.400  1.00  0.00     0.177 C 
BRANCH  14  15
ATOM     15  C   UNL     1      -8.672  -1.931  -1.717  1.00  0.00     0.038 C 
BRANCH  15  16
ATOM     16  C   UNL     1     -10.004  -2.705  -1.834  1.00  0.00    -0.015 C 
ATOM     17  C   UNL     1     -11.129  -1.845  -2.417  1.00  0.00     0.007 C 
ATOM     18  C   UNL     1     -10.443  -3.194  -0.448  1.00  0.00     0.007 C 
ENDBRANCH  15  16
ENDBRANCH  14  15
BRANCH  14  19
ATOM     19  C   UNL     1      -6.930  -2.135  -3.851  1.00  0.00     0.245 C 
ATOM     20  O   UNL     1      -5.873  -2.662  -4.236  1.00  0.00    -0.272 OA
BRANCH  19  21
ATOM     21  N   UNL     1      -7.552  -1.201  -4.661  1.00  0.00    -0.332 N 
ATOM     22  C   UNL     1      -7.867   0.165  -4.283  1.00  0.00     0.147 C 
BRANCH  21  23
ATOM     23  C   UNL     1      -7.945  -1.623  -6.034  1.00  0.00     0.178 C 
BRANCH  23  24
ATOM     24  C   UNL     1      -9.446  -1.469  -6.352  1.00  0.00     0.070 C 
BRANCH  24  25
ATOM     25  C   UNL     1     -10.203  -2.723  -6.723  1.00  0.00    -0.045 A 
ATOM     26  C   UNL     1     -10.449  -3.041  -8.065  1.00  0.00     0.004 A 
ATOM     27  C   UNL     1     -10.676  -3.586  -5.724  1.00  0.00     0.004 A 
ATOM     28  C   UNL     1     -11.164  -4.193  -8.399  1.00  0.00     0.000 A 
ATOM     29  C   UNL     1     -11.390  -4.737  -6.060  1.00  0.00     0.000 A 
ATOM     30  C   UNL     1     -11.635  -5.038  -7.398  1.00  0.00     0.000 A 
ENDBRANCH  24  25
ENDBRANCH  23  24
BRANCH  23  31
ATOM     31  C   UNL     1      -6.989  -1.087  -7.127  1.00  0.00     0.243 C 
ATOM     32  O   UNL     1      -7.219  -0.094  -7.814  1.00  0.00    -0.273 OA
ATOM     33  N   UNL     1      -5.927  -1.933  -7.396  1.00  0.00    -0.341 N 
ATOM     34  H   UNL     1      -5.790  -2.747  -6.793  1.00  0.00     0.164 HD
BRANCH  33  35
ATOM     35  C   UNL     1      -4.963  -1.687  -8.473  1.00  0.00     0.194 C 
BRANCH  35  36
ATOM     36  C   UNL     1      -5.228  -2.513  -9.763  1.00  0.00     0.017 C 
ATOM     37  C   UNL     1      -5.461  -3.999  -9.438  1.00  0.00     0.010 C 
ATOM     38  C   UNL     1      -4.078  -2.439 -10.775  1.00  0.00     0.010 C 
ENDBRANCH  35  36
BRANCH  35  39
ATOM     39  C   UNL     1      -3.489  -1.813  -7.996  1.00  0.00     0.329 C 
ATOM     40  O   UNL     1      -2.879  -2.873  -7.927  1.00  0.00    -0.250 OA
BRANCH  39  41
ATOM     41  O   UNL     1      -2.919  -0.596  -7.743  1.00  0.00    -0.458 OA
BRANCH  41  42
ATOM     42  C   UNL     1      -2.656  -0.288  -6.353  1.00  0.00     0.205 CG0
ATOM     43  C   UNL     1      -3.524   0.912  -5.982  1.00  0.00     0.056 C 
ATOM     44  G   UNL     1      -1.150   0.001  -6.190  1.00  0.00     0.000 G0
ENDBRANCH  41  42
ENDBRANCH  39  41
ENDBRANCH  35  39
ENDBRANCH  33  35
ENDBRANCH  23  31
ENDBRANCH  21  23
ENDBRANCH  19  21
ENDBRANCH  14  19
ENDBRANCH   7  14
ENDBRANCH   2   5
BRANCH   3  45
ATOM     45  C   UNL     1      -1.121  -1.291  -2.575  1.00  0.00     0.171 C 
BRANCH  45  46
ATOM     46  N   UNL     1      -1.267  -1.143  -4.017  1.00  0.00    -0.342 N 
ATOM     47  C   UNL     1      -0.771  -0.062  -4.700  1.00  0.00     0.247 C 
ATOM     48  O   UNL     1      -0.106   0.823  -4.160  1.00  0.00    -0.273 OA
ATOM     49  H   UNL     1      -1.763  -1.882  -4.513  1.00  0.00     0.164 HD
BRANCH  47  50
ATOM     50  C   UNL     1      -1.128  -0.016  -6.193  1.00  0.00     0.212 CG0
ATOM     51  G   UNL     1      -2.643  -0.275  -6.319  1.00  0.00     0.000 G0
BRANCH  50  52
ATOM     52  N   UNL     1      -0.731   1.314  -6.648  1.00  0.00    -0.339 N 
ATOM     53  C   UNL     1       0.001   1.534  -7.789  1.00  0.00     0.243 C 
ATOM     54  O   UNL     1       0.426   0.620  -8.490  1.00  0.00    -0.273 OA
ATOM     55  H   UNL     1      -0.958   2.106  -6.050  1.00  0.00     0.164 HD
BRANCH  53  56
ATOM     56  C   UNL     1       0.375   3.013  -8.019  1.00  0.00     0.182 C 
BRANCH  56  57
ATOM     57  N   UNL     1       1.064   3.188  -9.302  1.00  0.00    -0.344 N 
ATOM     58  C   UNL     1       1.253   4.423  -9.873  1.00  0.00     0.220 C 
ATOM     59  O   UNL     1       0.796   5.454  -9.390  1.00  0.00    -0.275 OA
ATOM     60  H   UNL     1       1.544   2.376  -9.681  1.00  0.00     0.164 HD
BRANCH  58  61
ATOM     61  C   UNL     1       2.041   4.372 -11.168  1.00  0.00     0.100 C 
BRANCH  61  62
ATOM     62  C   UNL     1       1.535   3.322 -12.157  1.00  0.00     0.010 C 
BRANCH  62  63
ATOM     63  C   UNL     1       1.733   3.699 -13.630  1.00  0.00     0.000 C 
BRANCH  63  64
ATOM     64  C   UNL     1       0.435   3.824 -14.426  1.00  0.00    -0.003 C 
ATOM     65  C   UNL     1      -0.029   2.472 -14.947  1.00  0.00     0.004 C 
ENDBRANCH  63  64
ENDBRANCH  62  63
ENDBRANCH  61  62
ENDBRANCH  58  61
ENDBRANCH  56  57
BRANCH  56  66
ATOM     66  C   UNL     1       1.181   3.575  -6.850  1.00  0.00     0.157 C 
BRANCH  66  67
ATOM     67  C   UNL     1       2.457   2.810  -6.651  1.00  0.00     0.305 C 
ATOM     68  O   UNL     1       3.418   2.779  -7.404  1.00  0.00    -0.252 OA
BRANCH  67  69
ATOM     69  O   UNL     1       2.483   2.154  -5.475  1.00  0.00    -0.481 OA
ATOM     70  H   UNL     1       3.398   2.273  -5.142  1.00  0.00     0.296 HD
ENDBRANCH  67  69
ENDBRANCH  66  67
ENDBRANCH  56  66
ENDBRANCH  53  56
ENDBRANCH  50  52
ENDBRANCH  47  50
ENDBRANCH  45  46
BRANCH  45  71
ATOM     71  C   UNL     1       0.055  -2.205  -2.216  1.00  0.00     0.037 C 
BRANCH  71  72
ATOM     72  C   UNL     1       1.215  -1.431  -1.586  1.00  0.00     0.026 C 
BRANCH  72  73
ATOM     73  C   UNL     1       2.415  -1.353  -2.528  1.00  0.00     0.146 C 
BRANCH  73  74
ATOM     74  N   UNL     1       2.236  -2.366  -3.564  1.00  0.00    -0.254 NA
ATOM     75  C   UNL     1       2.353  -2.000  -4.787  1.00  0.00     0.185 C 
ATOM     76  N   UNL     1       2.195  -2.909  -5.762  1.00  0.00    -0.370 N 
ATOM     77  N   UNL     1       2.625  -0.779  -5.281  1.00  0.00    -0.370 N 
ATOM     78  H   UNL     1       1.980  -3.854  -5.476  1.00  0.00     0.159 HD
ATOM     79  H   UNL     1       2.128  -2.671  -6.736  1.00  0.00     0.159 HD
ATOM     80  H   UNL     1       2.772   0.004  -4.663  1.00  0.00     0.159 HD
ATOM     81  H   UNL     1       2.807  -0.635  -6.260  1.00  0.00     0.159 HD
ENDBRANCH  73  74
ENDBRANCH  72  73
ENDBRANCH  71  72
ENDBRANCH  45  71
ENDBRANCH   3  45
TORSDOF 20
ENDMDL
MODEL 21
REMARK VINA RESULT:    -5.990      3.479     14.391
REMARK INTER + INTRA:         -22.964
REMARK INTER:                 -17.397
REMARK INTRA:                  -5.567
REMARK UNBOUND:                -5.767
REMARK SMILES CCCCCC(=O)N[C@H](CC(=O)O)C(=O)N[C@H]1C(=O)N[C@H](CCCN=C(N)N)C(=O)N[C@@H]2CC[C@H](O)N(C2=O)[C@@H](CC(C)C)C(=O)N(C)[C@@H](Cc2ccccc2)C(=O)N[C@H](C(C)C)C(=O)O[C@@H]1C
REMARK SMILES IDX 30 1 31 2 29 3 32 5 35 6 37 7 34 8 38 9 33 10 39 11 36 12
REMARK SMILES IDX 40 14 41 15 42 16 43 17 44 18 45 19 46 20 47 21 48 22 49 23
REMARK SMILES IDX 50 24 51 25 52 26 56 27 53 28 55 29 54 30 57 31 58 32 59 33
REMARK SMILES IDX 60 35 61 36 62 37 63 38 64 39 65 40 66 41 67 42 68 43 21 45
REMARK SMILES IDX 20 46 18 47 19 48 17 50 16 52 14 53 15 54 9 56 8 57 6 58
REMARK SMILES IDX 7 59 5 61 4 62 3 63 2 64 1 65 10 66 11 67 12 68 13 69 22 71
REMARK SMILES IDX 23 72 24 73 25 74 26 75 27 76 28 77
REMARK H PARENT 31 4 36 13 59 34 20 49 16 55 8 60 13 70 27 78 27 79 28 80
REMARK H PARENT 28 81
REMARK Flexibility Score:  259.900
ROOT
ATOM      1  O   UNL     1      -4.571  -3.274   1.471  1.00  0.00    -0.273 OA
ATOM      2  N   UNL     1      -3.360  -1.454   0.798  1.00  0.00    -0.343 N 
ATOM      3  C   UNL     1      -4.486  -2.055   1.318  1.00  0.00     0.243 C 
ATOM      4  H   UNL     1      -3.319  -0.447   0.700  1.00  0.00     0.164 HD
ENDROOT
BRANCH   2   5
ATOM      5  C   UNL     1      -2.255  -2.261   0.290  1.00  0.00     0.171 C 
ATOM      6  C   UNL     1       0.215  -1.579  -1.066  1.00  0.00     0.214 C 
ATOM      7  N   UNL     1      -0.967  -1.868  -1.844  1.00  0.00    -0.303 N 
ATOM      8  C   UNL     1       0.259  -2.322   0.260  1.00  0.00     0.057 C 
ATOM      9  C   UNL     1      -2.190  -2.151  -1.260  1.00  0.00     0.247 C 
ATOM     10  C   UNL     1      -0.972  -1.990   1.075  1.00  0.00     0.040 C 
ATOM     11  O   UNL     1      -3.217  -2.313  -1.933  1.00  0.00    -0.272 OA
BRANCH   6  12
ATOM     12  O   UNL     1       0.259  -0.187  -0.851  1.00  0.00    -0.373 OA
ATOM     13  H   UNL     1       1.146   0.020  -0.486  1.00  0.00     0.213 HD
ENDBRANCH   6  12
BRANCH   7  14
ATOM     14  C   UNL     1      -0.859  -1.707  -3.310  1.00  0.00     0.177 C 
BRANCH  14  15
ATOM     15  C   UNL     1      -0.737  -0.252  -3.803  1.00  0.00     0.038 C 
BRANCH  15  16
ATOM     16  C   UNL     1      -1.220   0.114  -5.224  1.00  0.00    -0.015 C 
ATOM     17  C   UNL     1      -0.992   1.591  -5.556  1.00  0.00     0.007 C 
ATOM     18  C   UNL     1      -2.719  -0.182  -5.354  1.00  0.00     0.007 C 
ENDBRANCH  15  16
ENDBRANCH  14  15
BRANCH  14  19
ATOM     19  C   UNL     1      -0.130  -2.943  -3.941  1.00  0.00     0.245 C 
ATOM     20  O   UNL     1       0.434  -3.721  -3.154  1.00  0.00    -0.272 OA
BRANCH  19  21
ATOM     21  N   UNL     1       0.009  -3.143  -5.303  1.00  0.00    -0.332 N 
ATOM     22  C   UNL     1      -1.046  -3.568  -6.205  1.00  0.00     0.147 C 
BRANCH  21  23
ATOM     23  C   UNL     1       1.352  -2.918  -5.906  1.00  0.00     0.178 C 
BRANCH  23  24
ATOM     24  C   UNL     1       2.195  -1.826  -5.215  1.00  0.00     0.070 C 
BRANCH  24  25
ATOM     25  C   UNL     1       2.288  -0.487  -5.908  1.00  0.00    -0.045 A 
ATOM     26  C   UNL     1       2.671   0.661  -5.203  1.00  0.00     0.004 A 
ATOM     27  C   UNL     1       1.986  -0.375  -7.273  1.00  0.00     0.004 A 
ATOM     28  C   UNL     1       2.738   1.898  -5.847  1.00  0.00     0.000 A 
ATOM     29  C   UNL     1       2.055   0.863  -7.916  1.00  0.00     0.000 A 
ATOM     30  C   UNL     1       2.428   1.999  -7.201  1.00  0.00     0.000 A 
ENDBRANCH  24  25
ENDBRANCH  23  24
BRANCH  23  31
ATOM     31  C   UNL     1       2.109  -4.234  -6.203  1.00  0.00     0.243 C 
ATOM     32  O   UNL     1       2.729  -4.876  -5.359  1.00  0.00    -0.273 OA
ATOM     33  N   UNL     1       2.185  -4.536  -7.552  1.00  0.00    -0.341 N 
ATOM     34  H   UNL     1       1.652  -3.961  -8.209  1.00  0.00     0.164 HD
BRANCH  33  35
ATOM     35  C   UNL     1       2.953  -5.669  -8.075  1.00  0.00     0.194 C 
BRANCH  35  36
ATOM     36  C   UNL     1       2.512  -7.049  -7.511  1.00  0.00     0.017 C 
ATOM     37  C   UNL     1       3.171  -8.205  -8.284  1.00  0.00     0.010 C 
ATOM     38  C   UNL     1       0.995  -7.267  -7.565  1.00  0.00     0.010 C 
ENDBRANCH  35  36
BRANCH  35  39
ATOM     39  C   UNL     1       4.488  -5.457  -7.956  1.00  0.00     0.329 C 
ATOM     40  O   UNL     1       5.158  -5.814  -6.994  1.00  0.00    -0.250 OA
BRANCH  39  41
ATOM     41  O   UNL     1       5.026  -4.903  -9.085  1.00  0.00    -0.458 OA
BRANCH  41  42
ATOM     42  C   UNL     1       4.546  -5.426 -10.347  1.00  0.00     0.205 CG0
ATOM     43  C   UNL     1       5.398  -6.648 -10.685  1.00  0.00     0.056 C 
ATOM     44  G   UNL     1       4.655  -4.318 -11.412  1.00  0.00     0.000 G0
ENDBRANCH  41  42
ENDBRANCH  39  41
ENDBRANCH  35  39
ENDBRANCH  33  35
ENDBRANCH  23  31
ENDBRANCH  21  23
ENDBRANCH  19  21
ENDBRANCH  14  19
ENDBRANCH   7  14
ENDBRANCH   2   5
BRANCH   3  45
ATOM     45  C   UNL     1      -5.617  -1.097   1.715  1.00  0.00     0.171 C 
BRANCH  45  46
ATOM     46  N   UNL     1      -5.742  -1.212   3.162  1.00  0.00    -0.342 N 
ATOM     47  C   UNL     1      -5.456  -0.172   4.010  1.00  0.00     0.247 C 
ATOM     48  O   UNL     1      -5.145   0.950   3.610  1.00  0.00    -0.273 OA
ATOM     49  H   UNL     1      -6.052  -2.109   3.532  1.00  0.00     0.164 HD
BRANCH  47  50
ATOM     50  C   UNL     1      -5.524  -0.516   5.505  1.00  0.00     0.212 CG0
ATOM     51  G   UNL     1      -5.128   0.748   6.293  1.00  0.00     0.000 G0
BRANCH  50  52
ATOM     52  N   UNL     1      -6.902  -0.937   5.745  1.00  0.00    -0.339 N 
ATOM     53  C   UNL     1      -7.942  -0.057   5.919  1.00  0.00     0.243 C 
ATOM     54  O   UNL     1      -7.783   1.161   5.938  1.00  0.00    -0.273 OA
ATOM     55  H   UNL     1      -7.080  -1.934   5.851  1.00  0.00     0.164 HD
BRANCH  53  56
ATOM     56  C   UNL     1      -9.289  -0.733   6.245  1.00  0.00     0.182 C 
BRANCH  56  57
ATOM     57  N   UNL     1     -10.294  -0.427   5.222  1.00  0.00    -0.344 N 
ATOM     58  C   UNL     1     -10.789  -1.382   4.368  1.00  0.00     0.220 C 
ATOM     59  O   UNL     1     -10.375  -2.536   4.351  1.00  0.00    -0.275 OA
ATOM     60  H   UNL     1     -10.735   0.488   5.269  1.00  0.00     0.164 HD
BRANCH  58  61
ATOM     61  C   UNL     1     -11.860  -0.854   3.432  1.00  0.00     0.100 C 
BRANCH  61  62
ATOM     62  C   UNL     1     -12.239   0.605   3.689  1.00  0.00     0.010 C 
BRANCH  62  63
ATOM     63  C   UNL     1     -13.736   0.902   3.528  1.00  0.00     0.000 C 
BRANCH  63  64
ATOM     64  C   UNL     1     -14.392   0.190   2.346  1.00  0.00    -0.003 C 
ATOM     65  C   UNL     1     -15.581   0.978   1.815  1.00  0.00     0.004 C 
ENDBRANCH  63  64
ENDBRANCH  62  63
ENDBRANCH  61  62
ENDBRANCH  58  61
ENDBRANCH  56  57
BRANCH  56  66
ATOM     66  C   UNL     1      -9.770  -0.375   7.650  1.00  0.00     0.157 C 
BRANCH  66  67
ATOM     67  C   UNL     1     -11.267  -0.433   7.744  1.00  0.00     0.305 C 
ATOM     68  O   UNL     1     -12.038   0.515   7.752  1.00  0.00    -0.252 OA
BRANCH  67  69
ATOM     69  O   UNL     1     -11.730  -1.697   7.772  1.00  0.00    -0.481 OA
ATOM     70  H   UNL     1     -12.644  -1.622   8.118  1.00  0.00     0.296 HD
ENDBRANCH  67  69
ENDBRANCH  66  67
ENDBRANCH  56  66
ENDBRANCH  53  56
ENDBRANCH  50  52
ENDBRANCH  47  50
ENDBRANCH  45  46
BRANCH  45  71
ATOM     71  C   UNL     1      -6.918  -1.485   1.002  1.00  0.00     0.037 C 
BRANCH  71  72
ATOM     72  C   UNL     1      -8.155  -1.151   1.840  1.00  0.00     0.026 C 
BRANCH  72  73
ATOM     73  C   UNL     1      -8.873   0.088   1.311  1.00  0.00     0.146 C 
BRANCH  73  74
ATOM     74  N   UNL     1      -7.861   1.097   1.012  1.00  0.00    -0.254 NA
ATOM     75  C   UNL     1      -7.630   1.994   1.898  1.00  0.00     0.185 C 
ATOM     76  N   UNL     1      -6.704   2.936   1.653  1.00  0.00    -0.370 N 
ATOM     77  N   UNL     1      -8.198   2.155   3.106  1.00  0.00    -0.370 N 
ATOM     78  H   UNL     1      -6.233   2.892   0.761  1.00  0.00     0.159 HD
ATOM     79  H   UNL     1      -6.573   3.747   2.231  1.00  0.00     0.159 HD
ATOM     80  H   UNL     1      -8.910   1.517   3.428  1.00  0.00     0.159 HD
ATOM     81  H   UNL     1      -7.852   2.831   3.767  1.00  0.00     0.159 HD
ENDBRANCH  73  74
ENDBRANCH  72  73
ENDBRANCH  71  72
ENDBRANCH  45  71
ENDBRANCH   3  45
TORSDOF 20
ENDMDL
MODEL 22
REMARK VINA RESULT:    -5.990      4.616      9.080
REMARK INTER + INTRA:         -22.963
REMARK INTER:                 -16.498
REMARK INTRA:                  -6.465
REMARK UNBOUND:                -5.767
REMARK SMILES CCCCCC(=O)N[C@H](CC(=O)O)C(=O)N[C@H]1C(=O)N[C@H](CCCN=C(N)N)C(=O)N[C@@H]2CC[C@H](O)N(C2=O)[C@@H](CC(C)C)C(=O)N(C)[C@@H](Cc2ccccc2)C(=O)N[C@H](C(C)C)C(=O)O[C@@H]1C
REMARK SMILES IDX 30 1 31 2 29 3 32 5 35 6 37 7 34 8 38 9 33 10 39 11 36 12
REMARK SMILES IDX 40 14 41 15 42 16 43 17 44 18 45 19 46 20 47 21 48 22 49 23
REMARK SMILES IDX 50 24 51 25 52 26 56 27 53 28 55 29 54 30 57 31 58 32 59 33
REMARK SMILES IDX 60 35 61 36 62 37 63 38 64 39 65 40 66 41 67 42 68 43 21 45
REMARK SMILES IDX 20 46 18 47 19 48 17 50 16 52 14 53 15 54 9 56 8 57 6 58
REMARK SMILES IDX 7 59 5 61 4 62 3 63 2 64 1 65 10 66 11 67 12 68 13 69 22 71
REMARK SMILES IDX 23 72 24 73 25 74 26 75 27 76 28 77
REMARK H PARENT 31 4 36 13 59 34 20 49 16 55 8 60 13 70 27 78 27 79 28 80
REMARK H PARENT 28 81
REMARK Flexibility Score:  259.900
ROOT
ATOM      1  O   UNL     1      -4.965   0.876   1.593  1.00  0.00    -0.273 OA
ATOM      2  N   UNL     1      -5.632  -0.546   3.255  1.00  0.00    -0.343 N 
ATOM      3  C   UNL     1      -4.846  -0.202   2.176  1.00  0.00     0.243 C 
ATOM      4  H   UNL     1      -5.496  -1.436   3.720  1.00  0.00     0.164 HD
ENDROOT
BRANCH   2   5
ATOM      5  C   UNL     1      -6.730   0.315   3.679  1.00  0.00     0.171 C 
ATOM      6  C   UNL     1      -8.993  -0.110   5.441  1.00  0.00     0.214 C 
ATOM      7  N   UNL     1      -9.132  -0.379   4.029  1.00  0.00    -0.303 N 
ATOM      8  C   UNL     1      -7.989   0.990   5.748  1.00  0.00     0.057 C 
ATOM      9  C   UNL     1      -8.078  -0.245   3.140  1.00  0.00     0.247 C 
ATOM     10  C   UNL     1      -6.638   0.627   5.171  1.00  0.00     0.040 C 
ATOM     11  O   UNL     1      -8.182  -0.560   1.947  1.00  0.00    -0.272 OA
BRANCH   6  12
ATOM     12  O   UNL     1      -8.614  -1.311   6.072  1.00  0.00    -0.373 OA
ATOM     13  H   UNL     1      -9.428  -1.702   6.458  1.00  0.00     0.213 HD
ENDBRANCH   6  12
BRANCH   7  14
ATOM     14  C   UNL     1     -10.420  -0.950   3.579  1.00  0.00     0.177 C 
BRANCH  14  15
ATOM     15  C   UNL     1     -11.057  -0.252   2.362  1.00  0.00     0.038 C 
BRANCH  15  16
ATOM     16  C   UNL     1     -11.815  -1.094   1.312  1.00  0.00    -0.015 C 
ATOM     17  C   UNL     1     -10.868  -1.822   0.353  1.00  0.00     0.007 C 
ATOM     18  C   UNL     1     -12.734  -0.187   0.484  1.00  0.00     0.007 C 
ENDBRANCH  15  16
ENDBRANCH  14  15
BRANCH  14  19
ATOM     19  C   UNL     1     -10.461  -2.490   3.866  1.00  0.00     0.245 C 
ATOM     20  O   UNL     1      -9.456  -3.146   3.543  1.00  0.00    -0.272 OA
BRANCH  19  21
ATOM     21  N   UNL     1     -11.575  -3.157   4.342  1.00  0.00    -0.332 N 
ATOM     22  C   UNL     1     -12.048  -4.448   3.877  1.00  0.00     0.147 C 
BRANCH  21  23
ATOM     23  C   UNL     1     -12.373  -2.500   5.415  1.00  0.00     0.178 C 
BRANCH  23  24
ATOM     24  C   UNL     1     -13.821  -2.145   5.017  1.00  0.00     0.070 C 
BRANCH  24  25
ATOM     25  C   UNL     1     -14.178  -0.679   4.955  1.00  0.00    -0.045 A 
ATOM     26  C   UNL     1     -14.427  -0.052   3.727  1.00  0.00     0.004 A 
ATOM     27  C   UNL     1     -14.260   0.080   6.132  1.00  0.00     0.004 A 
ATOM     28  C   UNL     1     -14.739   1.308   3.677  1.00  0.00     0.000 A 
ATOM     29  C   UNL     1     -14.574   1.439   6.081  1.00  0.00     0.000 A 
ATOM     30  C   UNL     1     -14.810   2.053   4.852  1.00  0.00     0.000 A 
ENDBRANCH  24  25
ENDBRANCH  23  24
BRANCH  23  31
ATOM     31  C   UNL     1     -12.227  -3.196   6.788  1.00  0.00     0.243 C 
ATOM     32  O   UNL     1     -11.148  -3.490   7.298  1.00  0.00    -0.273 OA
ATOM     33  N   UNL     1     -13.429  -3.633   7.318  1.00  0.00    -0.341 N 
ATOM     34  H   UNL     1     -14.295  -3.362   6.845  1.00  0.00     0.164 HD
BRANCH  33  35
ATOM     35  C   UNL     1     -13.520  -4.421   8.551  1.00  0.00     0.194 C 
BRANCH  35  36
ATOM     36  C   UNL     1     -14.120  -5.841   8.353  1.00  0.00     0.017 C 
ATOM     37  C   UNL     1     -13.122  -6.934   8.774  1.00  0.00     0.010 C 
ATOM     38  C   UNL     1     -14.531  -6.128   6.904  1.00  0.00     0.010 C 
ENDBRANCH  35  36
BRANCH  35  39
ATOM     39  C   UNL     1     -14.222  -3.649   9.703  1.00  0.00     0.329 C 
ATOM     40  O   UNL     1     -13.636  -3.188  10.676  1.00  0.00    -0.250 OA
BRANCH  39  41
ATOM     41  O   UNL     1     -15.556  -3.464   9.468  1.00  0.00    -0.458 OA
BRANCH  41  42
ATOM     42  C   UNL     1     -16.443  -3.707  10.586  1.00  0.00     0.205 CG0
ATOM     43  C   UNL     1     -17.106  -5.063  10.355  1.00  0.00     0.056 C 
ATOM     44  G   UNL     1     -17.466  -2.555  10.661  1.00  0.00     0.000 G0
ENDBRANCH  41  42
ENDBRANCH  39  41
ENDBRANCH  35  39
ENDBRANCH  33  35
ENDBRANCH  23  31
ENDBRANCH  21  23
ENDBRANCH  19  21
ENDBRANCH  14  19
ENDBRANCH   7  14
ENDBRANCH   2   5
BRANCH   3  45
ATOM     45  C   UNL     1      -3.798  -1.245   1.767  1.00  0.00     0.171 C 
BRANCH  45  46
ATOM     46  N   UNL     1      -3.228  -0.762   0.516  1.00  0.00    -0.342 N 
ATOM     47  C   UNL     1      -1.906  -0.936   0.193  1.00  0.00     0.247 C 
ATOM     48  O   UNL     1      -1.125  -1.575   0.899  1.00  0.00    -0.273 OA
ATOM     49  H   UNL     1      -3.854  -0.276  -0.123  1.00  0.00     0.164 HD
BRANCH  47  50
ATOM     50  C   UNL     1      -1.458  -0.252  -1.106  1.00  0.00     0.212 CG0
ATOM     51  G   UNL     1      -0.982  -1.353  -2.074  1.00  0.00     0.000 G0
BRANCH  50  52
ATOM     52  N   UNL     1      -2.631   0.474  -1.588  1.00  0.00    -0.339 N 
ATOM     53  C   UNL     1      -2.724   1.004  -2.852  1.00  0.00     0.243 C 
ATOM     54  O   UNL     1      -1.801   0.954  -3.660  1.00  0.00    -0.273 OA
ATOM     55  H   UNL     1      -3.386   0.645  -0.927  1.00  0.00     0.164 HD
BRANCH  53  56
ATOM     56  C   UNL     1      -4.020   1.801  -3.104  1.00  0.00     0.182 C 
BRANCH  56  57
ATOM     57  N   UNL     1      -5.096   0.921  -3.573  1.00  0.00    -0.344 N 
ATOM     58  C   UNL     1      -6.050   0.410  -2.727  1.00  0.00     0.220 C 
ATOM     59  O   UNL     1      -6.028   0.592  -1.515  1.00  0.00    -0.275 OA
ATOM     60  H   UNL     1      -5.209   0.828  -4.579  1.00  0.00     0.164 HD
BRANCH  58  61
ATOM     61  C   UNL     1      -7.098  -0.426  -3.438  1.00  0.00     0.100 C 
BRANCH  61  62
ATOM     62  C   UNL     1      -8.371  -0.644  -2.620  1.00  0.00     0.010 C 
BRANCH  62  63
ATOM     63  C   UNL     1      -9.632  -0.037  -3.248  1.00  0.00     0.000 C 
BRANCH  63  64
ATOM     64  C   UNL     1     -10.857  -0.948  -3.201  1.00  0.00    -0.003 C 
ATOM     65  C   UNL     1     -10.524  -2.352  -3.685  1.00  0.00     0.004 C 
ENDBRANCH  63  64
ENDBRANCH  62  63
ENDBRANCH  61  62
ENDBRANCH  58  61
ENDBRANCH  56  57
BRANCH  56  66
ATOM     66  C   UNL     1      -3.781   2.975  -4.051  1.00  0.00     0.157 C 
BRANCH  66  67
ATOM     67  C   UNL     1      -5.049   3.739  -4.301  1.00  0.00     0.305 C 
ATOM     68  O   UNL     1      -5.906   3.484  -5.134  1.00  0.00    -0.252 OA
BRANCH  67  69
ATOM     69  O   UNL     1      -5.204   4.768  -3.446  1.00  0.00    -0.481 OA
ATOM     70  H   UNL     1      -5.481   4.352  -2.602  1.00  0.00     0.296 HD
ENDBRANCH  67  69
ENDBRANCH  66  67
ENDBRANCH  56  66
ENDBRANCH  53  56
ENDBRANCH  50  52
ENDBRANCH  47  50
ENDBRANCH  45  46
BRANCH  45  71
ATOM     71  C   UNL     1      -4.453  -2.621   1.596  1.00  0.00     0.037 C 
BRANCH  71  72
ATOM     72  C   UNL     1      -5.409  -2.658   0.401  1.00  0.00     0.026 C 
BRANCH  72  73
ATOM     73  C   UNL     1      -5.070  -3.803  -0.552  1.00  0.00     0.146 C 
BRANCH  73  74
ATOM     74  N   UNL     1      -3.636  -4.059  -0.451  1.00  0.00    -0.254 NA
ATOM     75  C   UNL     1      -2.898  -3.733  -1.447  1.00  0.00     0.185 C 
ATOM     76  N   UNL     1      -1.575  -3.955  -1.383  1.00  0.00    -0.370 N 
ATOM     77  N   UNL     1      -3.255  -3.170  -2.615  1.00  0.00    -0.370 N 
ATOM     78  H   UNL     1      -1.223  -4.384  -0.539  1.00  0.00     0.159 HD
ATOM     79  H   UNL     1      -0.959  -3.861  -2.172  1.00  0.00     0.159 HD
ATOM     80  H   UNL     1      -4.220  -2.943  -2.802  1.00  0.00     0.159 HD
ATOM     81  H   UNL     1      -2.568  -2.852  -3.279  1.00  0.00     0.159 HD
ENDBRANCH  73  74
ENDBRANCH  72  73
ENDBRANCH  71  72
ENDBRANCH  45  71
ENDBRANCH   3  45
TORSDOF 20
ENDMDL
MODEL 23
REMARK VINA RESULT:    -5.980      9.630     14.984
REMARK INTER + INTRA:         -22.935
REMARK INTER:                 -16.820
REMARK INTRA:                  -6.114
REMARK UNBOUND:                -5.767
REMARK SMILES CCCCCC(=O)N[C@H](CC(=O)O)C(=O)N[C@H]1C(=O)N[C@H](CCCN=C(N)N)C(=O)N[C@@H]2CC[C@H](O)N(C2=O)[C@@H](CC(C)C)C(=O)N(C)[C@@H](Cc2ccccc2)C(=O)N[C@H](C(C)C)C(=O)O[C@@H]1C
REMARK SMILES IDX 30 1 31 2 29 3 32 5 35 6 37 7 34 8 38 9 33 10 39 11 36 12
REMARK SMILES IDX 40 14 41 15 42 16 43 17 44 18 45 19 46 20 47 21 48 22 49 23
REMARK SMILES IDX 50 24 51 25 52 26 56 27 53 28 55 29 54 30 57 31 58 32 59 33
REMARK SMILES IDX 60 35 61 36 62 37 63 38 64 39 65 40 66 41 67 42 68 43 21 45
REMARK SMILES IDX 20 46 18 47 19 48 17 50 16 52 14 53 15 54 9 56 8 57 6 58
REMARK SMILES IDX 7 59 5 61 4 62 3 63 2 64 1 65 10 66 11 67 12 68 13 69 22 71
REMARK SMILES IDX 23 72 24 73 25 74 26 75 27 76 28 77
REMARK H PARENT 31 4 36 13 59 34 20 49 16 55 8 60 13 70 27 78 27 79 28 80
REMARK H PARENT 28 81
REMARK Flexibility Score:  259.900
ROOT
ATOM      1  O   UNL     1      -9.298  -2.038   4.753  1.00  0.00    -0.273 OA
ATOM      2  N   UNL     1      -9.946  -0.588   6.399  1.00  0.00    -0.343 N 
ATOM      3  C   UNL     1      -9.923  -1.826   5.792  1.00  0.00     0.243 C 
ATOM      4  H   UNL     1     -10.460  -0.455   7.262  1.00  0.00     0.164 HD
ENDROOT
BRANCH   2   5
ATOM      5  C   UNL     1      -9.320   0.564   5.760  1.00  0.00     0.171 C 
ATOM      6  C   UNL     1      -7.275   0.807   3.720  1.00  0.00     0.214 C 
ATOM      7  N   UNL     1      -6.890   0.783   5.112  1.00  0.00    -0.303 N 
ATOM      8  C   UNL     1      -8.652   1.406   3.487  1.00  0.00     0.057 C 
ATOM      9  C   UNL     1      -7.811   0.618   6.134  1.00  0.00     0.247 C 
ATOM     10  C   UNL     1      -9.687   0.636   4.279  1.00  0.00     0.040 C 
ATOM     11  O   UNL     1      -7.465   0.511   7.318  1.00  0.00    -0.272 OA
BRANCH   6  12
ATOM     12  O   UNL     1      -7.224  -0.515   3.236  1.00  0.00    -0.373 OA
ATOM     13  H   UNL     1      -6.288  -0.805   3.287  1.00  0.00     0.213 HD
ENDBRANCH   6  12
BRANCH   7  14
ATOM     14  C   UNL     1      -5.442   0.794   5.407  1.00  0.00     0.177 C 
BRANCH  14  15
ATOM     15  C   UNL     1      -4.547   0.156   4.327  1.00  0.00     0.038 C 
BRANCH  15  16
ATOM     16  C   UNL     1      -3.971  -1.259   4.554  1.00  0.00    -0.015 C 
ATOM     17  C   UNL     1      -4.452  -1.882   5.868  1.00  0.00     0.007 C 
ATOM     18  C   UNL     1      -2.438  -1.197   4.584  1.00  0.00     0.007 C 
ENDBRANCH  15  16
ENDBRANCH  14  15
BRANCH  14  19
ATOM     19  C   UNL     1      -5.071   2.053   6.265  1.00  0.00     0.245 C 
ATOM     20  O   UNL     1      -5.640   3.118   5.969  1.00  0.00    -0.272 OA
BRANCH  19  21
ATOM     21  N   UNL     1      -4.085   2.063   7.234  1.00  0.00    -0.332 N 
ATOM     22  C   UNL     1      -3.320   0.908   7.670  1.00  0.00     0.147 C 
BRANCH  21  23
ATOM     23  C   UNL     1      -3.779   3.358   7.903  1.00  0.00     0.178 C 
BRANCH  23  24
ATOM     24  C   UNL     1      -3.895   3.334   9.441  1.00  0.00     0.070 C 
BRANCH  24  25
ATOM     25  C   UNL     1      -5.269   3.096  10.023  1.00  0.00    -0.045 A 
ATOM     26  C   UNL     1      -5.653   1.821  10.456  1.00  0.00     0.004 A 
ATOM     27  C   UNL     1      -6.184   4.154  10.134  1.00  0.00     0.004 A 
ATOM     28  C   UNL     1      -6.931   1.605  10.978  1.00  0.00     0.000 A 
ATOM     29  C   UNL     1      -7.460   3.937  10.656  1.00  0.00     0.000 A 
ATOM     30  C   UNL     1      -7.833   2.662  11.075  1.00  0.00     0.000 A 
ENDBRANCH  24  25
ENDBRANCH  23  24
BRANCH  23  31
ATOM     31  C   UNL     1      -2.497   4.031   7.357  1.00  0.00     0.243 C 
ATOM     32  O   UNL     1      -2.116   3.940   6.193  1.00  0.00    -0.273 OA
ATOM     33  N   UNL     1      -1.708   4.599   8.343  1.00  0.00    -0.341 N 
ATOM     34  H   UNL     1      -2.076   4.640   9.296  1.00  0.00     0.164 HD
BRANCH  33  35
ATOM     35  C   UNL     1      -0.393   5.187   8.073  1.00  0.00     0.194 C 
BRANCH  35  36
ATOM     36  C   UNL     1       0.789   4.439   8.752  1.00  0.00     0.017 C 
ATOM     37  C   UNL     1       1.105   3.119   8.029  1.00  0.00     0.010 C 
ATOM     38  C   UNL     1       0.524   4.103  10.225  1.00  0.00     0.010 C 
ENDBRANCH  35  36
BRANCH  35  39
ATOM     39  C   UNL     1      -0.352   6.715   8.356  1.00  0.00     0.329 C 
ATOM     40  O   UNL     1      -0.610   7.219   9.442  1.00  0.00    -0.250 OA
BRANCH  39  41
ATOM     41  O   UNL     1       0.090   7.432   7.278  1.00  0.00    -0.458 OA
BRANCH  41  42
ATOM     42  C   UNL     1       0.719   8.703   7.568  1.00  0.00     0.205 CG0
ATOM     43  C   UNL     1       1.839   8.898   6.548  1.00  0.00     0.056 C 
ATOM     44  G   UNL     1       1.240   8.675   9.018  1.00  0.00     0.000 G0
ENDBRANCH  41  42
ENDBRANCH  39  41
ENDBRANCH  35  39
ENDBRANCH  33  35
ENDBRANCH  23  31
ENDBRANCH  21  23
ENDBRANCH  19  21
ENDBRANCH  14  19
ENDBRANCH   7  14
ENDBRANCH   2   5
BRANCH   3  45
ATOM     45  C   UNL     1     -10.712  -2.926   6.514  1.00  0.00     0.171 C 
BRANCH  45  46
ATOM     46  N   UNL     1     -12.011  -2.975   5.856  1.00  0.00    -0.342 N 
ATOM     47  C   UNL     1     -12.380  -4.008   5.031  1.00  0.00     0.247 C 
ATOM     48  O   UNL     1     -11.674  -5.000   4.846  1.00  0.00    -0.273 OA
ATOM     49  H   UNL     1     -12.650  -2.201   6.028  1.00  0.00     0.164 HD
BRANCH  47  50
ATOM     50  C   UNL     1     -13.733  -3.828   4.329  1.00  0.00     0.212 CG0
ATOM     51  G   UNL     1     -14.625  -5.024   4.717  1.00  0.00     0.000 G0
BRANCH  50  52
ATOM     52  N   UNL     1     -14.250  -2.546   4.802  1.00  0.00    -0.339 N 
ATOM     53  C   UNL     1     -15.523  -2.378   5.290  1.00  0.00     0.243 C 
ATOM     54  O   UNL     1     -16.348  -3.288   5.316  1.00  0.00    -0.273 OA
ATOM     55  H   UNL     1     -13.651  -1.729   4.703  1.00  0.00     0.164 HD
BRANCH  53  56
ATOM     56  C   UNL     1     -15.870  -0.919   5.648  1.00  0.00     0.182 C 
BRANCH  56  57
ATOM     57  N   UNL     1     -15.391   0.005   4.615  1.00  0.00    -0.344 N 
ATOM     58  C   UNL     1     -16.246   0.752   3.842  1.00  0.00     0.220 C 
ATOM     59  O   UNL     1     -17.466   0.646   3.910  1.00  0.00    -0.275 OA
ATOM     60  H   UNL     1     -14.393   0.197   4.596  1.00  0.00     0.164 HD
BRANCH  58  61
ATOM     61  C   UNL     1     -15.530   1.682   2.880  1.00  0.00     0.100 C 
BRANCH  61  62
ATOM     62  C   UNL     1     -16.079   1.634   1.454  1.00  0.00     0.010 C 
BRANCH  62  63
ATOM     63  C   UNL     1     -15.364   0.631   0.540  1.00  0.00     0.000 C 
BRANCH  63  64
ATOM     64  C   UNL     1     -14.177  -0.077   1.192  1.00  0.00    -0.003 C 
ATOM     65  C   UNL     1     -13.182  -0.567   0.150  1.00  0.00     0.004 C 
ENDBRANCH  63  64
ENDBRANCH  62  63
ENDBRANCH  61  62
ENDBRANCH  58  61
ENDBRANCH  56  57
BRANCH  56  66
ATOM     66  C   UNL     1     -15.357  -0.546   7.038  1.00  0.00     0.157 C 
BRANCH  66  67
ATOM     67  C   UNL     1     -14.084   0.246   6.953  1.00  0.00     0.305 C 
ATOM     68  O   UNL     1     -12.991  -0.161   6.593  1.00  0.00    -0.252 OA
BRANCH  67  69
ATOM     69  O   UNL     1     -14.264   1.540   7.281  1.00  0.00    -0.481 OA
ATOM     70  H   UNL     1     -15.199   1.728   7.052  1.00  0.00     0.296 HD
ENDBRANCH  67  69
ENDBRANCH  66  67
ENDBRANCH  56  66
ENDBRANCH  53  56
ENDBRANCH  50  52
ENDBRANCH  47  50
ENDBRANCH  45  46
BRANCH  45  71
ATOM     71  C   UNL     1     -10.845  -2.597   8.005  1.00  0.00     0.037 C 
BRANCH  71  72
ATOM     72  C   UNL     1     -11.575  -3.701   8.775  1.00  0.00     0.026 C 
BRANCH  72  73
ATOM     73  C   UNL     1     -12.987  -3.272   9.166  1.00  0.00     0.146 C 
BRANCH  73  74
ATOM     74  N   UNL     1     -13.896  -3.709   8.111  1.00  0.00    -0.254 NA
ATOM     75  C   UNL     1     -14.397  -4.885   8.200  1.00  0.00     0.185 C 
ATOM     76  N   UNL     1     -15.237  -5.315   7.245  1.00  0.00    -0.370 N 
ATOM     77  N   UNL     1     -14.206  -5.814   9.153  1.00  0.00    -0.370 N 
ATOM     78  H   UNL     1     -15.429  -4.679   6.484  1.00  0.00     0.159 HD
ATOM     79  H   UNL     1     -15.551  -6.267   7.171  1.00  0.00     0.159 HD
ATOM     80  H   UNL     1     -13.601  -5.628   9.939  1.00  0.00     0.159 HD
ATOM     81  H   UNL     1     -14.746  -6.664   9.178  1.00  0.00     0.159 HD
ENDBRANCH  73  74
ENDBRANCH  72  73
ENDBRANCH  71  72
ENDBRANCH  45  71
ENDBRANCH   3  45
TORSDOF 20
ENDMDL
MODEL 24
REMARK VINA RESULT:    -5.938      6.369     11.036
REMARK INTER + INTRA:         -22.812
REMARK INTER:                 -16.874
REMARK INTRA:                  -5.938
REMARK UNBOUND:                -5.767
REMARK SMILES CCCCCC(=O)N[C@H](CC(=O)O)C(=O)N[C@H]1C(=O)N[C@H](CCCN=C(N)N)C(=O)N[C@@H]2CC[C@H](O)N(C2=O)[C@@H](CC(C)C)C(=O)N(C)[C@@H](Cc2ccccc2)C(=O)N[C@H](C(C)C)C(=O)O[C@@H]1C
REMARK SMILES IDX 30 1 31 2 29 3 32 5 35 6 37 7 34 8 38 9 33 10 39 11 36 12
REMARK SMILES IDX 40 14 41 15 42 16 43 17 44 18 45 19 46 20 47 21 48 22 49 23
REMARK SMILES IDX 50 24 51 25 52 26 56 27 53 28 55 29 54 30 57 31 58 32 59 33
REMARK SMILES IDX 60 35 61 36 62 37 63 38 64 39 65 40 66 41 67 42 68 43 21 45
REMARK SMILES IDX 20 46 18 47 19 48 17 50 16 52 14 53 15 54 9 56 8 57 6 58
REMARK SMILES IDX 7 59 5 61 4 62 3 63 2 64 1 65 10 66 11 67 12 68 13 69 22 71
REMARK SMILES IDX 23 72 24 73 25 74 26 75 27 76 28 77
REMARK H PARENT 31 4 36 13 59 34 20 49 16 55 8 60 13 70 27 78 27 79 28 80
REMARK H PARENT 28 81
REMARK Flexibility Score:  259.900
ROOT
ATOM      1  O   UNL     1      -4.859  -2.730   1.949  1.00  0.00    -0.273 OA
ATOM      2  N   UNL     1      -6.951  -2.308   1.127  1.00  0.00    -0.343 N 
ATOM      3  C   UNL     1      -5.609  -2.029   1.269  1.00  0.00     0.243 C 
ATOM      4  H   UNL     1      -7.535  -1.718   0.548  1.00  0.00     0.164 HD
ENDROOT
BRANCH   2   5
ATOM      5  C   UNL     1      -7.567  -3.393   1.884  1.00  0.00     0.171 C 
ATOM      6  C   UNL     1      -9.905  -5.040   1.406  1.00  0.00     0.214 C 
ATOM      7  N   UNL     1     -10.041  -3.815   2.158  1.00  0.00    -0.303 N 
ATOM      8  C   UNL     1      -8.538  -5.690   1.556  1.00  0.00     0.057 C 
ATOM      9  C   UNL     1      -8.976  -2.957   2.379  1.00  0.00     0.247 C 
ATOM     10  C   UNL     1      -7.459  -4.718   1.130  1.00  0.00     0.040 C 
ATOM     11  O   UNL     1      -9.119  -1.867   2.949  1.00  0.00    -0.272 OA
BRANCH   6  12
ATOM     12  O   UNL     1     -10.164  -4.746   0.053  1.00  0.00    -0.373 OA
ATOM     13  H   UNL     1      -9.572  -4.005  -0.199  1.00  0.00     0.213 HD
ENDBRANCH   6  12
BRANCH   7  14
ATOM     14  C   UNL     1     -11.408  -3.428   2.567  1.00  0.00     0.177 C 
BRANCH  14  15
ATOM     15  C   UNL     1     -12.234  -2.700   1.488  1.00  0.00     0.038 C 
BRANCH  15  16
ATOM     16  C   UNL     1     -13.013  -1.420   1.861  1.00  0.00    -0.015 C 
ATOM     17  C   UNL     1     -13.024  -0.391   0.727  1.00  0.00     0.007 C 
ATOM     18  C   UNL     1     -12.378  -0.767   3.095  1.00  0.00     0.007 C 
ENDBRANCH  15  16
ENDBRANCH  14  15
BRANCH  14  19
ATOM     19  C   UNL     1     -11.977  -4.456   3.605  1.00  0.00     0.245 C 
ATOM     20  O   UNL     1     -11.474  -4.439   4.741  1.00  0.00    -0.272 OA
BRANCH  19  21
ATOM     21  N   UNL     1     -12.907  -5.432   3.294  1.00  0.00    -0.332 N 
ATOM     22  C   UNL     1     -12.599  -6.759   2.792  1.00  0.00     0.147 C 
BRANCH  21  23
ATOM     23  C   UNL     1     -14.348  -5.102   3.473  1.00  0.00     0.178 C 
BRANCH  23  24
ATOM     24  C   UNL     1     -15.179  -5.113   2.174  1.00  0.00     0.070 C 
BRANCH  24  25
ATOM     25  C   UNL     1     -15.756  -3.794   1.715  1.00  0.00    -0.045 A 
ATOM     26  C   UNL     1     -15.780  -3.455   0.356  1.00  0.00     0.004 A 
ATOM     27  C   UNL     1     -16.274  -2.885   2.650  1.00  0.00     0.004 A 
ATOM     28  C   UNL     1     -16.299  -2.227  -0.058  1.00  0.00     0.000 A 
ATOM     29  C   UNL     1     -16.794  -1.658   2.234  1.00  0.00     0.000 A 
ATOM     30  C   UNL     1     -16.803  -1.329   0.880  1.00  0.00     0.000 A 
ENDBRANCH  24  25
ENDBRANCH  23  24
BRANCH  23  31
ATOM     31  C   UNL     1     -14.993  -5.847   4.666  1.00  0.00     0.243 C 
ATOM     32  O   UNL     1     -15.520  -6.954   4.581  1.00  0.00    -0.273 OA
ATOM     33  N   UNL     1     -15.093  -5.075   5.811  1.00  0.00    -0.341 N 
ATOM     34  H   UNL     1     -14.639  -4.159   5.820  1.00  0.00     0.164 HD
BRANCH  33  35
ATOM     35  C   UNL     1     -15.775  -5.532   7.025  1.00  0.00     0.194 C 
BRANCH  35  36
ATOM     36  C   UNL     1     -14.946  -6.531   7.881  1.00  0.00     0.017 C 
ATOM     37  C   UNL     1     -15.037  -6.193   9.379  1.00  0.00     0.010 C 
ATOM     38  C   UNL     1     -13.459  -6.559   7.507  1.00  0.00     0.010 C 
ENDBRANCH  35  36
BRANCH  35  39
ATOM     39  C   UNL     1     -17.209  -6.061   6.742  1.00  0.00     0.329 C 
ATOM     40  O   UNL     1     -18.071  -5.423   6.150  1.00  0.00    -0.250 OA
BRANCH  39  41
ATOM     41  O   UNL     1     -17.376  -7.355   7.153  1.00  0.00    -0.458 OA
BRANCH  41  42
ATOM     42  C   UNL     1     -18.666  -7.686   7.720  1.00  0.00     0.205 CG0
ATOM     43  C   UNL     1     -18.716  -7.076   9.120  1.00  0.00     0.056 C 
ATOM     44  G   UNL     1     -18.816  -9.220   7.740  1.00  0.00     0.000 G0
ENDBRANCH  41  42
ENDBRANCH  39  41
ENDBRANCH  35  39
ENDBRANCH  33  35
ENDBRANCH  23  31
ENDBRANCH  21  23
ENDBRANCH  19  21
ENDBRANCH  14  19
ENDBRANCH   7  14
ENDBRANCH   2   5
BRANCH   3  45
ATOM     45  C   UNL     1      -5.110  -0.796   0.503  1.00  0.00     0.171 C 
BRANCH  45  46
ATOM     46  N   UNL     1      -3.669  -0.760   0.711  1.00  0.00    -0.342 N 
ATOM     47  C   UNL     1      -2.773  -1.014  -0.296  1.00  0.00     0.247 C 
ATOM     48  O   UNL     1      -3.117  -1.218  -1.461  1.00  0.00    -0.273 OA
ATOM     49  H   UNL     1      -3.339  -0.539   1.649  1.00  0.00     0.164 HD
BRANCH  47  50
ATOM     50  C   UNL     1      -1.301  -1.053   0.137  1.00  0.00     0.212 CG0
ATOM     51  G   UNL     1      -0.577   0.116  -0.559  1.00  0.00     0.000 G0
BRANCH  50  52
ATOM     52  N   UNL     1      -1.320  -0.936   1.593  1.00  0.00    -0.339 N 
ATOM     53  C   UNL     1      -0.376  -1.509   2.410  1.00  0.00     0.243 C 
ATOM     54  O   UNL     1       0.533  -2.213   1.979  1.00  0.00    -0.273 OA
ATOM     55  H   UNL     1      -2.112  -0.458   2.018  1.00  0.00     0.164 HD
BRANCH  53  56
ATOM     56  C   UNL     1      -0.652  -1.322   3.915  1.00  0.00     0.182 C 
BRANCH  56  57
ATOM     57  N   UNL     1      -1.440  -0.109   4.160  1.00  0.00    -0.344 N 
ATOM     58  C   UNL     1      -2.174   0.073   5.306  1.00  0.00     0.220 C 
ATOM     59  O   UNL     1      -2.281  -0.791   6.170  1.00  0.00    -0.275 OA
ATOM     60  H   UNL     1      -1.298   0.668   3.520  1.00  0.00     0.164 HD
BRANCH  58  61
ATOM     61  C   UNL     1      -2.861   1.424   5.372  1.00  0.00     0.100 C 
BRANCH  61  62
ATOM     62  C   UNL     1      -3.559   1.697   6.704  1.00  0.00     0.010 C 
BRANCH  62  63
ATOM     63  C   UNL     1      -4.257   3.061   6.780  1.00  0.00     0.000 C 
BRANCH  63  64
ATOM     64  C   UNL     1      -5.772   3.001   6.590  1.00  0.00    -0.003 C 
ATOM     65  C   UNL     1      -6.347   1.695   7.120  1.00  0.00     0.004 C 
ENDBRANCH  63  64
ENDBRANCH  62  63
ENDBRANCH  61  62
ENDBRANCH  58  61
ENDBRANCH  56  57
BRANCH  56  66
ATOM     66  C   UNL     1       0.640  -1.344   4.729  1.00  0.00     0.157 C 
BRANCH  66  67
ATOM     67  C   UNL     1       0.825  -2.663   5.422  1.00  0.00     0.305 C 
ATOM     68  O   UNL     1       0.421  -2.969   6.534  1.00  0.00    -0.252 OA
BRANCH  67  69
ATOM     69  O   UNL     1       1.472  -3.559   4.653  1.00  0.00    -0.481 OA
ATOM     70  H   UNL     1       1.859  -3.030   3.924  1.00  0.00     0.296 HD
ENDBRANCH  67  69
ENDBRANCH  66  67
ENDBRANCH  56  66
ENDBRANCH  53  56
ENDBRANCH  50  52
ENDBRANCH  47  50
ENDBRANCH  45  46
BRANCH  45  71
ATOM     71  C   UNL     1      -5.790   0.472   1.032  1.00  0.00     0.037 C 
BRANCH  71  72
ATOM     72  C   UNL     1      -5.206   0.922   2.373  1.00  0.00     0.026 C 
BRANCH  72  73
ATOM     73  C   UNL     1      -6.295   1.095   3.429  1.00  0.00     0.146 C 
BRANCH  73  74
ATOM     74  N   UNL     1      -7.374   1.879   2.834  1.00  0.00    -0.254 NA
ATOM     75  C   UNL     1      -8.556   1.723   3.303  1.00  0.00     0.185 C 
ATOM     76  N   UNL     1      -9.569   2.430   2.778  1.00  0.00    -0.370 N 
ATOM     77  N   UNL     1      -8.972   0.917   4.296  1.00  0.00    -0.370 N 
ATOM     78  H   UNL     1      -9.344   3.057   2.018  1.00  0.00     0.159 HD
ATOM     79  H   UNL     1     -10.536   2.257   2.992  1.00  0.00     0.159 HD
ATOM     80  H   UNL     1      -8.317   0.328   4.788  1.00  0.00     0.159 HD
ATOM     81  H   UNL     1      -9.911   0.964   4.657  1.00  0.00     0.159 HD
ENDBRANCH  73  74
ENDBRANCH  72  73
ENDBRANCH  71  72
ENDBRANCH  45  71
ENDBRANCH   3  45
TORSDOF 20
ENDMDL
MODEL 25
REMARK VINA RESULT:    -5.922      4.851      8.689
REMARK INTER + INTRA:         -22.767
REMARK INTER:                 -16.326
REMARK INTRA:                  -6.442
REMARK UNBOUND:                -5.767
REMARK SMILES CCCCCC(=O)N[C@H](CC(=O)O)C(=O)N[C@H]1C(=O)N[C@H](CCCN=C(N)N)C(=O)N[C@@H]2CC[C@H](O)N(C2=O)[C@@H](CC(C)C)C(=O)N(C)[C@@H](Cc2ccccc2)C(=O)N[C@H](C(C)C)C(=O)O[C@@H]1C
REMARK SMILES IDX 30 1 31 2 29 3 32 5 35 6 37 7 34 8 38 9 33 10 39 11 36 12
REMARK SMILES IDX 40 14 41 15 42 16 43 17 44 18 45 19 46 20 47 21 48 22 49 23
REMARK SMILES IDX 50 24 51 25 52 26 56 27 53 28 55 29 54 30 57 31 58 32 59 33
REMARK SMILES IDX 60 35 61 36 62 37 63 38 64 39 65 40 66 41 67 42 68 43 21 45
REMARK SMILES IDX 20 46 18 47 19 48 17 50 16 52 14 53 15 54 9 56 8 57 6 58
REMARK SMILES IDX 7 59 5 61 4 62 3 63 2 64 1 65 10 66 11 67 12 68 13 69 22 71
REMARK SMILES IDX 23 72 24 73 25 74 26 75 27 76 28 77
REMARK H PARENT 31 4 36 13 59 34 20 49 16 55 8 60 13 70 27 78 27 79 28 80
REMARK H PARENT 28 81
REMARK Flexibility Score:  259.900
ROOT
ATOM      1  O   UNL     1      -3.887  -2.012   1.264  1.00  0.00    -0.273 OA
ATOM      2  N   UNL     1      -5.140  -1.362   3.063  1.00  0.00    -0.343 N 
ATOM      3  C   UNL     1      -4.966  -2.006   1.856  1.00  0.00     0.243 C 
ATOM      4  H   UNL     1      -6.039  -1.391   3.529  1.00  0.00     0.164 HD
ENDROOT
BRANCH   2   5
ATOM      5  C   UNL     1      -4.070  -0.553   3.634  1.00  0.00     0.171 C 
ATOM      6  C   UNL     1      -3.532   0.375   6.328  1.00  0.00     0.214 C 
ATOM      7  N   UNL     1      -4.311   1.200   5.435  1.00  0.00    -0.303 N 
ATOM      8  C   UNL     1      -2.513  -0.495   5.608  1.00  0.00     0.057 C 
ATOM      9  C   UNL     1      -4.647   0.795   4.153  1.00  0.00     0.247 C 
ATOM     10  C   UNL     1      -3.214  -1.375   4.597  1.00  0.00     0.040 C 
ATOM     11  O   UNL     1      -5.387   1.470   3.425  1.00  0.00    -0.272 OA
BRANCH   6  12
ATOM     12  O   UNL     1      -4.427  -0.424   7.067  1.00  0.00    -0.373 OA
ATOM     13  H   UNL     1      -4.127  -1.353   6.973  1.00  0.00     0.213 HD
ENDBRANCH   6  12
BRANCH   7  14
ATOM     14  C   UNL     1      -4.870   2.449   5.993  1.00  0.00     0.177 C 
BRANCH  14  15
ATOM     15  C   UNL     1      -6.384   2.419   6.282  1.00  0.00     0.038 C 
BRANCH  15  16
ATOM     16  C   UNL     1      -7.103   1.060   6.428  1.00  0.00    -0.015 C 
ATOM     17  C   UNL     1      -8.201   0.865   5.378  1.00  0.00     0.007 C 
ATOM     18  C   UNL     1      -7.745   0.960   7.818  1.00  0.00     0.007 C 
ENDBRANCH  15  16
ENDBRANCH  14  15
BRANCH  14  19
ATOM     19  C   UNL     1      -3.795   3.184   6.865  1.00  0.00     0.245 C 
ATOM     20  O   UNL     1      -2.887   3.773   6.255  1.00  0.00    -0.272 OA
BRANCH  19  21
ATOM     21  N   UNL     1      -3.744   3.115   8.246  1.00  0.00    -0.332 N 
ATOM     22  C   UNL     1      -2.615   2.638   9.025  1.00  0.00     0.147 C 
BRANCH  21  23
ATOM     23  C   UNL     1      -4.944   3.555   9.010  1.00  0.00     0.178 C 
BRANCH  23  24
ATOM     24  C   UNL     1      -5.048   2.978  10.437  1.00  0.00     0.070 C 
BRANCH  24  25
ATOM     25  C   UNL     1      -6.400   2.464  10.874  1.00  0.00    -0.045 A 
ATOM     26  C   UNL     1      -6.530   1.200  11.463  1.00  0.00     0.004 A 
ATOM     27  C   UNL     1      -7.549   3.248  10.691  1.00  0.00     0.004 A 
ATOM     28  C   UNL     1      -7.785   0.724  11.850  1.00  0.00     0.000 A 
ATOM     29  C   UNL     1      -8.802   2.772  11.079  1.00  0.00     0.000 A 
ATOM     30  C   UNL     1      -8.920   1.509  11.655  1.00  0.00     0.000 A 
ENDBRANCH  24  25
ENDBRANCH  23  24
BRANCH  23  31
ATOM     31  C   UNL     1      -5.206   5.076   8.900  1.00  0.00     0.243 C 
ATOM     32  O   UNL     1      -5.941   5.587   8.059  1.00  0.00    -0.273 OA
ATOM     33  N   UNL     1      -4.392   5.837   9.721  1.00  0.00    -0.341 N 
ATOM     34  H   UNL     1      -3.797   5.354  10.398  1.00  0.00     0.164 HD
BRANCH  33  35
ATOM     35  C   UNL     1      -4.382   7.303   9.699  1.00  0.00     0.194 C 
BRANCH  35  36
ATOM     36  C   UNL     1      -2.978   7.931   9.923  1.00  0.00     0.017 C 
ATOM     37  C   UNL     1      -2.196   7.178  11.014  1.00  0.00     0.010 C 
ATOM     38  C   UNL     1      -3.036   9.407  10.337  1.00  0.00     0.010 C 
ENDBRANCH  35  36
BRANCH  35  39
ATOM     39  C   UNL     1      -5.453   7.923  10.640  1.00  0.00     0.329 C 
ATOM     40  O   UNL     1      -6.325   8.699  10.269  1.00  0.00    -0.250 OA
BRANCH  39  41
ATOM     41  O   UNL     1      -5.367   7.437  11.915  1.00  0.00    -0.458 OA
BRANCH  41  42
ATOM     42  C   UNL     1      -5.562   8.397  12.981  1.00  0.00     0.205 CG0
ATOM     43  C   UNL     1      -4.348   8.305  13.903  1.00  0.00     0.056 C 
ATOM     44  G   UNL     1      -6.881   8.065  13.707  1.00  0.00     0.000 G0
ENDBRANCH  41  42
ENDBRANCH  39  41
ENDBRANCH  35  39
ENDBRANCH  33  35
ENDBRANCH  23  31
ENDBRANCH  21  23
ENDBRANCH  19  21
ENDBRANCH  14  19
ENDBRANCH   7  14
ENDBRANCH   2   5
BRANCH   3  45
ATOM     45  C   UNL     1      -6.204  -2.732   1.314  1.00  0.00     0.171 C 
BRANCH  45  46
ATOM     46  N   UNL     1      -5.979  -2.878  -0.118  1.00  0.00    -0.342 N 
ATOM     47  C   UNL     1      -5.537  -4.051  -0.677  1.00  0.00     0.247 C 
ATOM     48  O   UNL     1      -5.368  -5.081  -0.024  1.00  0.00    -0.273 OA
ATOM     49  H   UNL     1      -6.161  -2.065  -0.703  1.00  0.00     0.164 HD
BRANCH  47  50
ATOM     50  C   UNL     1      -5.237  -3.981  -2.181  1.00  0.00     0.212 CG0
ATOM     51  G   UNL     1      -6.580  -3.800  -2.917  1.00  0.00     0.000 G0
BRANCH  50  52
ATOM     52  N   UNL     1      -4.332  -2.847  -2.346  1.00  0.00    -0.339 N 
ATOM     53  C   UNL     1      -2.972  -2.933  -2.168  1.00  0.00     0.243 C 
ATOM     54  O   UNL     1      -2.417  -3.966  -1.802  1.00  0.00    -0.273 OA
ATOM     55  H   UNL     1      -4.744  -1.937  -2.541  1.00  0.00     0.164 HD
BRANCH  53  56
ATOM     56  C   UNL     1      -2.234  -1.587  -2.311  1.00  0.00     0.182 C 
BRANCH  56  57
ATOM     57  N   UNL     1      -2.336  -1.074  -3.681  1.00  0.00    -0.344 N 
ATOM     58  C   UNL     1      -2.454   0.266  -3.958  1.00  0.00     0.220 C 
ATOM     59  O   UNL     1      -2.557   1.118  -3.082  1.00  0.00    -0.275 OA
ATOM     60  H   UNL     1      -2.154  -1.732  -4.434  1.00  0.00     0.164 HD
BRANCH  58  61
ATOM     61  C   UNL     1      -2.485   0.572  -5.444  1.00  0.00     0.100 C 
BRANCH  61  62
ATOM     62  C   UNL     1      -3.823   0.254  -6.112  1.00  0.00     0.010 C 
BRANCH  62  63
ATOM     63  C   UNL     1      -4.788   1.445  -6.183  1.00  0.00     0.000 C 
BRANCH  63  64
ATOM     64  C   UNL     1      -6.134   1.202  -5.503  1.00  0.00    -0.003 C 
ATOM     65  C   UNL     1      -7.104   0.488  -6.434  1.00  0.00     0.004 C 
ENDBRANCH  63  64
ENDBRANCH  62  63
ENDBRANCH  61  62
ENDBRANCH  58  61
ENDBRANCH  56  57
BRANCH  56  66
ATOM     66  C   UNL     1      -0.784  -1.691  -1.841  1.00  0.00     0.157 C 
BRANCH  66  67
ATOM     67  C   UNL     1      -0.441  -0.581  -0.889  1.00  0.00     0.305 C 
ATOM     68  O   UNL     1       0.665  -0.315  -0.442  1.00  0.00    -0.252 OA
BRANCH  67  69
ATOM     69  O   UNL     1      -1.508   0.180  -0.584  1.00  0.00    -0.481 OA
ATOM     70  H   UNL     1      -2.043  -0.371   0.025  1.00  0.00     0.296 HD
ENDBRANCH  67  69
ENDBRANCH  66  67
ENDBRANCH  56  66
ENDBRANCH  53  56
ENDBRANCH  50  52
ENDBRANCH  47  50
ENDBRANCH  45  46
BRANCH  45  71
ATOM     71  C   UNL     1      -7.471  -1.919   1.607  1.00  0.00     0.037 C 
BRANCH  71  72
ATOM     72  C   UNL     1      -8.087  -1.335   0.334  1.00  0.00     0.026 C 
BRANCH  72  73
ATOM     73  C   UNL     1      -7.673   0.120   0.127  1.00  0.00     0.146 C 
BRANCH  73  74
ATOM     74  N   UNL     1      -6.363   0.125  -0.517  1.00  0.00    -0.254 NA
ATOM     75  C   UNL     1      -5.549   1.066  -0.210  1.00  0.00     0.185 C 
ATOM     76  N   UNL     1      -4.335   1.097  -0.785  1.00  0.00    -0.370 N 
ATOM     77  N   UNL     1      -5.723   2.089   0.645  1.00  0.00    -0.370 N 
ATOM     78  H   UNL     1      -4.125   0.365  -1.449  1.00  0.00     0.159 HD
ATOM     79  H   UNL     1      -3.705   1.875  -0.706  1.00  0.00     0.159 HD
ATOM     80  H   UNL     1      -6.588   2.192   1.153  1.00  0.00     0.159 HD
ATOM     81  H   UNL     1      -4.966   2.705   0.893  1.00  0.00     0.159 HD
ENDBRANCH  73  74
ENDBRANCH  72  73
ENDBRANCH  71  72
ENDBRANCH  45  71
ENDBRANCH   3  45
TORSDOF 20
ENDMDL
MODEL 26
REMARK VINA RESULT:    -5.894     10.583     13.934
REMARK INTER + INTRA:         -22.686
REMARK INTER:                 -16.052
REMARK INTRA:                  -6.634
REMARK UNBOUND:                -5.767
REMARK SMILES CCCCCC(=O)N[C@H](CC(=O)O)C(=O)N[C@H]1C(=O)N[C@H](CCCN=C(N)N)C(=O)N[C@@H]2CC[C@H](O)N(C2=O)[C@@H](CC(C)C)C(=O)N(C)[C@@H](Cc2ccccc2)C(=O)N[C@H](C(C)C)C(=O)O[C@@H]1C
REMARK SMILES IDX 30 1 31 2 29 3 32 5 35 6 37 7 34 8 38 9 33 10 39 11 36 12
REMARK SMILES IDX 40 14 41 15 42 16 43 17 44 18 45 19 46 20 47 21 48 22 49 23
REMARK SMILES IDX 50 24 51 25 52 26 56 27 53 28 55 29 54 30 57 31 58 32 59 33
REMARK SMILES IDX 60 35 61 36 62 37 63 38 64 39 65 40 66 41 67 42 68 43 21 45
REMARK SMILES IDX 20 46 18 47 19 48 17 50 16 52 14 53 15 54 9 56 8 57 6 58
REMARK SMILES IDX 7 59 5 61 4 62 3 63 2 64 1 65 10 66 11 67 12 68 13 69 22 71
REMARK SMILES IDX 23 72 24 73 25 74 26 75 27 76 28 77
REMARK H PARENT 31 4 36 13 59 34 20 49 16 55 8 60 13 70 27 78 27 79 28 80
REMARK H PARENT 28 81
REMARK Flexibility Score:  259.900
ROOT
ATOM      1  O   UNL     1     -13.943  -6.680  -6.109  1.00  0.00    -0.273 OA
ATOM      2  N   UNL     1     -15.863  -7.091  -4.937  1.00  0.00    -0.343 N 
ATOM      3  C   UNL     1     -15.146  -6.945  -6.104  1.00  0.00     0.243 C 
ATOM      4  H   UNL     1     -16.848  -7.324  -4.971  1.00  0.00     0.164 HD
ENDROOT
BRANCH   2   5
ATOM      5  C   UNL     1     -15.243  -6.816  -3.645  1.00  0.00     0.171 C 
ATOM      6  C   UNL     1     -15.832  -7.715  -0.953  1.00  0.00     0.214 C 
ATOM      7  N   UNL     1     -16.438  -6.500  -1.444  1.00  0.00    -0.303 N 
ATOM      8  C   UNL     1     -14.470  -7.999  -1.565  1.00  0.00     0.057 C 
ATOM      9  C   UNL     1     -16.240  -6.041  -2.736  1.00  0.00     0.247 C 
ATOM     10  C   UNL     1     -14.590  -8.073  -3.072  1.00  0.00     0.040 C 
ATOM     11  O   UNL     1     -16.831  -5.046  -3.177  1.00  0.00    -0.272 OA
BRANCH   6  12
ATOM     12  O   UNL     1     -16.721  -8.776  -1.216  1.00  0.00    -0.373 OA
ATOM     13  H   UNL     1     -16.237  -9.609  -1.030  1.00  0.00     0.213 HD
ENDBRANCH   6  12
BRANCH   7  14
ATOM     14  C   UNL     1     -17.409  -5.827  -0.555  1.00  0.00     0.177 C 
BRANCH  14  15
ATOM     15  C   UNL     1     -18.882  -5.930  -0.995  1.00  0.00     0.038 C 
BRANCH  15  16
ATOM     16  C   UNL     1     -19.763  -4.661  -1.009  1.00  0.00    -0.015 C 
ATOM     17  C   UNL     1     -18.936  -3.376  -0.909  1.00  0.00     0.007 C 
ATOM     18  C   UNL     1     -20.741  -4.696   0.172  1.00  0.00     0.007 C 
ENDBRANCH  15  16
ENDBRANCH  14  15
BRANCH  14  19
ATOM     19  C   UNL     1     -16.901  -5.860   0.928  1.00  0.00     0.245 C 
ATOM     20  O   UNL     1     -17.531  -6.580   1.720  1.00  0.00    -0.272 OA
BRANCH  19  21
ATOM     21  N   UNL     1     -15.881  -5.059   1.411  1.00  0.00    -0.332 N 
ATOM     22  C   UNL     1     -15.663  -3.668   1.057  1.00  0.00     0.147 C 
BRANCH  21  23
ATOM     23  C   UNL     1     -14.914  -5.665   2.367  1.00  0.00     0.178 C 
BRANCH  23  24
ATOM     24  C   UNL     1     -13.452  -5.693   1.876  1.00  0.00     0.070 C 
BRANCH  24  25
ATOM     25  C   UNL     1     -12.837  -7.049   1.622  1.00  0.00    -0.045 A 
ATOM     26  C   UNL     1     -13.559  -8.223   1.875  1.00  0.00     0.004 A 
ATOM     27  C   UNL     1     -11.527  -7.151   1.131  1.00  0.00     0.004 A 
ATOM     28  C   UNL     1     -12.977  -9.473   1.653  1.00  0.00     0.000 A 
ATOM     29  C   UNL     1     -10.948  -8.402   0.908  1.00  0.00     0.000 A 
ATOM     30  C   UNL     1     -11.673  -9.562   1.173  1.00  0.00     0.000 A 
ENDBRANCH  24  25
ENDBRANCH  23  24
BRANCH  23  31
ATOM     31  C   UNL     1     -15.104  -5.163   3.819  1.00  0.00     0.243 C 
ATOM     32  O   UNL     1     -16.158  -5.252   4.444  1.00  0.00    -0.273 OA
ATOM     33  N   UNL     1     -14.031  -4.430   4.296  1.00  0.00    -0.341 N 
ATOM     34  H   UNL     1     -13.182  -4.387   3.727  1.00  0.00     0.164 HD
BRANCH  33  35
ATOM     35  C   UNL     1     -14.038  -3.758   5.598  1.00  0.00     0.194 C 
BRANCH  35  36
ATOM     36  C   UNL     1     -13.720  -2.237   5.529  1.00  0.00     0.017 C 
ATOM     37  C   UNL     1     -15.008  -1.400   5.441  1.00  0.00     0.010 C 
ATOM     38  C   UNL     1     -12.843  -1.857   4.330  1.00  0.00     0.010 C 
ENDBRANCH  35  36
BRANCH  35  39
ATOM     39  C   UNL     1     -13.159  -4.487   6.652  1.00  0.00     0.329 C 
ATOM     40  O   UNL     1     -11.953  -4.311   6.780  1.00  0.00    -0.250 OA
BRANCH  39  41
ATOM     41  O   UNL     1     -13.897  -5.285   7.482  1.00  0.00    -0.458 OA
BRANCH  41  42
ATOM     42  C   UNL     1     -13.174  -5.937   8.554  1.00  0.00     0.205 CG0
ATOM     43  C   UNL     1     -13.809  -7.311   8.759  1.00  0.00     0.056 C 
ATOM     44  G   UNL     1     -13.261  -5.053   9.814  1.00  0.00     0.000 G0
ENDBRANCH  41  42
ENDBRANCH  39  41
ENDBRANCH  35  39
ENDBRANCH  33  35
ENDBRANCH  23  31
ENDBRANCH  21  23
ENDBRANCH  19  21
ENDBRANCH  14  19
ENDBRANCH   7  14
ENDBRANCH   2   5
BRANCH   3  45
ATOM     45  C   UNL     1     -15.944  -7.158  -7.397  1.00  0.00     0.171 C 
BRANCH  45  46
ATOM     46  N   UNL     1     -14.957  -7.198  -8.468  1.00  0.00    -0.342 N 
ATOM     47  C   UNL     1     -14.656  -8.350  -9.149  1.00  0.00     0.247 C 
ATOM     48  O   UNL     1     -15.246  -9.414  -8.957  1.00  0.00    -0.273 OA
ATOM     49  H   UNL     1     -14.484  -6.326  -8.698  1.00  0.00     0.164 HD
BRANCH  47  50
ATOM     50  C   UNL     1     -13.504  -8.228 -10.156  1.00  0.00     0.212 CG0
ATOM     51  G   UNL     1     -14.102  -7.757 -11.497  1.00  0.00     0.000 G0
BRANCH  50  52
ATOM     52  N   UNL     1     -12.574  -7.266  -9.570  1.00  0.00    -0.339 N 
ATOM     53  C   UNL     1     -11.552  -7.622  -8.724  1.00  0.00     0.243 C 
ATOM     54  O   UNL     1     -11.374  -8.778  -8.351  1.00  0.00    -0.273 OA
ATOM     55  H   UNL     1     -12.738  -6.278  -9.753  1.00  0.00     0.164 HD
BRANCH  53  56
ATOM     56  C   UNL     1     -10.757  -6.426  -8.163  1.00  0.00     0.182 C 
BRANCH  56  57
ATOM     57  N   UNL     1     -10.702  -6.471  -6.698  1.00  0.00    -0.344 N 
ATOM     58  C   UNL     1      -9.583  -6.883  -6.015  1.00  0.00     0.220 C 
ATOM     59  O   UNL     1      -8.582  -7.310  -6.580  1.00  0.00    -0.275 OA
ATOM     60  H   UNL     1     -11.469  -6.032  -6.195  1.00  0.00     0.164 HD
BRANCH  58  61
ATOM     61  C   UNL     1      -9.731  -6.792  -4.508  1.00  0.00     0.100 C 
BRANCH  61  62
ATOM     62  C   UNL     1     -11.163  -6.523  -4.044  1.00  0.00     0.010 C 
BRANCH  62  63
ATOM     63  C   UNL     1     -11.313  -6.372  -2.525  1.00  0.00     0.000 C 
BRANCH  63  64
ATOM     64  C   UNL     1     -11.088  -4.950  -2.011  1.00  0.00    -0.003 C 
ATOM     65  C   UNL     1     -11.432  -3.916  -3.073  1.00  0.00     0.004 C 
ENDBRANCH  63  64
ENDBRANCH  62  63
ENDBRANCH  61  62
ENDBRANCH  58  61
ENDBRANCH  56  57
BRANCH  56  66
ATOM     66  C   UNL     1     -11.305  -5.097  -8.679  1.00  0.00     0.157 C 
BRANCH  66  67
ATOM     67  C   UNL     1     -10.194  -4.153  -9.038  1.00  0.00     0.305 C 
ATOM     68  O   UNL     1      -9.948  -3.078  -8.513  1.00  0.00    -0.252 OA
BRANCH  67  69
ATOM     69  O   UNL     1      -9.408  -4.637 -10.018  1.00  0.00    -0.481 OA
ATOM     70  H   UNL     1      -8.530  -4.229  -9.859  1.00  0.00     0.296 HD
ENDBRANCH  67  69
ENDBRANCH  66  67
ENDBRANCH  56  66
ENDBRANCH  53  56
ENDBRANCH  50  52
ENDBRANCH  47  50
ENDBRANCH  45  46
BRANCH  45  71
ATOM     71  C   UNL     1     -16.950  -6.018  -7.597  1.00  0.00     0.037 C 
BRANCH  71  72
ATOM     72  C   UNL     1     -16.518  -5.058  -8.708  1.00  0.00     0.026 C 
BRANCH  72  73
ATOM     73  C   UNL     1     -17.290  -5.313 -10.001  1.00  0.00     0.146 C 
BRANCH  73  74
ATOM     74  N   UNL     1     -16.329  -5.712 -11.024  1.00  0.00    -0.254 NA
ATOM     75  C   UNL     1     -16.195  -4.953 -12.049  1.00  0.00     0.185 C 
ATOM     76  N   UNL     1     -15.318  -5.293 -13.007  1.00  0.00    -0.370 N 
ATOM     77  N   UNL     1     -16.829  -3.803 -12.337  1.00  0.00    -0.370 N 
ATOM     78  H   UNL     1     -14.802  -6.151 -12.872  1.00  0.00     0.159 HD
ATOM     79  H   UNL     1     -15.263  -4.830 -13.897  1.00  0.00     0.159 HD
ATOM     80  H   UNL     1     -17.516  -3.422 -11.703  1.00  0.00     0.159 HD
ATOM     81  H   UNL     1     -16.557  -3.232 -13.120  1.00  0.00     0.159 HD
ENDBRANCH  73  74
ENDBRANCH  72  73
ENDBRANCH  71  72
ENDBRANCH  45  71
ENDBRANCH   3  45
TORSDOF 20
ENDMDL
MODEL 27
REMARK VINA RESULT:    -5.881      3.476     12.845
REMARK INTER + INTRA:         -22.649
REMARK INTER:                 -16.309
REMARK INTRA:                  -6.340
REMARK UNBOUND:                -5.767
REMARK SMILES CCCCCC(=O)N[C@H](CC(=O)O)C(=O)N[C@H]1C(=O)N[C@H](CCCN=C(N)N)C(=O)N[C@@H]2CC[C@H](O)N(C2=O)[C@@H](CC(C)C)C(=O)N(C)[C@@H](Cc2ccccc2)C(=O)N[C@H](C(C)C)C(=O)O[C@@H]1C
REMARK SMILES IDX 30 1 31 2 29 3 32 5 35 6 37 7 34 8 38 9 33 10 39 11 36 12
REMARK SMILES IDX 40 14 41 15 42 16 43 17 44 18 45 19 46 20 47 21 48 22 49 23
REMARK SMILES IDX 50 24 51 25 52 26 56 27 53 28 55 29 54 30 57 31 58 32 59 33
REMARK SMILES IDX 60 35 61 36 62 37 63 38 64 39 65 40 66 41 67 42 68 43 21 45
REMARK SMILES IDX 20 46 18 47 19 48 17 50 16 52 14 53 15 54 9 56 8 57 6 58
REMARK SMILES IDX 7 59 5 61 4 62 3 63 2 64 1 65 10 66 11 67 12 68 13 69 22 71
REMARK SMILES IDX 23 72 24 73 25 74 26 75 27 76 28 77
REMARK H PARENT 31 4 36 13 59 34 20 49 16 55 8 60 13 70 27 78 27 79 28 80
REMARK H PARENT 28 81
REMARK Flexibility Score:  259.900
ROOT
ATOM      1  O   UNL     1      -5.604  -2.710  -0.216  1.00  0.00    -0.273 OA
ATOM      2  N   UNL     1      -4.535  -0.862  -1.036  1.00  0.00    -0.343 N 
ATOM      3  C   UNL     1      -5.488  -1.485  -0.259  1.00  0.00     0.243 C 
ATOM      4  H   UNL     1      -4.459   0.148  -1.035  1.00  0.00     0.164 HD
ENDROOT
BRANCH   2   5
ATOM      5  C   UNL     1      -3.691  -1.636  -1.940  1.00  0.00     0.171 C 
ATOM      6  C   UNL     1      -1.015  -1.217  -2.972  1.00  0.00     0.214 C 
ATOM      7  N   UNL     1      -2.148  -0.714  -3.712  1.00  0.00    -0.303 N 
ATOM      8  C   UNL     1      -1.329  -2.468  -2.166  1.00  0.00     0.057 C 
ATOM      9  C   UNL     1      -3.449  -0.835  -3.251  1.00  0.00     0.247 C 
ATOM     10  C   UNL     1      -2.468  -2.189  -1.210  1.00  0.00     0.040 C 
ATOM     11  O   UNL     1      -4.407  -0.326  -3.848  1.00  0.00    -0.272 OA
BRANCH   6  12
ATOM     12  O   UNL     1      -0.562  -0.187  -2.124  1.00  0.00    -0.373 OA
ATOM     13  H   UNL     1      -0.122  -0.616  -1.360  1.00  0.00     0.213 HD
ENDBRANCH   6  12
BRANCH   7  14
ATOM     14  C   UNL     1      -1.858   0.076  -4.927  1.00  0.00     0.177 C 
BRANCH  14  15
ATOM     15  C   UNL     1      -0.912   1.275  -4.720  1.00  0.00     0.038 C 
BRANCH  15  16
ATOM     16  C   UNL     1      -1.324   2.668  -5.245  1.00  0.00    -0.015 C 
ATOM     17  C   UNL     1      -2.813   2.958  -5.027  1.00  0.00     0.007 C 
ATOM     18  C   UNL     1      -1.031   2.765  -6.747  1.00  0.00     0.007 C 
ENDBRANCH  15  16
ENDBRANCH  14  15
BRANCH  14  19
ATOM     19  C   UNL     1      -1.890  -0.846  -6.195  1.00  0.00     0.245 C 
ATOM     20  O   UNL     1      -2.807  -0.645  -7.009  1.00  0.00    -0.272 OA
BRANCH  19  21
ATOM     21  N   UNL     1      -1.037  -1.918  -6.391  1.00  0.00    -0.332 N 
ATOM     22  C   UNL     1      -1.305  -3.290  -6.000  1.00  0.00     0.147 C 
BRANCH  21  23
ATOM     23  C   UNL     1       0.273  -1.654  -7.047  1.00  0.00     0.178 C 
BRANCH  23  24
ATOM     24  C   UNL     1       1.482  -2.333  -6.371  1.00  0.00     0.070 C 
BRANCH  24  25
ATOM     25  C   UNL     1       1.970  -1.735  -5.072  1.00  0.00    -0.045 A 
ATOM     26  C   UNL     1       2.201  -0.358  -4.958  1.00  0.00     0.004 A 
ATOM     27  C   UNL     1       2.205  -2.556  -3.959  1.00  0.00     0.004 A 
ATOM     28  C   UNL     1       2.668   0.184  -3.759  1.00  0.00     0.000 A 
ATOM     29  C   UNL     1       2.671  -2.012  -2.761  1.00  0.00     0.000 A 
ATOM     30  C   UNL     1       2.905  -0.642  -2.663  1.00  0.00     0.000 A 
ENDBRANCH  24  25
ENDBRANCH  23  24
BRANCH  23  31
ATOM     31  C   UNL     1       0.219  -1.802  -8.586  1.00  0.00     0.243 C 
ATOM     32  O   UNL     1      -0.819  -1.951  -9.225  1.00  0.00    -0.273 OA
ATOM     33  N   UNL     1       1.466  -1.940  -9.173  1.00  0.00    -0.341 N 
ATOM     34  H   UNL     1       2.294  -1.811  -8.587  1.00  0.00     0.164 HD
BRANCH  33  35
ATOM     35  C   UNL     1       1.651  -2.211 -10.601  1.00  0.00     0.194 C 
BRANCH  35  36
ATOM     36  C   UNL     1       2.697  -3.320 -10.906  1.00  0.00     0.017 C 
ATOM     37  C   UNL     1       2.180  -4.707 -10.490  1.00  0.00     0.010 C 
ATOM     38  C   UNL     1       4.038  -3.097 -10.196  1.00  0.00     0.010 C 
ENDBRANCH  35  36
BRANCH  35  39
ATOM     39  C   UNL     1       1.916  -0.920 -11.425  1.00  0.00     0.329 C 
ATOM     40  O   UNL     1       2.297   0.138 -10.939  1.00  0.00    -0.250 OA
BRANCH  39  41
ATOM     41  O   UNL     1       1.760  -1.120 -12.769  1.00  0.00    -0.458 OA
BRANCH  41  42
ATOM     42  C   UNL     1       2.366  -0.134 -13.638  1.00  0.00     0.205 CG0
ATOM     43  C   UNL     1       1.245   0.496 -14.462  1.00  0.00     0.056 C 
ATOM     44  G   UNL     1       3.421  -0.836 -14.517  1.00  0.00     0.000 G0
ENDBRANCH  41  42
ENDBRANCH  39  41
ENDBRANCH  35  39
ENDBRANCH  33  35
ENDBRANCH  23  31
ENDBRANCH  21  23
ENDBRANCH  19  21
ENDBRANCH  14  19
ENDBRANCH   7  14
ENDBRANCH   2   5
BRANCH   3  45
ATOM     45  C   UNL     1      -6.381  -0.547   0.563  1.00  0.00     0.171 C 
BRANCH  45  46
ATOM     46  N   UNL     1      -5.728  -0.418   1.860  1.00  0.00    -0.342 N 
ATOM     47  C   UNL     1      -5.581   0.790   2.493  1.00  0.00     0.247 C 
ATOM     48  O   UNL     1      -6.051   1.838   2.050  1.00  0.00    -0.273 OA
ATOM     49  H   UNL     1      -5.374  -1.271   2.289  1.00  0.00     0.164 HD
BRANCH  47  50
ATOM     50  C   UNL     1      -4.759   0.748   3.789  1.00  0.00     0.212 CG0
ATOM     51  G   UNL     1      -5.572  -0.042   4.833  1.00  0.00     0.000 G0
BRANCH  50  52
ATOM     52  N   UNL     1      -3.499   0.102   3.431  1.00  0.00    -0.339 N 
ATOM     53  C   UNL     1      -2.878  -0.834   4.221  1.00  0.00     0.243 C 
ATOM     54  O   UNL     1      -3.311  -1.164   5.321  1.00  0.00    -0.273 OA
ATOM     55  H   UNL     1      -3.032   0.415   2.581  1.00  0.00     0.164 HD
BRANCH  53  56
ATOM     56  C   UNL     1      -1.516  -1.311   3.676  1.00  0.00     0.182 C 
BRANCH  56  57
ATOM     57  N   UNL     1      -0.442  -0.390   4.065  1.00  0.00    -0.344 N 
ATOM     58  C   UNL     1       0.442  -0.676   5.077  1.00  0.00     0.220 C 
ATOM     59  O   UNL     1       0.352  -1.682   5.772  1.00  0.00    -0.275 OA
ATOM     60  H   UNL     1      -0.271   0.402   3.452  1.00  0.00     0.164 HD
BRANCH  58  61
ATOM     61  C   UNL     1       1.504   0.392   5.266  1.00  0.00     0.100 C 
BRANCH  61  62
ATOM     62  C   UNL     1       1.581   0.938   6.692  1.00  0.00     0.010 C 
BRANCH  62  63
ATOM     63  C   UNL     1       0.797   2.238   6.910  1.00  0.00     0.000 C 
BRANCH  63  64
ATOM     64  C   UNL     1      -0.721   2.063   6.905  1.00  0.00    -0.003 C 
ATOM     65  C   UNL     1      -1.418   3.279   6.313  1.00  0.00     0.004 C 
ENDBRANCH  63  64
ENDBRANCH  62  63
ENDBRANCH  61  62
ENDBRANCH  58  61
ENDBRANCH  56  57
BRANCH  56  66
ATOM     66  C   UNL     1      -1.564  -1.536   2.166  1.00  0.00     0.157 C 
BRANCH  66  67
ATOM     67  C   UNL     1      -0.182  -1.584   1.579  1.00  0.00     0.305 C 
ATOM     68  O   UNL     1       0.667  -2.440   1.775  1.00  0.00    -0.252 OA
BRANCH  67  69
ATOM     69  O   UNL     1       0.046  -0.569   0.724  1.00  0.00    -0.481 OA
ATOM     70  H   UNL     1       0.696   0.003   1.184  1.00  0.00     0.296 HD
ENDBRANCH  67  69
ENDBRANCH  66  67
ENDBRANCH  56  66
ENDBRANCH  53  56
ENDBRANCH  50  52
ENDBRANCH  47  50
ENDBRANCH  45  46
BRANCH  45  71
ATOM     71  C   UNL     1      -7.791  -1.132   0.696  1.00  0.00     0.037 C 
BRANCH  71  72
ATOM     72  C   UNL     1      -8.840  -0.274  -0.017  1.00  0.00     0.026 C 
BRANCH  72  73
ATOM     73  C   UNL     1      -8.824  -0.509  -1.526  1.00  0.00     0.146 C 
BRANCH  73  74
ATOM     74  N   UNL     1      -8.048   0.565  -2.137  1.00  0.00    -0.254 NA
ATOM     75  C   UNL     1      -7.770   0.468  -3.385  1.00  0.00     0.185 C 
ATOM     76  N   UNL     1      -7.058   1.441  -3.976  1.00  0.00    -0.370 N 
ATOM     77  N   UNL     1      -8.095  -0.509  -4.250  1.00  0.00    -0.370 N 
ATOM     78  H   UNL     1      -6.766   2.213  -3.394  1.00  0.00     0.159 HD
ATOM     79  H   UNL     1      -6.682   1.366  -4.905  1.00  0.00     0.159 HD
ATOM     80  H   UNL     1      -8.634  -1.306  -3.945  1.00  0.00     0.159 HD
ATOM     81  H   UNL     1      -7.919  -0.421  -5.237  1.00  0.00     0.159 HD
ENDBRANCH  73  74
ENDBRANCH  72  73
ENDBRANCH  71  72
ENDBRANCH  45  71
ENDBRANCH   3  45
TORSDOF 20
ENDMDL
MODEL 28
REMARK VINA RESULT:    -5.851      8.756     12.870
REMARK INTER + INTRA:         -22.565
REMARK INTER:                 -16.864
REMARK INTRA:                  -5.702
REMARK UNBOUND:                -5.767
REMARK SMILES CCCCCC(=O)N[C@H](CC(=O)O)C(=O)N[C@H]1C(=O)N[C@H](CCCN=C(N)N)C(=O)N[C@@H]2CC[C@H](O)N(C2=O)[C@@H](CC(C)C)C(=O)N(C)[C@@H](Cc2ccccc2)C(=O)N[C@H](C(C)C)C(=O)O[C@@H]1C
REMARK SMILES IDX 30 1 31 2 29 3 32 5 35 6 37 7 34 8 38 9 33 10 39 11 36 12
REMARK SMILES IDX 40 14 41 15 42 16 43 17 44 18 45 19 46 20 47 21 48 22 49 23
REMARK SMILES IDX 50 24 51 25 52 26 56 27 53 28 55 29 54 30 57 31 58 32 59 33
REMARK SMILES IDX 60 35 61 36 62 37 63 38 64 39 65 40 66 41 67 42 68 43 21 45
REMARK SMILES IDX 20 46 18 47 19 48 17 50 16 52 14 53 15 54 9 56 8 57 6 58
REMARK SMILES IDX 7 59 5 61 4 62 3 63 2 64 1 65 10 66 11 67 12 68 13 69 22 71
REMARK SMILES IDX 23 72 24 73 25 74 26 75 27 76 28 77
REMARK H PARENT 31 4 36 13 59 34 20 49 16 55 8 60 13 70 27 78 27 79 28 80
REMARK H PARENT 28 81
REMARK Flexibility Score:  259.900
ROOT
ATOM      1  O   UNL     1     -13.273  -6.666  -3.972  1.00  0.00    -0.273 OA
ATOM      2  N   UNL     1     -14.532  -7.686  -2.358  1.00  0.00    -0.343 N 
ATOM      3  C   UNL     1     -14.254  -7.343  -3.664  1.00  0.00     0.243 C 
ATOM      4  H   UNL     1     -15.341  -8.256  -2.144  1.00  0.00     0.164 HD
ENDROOT
BRANCH   2   5
ATOM      5  C   UNL     1     -13.729  -7.154  -1.263  1.00  0.00     0.171 C 
ATOM      6  C   UNL     1     -13.986  -7.312   1.620  1.00  0.00     0.214 C 
ATOM      7  N   UNL     1     -14.594  -6.209   0.912  1.00  0.00    -0.303 N 
ATOM      8  C   UNL     1     -12.736  -7.848   0.940  1.00  0.00     0.057 C 
ATOM      9  C   UNL     1     -14.552  -6.100  -0.468  1.00  0.00     0.247 C 
ATOM     10  C   UNL     1     -13.066  -8.280  -0.472  1.00  0.00     0.040 C 
ATOM     11  O   UNL     1     -15.148  -5.199  -1.073  1.00  0.00    -0.272 OA
BRANCH   6  12
ATOM     12  O   UNL     1     -14.954  -8.329   1.744  1.00  0.00    -0.373 OA
ATOM     13  H   UNL     1     -15.573  -8.230   0.990  1.00  0.00     0.213 HD
ENDBRANCH   6  12
BRANCH   7  14
ATOM     14  C   UNL     1     -15.399  -5.262   1.712  1.00  0.00     0.177 C 
BRANCH  14  15
ATOM     15  C   UNL     1     -16.583  -5.888   2.474  1.00  0.00     0.038 C 
BRANCH  15  16
ATOM     16  C   UNL     1     -17.849  -6.314   1.697  1.00  0.00    -0.015 C 
ATOM     17  C   UNL     1     -18.360  -5.212   0.764  1.00  0.00     0.007 C 
ATOM     18  C   UNL     1     -18.969  -6.666   2.684  1.00  0.00     0.007 C 
ENDBRANCH  15  16
ENDBRANCH  14  15
BRANCH  14  19
ATOM     19  C   UNL     1     -14.499  -4.092   2.238  1.00  0.00     0.245 C 
ATOM     20  O   UNL     1     -14.721  -2.962   1.772  1.00  0.00    -0.272 OA
BRANCH  19  21
ATOM     21  N   UNL     1     -13.422  -4.270   3.089  1.00  0.00    -0.332 N 
ATOM     22  C   UNL     1     -12.025  -4.262   2.693  1.00  0.00     0.147 C 
BRANCH  21  23
ATOM     23  C   UNL     1     -13.706  -4.501   4.532  1.00  0.00     0.178 C 
BRANCH  23  24
ATOM     24  C   UNL     1     -13.303  -5.896   5.054  1.00  0.00     0.070 C 
BRANCH  24  25
ATOM     25  C   UNL     1     -14.203  -6.530   6.089  1.00  0.00    -0.045 A 
ATOM     26  C   UNL     1     -15.477  -6.997   5.743  1.00  0.00     0.004 A 
ATOM     27  C   UNL     1     -13.773  -6.654   7.419  1.00  0.00     0.004 A 
ATOM     28  C   UNL     1     -16.309  -7.567   6.709  1.00  0.00     0.000 A 
ATOM     29  C   UNL     1     -14.605  -7.225   8.383  1.00  0.00     0.000 A 
ATOM     30  C   UNL     1     -15.874  -7.678   8.028  1.00  0.00     0.000 A 
ENDBRANCH  24  25
ENDBRANCH  23  24
BRANCH  23  31
ATOM     31  C   UNL     1     -13.272  -3.319   5.430  1.00  0.00     0.243 C 
ATOM     32  O   UNL     1     -13.735  -2.184   5.343  1.00  0.00    -0.273 OA
ATOM     33  N   UNL     1     -12.174  -3.602   6.224  1.00  0.00    -0.341 N 
ATOM     34  H   UNL     1     -11.829  -4.565   6.250  1.00  0.00     0.164 HD
BRANCH  33  35
ATOM     35  C   UNL     1     -11.517  -2.598   7.066  1.00  0.00     0.194 C 
BRANCH  35  36
ATOM     36  C   UNL     1     -10.274  -1.933   6.409  1.00  0.00     0.017 C 
ATOM     37  C   UNL     1     -10.607  -0.529   5.877  1.00  0.00     0.010 C 
ATOM     38  C   UNL     1      -9.703  -2.744   5.239  1.00  0.00     0.010 C 
ENDBRANCH  35  36
BRANCH  35  39
ATOM     39  C   UNL     1     -11.205  -3.127   8.494  1.00  0.00     0.329 C 
ATOM     40  O   UNL     1     -11.217  -4.312   8.805  1.00  0.00    -0.250 OA
BRANCH  39  41
ATOM     41  O   UNL     1     -10.828  -2.128   9.348  1.00  0.00    -0.458 OA
BRANCH  41  42
ATOM     42  C   UNL     1     -11.895  -1.314   9.892  1.00  0.00     0.205 CG0
ATOM     43  C   UNL     1     -11.512   0.147   9.666  1.00  0.00     0.056 C 
ATOM     44  G   UNL     1     -12.061  -1.656  11.386  1.00  0.00     0.000 G0
ENDBRANCH  41  42
ENDBRANCH  39  41
ENDBRANCH  35  39
ENDBRANCH  33  35
ENDBRANCH  23  31
ENDBRANCH  21  23
ENDBRANCH  19  21
ENDBRANCH  14  19
ENDBRANCH   7  14
ENDBRANCH   2   5
BRANCH   3  45
ATOM     45  C   UNL     1     -15.241  -7.880  -4.709  1.00  0.00     0.171 C 
BRANCH  45  46
ATOM     46  N   UNL     1     -14.598  -7.675  -6.000  1.00  0.00    -0.342 N 
ATOM     47  C   UNL     1     -14.574  -8.642  -6.973  1.00  0.00     0.247 C 
ATOM     48  O   UNL     1     -15.154  -9.722  -6.856  1.00  0.00    -0.273 OA
ATOM     49  H   UNL     1     -14.153  -6.773  -6.160  1.00  0.00     0.164 HD
BRANCH  47  50
ATOM     50  C   UNL     1     -13.744  -8.293  -8.217  1.00  0.00     0.212 CG0
ATOM     51  G   UNL     1     -14.726  -7.888  -9.335  1.00  0.00     0.000 G0
BRANCH  50  52
ATOM     52  N   UNL     1     -12.861  -7.206  -7.803  1.00  0.00    -0.339 N 
ATOM     53  C   UNL     1     -12.535  -6.146  -8.615  1.00  0.00     0.243 C 
ATOM     54  O   UNL     1     -12.923  -6.059  -9.777  1.00  0.00    -0.273 OA
ATOM     55  H   UNL     1     -12.419  -7.277  -6.889  1.00  0.00     0.164 HD
BRANCH  53  56
ATOM     56  C   UNL     1     -11.519  -5.168  -7.992  1.00  0.00     0.182 C 
BRANCH  56  57
ATOM     57  N   UNL     1     -10.473  -4.811  -8.957  1.00  0.00    -0.344 N 
ATOM     58  C   UNL     1     -10.183  -3.508  -9.278  1.00  0.00     0.220 C 
ATOM     59  O   UNL     1     -10.822  -2.558  -8.840  1.00  0.00    -0.275 OA
ATOM     60  H   UNL     1      -9.855  -5.558  -9.264  1.00  0.00     0.164 HD
BRANCH  58  61
ATOM     61  C   UNL     1      -9.026  -3.372 -10.252  1.00  0.00     0.100 C 
BRANCH  61  62
ATOM     62  C   UNL     1      -7.652  -3.382  -9.582  1.00  0.00     0.010 C 
BRANCH  62  63
ATOM     63  C   UNL     1      -6.798  -2.144  -9.885  1.00  0.00     0.000 C 
BRANCH  63  64
ATOM     64  C   UNL     1      -5.307  -2.437 -10.046  1.00  0.00    -0.003 C 
ATOM     65  C   UNL     1      -5.041  -3.932 -10.139  1.00  0.00     0.004 C 
ENDBRANCH  63  64
ENDBRANCH  62  63
ENDBRANCH  61  62
ENDBRANCH  58  61
ENDBRANCH  56  57
BRANCH  56  66
ATOM     66  C   UNL     1     -10.939  -5.717  -6.690  1.00  0.00     0.157 C 
BRANCH  66  67
ATOM     67  C   UNL     1     -10.445  -4.609  -5.805  1.00  0.00     0.305 C 
ATOM     68  O   UNL     1     -11.056  -4.070  -4.895  1.00  0.00    -0.252 OA
BRANCH  67  69
ATOM     69  O   UNL     1      -9.172  -4.265  -6.078  1.00  0.00    -0.481 OA
ATOM     70  H   UNL     1      -9.158  -4.106  -7.046  1.00  0.00     0.296 HD
ENDBRANCH  67  69
ENDBRANCH  66  67
ENDBRANCH  56  66
ENDBRANCH  53  56
ENDBRANCH  50  52
ENDBRANCH  47  50
ENDBRANCH  45  46
BRANCH  45  71
ATOM     71  C   UNL     1     -16.576  -7.134  -4.617  1.00  0.00     0.037 C 
BRANCH  71  72
ATOM     72  C   UNL     1     -16.631  -5.934  -5.567  1.00  0.00     0.026 C 
BRANCH  72  73
ATOM     73  C   UNL     1     -17.577  -6.191  -6.738  1.00  0.00     0.146 C 
BRANCH  73  74
ATOM     74  N   UNL     1     -16.772  -6.272  -7.953  1.00  0.00    -0.254 NA
ATOM     75  C   UNL     1     -16.665  -5.216  -8.672  1.00  0.00     0.185 C 
ATOM     76  N   UNL     1     -15.930  -5.259  -9.795  1.00  0.00    -0.370 N 
ATOM     77  N   UNL     1     -17.201  -3.999  -8.472  1.00  0.00    -0.370 N 
ATOM     78  H   UNL     1     -15.496  -6.142 -10.025  1.00  0.00     0.159 HD
ATOM     79  H   UNL     1     -15.919  -4.522 -10.478  1.00  0.00     0.159 HD
ATOM     80  H   UNL     1     -17.776  -3.818  -7.663  1.00  0.00     0.159 HD
ATOM     81  H   UNL     1     -16.952  -3.211  -9.047  1.00  0.00     0.159 HD
ENDBRANCH  73  74
ENDBRANCH  72  73
ENDBRANCH  71  72
ENDBRANCH  45  71
ENDBRANCH   3  45
TORSDOF 20
ENDMDL
MODEL 29
REMARK VINA RESULT:    -5.836      4.294      6.324
REMARK INTER + INTRA:         -22.520
REMARK INTER:                 -17.272
REMARK INTRA:                  -5.248
REMARK UNBOUND:                -5.767
REMARK SMILES CCCCCC(=O)N[C@H](CC(=O)O)C(=O)N[C@H]1C(=O)N[C@H](CCCN=C(N)N)C(=O)N[C@@H]2CC[C@H](O)N(C2=O)[C@@H](CC(C)C)C(=O)N(C)[C@@H](Cc2ccccc2)C(=O)N[C@H](C(C)C)C(=O)O[C@@H]1C
REMARK SMILES IDX 30 1 31 2 29 3 32 5 35 6 37 7 34 8 38 9 33 10 39 11 36 12
REMARK SMILES IDX 40 14 41 15 42 16 43 17 44 18 45 19 46 20 47 21 48 22 49 23
REMARK SMILES IDX 50 24 51 25 52 26 56 27 53 28 55 29 54 30 57 31 58 32 59 33
REMARK SMILES IDX 60 35 61 36 62 37 63 38 64 39 65 40 66 41 67 42 68 43 21 45
REMARK SMILES IDX 20 46 18 47 19 48 17 50 16 52 14 53 15 54 9 56 8 57 6 58
REMARK SMILES IDX 7 59 5 61 4 62 3 63 2 64 1 65 10 66 11 67 12 68 13 69 22 71
REMARK SMILES IDX 23 72 24 73 25 74 26 75 27 76 28 77
REMARK H PARENT 31 4 36 13 59 34 20 49 16 55 8 60 13 70 27 78 27 79 28 80
REMARK H PARENT 28 81
REMARK Flexibility Score:  259.900
ROOT
ATOM      1  O   UNL     1      -4.732  -1.629  -3.830  1.00  0.00    -0.273 OA
ATOM      2  N   UNL     1      -5.420  -3.536  -2.772  1.00  0.00    -0.343 N 
ATOM      3  C   UNL     1      -5.147  -2.786  -3.895  1.00  0.00     0.243 C 
ATOM      4  H   UNL     1      -5.746  -4.491  -2.864  1.00  0.00     0.164 HD
ENDROOT
BRANCH   2   5
ATOM      5  C   UNL     1      -5.339  -2.939  -1.443  1.00  0.00     0.171 C 
ATOM      6  C   UNL     1      -5.488  -4.061   1.226  1.00  0.00     0.214 C 
ATOM      7  N   UNL     1      -6.695  -3.597   0.582  1.00  0.00    -0.303 N 
ATOM      8  C   UNL     1      -4.244  -3.302   0.792  1.00  0.00     0.057 C 
ATOM      9  C   UNL     1      -6.702  -3.098  -0.710  1.00  0.00     0.247 C 
ATOM     10  C   UNL     1      -4.081  -3.402  -0.709  1.00  0.00     0.040 C 
ATOM     11  O   UNL     1      -7.752  -2.783  -1.286  1.00  0.00    -0.272 OA
BRANCH   6  12
ATOM     12  O   UNL     1      -5.351  -5.434   0.945  1.00  0.00    -0.373 OA
ATOM     13  H   UNL     1      -4.581  -5.529   0.344  1.00  0.00     0.213 HD
ENDBRANCH   6  12
BRANCH   7  14
ATOM     14  C   UNL     1      -7.966  -3.811   1.306  1.00  0.00     0.177 C 
BRANCH  14  15
ATOM     15  C   UNL     1      -8.282  -5.277   1.657  1.00  0.00     0.038 C 
BRANCH  15  16
ATOM     16  C   UNL     1      -9.087  -6.142   0.661  1.00  0.00    -0.015 C 
ATOM     17  C   UNL     1     -10.198  -5.350  -0.035  1.00  0.00     0.007 C 
ATOM     18  C   UNL     1      -9.729  -7.323   1.400  1.00  0.00     0.007 C 
ENDBRANCH  15  16
ENDBRANCH  14  15
BRANCH  14  19
ATOM     19  C   UNL     1      -8.292  -2.571   2.209  1.00  0.00     0.245 C 
ATOM     20  O   UNL     1      -7.338  -1.839   2.520  1.00  0.00    -0.272 OA
BRANCH  19  21
ATOM     21  N   UNL     1      -9.539  -2.323   2.756  1.00  0.00    -0.332 N 
ATOM     22  C   UNL     1     -10.797  -2.349   2.032  1.00  0.00     0.147 C 
BRANCH  21  23
ATOM     23  C   UNL     1      -9.609  -1.988   4.205  1.00  0.00     0.178 C 
BRANCH  23  24
ATOM     24  C   UNL     1     -10.175  -0.588   4.518  1.00  0.00     0.070 C 
BRANCH  24  25
ATOM     25  C   UNL     1      -9.461   0.596   3.907  1.00  0.00    -0.045 A 
ATOM     26  C   UNL     1      -8.212   1.007   4.388  1.00  0.00     0.004 A 
ATOM     27  C   UNL     1     -10.046   1.305   2.847  1.00  0.00     0.004 A 
ATOM     28  C   UNL     1      -7.566   2.112   3.829  1.00  0.00     0.000 A 
ATOM     29  C   UNL     1      -9.400   2.408   2.289  1.00  0.00     0.000 A 
ATOM     30  C   UNL     1      -8.161   2.813   2.782  1.00  0.00     0.000 A 
ENDBRANCH  24  25
ENDBRANCH  23  24
BRANCH  23  31
ATOM     31  C   UNL     1     -10.196  -3.135   5.062  1.00  0.00     0.243 C 
ATOM     32  O   UNL     1      -9.805  -4.298   5.014  1.00  0.00    -0.273 OA
ATOM     33  N   UNL     1     -11.335  -2.774   5.762  1.00  0.00    -0.341 N 
ATOM     34  H   UNL     1     -11.615  -1.791   5.760  1.00  0.00     0.164 HD
BRANCH  33  35
ATOM     35  C   UNL     1     -12.127  -3.728   6.544  1.00  0.00     0.194 C 
BRANCH  35  36
ATOM     36  C   UNL     1     -13.621  -3.811   6.120  1.00  0.00     0.017 C 
ATOM     37  C   UNL     1     -14.207  -5.204   6.409  1.00  0.00     0.010 C 
ATOM     38  C   UNL     1     -13.844  -3.518   4.632  1.00  0.00     0.010 C 
ENDBRANCH  35  36
BRANCH  35  39
ATOM     39  C   UNL     1     -11.969  -3.521   8.076  1.00  0.00     0.329 C 
ATOM     40  O   UNL     1     -11.201  -4.166   8.780  1.00  0.00    -0.250 OA
BRANCH  39  41
ATOM     41  O   UNL     1     -12.721  -2.477   8.540  1.00  0.00    -0.458 OA
BRANCH  41  42
ATOM     42  C   UNL     1     -12.769  -2.310   9.977  1.00  0.00     0.205 CG0
ATOM     43  C   UNL     1     -12.167  -0.943  10.296  1.00  0.00     0.056 C 
ATOM     44  G   UNL     1     -11.988  -3.466  10.633  1.00  0.00     0.000 G0
ENDBRANCH  41  42
ENDBRANCH  39  41
ENDBRANCH  35  39
ENDBRANCH  33  35
ENDBRANCH  23  31
ENDBRANCH  21  23
ENDBRANCH  19  21
ENDBRANCH  14  19
ENDBRANCH   7  14
ENDBRANCH   2   5
BRANCH   3  45
ATOM     45  C   UNL     1      -5.376  -3.501  -5.234  1.00  0.00     0.171 C 
BRANCH  45  46
ATOM     46  N   UNL     1      -4.337  -3.006  -6.127  1.00  0.00    -0.342 N 
ATOM     47  C   UNL     1      -3.626  -3.833  -6.960  1.00  0.00     0.247 C 
ATOM     48  O   UNL     1      -3.862  -5.037  -7.067  1.00  0.00    -0.273 OA
ATOM     49  H   UNL     1      -4.148  -2.005  -6.112  1.00  0.00     0.164 HD
BRANCH  47  50
ATOM     50  C   UNL     1      -2.489  -3.153  -7.736  1.00  0.00     0.212 CG0
ATOM     51  G   UNL     1      -3.008  -1.786  -8.224  1.00  0.00     0.000 G0
BRANCH  50  52
ATOM     52  N   UNL     1      -1.382  -3.045  -6.789  1.00  0.00    -0.339 N 
ATOM     53  C   UNL     1      -0.362  -3.962  -6.711  1.00  0.00     0.243 C 
ATOM     54  O   UNL     1      -0.331  -4.978  -7.401  1.00  0.00    -0.273 OA
ATOM     55  H   UNL     1      -1.410  -2.283  -6.115  1.00  0.00     0.164 HD
BRANCH  53  56
ATOM     56  C   UNL     1       0.646  -3.684  -5.578  1.00  0.00     0.182 C 
BRANCH  56  57
ATOM     57  N   UNL     1       0.136  -2.663  -4.658  1.00  0.00    -0.344 N 
ATOM     58  C   UNL     1       0.115  -2.843  -3.296  1.00  0.00     0.220 C 
ATOM     59  O   UNL     1       0.451  -3.894  -2.761  1.00  0.00    -0.275 OA
ATOM     60  H   UNL     1      -0.056  -1.745  -5.050  1.00  0.00     0.164 HD
BRANCH  58  61
ATOM     61  C   UNL     1      -0.400  -1.634  -2.538  1.00  0.00     0.100 C 
BRANCH  61  62
ATOM     62  C   UNL     1       0.558  -1.131  -1.458  1.00  0.00     0.010 C 
BRANCH  62  63
ATOM     63  C   UNL     1      -0.061  -1.054  -0.056  1.00  0.00     0.000 C 
BRANCH  63  64
ATOM     64  C   UNL     1      -0.324  -2.414   0.588  1.00  0.00    -0.003 C 
ATOM     65  C   UNL     1       0.802  -2.809   1.532  1.00  0.00     0.004 C 
ENDBRANCH  63  64
ENDBRANCH  62  63
ENDBRANCH  61  62
ENDBRANCH  58  61
ENDBRANCH  56  57
BRANCH  56  66
ATOM     66  C   UNL     1       2.025  -3.326  -6.130  1.00  0.00     0.157 C 
BRANCH  66  67
ATOM     67  C   UNL     1       2.907  -4.538  -6.217  1.00  0.00     0.305 C 
ATOM     68  O   UNL     1       2.802  -5.569  -5.571  1.00  0.00    -0.252 OA
BRANCH  67  69
ATOM     69  O   UNL     1       3.860  -4.410  -7.161  1.00  0.00    -0.481 OA
ATOM     70  H   UNL     1       4.693  -4.282  -6.660  1.00  0.00     0.296 HD
ENDBRANCH  67  69
ENDBRANCH  66  67
ENDBRANCH  56  66
ENDBRANCH  53  56
ENDBRANCH  50  52
ENDBRANCH  47  50
ENDBRANCH  45  46
BRANCH  45  71
ATOM     71  C   UNL     1      -6.778  -3.193  -5.771  1.00  0.00     0.037 C 
BRANCH  71  72
ATOM     72  C   UNL     1      -6.732  -2.412  -7.087  1.00  0.00     0.026 C 
BRANCH  72  73
ATOM     73  C   UNL     1      -6.895  -0.912  -6.854  1.00  0.00     0.146 C 
BRANCH  73  74
ATOM     74  N   UNL     1      -5.646  -0.261  -7.238  1.00  0.00    -0.254 NA
ATOM     75  C   UNL     1      -5.155   0.611  -6.438  1.00  0.00     0.185 C 
ATOM     76  N   UNL     1      -4.006   1.226  -6.763  1.00  0.00    -0.370 N 
ATOM     77  N   UNL     1      -5.631   1.036  -5.254  1.00  0.00    -0.370 N 
ATOM     78  H   UNL     1      -3.584   0.970  -7.644  1.00  0.00     0.159 HD
ATOM     79  H   UNL     1      -3.640   2.016  -6.262  1.00  0.00     0.159 HD
ATOM     80  H   UNL     1      -6.488   0.657  -4.880  1.00  0.00     0.159 HD
ATOM     81  H   UNL     1      -5.096   1.644  -4.657  1.00  0.00     0.159 HD
ENDBRANCH  73  74
ENDBRANCH  72  73
ENDBRANCH  71  72
ENDBRANCH  45  71
ENDBRANCH   3  45
TORSDOF 20
ENDMDL
MODEL 30
REMARK VINA RESULT:    -5.823      3.735     14.759
REMARK INTER + INTRA:         -22.484
REMARK INTER:                 -16.290
REMARK INTRA:                  -6.194
REMARK UNBOUND:                -5.767
REMARK SMILES CCCCCC(=O)N[C@H](CC(=O)O)C(=O)N[C@H]1C(=O)N[C@H](CCCN=C(N)N)C(=O)N[C@@H]2CC[C@H](O)N(C2=O)[C@@H](CC(C)C)C(=O)N(C)[C@@H](Cc2ccccc2)C(=O)N[C@H](C(C)C)C(=O)O[C@@H]1C
REMARK SMILES IDX 30 1 31 2 29 3 32 5 35 6 37 7 34 8 38 9 33 10 39 11 36 12
REMARK SMILES IDX 40 14 41 15 42 16 43 17 44 18 45 19 46 20 47 21 48 22 49 23
REMARK SMILES IDX 50 24 51 25 52 26 56 27 53 28 55 29 54 30 57 31 58 32 59 33
REMARK SMILES IDX 60 35 61 36 62 37 63 38 64 39 65 40 66 41 67 42 68 43 21 45
REMARK SMILES IDX 20 46 18 47 19 48 17 50 16 52 14 53 15 54 9 56 8 57 6 58
REMARK SMILES IDX 7 59 5 61 4 62 3 63 2 64 1 65 10 66 11 67 12 68 13 69 22 71
REMARK SMILES IDX 23 72 24 73 25 74 26 75 27 76 28 77
REMARK H PARENT 31 4 36 13 59 34 20 49 16 55 8 60 13 70 27 78 27 79 28 80
REMARK H PARENT 28 81
REMARK Flexibility Score:  259.900
ROOT
ATOM      1  O   UNL     1      -9.536   1.363   0.186  1.00  0.00    -0.273 OA
ATOM      2  N   UNL     1      -8.847  -0.698  -0.526  1.00  0.00    -0.343 N 
ATOM      3  C   UNL     1      -9.424   0.154   0.391  1.00  0.00     0.243 C 
ATOM      4  H   UNL     1      -8.785  -1.690  -0.330  1.00  0.00     0.164 HD
ENDROOT
BRANCH   2   5
ATOM      5  C   UNL     1      -8.232  -0.175  -1.741  1.00  0.00     0.171 C 
ATOM      6  C   UNL     1      -7.094  -1.462  -4.077  1.00  0.00     0.214 C 
ATOM      7  N   UNL     1      -6.243  -1.148  -2.954  1.00  0.00    -0.303 N 
ATOM      8  C   UNL     1      -8.262  -0.500  -4.234  1.00  0.00     0.057 C 
ATOM      9  C   UNL     1      -6.730  -0.580  -1.788  1.00  0.00     0.247 C 
ATOM     10  C   UNL     1      -9.089  -0.486  -2.967  1.00  0.00     0.040 C 
ATOM     11  O   UNL     1      -6.011  -0.394  -0.798  1.00  0.00    -0.272 OA
BRANCH   6  12
ATOM     12  O   UNL     1      -7.562  -2.780  -3.907  1.00  0.00    -0.373 OA
ATOM     13  H   UNL     1      -8.473  -2.718  -3.548  1.00  0.00     0.213 HD
ENDBRANCH   6  12
BRANCH   7  14
ATOM     14  C   UNL     1      -4.835  -1.593  -3.034  1.00  0.00     0.177 C 
BRANCH  14  15
ATOM     15  C   UNL     1      -4.628  -3.120  -3.021  1.00  0.00     0.038 C 
BRANCH  15  16
ATOM     16  C   UNL     1      -4.510  -3.860  -1.670  1.00  0.00    -0.015 C 
ATOM     17  C   UNL     1      -5.870  -4.303  -1.124  1.00  0.00     0.007 C 
ATOM     18  C   UNL     1      -3.852  -2.942  -0.632  1.00  0.00     0.007 C 
ENDBRANCH  15  16
ENDBRANCH  14  15
BRANCH  14  19
ATOM     19  C   UNL     1      -3.989  -0.571  -3.868  1.00  0.00     0.245 C 
ATOM     20  O   UNL     1      -4.103  -0.626  -5.104  1.00  0.00    -0.272 OA
BRANCH  19  21
ATOM     21  N   UNL     1      -3.058   0.292  -3.315  1.00  0.00    -0.332 N 
ATOM     22  C   UNL     1      -3.364   1.434  -2.472  1.00  0.00     0.147 C 
BRANCH  21  23
ATOM     23  C   UNL     1      -1.620   0.046  -3.611  1.00  0.00     0.178 C 
BRANCH  23  24
ATOM     24  C   UNL     1      -1.236  -1.440  -3.758  1.00  0.00     0.070 C 
BRANCH  24  25
ATOM     25  C   UNL     1      -0.781  -2.161  -2.510  1.00  0.00    -0.045 A 
ATOM     26  C   UNL     1      -0.726  -3.560  -2.469  1.00  0.00     0.004 A 
ATOM     27  C   UNL     1      -0.411  -1.433  -1.369  1.00  0.00     0.004 A 
ATOM     28  C   UNL     1      -0.321  -4.218  -1.306  1.00  0.00     0.000 A 
ATOM     29  C   UNL     1      -0.005  -2.093  -0.208  1.00  0.00     0.000 A 
ATOM     30  C   UNL     1       0.037  -3.485  -0.176  1.00  0.00     0.000 A 
ENDBRANCH  24  25
ENDBRANCH  23  24
BRANCH  23  31
ATOM     31  C   UNL     1      -1.064   0.975  -4.717  1.00  0.00     0.243 C 
ATOM     32  O   UNL     1      -1.689   1.913  -5.205  1.00  0.00    -0.273 OA
ATOM     33  N   UNL     1       0.141   0.545  -5.246  1.00  0.00    -0.341 N 
ATOM     34  H   UNL     1       0.612  -0.246  -4.800  1.00  0.00     0.164 HD
BRANCH  33  35
ATOM     35  C   UNL     1       0.794   1.201  -6.382  1.00  0.00     0.194 C 
BRANCH  35  36
ATOM     36  C   UNL     1       0.182   0.836  -7.764  1.00  0.00     0.017 C 
ATOM     37  C   UNL     1      -0.069  -0.677  -7.883  1.00  0.00     0.010 C 
ATOM     38  C   UNL     1       1.069   1.249  -8.945  1.00  0.00     0.010 C 
ENDBRANCH  35  36
BRANCH  35  39
ATOM     39  C   UNL     1       2.339   1.025  -6.367  1.00  0.00     0.329 C 
ATOM     40  O   UNL     1       2.906  -0.059  -6.427  1.00  0.00    -0.250 OA
BRANCH  39  41
ATOM     41  O   UNL     1       2.998   2.223  -6.367  1.00  0.00    -0.458 OA
BRANCH  41  42
ATOM     42  C   UNL     1       4.444   2.159  -6.352  1.00  0.00     0.205 CG0
ATOM     43  C   UNL     1       4.914   2.813  -5.055  1.00  0.00     0.056 C 
ATOM     44  G   UNL     1       4.982   2.880  -7.604  1.00  0.00     0.000 G0
ENDBRANCH  41  42
ENDBRANCH  39  41
ENDBRANCH  35  39
ENDBRANCH  33  35
ENDBRANCH  23  31
ENDBRANCH  21  23
ENDBRANCH  19  21
ENDBRANCH  14  19
ENDBRANCH   7  14
ENDBRANCH   2   5
BRANCH   3  45
ATOM     45  C   UNL     1      -9.937  -0.511   1.675  1.00  0.00     0.171 C 
BRANCH  45  46
ATOM     46  N   UNL     1     -11.350  -0.169   1.759  1.00  0.00    -0.342 N 
ATOM     47  C   UNL     1     -12.326  -0.914   1.147  1.00  0.00     0.247 C 
ATOM     48  O   UNL     1     -12.088  -1.962   0.545  1.00  0.00    -0.273 OA
ATOM     49  H   UNL     1     -11.597   0.661   2.295  1.00  0.00     0.164 HD
BRANCH  47  50
ATOM     50  C   UNL     1     -13.744  -0.331   1.240  1.00  0.00     0.212 CG0
ATOM     51  G   UNL     1     -14.739  -1.478   0.974  1.00  0.00     0.000 G0
BRANCH  50  52
ATOM     52  N   UNL     1     -13.849   0.223   2.587  1.00  0.00    -0.339 N 
ATOM     53  C   UNL     1     -14.884   1.030   2.993  1.00  0.00     0.243 C 
ATOM     54  O   UNL     1     -15.778   1.393   2.234  1.00  0.00    -0.273 OA
ATOM     55  H   UNL     1     -13.080   0.049   3.231  1.00  0.00     0.164 HD
BRANCH  53  56
ATOM     56  C   UNL     1     -14.735   1.565   4.432  1.00  0.00     0.182 C 
BRANCH  56  57
ATOM     57  N   UNL     1     -15.020   0.515   5.416  1.00  0.00    -0.344 N 
ATOM     58  C   UNL     1     -14.036  -0.074   6.170  1.00  0.00     0.220 C 
ATOM     59  O   UNL     1     -12.845   0.181   6.023  1.00  0.00    -0.275 OA
ATOM     60  H   UNL     1     -15.998   0.348   5.640  1.00  0.00     0.164 HD
BRANCH  58  61
ATOM     61  C   UNL     1     -14.567  -1.091   7.164  1.00  0.00     0.100 C 
BRANCH  61  62
ATOM     62  C   UNL     1     -13.564  -2.190   7.516  1.00  0.00     0.010 C 
BRANCH  62  63
ATOM     63  C   UNL     1     -13.014  -2.103   8.946  1.00  0.00     0.000 C 
BRANCH  63  64
ATOM     64  C   UNL     1     -13.618  -3.120   9.913  1.00  0.00    -0.003 C 
ATOM     65  C   UNL     1     -14.210  -2.438  11.137  1.00  0.00     0.004 C 
ENDBRANCH  63  64
ENDBRANCH  62  63
ENDBRANCH  61  62
ENDBRANCH  58  61
ENDBRANCH  56  57
BRANCH  56  66
ATOM     66  C   UNL     1     -15.586   2.813   4.657  1.00  0.00     0.157 C 
BRANCH  66  67
ATOM     67  C   UNL     1     -16.839   2.487   5.417  1.00  0.00     0.305 C 
ATOM     68  O   UNL     1     -17.086   2.770   6.580  1.00  0.00    -0.252 OA
BRANCH  67  69
ATOM     69  O   UNL     1     -17.753   1.859   4.653  1.00  0.00    -0.481 OA
ATOM     70  H   UNL     1     -17.415   0.943   4.560  1.00  0.00     0.296 HD
ENDBRANCH  67  69
ENDBRANCH  66  67
ENDBRANCH  56  66
ENDBRANCH  53  56
ENDBRANCH  50  52
ENDBRANCH  47  50
ENDBRANCH  45  46
BRANCH  45  71
ATOM     71  C   UNL     1      -9.157   0.003   2.890  1.00  0.00     0.037 C 
BRANCH  71  72
ATOM     72  C   UNL     1      -7.711  -0.499   2.900  1.00  0.00     0.026 C 
BRANCH  72  73
ATOM     73  C   UNL     1      -6.742   0.593   3.352  1.00  0.00     0.146 C 
BRANCH  73  74
ATOM     74  N   UNL     1      -5.842   0.879   2.239  1.00  0.00    -0.254 NA
ATOM     75  C   UNL     1      -6.082   1.917   1.526  1.00  0.00     0.185 C 
ATOM     76  N   UNL     1      -5.270   2.208   0.496  1.00  0.00    -0.370 N 
ATOM     77  N   UNL     1      -7.074   2.816   1.649  1.00  0.00    -0.370 N 
ATOM     78  H   UNL     1      -4.500   1.576   0.328  1.00  0.00     0.159 HD
ATOM     79  H   UNL     1      -5.476   2.914  -0.188  1.00  0.00     0.159 HD
ATOM     80  H   UNL     1      -7.759   2.727   2.384  1.00  0.00     0.159 HD
ATOM     81  H   UNL     1      -7.094   3.659   1.099  1.00  0.00     0.159 HD
ENDBRANCH  73  74
ENDBRANCH  72  73
ENDBRANCH  71  72
ENDBRANCH  45  71
ENDBRANCH   3  45
TORSDOF 20
ENDMDL
MODEL 31
REMARK VINA RESULT:    -5.800      7.735     13.093
REMARK INTER + INTRA:         -22.419
REMARK INTER:                 -16.500
REMARK INTRA:                  -5.919
REMARK UNBOUND:                -5.767
REMARK SMILES CCCCCC(=O)N[C@H](CC(=O)O)C(=O)N[C@H]1C(=O)N[C@H](CCCN=C(N)N)C(=O)N[C@@H]2CC[C@H](O)N(C2=O)[C@@H](CC(C)C)C(=O)N(C)[C@@H](Cc2ccccc2)C(=O)N[C@H](C(C)C)C(=O)O[C@@H]1C
REMARK SMILES IDX 30 1 31 2 29 3 32 5 35 6 37 7 34 8 38 9 33 10 39 11 36 12
REMARK SMILES IDX 40 14 41 15 42 16 43 17 44 18 45 19 46 20 47 21 48 22 49 23
REMARK SMILES IDX 50 24 51 25 52 26 56 27 53 28 55 29 54 30 57 31 58 32 59 33
REMARK SMILES IDX 60 35 61 36 62 37 63 38 64 39 65 40 66 41 67 42 68 43 21 45
REMARK SMILES IDX 20 46 18 47 19 48 17 50 16 52 14 53 15 54 9 56 8 57 6 58
REMARK SMILES IDX 7 59 5 61 4 62 3 63 2 64 1 65 10 66 11 67 12 68 13 69 22 71
REMARK SMILES IDX 23 72 24 73 25 74 26 75 27 76 28 77
REMARK H PARENT 31 4 36 13 59 34 20 49 16 55 8 60 13 70 27 78 27 79 28 80
REMARK H PARENT 28 81
REMARK Flexibility Score:  259.900
ROOT
ATOM      1  O   UNL     1       2.993  -1.454 -12.234  1.00  0.00    -0.273 OA
ATOM      2  N   UNL     1       0.844  -1.809 -11.538  1.00  0.00    -0.343 N 
ATOM      3  C   UNL     1       2.124  -1.326 -11.371  1.00  0.00     0.243 C 
ATOM      4  H   UNL     1       0.151  -1.673 -10.812  1.00  0.00     0.164 HD
ENDROOT
BRANCH   2   5
ATOM      5  C   UNL     1       0.497  -2.604 -12.711  1.00  0.00     0.171 C 
ATOM      6  C   UNL     1      -1.996  -3.759 -13.634  1.00  0.00     0.214 C 
ATOM      7  N   UNL     1      -1.123  -4.538 -12.787  1.00  0.00    -0.303 N 
ATOM      8  C   UNL     1      -1.254  -2.762 -14.509  1.00  0.00     0.057 C 
ATOM      9  C   UNL     1       0.057  -4.030 -12.270  1.00  0.00     0.247 C 
ATOM     10  C   UNL     1      -0.435  -1.830 -13.642  1.00  0.00     0.040 C 
ATOM     11  O   UNL     1       0.756  -4.673 -11.476  1.00  0.00    -0.272 OA
BRANCH   6  12
ATOM     12  O   UNL     1      -2.920  -3.094 -12.804  1.00  0.00    -0.373 OA
ATOM     13  H   UNL     1      -3.527  -2.595 -13.391  1.00  0.00     0.213 HD
ENDBRANCH   6  12
BRANCH   7  14
ATOM     14  C   UNL     1      -1.610  -5.869 -12.365  1.00  0.00     0.177 C 
BRANCH  14  15
ATOM     15  C   UNL     1      -3.005  -5.879 -11.709  1.00  0.00     0.038 C 
BRANCH  15  16
ATOM     16  C   UNL     1      -3.144  -5.534 -10.210  1.00  0.00    -0.015 C 
ATOM     17  C   UNL     1      -2.034  -6.162  -9.361  1.00  0.00     0.007 C 
ATOM     18  C   UNL     1      -4.494  -6.039  -9.684  1.00  0.00     0.007 C 
ENDBRANCH  15  16
ENDBRANCH  14  15
BRANCH  14  19
ATOM     19  C   UNL     1      -1.047  -6.981 -13.315  1.00  0.00     0.245 C 
ATOM     20  O   UNL     1      -1.609  -7.114 -14.415  1.00  0.00    -0.272 OA
BRANCH  19  21
ATOM     21  N   UNL     1      -0.054  -7.874 -12.953  1.00  0.00    -0.332 N 
ATOM     22  C   UNL     1       0.994  -8.369 -13.828  1.00  0.00     0.147 C 
BRANCH  21  23
ATOM     23  C   UNL     1      -0.055  -8.386 -11.555  1.00  0.00     0.178 C 
BRANCH  23  24
ATOM     24  C   UNL     1      -0.812  -9.715 -11.356  1.00  0.00     0.070 C 
BRANCH  24  25
ATOM     25  C   UNL     1      -1.940  -9.720 -10.350  1.00  0.00    -0.045 A 
ATOM     26  C   UNL     1      -3.276  -9.722 -10.770  1.00  0.00     0.004 A 
ATOM     27  C   UNL     1      -1.662  -9.717  -8.975  1.00  0.00     0.004 A 
ATOM     28  C   UNL     1      -4.313  -9.709  -9.834  1.00  0.00     0.000 A 
ATOM     29  C   UNL     1      -2.699  -9.705  -8.041  1.00  0.00     0.000 A 
ATOM     30  C   UNL     1      -4.024  -9.698  -8.471  1.00  0.00     0.000 A 
ENDBRANCH  24  25
ENDBRANCH  23  24
BRANCH  23  31
ATOM     31  C   UNL     1       1.341  -8.326 -10.889  1.00  0.00     0.243 C 
ATOM     32  O   UNL     1       1.878  -9.280 -10.333  1.00  0.00    -0.273 OA
ATOM     33  N   UNL     1       1.860  -7.045 -10.809  1.00  0.00    -0.341 N 
ATOM     34  H   UNL     1       1.364  -6.289 -11.288  1.00  0.00     0.164 HD
BRANCH  33  35
ATOM     35  C   UNL     1       3.112  -6.732 -10.115  1.00  0.00     0.194 C 
BRANCH  35  36
ATOM     36  C   UNL     1       4.377  -7.346 -10.779  1.00  0.00     0.017 C 
ATOM     37  C   UNL     1       5.651  -6.592 -10.357  1.00  0.00     0.010 C 
ATOM     38  C   UNL     1       4.321  -7.333 -12.311  1.00  0.00     0.010 C 
ENDBRANCH  35  36
BRANCH  35  39
ATOM     39  C   UNL     1       3.045  -7.045  -8.593  1.00  0.00     0.329 C 
ATOM     40  O   UNL     1       3.516  -8.053  -8.079  1.00  0.00    -0.250 OA
BRANCH  39  41
ATOM     41  O   UNL     1       2.479  -6.027  -7.878  1.00  0.00    -0.458 OA
BRANCH  41  42
ATOM     42  C   UNL     1       3.306  -4.860  -7.657  1.00  0.00     0.205 CG0
ATOM     43  C   UNL     1       4.012  -5.050  -6.316  1.00  0.00     0.056 C 
ATOM     44  G   UNL     1       2.407  -3.608  -7.677  1.00  0.00     0.000 G0
ENDBRANCH  41  42
ENDBRANCH  39  41
ENDBRANCH  35  39
ENDBRANCH  33  35
ENDBRANCH  23  31
ENDBRANCH  21  23
ENDBRANCH  19  21
ENDBRANCH  14  19
ENDBRANCH   7  14
ENDBRANCH   2   5
BRANCH   3  45
ATOM     45  C   UNL     1       2.385  -0.601 -10.044  1.00  0.00     0.171 C 
BRANCH  45  46
ATOM     46  N   UNL     1       2.089  -1.572  -8.999  1.00  0.00    -0.342 N 
ATOM     47  C   UNL     1       2.925  -2.621  -8.712  1.00  0.00     0.247 C 
ATOM     48  O   UNL     1       4.016  -2.777  -9.262  1.00  0.00    -0.273 OA
ATOM     49  H   UNL     1       1.222  -1.448  -8.480  1.00  0.00     0.164 HD
BRANCH  47  50
ATOM     50  C   UNL     1       2.390  -3.611  -7.667  1.00  0.00     0.212 CG0
ATOM     51  G   UNL     1       3.328  -4.835  -7.659  1.00  0.00     0.000 G0
BRANCH  50  52
ATOM     52  N   UNL     1       2.385  -2.879  -6.403  1.00  0.00    -0.339 N 
ATOM     53  C   UNL     1       1.273  -2.251  -5.898  1.00  0.00     0.243 C 
ATOM     54  O   UNL     1       0.204  -2.212  -6.501  1.00  0.00    -0.273 OA
ATOM     55  H   UNL     1       3.270  -2.781  -5.910  1.00  0.00     0.164 HD
BRANCH  53  56
ATOM     56  C   UNL     1       1.531  -1.470  -4.594  1.00  0.00     0.182 C 
BRANCH  56  57
ATOM     57  N   UNL     1       2.658  -0.545  -4.749  1.00  0.00    -0.344 N 
ATOM     58  C   UNL     1       2.490   0.762  -5.135  1.00  0.00     0.220 C 
ATOM     59  O   UNL     1       1.399   1.226  -5.448  1.00  0.00    -0.275 OA
ATOM     60  H   UNL     1       3.562  -0.858  -4.404  1.00  0.00     0.164 HD
BRANCH  58  61
ATOM     61  C   UNL     1       3.786   1.550  -5.172  1.00  0.00     0.100 C 
BRANCH  61  62
ATOM     62  C   UNL     1       4.073   2.202  -6.526  1.00  0.00     0.010 C 
BRANCH  62  63
ATOM     63  C   UNL     1       4.459   1.210  -7.630  1.00  0.00     0.000 C 
BRANCH  63  64
ATOM     64  C   UNL     1       5.955   0.907  -7.706  1.00  0.00    -0.003 C 
ATOM     65  C   UNL     1       6.741   1.738  -6.702  1.00  0.00     0.004 C 
ENDBRANCH  63  64
ENDBRANCH  62  63
ENDBRANCH  61  62
ENDBRANCH  58  61
ENDBRANCH  56  57
BRANCH  56  66
ATOM     66  C   UNL     1       1.717  -2.412  -3.405  1.00  0.00     0.157 C 
BRANCH  66  67
ATOM     67  C   UNL     1       0.405  -2.987  -2.957  1.00  0.00     0.305 C 
ATOM     68  O   UNL     1      -0.564  -2.368  -2.544  1.00  0.00    -0.252 OA
BRANCH  67  69
ATOM     69  O   UNL     1       0.357  -4.325  -3.100  1.00  0.00    -0.481 OA
ATOM     70  H   UNL     1       1.154  -4.655  -2.634  1.00  0.00     0.296 HD
ENDBRANCH  67  69
ENDBRANCH  66  67
ENDBRANCH  56  66
ENDBRANCH  53  56
ENDBRANCH  50  52
ENDBRANCH  47  50
ENDBRANCH  45  46
BRANCH  45  71
ATOM     71  C   UNL     1       1.493   0.641  -9.931  1.00  0.00     0.037 C 
BRANCH  71  72
ATOM     72  C   UNL     1       2.168   1.889 -10.507  1.00  0.00     0.026 C 
BRANCH  72  73
ATOM     73  C   UNL     1       1.944   3.109  -9.616  1.00  0.00     0.146 C 
BRANCH  73  74
ATOM     74  N   UNL     1       2.788   4.189 -10.117  1.00  0.00    -0.254 NA
ATOM     75  C   UNL     1       2.238   5.327 -10.332  1.00  0.00     0.185 C 
ATOM     76  N   UNL     1       2.989   6.342 -10.792  1.00  0.00    -0.370 N 
ATOM     77  N   UNL     1       0.956   5.693 -10.160  1.00  0.00    -0.370 N 
ATOM     78  H   UNL     1       3.967   6.149 -10.956  1.00  0.00     0.159 HD
ATOM     79  H   UNL     1       2.605   7.211 -11.118  1.00  0.00     0.159 HD
ATOM     80  H   UNL     1       0.276   5.033  -9.815  1.00  0.00     0.159 HD
ATOM     81  H   UNL     1       0.663   6.651 -10.253  1.00  0.00     0.159 HD
ENDBRANCH  73  74
ENDBRANCH  72  73
ENDBRANCH  71  72
ENDBRANCH  45  71
ENDBRANCH   3  45
TORSDOF 20
ENDMDL
MODEL 32
REMARK VINA RESULT:    -5.791      5.909     10.752
REMARK INTER + INTRA:         -22.392
REMARK INTER:                 -17.993
REMARK INTRA:                  -4.400
REMARK UNBOUND:                -5.767
REMARK SMILES CCCCCC(=O)N[C@H](CC(=O)O)C(=O)N[C@H]1C(=O)N[C@H](CCCN=C(N)N)C(=O)N[C@@H]2CC[C@H](O)N(C2=O)[C@@H](CC(C)C)C(=O)N(C)[C@@H](Cc2ccccc2)C(=O)N[C@H](C(C)C)C(=O)O[C@@H]1C
REMARK SMILES IDX 30 1 31 2 29 3 32 5 35 6 37 7 34 8 38 9 33 10 39 11 36 12
REMARK SMILES IDX 40 14 41 15 42 16 43 17 44 18 45 19 46 20 47 21 48 22 49 23
REMARK SMILES IDX 50 24 51 25 52 26 56 27 53 28 55 29 54 30 57 31 58 32 59 33
REMARK SMILES IDX 60 35 61 36 62 37 63 38 64 39 65 40 66 41 67 42 68 43 21 45
REMARK SMILES IDX 20 46 18 47 19 48 17 50 16 52 14 53 15 54 9 56 8 57 6 58
REMARK SMILES IDX 7 59 5 61 4 62 3 63 2 64 1 65 10 66 11 67 12 68 13 69 22 71
REMARK SMILES IDX 23 72 24 73 25 74 26 75 27 76 28 77
REMARK H PARENT 31 4 36 13 59 34 20 49 16 55 8 60 13 70 27 78 27 79 28 80
REMARK H PARENT 28 81
REMARK Flexibility Score:  259.900
ROOT
ATOM      1  O   UNL     1      -4.504  -2.319   2.151  1.00  0.00    -0.273 OA
ATOM      2  N   UNL     1      -5.756  -2.896   0.326  1.00  0.00    -0.343 N 
ATOM      3  C   UNL     1      -4.670  -2.300   0.931  1.00  0.00     0.243 C 
ATOM      4  H   UNL     1      -5.853  -2.873  -0.682  1.00  0.00     0.164 HD
ENDROOT
BRANCH   2   5
ATOM      5  C   UNL     1      -6.825  -3.479   1.128  1.00  0.00     0.171 C 
ATOM      6  C   UNL     1      -8.970  -5.326   0.499  1.00  0.00     0.214 C 
ATOM      7  N   UNL     1      -9.199  -3.905   0.383  1.00  0.00    -0.303 N 
ATOM      8  C   UNL     1      -7.949  -5.686   1.567  1.00  0.00     0.057 C 
ATOM      9  C   UNL     1      -8.204  -2.970   0.619  1.00  0.00     0.247 C 
ATOM     10  C   UNL     1      -6.638  -4.988   1.278  1.00  0.00     0.040 C 
ATOM     11  O   UNL     1      -8.384  -1.759   0.434  1.00  0.00    -0.272 OA
BRANCH   6  12
ATOM     12  O   UNL     1      -8.551  -5.798  -0.761  1.00  0.00    -0.373 OA
ATOM     13  H   UNL     1      -9.356  -5.892  -1.314  1.00  0.00     0.213 HD
ENDBRANCH   6  12
BRANCH   7  14
ATOM     14  C   UNL     1     -10.513  -3.479  -0.146  1.00  0.00     0.177 C 
BRANCH  14  15
ATOM     15  C   UNL     1     -10.570  -3.274  -1.672  1.00  0.00     0.038 C 
BRANCH  15  16
ATOM     16  C   UNL     1     -10.875  -1.870  -2.241  1.00  0.00    -0.015 C 
ATOM     17  C   UNL     1     -12.348  -1.483  -2.083  1.00  0.00     0.007 C 
ATOM     18  C   UNL     1     -10.524  -1.828  -3.733  1.00  0.00     0.007 C 
ENDBRANCH  15  16
ENDBRANCH  14  15
BRANCH  14  19
ATOM     19  C   UNL     1     -11.669  -4.065   0.735  1.00  0.00     0.245 C 
ATOM     20  O   UNL     1     -11.936  -3.456   1.785  1.00  0.00    -0.272 OA
BRANCH  19  21
ATOM     21  N   UNL     1     -12.315  -5.258   0.465  1.00  0.00    -0.332 N 
ATOM     22  C   UNL     1     -12.352  -6.414   1.344  1.00  0.00     0.147 C 
BRANCH  21  23
ATOM     23  C   UNL     1     -13.027  -5.385  -0.836  1.00  0.00     0.178 C 
BRANCH  23  24
ATOM     24  C   UNL     1     -12.721  -6.681  -1.615  1.00  0.00     0.070 C 
BRANCH  24  25
ATOM     25  C   UNL     1     -12.472  -6.549  -3.100  1.00  0.00    -0.045 A 
ATOM     26  C   UNL     1     -13.524  -6.667  -4.017  1.00  0.00     0.004 A 
ATOM     27  C   UNL     1     -11.176  -6.311  -3.581  1.00  0.00     0.004 A 
ATOM     28  C   UNL     1     -13.283  -6.561  -5.389  1.00  0.00     0.000 A 
ATOM     29  C   UNL     1     -10.936  -6.204  -4.952  1.00  0.00     0.000 A 
ATOM     30  C   UNL     1     -11.990  -6.332  -5.855  1.00  0.00     0.000 A 
ENDBRANCH  24  25
ENDBRANCH  23  24
BRANCH  23  31
ATOM     31  C   UNL     1     -14.528  -5.021  -0.742  1.00  0.00     0.243 C 
ATOM     32  O   UNL     1     -15.380  -5.746  -0.236  1.00  0.00    -0.273 OA
ATOM     33  N   UNL     1     -14.865  -3.879  -1.448  1.00  0.00    -0.341 N 
ATOM     34  H   UNL     1     -14.111  -3.318  -1.853  1.00  0.00     0.164 HD
BRANCH  33  35
ATOM     35  C   UNL     1     -16.245  -3.410  -1.597  1.00  0.00     0.194 C 
BRANCH  35  36
ATOM     36  C   UNL     1     -16.867  -2.839  -0.292  1.00  0.00     0.017 C 
ATOM     37  C   UNL     1     -17.842  -1.687  -0.594  1.00  0.00     0.010 C 
ATOM     38  C   UNL     1     -15.819  -2.307   0.694  1.00  0.00     0.010 C 
ENDBRANCH  35  36
BRANCH  35  39
ATOM     39  C   UNL     1     -17.167  -4.469  -2.264  1.00  0.00     0.329 C 
ATOM     40  O   UNL     1     -16.916  -5.027  -3.326  1.00  0.00    -0.250 OA
BRANCH  39  41
ATOM     41  O   UNL     1     -18.251  -4.777  -1.489  1.00  0.00    -0.458 OA
BRANCH  41  42
ATOM     42  C   UNL     1     -19.548  -4.648  -2.120  1.00  0.00     0.205 CG0
ATOM     43  C   UNL     1     -20.579  -4.468  -1.008  1.00  0.00     0.056 C 
ATOM     44  G   UNL     1     -19.809  -5.909  -2.968  1.00  0.00     0.000 G0
ENDBRANCH  41  42
ENDBRANCH  39  41
ENDBRANCH  35  39
ENDBRANCH  33  35
ENDBRANCH  23  31
ENDBRANCH  21  23
ENDBRANCH  19  21
ENDBRANCH  14  19
ENDBRANCH   7  14
ENDBRANCH   2   5
BRANCH   3  45
ATOM     45  C   UNL     1      -3.673  -1.629  -0.023  1.00  0.00     0.171 C 
BRANCH  45  46
ATOM     46  N   UNL     1      -2.379  -1.704   0.643  1.00  0.00    -0.342 N 
ATOM     47  C   UNL     1      -1.207  -1.890  -0.046  1.00  0.00     0.247 C 
ATOM     48  O   UNL     1      -1.153  -1.932  -1.275  1.00  0.00    -0.273 OA
ATOM     49  H   UNL     1      -2.372  -1.617   1.657  1.00  0.00     0.164 HD
BRANCH  47  50
ATOM     50  C   UNL     1       0.040  -2.069   0.832  1.00  0.00     0.212 CG0
ATOM     51  G   UNL     1       1.250  -1.537   0.038  1.00  0.00     0.000 G0
BRANCH  50  52
ATOM     52  N   UNL     1      -0.228  -1.311   2.051  1.00  0.00    -0.339 N 
ATOM     53  C   UNL     1       0.264  -1.664   3.284  1.00  0.00     0.243 C 
ATOM     54  O   UNL     1       0.929  -2.680   3.465  1.00  0.00    -0.273 OA
ATOM     55  H   UNL     1      -0.866  -0.520   1.985  1.00  0.00     0.164 HD
BRANCH  53  56
ATOM     56  C   UNL     1      -0.224  -0.763   4.436  1.00  0.00     0.182 C 
BRANCH  56  57
ATOM     57  N   UNL     1      -1.573  -0.253   4.169  1.00  0.00    -0.344 N 
ATOM     58  C   UNL     1      -2.610  -0.414   5.056  1.00  0.00     0.220 C 
ATOM     59  O   UNL     1      -2.500  -1.056   6.095  1.00  0.00    -0.275 OA
ATOM     60  H   UNL     1      -1.682   0.369   3.373  1.00  0.00     0.164 HD
BRANCH  58  61
ATOM     61  C   UNL     1      -3.899   0.244   4.601  1.00  0.00     0.100 C 
BRANCH  61  62
ATOM     62  C   UNL     1      -4.857   0.580   5.745  1.00  0.00     0.010 C 
BRANCH  62  63
ATOM     63  C   UNL     1      -6.252  -0.041   5.598  1.00  0.00     0.000 C 
BRANCH  63  64
ATOM     64  C   UNL     1      -7.401   0.922   5.891  1.00  0.00    -0.003 C 
ATOM     65  C   UNL     1      -8.416   0.937   4.758  1.00  0.00     0.004 C 
ENDBRANCH  63  64
ENDBRANCH  62  63
ENDBRANCH  61  62
ENDBRANCH  58  61
ENDBRANCH  56  57
BRANCH  56  66
ATOM     66  C   UNL     1       0.769   0.360   4.728  1.00  0.00     0.157 C 
BRANCH  66  67
ATOM     67  C   UNL     1       0.185   1.371   5.673  1.00  0.00     0.305 C 
ATOM     68  O   UNL     1       0.183   1.318   6.893  1.00  0.00    -0.252 OA
BRANCH  67  69
ATOM     69  O   UNL     1      -0.329   2.436   5.029  1.00  0.00    -0.481 OA
ATOM     70  H   UNL     1      -1.030   2.775   5.625  1.00  0.00     0.296 HD
ENDBRANCH  67  69
ENDBRANCH  66  67
ENDBRANCH  56  66
ENDBRANCH  53  56
ENDBRANCH  50  52
ENDBRANCH  47  50
ENDBRANCH  45  46
BRANCH  45  71
ATOM     71  C   UNL     1      -4.086  -0.178  -0.293  1.00  0.00     0.037 C 
BRANCH  71  72
ATOM     72  C   UNL     1      -4.352   0.079  -1.779  1.00  0.00     0.026 C 
BRANCH  72  73
ATOM     73  C   UNL     1      -3.282   0.980  -2.392  1.00  0.00     0.146 C 
BRANCH  73  74
ATOM     74  N   UNL     1      -3.950   1.920  -3.287  1.00  0.00    -0.254 NA
ATOM     75  C   UNL     1      -4.270   3.069  -2.817  1.00  0.00     0.185 C 
ATOM     76  N   UNL     1      -4.884   3.957  -3.617  1.00  0.00    -0.370 N 
ATOM     77  N   UNL     1      -4.079   3.560  -1.580  1.00  0.00    -0.370 N 
ATOM     78  H   UNL     1      -5.073   3.664  -4.565  1.00  0.00     0.159 HD
ATOM     79  H   UNL     1      -5.291   4.813  -3.284  1.00  0.00     0.159 HD
ATOM     80  H   UNL     1      -3.624   3.004  -0.872  1.00  0.00     0.159 HD
ATOM     81  H   UNL     1      -4.270   4.523  -1.358  1.00  0.00     0.159 HD
ENDBRANCH  73  74
ENDBRANCH  72  73
ENDBRANCH  71  72
ENDBRANCH  45  71
ENDBRANCH   3  45
TORSDOF 20
ENDMDL
MODEL 33
REMARK VINA RESULT:    -5.755      8.873     12.447
REMARK INTER + INTRA:         -22.287
REMARK INTER:                 -15.840
REMARK INTRA:                  -6.447
REMARK UNBOUND:                -5.767
REMARK SMILES CCCCCC(=O)N[C@H](CC(=O)O)C(=O)N[C@H]1C(=O)N[C@H](CCCN=C(N)N)C(=O)N[C@@H]2CC[C@H](O)N(C2=O)[C@@H](CC(C)C)C(=O)N(C)[C@@H](Cc2ccccc2)C(=O)N[C@H](C(C)C)C(=O)O[C@@H]1C
REMARK SMILES IDX 30 1 31 2 29 3 32 5 35 6 37 7 34 8 38 9 33 10 39 11 36 12
REMARK SMILES IDX 40 14 41 15 42 16 43 17 44 18 45 19 46 20 47 21 48 22 49 23
REMARK SMILES IDX 50 24 51 25 52 26 56 27 53 28 55 29 54 30 57 31 58 32 59 33
REMARK SMILES IDX 60 35 61 36 62 37 63 38 64 39 65 40 66 41 67 42 68 43 21 45
REMARK SMILES IDX 20 46 18 47 19 48 17 50 16 52 14 53 15 54 9 56 8 57 6 58
REMARK SMILES IDX 7 59 5 61 4 62 3 63 2 64 1 65 10 66 11 67 12 68 13 69 22 71
REMARK SMILES IDX 23 72 24 73 25 74 26 75 27 76 28 77
REMARK H PARENT 31 4 36 13 59 34 20 49 16 55 8 60 13 70 27 78 27 79 28 80
REMARK H PARENT 28 81
REMARK Flexibility Score:  259.900
ROOT
ATOM      1  O   UNL     1     -12.651  -6.722  -4.231  1.00  0.00    -0.273 OA
ATOM      2  N   UNL     1     -14.375  -7.504  -2.948  1.00  0.00    -0.343 N 
ATOM      3  C   UNL     1     -13.817  -7.110  -4.145  1.00  0.00     0.243 C 
ATOM      4  H   UNL     1     -15.333  -7.832  -2.917  1.00  0.00     0.164 HD
ENDROOT
BRANCH   2   5
ATOM      5  C   UNL     1     -13.633  -7.362  -1.700  1.00  0.00     0.171 C 
ATOM      6  C   UNL     1     -14.465  -7.204   1.073  1.00  0.00     0.214 C 
ATOM      7  N   UNL     1     -14.318  -5.989   0.305  1.00  0.00    -0.303 N 
ATOM      8  C   UNL     1     -13.530  -8.316   0.625  1.00  0.00     0.057 C 
ATOM      9  C   UNL     1     -13.973  -5.996  -1.037  1.00  0.00     0.247 C 
ATOM     10  C   UNL     1     -13.760  -8.619  -0.840  1.00  0.00     0.040 C 
ATOM     11  O   UNL     1     -13.934  -4.958  -1.710  1.00  0.00    -0.272 OA
BRANCH   6  12
ATOM     12  O   UNL     1     -15.808  -7.618   0.970  1.00  0.00    -0.373 OA
ATOM     13  H   UNL     1     -16.131  -7.774   1.883  1.00  0.00     0.213 HD
ENDBRANCH   6  12
BRANCH   7  14
ATOM     14  C   UNL     1     -14.695  -4.725   0.972  1.00  0.00     0.177 C 
BRANCH  14  15
ATOM     15  C   UNL     1     -16.177  -4.326   0.831  1.00  0.00     0.038 C 
BRANCH  15  16
ATOM     16  C   UNL     1     -16.559  -2.831   0.750  1.00  0.00    -0.015 C 
ATOM     17  C   UNL     1     -18.073  -2.610   0.826  1.00  0.00     0.007 C 
ATOM     18  C   UNL     1     -16.053  -2.238  -0.571  1.00  0.00     0.007 C 
ENDBRANCH  15  16
ENDBRANCH  14  15
BRANCH  14  19
ATOM     19  C   UNL     1     -13.812  -4.497   2.246  1.00  0.00     0.245 C 
ATOM     20  O   UNL     1     -12.583  -4.448   2.073  1.00  0.00    -0.272 OA
BRANCH  19  21
ATOM     21  N   UNL     1     -14.312  -4.464   3.536  1.00  0.00    -0.332 N 
ATOM     22  C   UNL     1     -15.340  -5.343   4.064  1.00  0.00     0.147 C 
BRANCH  21  23
ATOM     23  C   UNL     1     -13.768  -3.437   4.467  1.00  0.00     0.178 C 
BRANCH  23  24
ATOM     24  C   UNL     1     -14.789  -2.376   4.926  1.00  0.00     0.070 C 
BRANCH  24  25
ATOM     25  C   UNL     1     -15.176  -1.314   3.923  1.00  0.00    -0.045 A 
ATOM     26  C   UNL     1     -16.471  -0.782   3.905  1.00  0.00     0.004 A 
ATOM     27  C   UNL     1     -14.238  -0.848   2.988  1.00  0.00     0.004 A 
ATOM     28  C   UNL     1     -16.825   0.187   2.963  1.00  0.00     0.000 A 
ATOM     29  C   UNL     1     -14.594   0.121   2.049  1.00  0.00     0.000 A 
ATOM     30  C   UNL     1     -15.888   0.636   2.036  1.00  0.00     0.000 A 
ENDBRANCH  24  25
ENDBRANCH  23  24
BRANCH  23  31
ATOM     31  C   UNL     1     -12.907  -4.045   5.599  1.00  0.00     0.243 C 
ATOM     32  O   UNL     1     -11.869  -4.674   5.411  1.00  0.00    -0.273 OA
ATOM     33  N   UNL     1     -13.507  -3.981   6.846  1.00  0.00    -0.341 N 
ATOM     34  H   UNL     1     -14.375  -3.447   6.940  1.00  0.00     0.164 HD
BRANCH  33  35
ATOM     35  C   UNL     1     -12.929  -4.597   8.043  1.00  0.00     0.194 C 
BRANCH  35  36
ATOM     36  C   UNL     1     -13.869  -5.615   8.750  1.00  0.00     0.017 C 
ATOM     37  C   UNL     1     -13.453  -7.064   8.446  1.00  0.00     0.010 C 
ATOM     38  C   UNL     1     -15.339  -5.463   8.341  1.00  0.00     0.010 C 
ENDBRANCH  35  36
BRANCH  35  39
ATOM     39  C   UNL     1     -12.355  -3.550   9.038  1.00  0.00     0.329 C 
ATOM     40  O   UNL     1     -11.205  -3.561   9.458  1.00  0.00    -0.250 OA
BRANCH  39  41
ATOM     41  O   UNL     1     -13.254  -2.560   9.326  1.00  0.00    -0.458 OA
BRANCH  41  42
ATOM     42  C   UNL     1     -13.707  -2.486  10.699  1.00  0.00     0.205 CG0
ATOM     43  C   UNL     1     -15.234  -2.489  10.674  1.00  0.00     0.056 C 
ATOM     44  G   UNL     1     -13.131  -1.207  11.338  1.00  0.00     0.000 G0
ENDBRANCH  41  42
ENDBRANCH  39  41
ENDBRANCH  35  39
ENDBRANCH  33  35
ENDBRANCH  23  31
ENDBRANCH  21  23
ENDBRANCH  19  21
ENDBRANCH  14  19
ENDBRANCH   7  14
ENDBRANCH   2   5
BRANCH   3  45
ATOM     45  C   UNL     1     -14.741  -7.210  -5.365  1.00  0.00     0.171 C 
BRANCH  45  46
ATOM     46  N   UNL     1     -13.978  -6.669  -6.482  1.00  0.00    -0.342 N 
ATOM     47  C   UNL     1     -13.659  -7.417  -7.587  1.00  0.00     0.247 C 
ATOM     48  O   UNL     1     -14.053  -8.573  -7.749  1.00  0.00    -0.273 OA
ATOM     49  H   UNL     1     -13.680  -5.697  -6.415  1.00  0.00     0.164 HD
BRANCH  47  50
ATOM     50  C   UNL     1     -12.745  -6.718  -8.604  1.00  0.00     0.212 CG0
ATOM     51  G   UNL     1     -13.617  -6.296  -9.803  1.00  0.00     0.000 G0
BRANCH  50  52
ATOM     52  N   UNL     1     -12.161  -5.587  -7.889  1.00  0.00    -0.339 N 
ATOM     53  C   UNL     1     -11.393  -4.623  -8.498  1.00  0.00     0.243 C 
ATOM     54  O   UNL     1     -11.094  -4.669  -9.688  1.00  0.00    -0.273 OA
ATOM     55  H   UNL     1     -12.280  -5.553  -6.879  1.00  0.00     0.164 HD
BRANCH  53  56
ATOM     56  C   UNL     1     -10.814  -3.576  -7.525  1.00  0.00     0.182 C 
BRANCH  56  57
ATOM     57  N   UNL     1      -9.572  -3.001  -8.050  1.00  0.00    -0.344 N 
ATOM     58  C   UNL     1      -9.487  -1.698  -8.478  1.00  0.00     0.220 C 
ATOM     59  O   UNL     1     -10.457  -0.949  -8.520  1.00  0.00    -0.275 OA
ATOM     60  H   UNL     1      -8.725  -3.553  -7.938  1.00  0.00     0.164 HD
BRANCH  58  61
ATOM     61  C   UNL     1      -8.092  -1.301  -8.925  1.00  0.00     0.100 C 
BRANCH  61  62
ATOM     62  C   UNL     1      -7.149  -2.488  -9.128  1.00  0.00     0.010 C 
BRANCH  62  63
ATOM     63  C   UNL     1      -5.745  -2.098  -9.606  1.00  0.00     0.000 C 
BRANCH  63  64
ATOM     64  C   UNL     1      -5.005  -3.210 -10.350  1.00  0.00    -0.003 C 
ATOM     65  C   UNL     1      -5.801  -4.507 -10.342  1.00  0.00     0.004 C 
ENDBRANCH  63  64
ENDBRANCH  62  63
ENDBRANCH  61  62
ENDBRANCH  58  61
ENDBRANCH  56  57
BRANCH  56  66
ATOM     66  C   UNL     1     -10.634  -4.153  -6.122  1.00  0.00     0.157 C 
BRANCH  66  67
ATOM     67  C   UNL     1      -9.191  -4.455  -5.839  1.00  0.00     0.305 C 
ATOM     68  O   UNL     1      -8.552  -5.418  -6.237  1.00  0.00    -0.252 OA
BRANCH  67  69
ATOM     69  O   UNL     1      -8.602  -3.494  -5.103  1.00  0.00    -0.481 OA
ATOM     70  H   UNL     1      -8.070  -3.979  -4.438  1.00  0.00     0.296 HD
ENDBRANCH  67  69
ENDBRANCH  66  67
ENDBRANCH  56  66
ENDBRANCH  53  56
ENDBRANCH  50  52
ENDBRANCH  47  50
ENDBRANCH  45  46
BRANCH  45  71
ATOM     71  C   UNL     1     -16.031  -6.418  -5.125  1.00  0.00     0.037 C 
BRANCH  71  72
ATOM     72  C   UNL     1     -17.242  -7.073  -5.793  1.00  0.00     0.026 C 
BRANCH  72  73
ATOM     73  C   UNL     1     -17.812  -6.195  -6.905  1.00  0.00     0.146 C 
BRANCH  73  74
ATOM     74  N   UNL     1     -16.959  -6.352  -8.079  1.00  0.00    -0.254 NA
ATOM     75  C   UNL     1     -16.623  -5.295  -8.722  1.00  0.00     0.185 C 
ATOM     76  N   UNL     1     -15.838  -5.407  -9.806  1.00  0.00    -0.370 N 
ATOM     77  N   UNL     1     -16.949  -4.015  -8.471  1.00  0.00    -0.370 N 
ATOM     78  H   UNL     1     -15.553  -6.339 -10.069  1.00  0.00     0.159 HD
ATOM     79  H   UNL     1     -15.655  -4.648 -10.438  1.00  0.00     0.159 HD
ATOM     80  H   UNL     1     -17.533  -3.778  -7.683  1.00  0.00     0.159 HD
ATOM     81  H   UNL     1     -16.530  -3.254  -8.980  1.00  0.00     0.159 HD
ENDBRANCH  73  74
ENDBRANCH  72  73
ENDBRANCH  71  72
ENDBRANCH  45  71
ENDBRANCH   3  45
TORSDOF 20
ENDMDL
MODEL 34
REMARK VINA RESULT:    -5.745      3.943      6.739
REMARK INTER + INTRA:         -22.260
REMARK INTER:                 -15.835
REMARK INTRA:                  -6.425
REMARK UNBOUND:                -5.767
REMARK SMILES CCCCCC(=O)N[C@H](CC(=O)O)C(=O)N[C@H]1C(=O)N[C@H](CCCN=C(N)N)C(=O)N[C@@H]2CC[C@H](O)N(C2=O)[C@@H](CC(C)C)C(=O)N(C)[C@@H](Cc2ccccc2)C(=O)N[C@H](C(C)C)C(=O)O[C@@H]1C
REMARK SMILES IDX 30 1 31 2 29 3 32 5 35 6 37 7 34 8 38 9 33 10 39 11 36 12
REMARK SMILES IDX 40 14 41 15 42 16 43 17 44 18 45 19 46 20 47 21 48 22 49 23
REMARK SMILES IDX 50 24 51 25 52 26 56 27 53 28 55 29 54 30 57 31 58 32 59 33
REMARK SMILES IDX 60 35 61 36 62 37 63 38 64 39 65 40 66 41 67 42 68 43 21 45
REMARK SMILES IDX 20 46 18 47 19 48 17 50 16 52 14 53 15 54 9 56 8 57 6 58
REMARK SMILES IDX 7 59 5 61 4 62 3 63 2 64 1 65 10 66 11 67 12 68 13 69 22 71
REMARK SMILES IDX 23 72 24 73 25 74 26 75 27 76 28 77
REMARK H PARENT 31 4 36 13 59 34 20 49 16 55 8 60 13 70 27 78 27 79 28 80
REMARK H PARENT 28 81
REMARK Flexibility Score:  259.900
ROOT
ATOM      1  O   UNL     1      -4.539  -1.856  -3.672  1.00  0.00    -0.273 OA
ATOM      2  N   UNL     1      -5.648  -3.592  -2.678  1.00  0.00    -0.343 N 
ATOM      3  C   UNL     1      -5.171  -2.908  -3.776  1.00  0.00     0.243 C 
ATOM      4  H   UNL     1      -6.151  -4.462  -2.800  1.00  0.00     0.164 HD
ENDROOT
BRANCH   2   5
ATOM      5  C   UNL     1      -5.522  -3.027  -1.339  1.00  0.00     0.171 C 
ATOM      6  C   UNL     1      -5.595  -4.209   1.307  1.00  0.00     0.214 C 
ATOM      7  N   UNL     1      -6.818  -3.724   0.712  1.00  0.00    -0.303 N 
ATOM      8  C   UNL     1      -4.361  -3.447   0.851  1.00  0.00     0.057 C 
ATOM      9  C   UNL     1      -6.863  -3.195  -0.568  1.00  0.00     0.247 C 
ATOM     10  C   UNL     1      -4.245  -3.513  -0.656  1.00  0.00     0.040 C 
ATOM     11  O   UNL     1      -7.928  -2.862  -1.103  1.00  0.00    -0.272 OA
BRANCH   6  12
ATOM     12  O   UNL     1      -5.474  -5.576   0.989  1.00  0.00    -0.373 OA
ATOM     13  H   UNL     1      -4.516  -5.786   0.980  1.00  0.00     0.213 HD
ENDBRANCH   6  12
BRANCH   7  14
ATOM     14  C   UNL     1      -8.068  -3.949   1.470  1.00  0.00     0.177 C 
BRANCH  14  15
ATOM     15  C   UNL     1      -8.306  -5.401   1.927  1.00  0.00     0.038 C 
BRANCH  15  16
ATOM     16  C   UNL     1      -9.413  -6.240   1.251  1.00  0.00    -0.015 C 
ATOM     17  C   UNL     1      -9.945  -5.584  -0.027  1.00  0.00     0.007 C 
ATOM     18  C   UNL     1     -10.587  -6.426   2.220  1.00  0.00     0.007 C 
ENDBRANCH  15  16
ENDBRANCH  14  15
BRANCH  14  19
ATOM     19  C   UNL     1      -8.444  -2.667   2.290  1.00  0.00     0.245 C 
ATOM     20  O   UNL     1      -7.511  -1.904   2.594  1.00  0.00    -0.272 OA
BRANCH  19  21
ATOM     21  N   UNL     1      -9.713  -2.407   2.776  1.00  0.00    -0.332 N 
ATOM     22  C   UNL     1     -10.943  -2.493   2.009  1.00  0.00     0.147 C 
BRANCH  21  23
ATOM     23  C   UNL     1      -9.841  -1.993   4.200  1.00  0.00     0.178 C 
BRANCH  23  24
ATOM     24  C   UNL     1     -10.423  -0.580   4.412  1.00  0.00     0.070 C 
BRANCH  24  25
ATOM     25  C   UNL     1      -9.638   0.580   3.846  1.00  0.00    -0.045 A 
ATOM     26  C   UNL     1      -8.428   0.979   4.428  1.00  0.00     0.004 A 
ATOM     27  C   UNL     1     -10.115   1.278   2.727  1.00  0.00     0.004 A 
ATOM     28  C   UNL     1      -7.717   2.063   3.909  1.00  0.00     0.000 A 
ATOM     29  C   UNL     1      -9.403   2.361   2.209  1.00  0.00     0.000 A 
ATOM     30  C   UNL     1      -8.205   2.754   2.802  1.00  0.00     0.000 A 
ENDBRANCH  24  25
ENDBRANCH  23  24
BRANCH  23  31
ATOM     31  C   UNL     1     -10.459  -3.093   5.095  1.00  0.00     0.243 C 
ATOM     32  O   UNL     1     -10.179  -4.286   5.009  1.00  0.00    -0.273 OA
ATOM     33  N   UNL     1     -11.502  -2.642   5.886  1.00  0.00    -0.341 N 
ATOM     34  H   UNL     1     -11.692  -1.637   5.912  1.00  0.00     0.164 HD
BRANCH  33  35
ATOM     35  C   UNL     1     -12.312  -3.531   6.724  1.00  0.00     0.194 C 
BRANCH  35  36
ATOM     36  C   UNL     1     -13.845  -3.363   6.531  1.00  0.00     0.017 C 
ATOM     37  C   UNL     1     -14.591  -4.680   6.810  1.00  0.00     0.010 C 
ATOM     38  C   UNL     1     -14.230  -2.908   5.118  1.00  0.00     0.010 C 
ENDBRANCH  35  36
BRANCH  35  39
ATOM     39  C   UNL     1     -11.906  -3.472   8.224  1.00  0.00     0.329 C 
ATOM     40  O   UNL     1     -11.204  -4.310   8.778  1.00  0.00    -0.250 OA
BRANCH  39  41
ATOM     41  O   UNL     1     -12.348  -2.332   8.838  1.00  0.00    -0.458 OA
BRANCH  41  42
ATOM     42  C   UNL     1     -12.721  -2.458  10.230  1.00  0.00     0.205 CG0
ATOM     43  C   UNL     1     -14.142  -3.019  10.271  1.00  0.00     0.056 C 
ATOM     44  G   UNL     1     -12.616  -1.071  10.895  1.00  0.00     0.000 G0
ENDBRANCH  41  42
ENDBRANCH  39  41
ENDBRANCH  35  39
ENDBRANCH  33  35
ENDBRANCH  23  31
ENDBRANCH  21  23
ENDBRANCH  19  21
ENDBRANCH  14  19
ENDBRANCH   7  14
ENDBRANCH   2   5
BRANCH   3  45
ATOM     45  C   UNL     1      -5.464  -3.559  -5.134  1.00  0.00     0.171 C 
BRANCH  45  46
ATOM     46  N   UNL     1      -4.899  -2.660  -6.132  1.00  0.00    -0.342 N 
ATOM     47  C   UNL     1      -4.226  -3.116  -7.237  1.00  0.00     0.247 C 
ATOM     48  O   UNL     1      -4.113  -4.313  -7.503  1.00  0.00    -0.273 OA
ATOM     49  H   UNL     1      -5.019  -1.660  -5.979  1.00  0.00     0.164 HD
BRANCH  47  50
ATOM     50  C   UNL     1      -3.594  -2.023  -8.110  1.00  0.00     0.212 CG0
ATOM     51  G   UNL     1      -4.648  -1.585  -9.146  1.00  0.00     0.000 G0
BRANCH  50  52
ATOM     52  N   UNL     1      -3.215  -0.957  -7.187  1.00  0.00    -0.339 N 
ATOM     53  C   UNL     1      -1.952  -0.826  -6.662  1.00  0.00     0.243 C 
ATOM     54  O   UNL     1      -1.053  -1.631  -6.890  1.00  0.00    -0.273 OA
ATOM     55  H   UNL     1      -3.945  -0.322  -6.872  1.00  0.00     0.164 HD
BRANCH  53  56
ATOM     56  C   UNL     1      -1.812   0.323  -5.643  1.00  0.00     0.182 C 
BRANCH  56  57
ATOM     57  N   UNL     1      -2.002  -0.162  -4.273  1.00  0.00    -0.344 N 
ATOM     58  C   UNL     1      -0.981  -0.189  -3.354  1.00  0.00     0.220 C 
ATOM     59  O   UNL     1       0.172   0.120  -3.634  1.00  0.00    -0.275 OA
ATOM     60  H   UNL     1      -2.958  -0.330  -3.972  1.00  0.00     0.164 HD
BRANCH  58  61
ATOM     61  C   UNL     1      -1.417  -0.674  -1.984  1.00  0.00     0.100 C 
BRANCH  61  62
ATOM     62  C   UNL     1      -0.302  -0.654  -0.939  1.00  0.00     0.010 C 
BRANCH  62  63
ATOM     63  C   UNL     1       0.488  -1.965  -0.839  1.00  0.00     0.000 C 
BRANCH  63  64
ATOM     64  C   UNL     1      -0.302  -3.129  -0.243  1.00  0.00    -0.003 C 
ATOM     65  C   UNL     1      -0.464  -4.262  -1.246  1.00  0.00     0.004 C 
ENDBRANCH  63  64
ENDBRANCH  62  63
ENDBRANCH  61  62
ENDBRANCH  58  61
ENDBRANCH  56  57
BRANCH  56  66
ATOM     66  C   UNL     1      -2.747   1.485  -5.978  1.00  0.00     0.157 C 
BRANCH  66  67
ATOM     67  C   UNL     1      -3.806   1.651  -4.926  1.00  0.00     0.305 C 
ATOM     68  O   UNL     1      -3.858   2.520  -4.069  1.00  0.00    -0.252 OA
BRANCH  67  69
ATOM     69  O   UNL     1      -4.787   0.735  -5.039  1.00  0.00    -0.481 OA
ATOM     70  H   UNL     1      -5.357   1.067  -5.765  1.00  0.00     0.296 HD
ENDBRANCH  67  69
ENDBRANCH  66  67
ENDBRANCH  56  66
ENDBRANCH  53  56
ENDBRANCH  50  52
ENDBRANCH  47  50
ENDBRANCH  45  46
BRANCH  45  71
ATOM     71  C   UNL     1      -6.974  -3.739  -5.325  1.00  0.00     0.037 C 
BRANCH  71  72
ATOM     72  C   UNL     1      -7.311  -5.044  -6.050  1.00  0.00     0.026 C 
BRANCH  72  73
ATOM     73  C   UNL     1      -8.541  -4.888  -6.942  1.00  0.00     0.146 C 
BRANCH  73  74
ATOM     74  N   UNL     1      -8.875  -3.468  -6.998  1.00  0.00    -0.254 NA
ATOM     75  C   UNL     1     -10.115  -3.145  -7.016  1.00  0.00     0.185 C 
ATOM     76  N   UNL     1     -10.454  -1.846  -7.067  1.00  0.00    -0.370 N 
ATOM     77  N   UNL     1     -11.197  -3.943  -6.990  1.00  0.00    -0.370 N 
ATOM     78  H   UNL     1      -9.698  -1.177  -7.097  1.00  0.00     0.159 HD
ATOM     79  H   UNL     1     -11.392  -1.525  -7.229  1.00  0.00     0.159 HD
ATOM     80  H   UNL     1     -11.095  -4.946  -6.948  1.00  0.00     0.159 HD
ATOM     81  H   UNL     1     -12.127  -3.569  -6.891  1.00  0.00     0.159 HD
ENDBRANCH  73  74
ENDBRANCH  72  73
ENDBRANCH  71  72
ENDBRANCH  45  71
ENDBRANCH   3  45
TORSDOF 20
ENDMDL
MODEL 35
REMARK VINA RESULT:    -5.714      6.527     12.410
REMARK INTER + INTRA:         -22.171
REMARK INTER:                 -15.054
REMARK INTRA:                  -7.116
REMARK UNBOUND:                -5.767
REMARK SMILES CCCCCC(=O)N[C@H](CC(=O)O)C(=O)N[C@H]1C(=O)N[C@H](CCCN=C(N)N)C(=O)N[C@@H]2CC[C@H](O)N(C2=O)[C@@H](CC(C)C)C(=O)N(C)[C@@H](Cc2ccccc2)C(=O)N[C@H](C(C)C)C(=O)O[C@@H]1C
REMARK SMILES IDX 30 1 31 2 29 3 32 5 35 6 37 7 34 8 38 9 33 10 39 11 36 12
REMARK SMILES IDX 40 14 41 15 42 16 43 17 44 18 45 19 46 20 47 21 48 22 49 23
REMARK SMILES IDX 50 24 51 25 52 26 56 27 53 28 55 29 54 30 57 31 58 32 59 33
REMARK SMILES IDX 60 35 61 36 62 37 63 38 64 39 65 40 66 41 67 42 68 43 21 45
REMARK SMILES IDX 20 46 18 47 19 48 17 50 16 52 14 53 15 54 9 56 8 57 6 58
REMARK SMILES IDX 7 59 5 61 4 62 3 63 2 64 1 65 10 66 11 67 12 68 13 69 22 71
REMARK SMILES IDX 23 72 24 73 25 74 26 75 27 76 28 77
REMARK H PARENT 31 4 36 13 59 34 20 49 16 55 8 60 13 70 27 78 27 79 28 80
REMARK H PARENT 28 81
REMARK Flexibility Score:  259.900
ROOT
ATOM      1  O   UNL     1     -11.247   0.226   4.253  1.00  0.00    -0.273 OA
ATOM      2  N   UNL     1     -10.260  -0.959   5.942  1.00  0.00    -0.343 N 
ATOM      3  C   UNL     1     -10.322  -0.484   4.649  1.00  0.00     0.243 C 
ATOM      4  H   UNL     1      -9.477  -1.528   6.237  1.00  0.00     0.164 HD
ENDROOT
BRANCH   2   5
ATOM      5  C   UNL     1     -11.363  -0.733   6.870  1.00  0.00     0.171 C 
ATOM      6  C   UNL     1     -12.141  -2.023   9.347  1.00  0.00     0.214 C 
ATOM      7  N   UNL     1     -12.679  -2.504   8.096  1.00  0.00    -0.303 N 
ATOM      8  C   UNL     1     -11.825  -0.535   9.334  1.00  0.00     0.057 C 
ATOM      9  C   UNL     1     -12.310  -1.967   6.873  1.00  0.00     0.247 C 
ATOM     10  C   UNL     1     -10.850  -0.228   8.218  1.00  0.00     0.040 C 
ATOM     11  O   UNL     1     -12.709  -2.440   5.801  1.00  0.00    -0.272 OA
BRANCH   6  12
ATOM     12  O   UNL     1     -10.981  -2.770   9.632  1.00  0.00    -0.373 OA
ATOM     13  H   UNL     1     -10.316  -2.540   8.949  1.00  0.00     0.213 HD
ENDBRANCH   6  12
BRANCH   7  14
ATOM     14  C   UNL     1     -13.540  -3.704   8.154  1.00  0.00     0.177 C 
BRANCH  14  15
ATOM     15  C   UNL     1     -12.883  -4.954   8.772  1.00  0.00     0.038 C 
BRANCH  15  16
ATOM     16  C   UNL     1     -13.074  -6.328   8.093  1.00  0.00    -0.015 C 
ATOM     17  C   UNL     1     -13.470  -6.202   6.619  1.00  0.00     0.007 C 
ATOM     18  C   UNL     1     -14.170  -7.117   8.819  1.00  0.00     0.007 C 
ENDBRANCH  15  16
ENDBRANCH  14  15
BRANCH  14  19
ATOM     19  C   UNL     1     -15.041  -3.289   8.329  1.00  0.00     0.245 C 
ATOM     20  O   UNL     1     -15.616  -3.688   9.355  1.00  0.00    -0.272 OA
BRANCH  19  21
ATOM     21  N   UNL     1     -15.771  -2.612   7.368  1.00  0.00    -0.332 N 
ATOM     22  C   UNL     1     -16.313  -1.272   7.509  1.00  0.00     0.147 C 
BRANCH  21  23
ATOM     23  C   UNL     1     -16.041  -3.310   6.080  1.00  0.00     0.178 C 
BRANCH  23  24
ATOM     24  C   UNL     1     -17.338  -4.144   6.057  1.00  0.00     0.070 C 
BRANCH  24  25
ATOM     25  C   UNL     1     -17.190  -5.647   6.104  1.00  0.00    -0.045 A 
ATOM     26  C   UNL     1     -16.704  -6.356   4.998  1.00  0.00     0.004 A 
ATOM     27  C   UNL     1     -17.543  -6.357   7.262  1.00  0.00     0.004 A 
ATOM     28  C   UNL     1     -16.586  -7.746   5.044  1.00  0.00     0.000 A 
ATOM     29  C   UNL     1     -17.424  -7.747   7.306  1.00  0.00     0.000 A 
ATOM     30  C   UNL     1     -16.948  -8.441   6.196  1.00  0.00     0.000 A 
ENDBRANCH  24  25
ENDBRANCH  23  24
BRANCH  23  31
ATOM     31  C   UNL     1     -15.829  -2.401   4.845  1.00  0.00     0.243 C 
ATOM     32  O   UNL     1     -16.502  -1.401   4.605  1.00  0.00    -0.273 OA
ATOM     33  N   UNL     1     -14.930  -2.916   3.927  1.00  0.00    -0.341 N 
ATOM     34  H   UNL     1     -14.404  -3.755   4.182  1.00  0.00     0.164 HD
BRANCH  33  35
ATOM     35  C   UNL     1     -14.663  -2.286   2.631  1.00  0.00     0.194 C 
BRANCH  35  36
ATOM     36  C   UNL     1     -15.433  -2.928   1.443  1.00  0.00     0.017 C 
ATOM     37  C   UNL     1     -16.553  -2.002   0.937  1.00  0.00     0.010 C 
ATOM     38  C   UNL     1     -16.075  -4.275   1.795  1.00  0.00     0.010 C 
ENDBRANCH  35  36
BRANCH  35  39
ATOM     39  C   UNL     1     -13.143  -2.153   2.333  1.00  0.00     0.329 C 
ATOM     40  O   UNL     1     -12.647  -1.232   1.696  1.00  0.00    -0.250 OA
BRANCH  39  41
ATOM     41  O   UNL     1     -12.407  -3.134   2.938  1.00  0.00    -0.458 OA
BRANCH  41  42
ATOM     42  C   UNL     1     -11.854  -4.149   2.067  1.00  0.00     0.205 CG0
ATOM     43  C   UNL     1     -12.574  -5.459   2.381  1.00  0.00     0.056 C 
ATOM     44  G   UNL     1     -10.335  -4.237   2.316  1.00  0.00     0.000 G0
ENDBRANCH  41  42
ENDBRANCH  39  41
ENDBRANCH  35  39
ENDBRANCH  33  35
ENDBRANCH  23  31
ENDBRANCH  21  23
ENDBRANCH  19  21
ENDBRANCH  14  19
ENDBRANCH   7  14
ENDBRANCH   2   5
BRANCH   3  45
ATOM     45  C   UNL     1      -9.149  -0.884   3.745  1.00  0.00     0.171 C 
BRANCH  45  46
ATOM     46  N   UNL     1      -9.652  -1.957   2.898  1.00  0.00    -0.342 N 
ATOM     47  C   UNL     1      -9.897  -3.220   3.376  1.00  0.00     0.247 C 
ATOM     48  O   UNL     1      -9.779  -3.519   4.565  1.00  0.00    -0.273 OA
ATOM     49  H   UNL     1      -9.818  -1.738   1.917  1.00  0.00     0.164 HD
BRANCH  47  50
ATOM     50  C   UNL     1     -10.304  -4.250   2.313  1.00  0.00     0.212 CG0
ATOM     51  G   UNL     1     -11.821  -4.107   2.080  1.00  0.00     0.000 G0
BRANCH  50  52
ATOM     52  N   UNL     1      -9.506  -3.929   1.133  1.00  0.00    -0.339 N 
ATOM     53  C   UNL     1      -8.466  -4.709   0.688  1.00  0.00     0.243 C 
ATOM     54  O   UNL     1      -8.093  -5.716   1.284  1.00  0.00    -0.273 OA
ATOM     55  H   UNL     1      -9.695  -3.048   0.660  1.00  0.00     0.164 HD
BRANCH  53  56
ATOM     56  C   UNL     1      -7.716  -4.123  -0.525  1.00  0.00     0.182 C 
BRANCH  56  57
ATOM     57  N   UNL     1      -6.285  -3.981  -0.240  1.00  0.00    -0.344 N 
ATOM     58  C   UNL     1      -5.322  -4.651  -0.956  1.00  0.00     0.220 C 
ATOM     59  O   UNL     1      -5.593  -5.467  -1.830  1.00  0.00    -0.275 OA
ATOM     60  H   UNL     1      -6.014  -3.243   0.404  1.00  0.00     0.164 HD
BRANCH  58  61
ATOM     61  C   UNL     1      -3.907  -4.308  -0.528  1.00  0.00     0.100 C 
BRANCH  61  62
ATOM     62  C   UNL     1      -3.169  -3.400  -1.511  1.00  0.00     0.010 C 
BRANCH  62  63
ATOM     63  C   UNL     1      -1.666  -3.687  -1.624  1.00  0.00     0.000 C 
BRANCH  63  64
ATOM     64  C   UNL     1      -0.777  -2.459  -1.433  1.00  0.00    -0.003 C 
ATOM     65  C   UNL     1       0.680  -2.776  -1.736  1.00  0.00     0.004 C 
ENDBRANCH  63  64
ENDBRANCH  62  63
ENDBRANCH  61  62
ENDBRANCH  58  61
ENDBRANCH  56  57
BRANCH  56  66
ATOM     66  C   UNL     1      -8.344  -2.811  -0.991  1.00  0.00     0.157 C 
BRANCH  66  67
ATOM     67  C   UNL     1      -7.361  -1.679  -0.912  1.00  0.00     0.305 C 
ATOM     68  O   UNL     1      -6.600  -1.306  -1.792  1.00  0.00    -0.252 OA
BRANCH  67  69
ATOM     69  O   UNL     1      -7.420  -1.032   0.268  1.00  0.00    -0.481 OA
ATOM     70  H   UNL     1      -7.011  -0.158   0.094  1.00  0.00     0.296 HD
ENDBRANCH  67  69
ENDBRANCH  66  67
ENDBRANCH  56  66
ENDBRANCH  53  56
ENDBRANCH  50  52
ENDBRANCH  47  50
ENDBRANCH  45  46
BRANCH  45  71
ATOM     71  C   UNL     1      -7.956  -1.344   4.591  1.00  0.00     0.037 C 
BRANCH  71  72
ATOM     72  C   UNL     1      -6.627  -0.808   4.052  1.00  0.00     0.026 C 
BRANCH  72  73
ATOM     73  C   UNL     1      -6.797   0.568   3.411  1.00  0.00     0.146 C 
BRANCH  73  74
ATOM     74  N   UNL     1      -5.968   0.608   2.210  1.00  0.00    -0.254 NA
ATOM     75  C   UNL     1      -5.986   1.678   1.505  1.00  0.00     0.185 C 
ATOM     76  N   UNL     1      -5.232   1.745   0.396  1.00  0.00    -0.370 N 
ATOM     77  N   UNL     1      -6.677   2.813   1.709  1.00  0.00    -0.370 N 
ATOM     78  H   UNL     1      -4.685   0.929   0.164  1.00  0.00     0.159 HD
ATOM     79  H   UNL     1      -5.305   2.487  -0.279  1.00  0.00     0.159 HD
ATOM     80  H   UNL     1      -7.284   2.908   2.509  1.00  0.00     0.159 HD
ATOM     81  H   UNL     1      -6.522   3.634   1.148  1.00  0.00     0.159 HD
ENDBRANCH  73  74
ENDBRANCH  72  73
ENDBRANCH  71  72
ENDBRANCH  45  71
ENDBRANCH   3  45
TORSDOF 20
ENDMDL
MODEL 36
REMARK VINA RESULT:    -5.687      4.845     13.343
REMARK INTER + INTRA:         -22.092
REMARK INTER:                 -14.725
REMARK INTRA:                  -7.367
REMARK UNBOUND:                -5.767
REMARK SMILES CCCCCC(=O)N[C@H](CC(=O)O)C(=O)N[C@H]1C(=O)N[C@H](CCCN=C(N)N)C(=O)N[C@@H]2CC[C@H](O)N(C2=O)[C@@H](CC(C)C)C(=O)N(C)[C@@H](Cc2ccccc2)C(=O)N[C@H](C(C)C)C(=O)O[C@@H]1C
REMARK SMILES IDX 30 1 31 2 29 3 32 5 35 6 37 7 34 8 38 9 33 10 39 11 36 12
REMARK SMILES IDX 40 14 41 15 42 16 43 17 44 18 45 19 46 20 47 21 48 22 49 23
REMARK SMILES IDX 50 24 51 25 52 26 56 27 53 28 55 29 54 30 57 31 58 32 59 33
REMARK SMILES IDX 60 35 61 36 62 37 63 38 64 39 65 40 66 41 67 42 68 43 21 45
REMARK SMILES IDX 20 46 18 47 19 48 17 50 16 52 14 53 15 54 9 56 8 57 6 58
REMARK SMILES IDX 7 59 5 61 4 62 3 63 2 64 1 65 10 66 11 67 12 68 13 69 22 71
REMARK SMILES IDX 23 72 24 73 25 74 26 75 27 76 28 77
REMARK H PARENT 31 4 36 13 59 34 20 49 16 55 8 60 13 70 27 78 27 79 28 80
REMARK H PARENT 28 81
REMARK Flexibility Score:  259.900
ROOT
ATOM      1  O   UNL     1      -9.938  -3.359  -0.942  1.00  0.00    -0.273 OA
ATOM      2  N   UNL     1     -10.350  -2.665  -3.081  1.00  0.00    -0.343 N 
ATOM      3  C   UNL     1     -10.675  -3.346  -1.928  1.00  0.00     0.243 C 
ATOM      4  H   UNL     1     -10.987  -2.664  -3.868  1.00  0.00     0.164 HD
ENDROOT
BRANCH   2   5
ATOM      5  C   UNL     1      -9.048  -2.021  -3.222  1.00  0.00     0.171 C 
ATOM      6  C   UNL     1      -7.961  -0.198  -5.196  1.00  0.00     0.214 C 
ATOM      7  N   UNL     1      -7.796  -1.621  -5.377  1.00  0.00    -0.303 N 
ATOM      8  C   UNL     1      -8.028   0.219  -3.735  1.00  0.00     0.057 C 
ATOM      9  C   UNL     1      -8.334  -2.548  -4.499  1.00  0.00     0.247 C 
ATOM     10  C   UNL     1      -9.163  -0.508  -3.047  1.00  0.00     0.040 C 
ATOM     11  O   UNL     1      -8.263  -3.767  -4.707  1.00  0.00    -0.272 OA
BRANCH   6  12
ATOM     12  O   UNL     1      -9.134   0.189  -5.873  1.00  0.00    -0.373 OA
ATOM     13  H   UNL     1      -9.837  -0.445  -5.616  1.00  0.00     0.213 HD
ENDBRANCH   6  12
BRANCH   7  14
ATOM     14  C   UNL     1      -7.148  -2.067  -6.628  1.00  0.00     0.177 C 
BRANCH  14  15
ATOM     15  C   UNL     1      -8.105  -2.619  -7.702  1.00  0.00     0.038 C 
BRANCH  15  16
ATOM     16  C   UNL     1      -8.957  -1.639  -8.539  1.00  0.00    -0.015 C 
ATOM     17  C   UNL     1     -10.457  -1.926  -8.427  1.00  0.00     0.007 C 
ATOM     18  C   UNL     1      -8.558  -1.736 -10.017  1.00  0.00     0.007 C 
ENDBRANCH  15  16
ENDBRANCH  14  15
BRANCH  14  19
ATOM     19  C   UNL     1      -5.864  -1.213  -6.910  1.00  0.00     0.245 C 
ATOM     20  O   UNL     1      -5.784  -0.676  -8.028  1.00  0.00    -0.272 OA
BRANCH  19  21
ATOM     21  N   UNL     1      -4.791  -1.123  -6.041  1.00  0.00    -0.332 N 
ATOM     22  C   UNL     1      -4.352  -2.168  -5.134  1.00  0.00     0.147 C 
BRANCH  21  23
ATOM     23  C   UNL     1      -4.021   0.151  -6.016  1.00  0.00     0.178 C 
BRANCH  23  24
ATOM     24  C   UNL     1      -4.254   1.022  -4.764  1.00  0.00     0.070 C 
BRANCH  24  25
ATOM     25  C   UNL     1      -4.844   2.395  -4.981  1.00  0.00    -0.045 A 
ATOM     26  C   UNL     1      -5.426   2.741  -6.207  1.00  0.00     0.004 A 
ATOM     27  C   UNL     1      -4.812   3.349  -3.953  1.00  0.00     0.004 A 
ATOM     28  C   UNL     1      -5.954   4.019  -6.405  1.00  0.00     0.000 A 
ATOM     29  C   UNL     1      -5.341   4.626  -4.152  1.00  0.00     0.000 A 
ATOM     30  C   UNL     1      -5.910   4.960  -5.379  1.00  0.00     0.000 A 
ENDBRANCH  24  25
ENDBRANCH  23  24
BRANCH  23  31
ATOM     31  C   UNL     1      -2.538  -0.032  -6.416  1.00  0.00     0.243 C 
ATOM     32  O   UNL     1      -2.150  -0.821  -7.274  1.00  0.00    -0.273 OA
ATOM     33  N   UNL     1      -1.655   0.642  -5.589  1.00  0.00    -0.341 N 
ATOM     34  H   UNL     1      -2.038   1.281  -4.889  1.00  0.00     0.164 HD
BRANCH  33  35
ATOM     35  C   UNL     1      -0.199   0.519  -5.706  1.00  0.00     0.194 C 
BRANCH  35  36
ATOM     36  C   UNL     1       0.520   0.190  -4.367  1.00  0.00     0.017 C 
ATOM     37  C   UNL     1       1.807  -0.618  -4.606  1.00  0.00     0.010 C 
ATOM     38  C   UNL     1      -0.353  -0.613  -3.394  1.00  0.00     0.010 C 
ENDBRANCH  35  36
BRANCH  35  39
ATOM     39  C   UNL     1       0.448   1.733  -6.429  1.00  0.00     0.329 C 
ATOM     40  O   UNL     1       0.794   2.764  -5.863  1.00  0.00    -0.250 OA
BRANCH  39  41
ATOM     41  O   UNL     1       0.668   1.491  -7.756  1.00  0.00    -0.458 OA
BRANCH  41  42
ATOM     42  C   UNL     1       1.592   2.382  -8.426  1.00  0.00     0.205 CG0
ATOM     43  C   UNL     1       0.781   3.217  -9.415  1.00  0.00     0.056 C 
ATOM     44  G   UNL     1       2.677   1.535  -9.120  1.00  0.00     0.000 G0
ENDBRANCH  41  42
ENDBRANCH  39  41
ENDBRANCH  35  39
ENDBRANCH  33  35
ENDBRANCH  23  31
ENDBRANCH  21  23
ENDBRANCH  19  21
ENDBRANCH  14  19
ENDBRANCH   7  14
ENDBRANCH   2   5
BRANCH   3  45
ATOM     45  C   UNL     1     -12.028  -4.070  -1.952  1.00  0.00     0.171 C 
BRANCH  45  46
ATOM     46  N   UNL     1     -12.238  -4.556  -0.595  1.00  0.00    -0.342 N 
ATOM     47  C   UNL     1     -13.268  -4.113   0.195  1.00  0.00     0.247 C 
ATOM     48  O   UNL     1     -14.130  -3.330  -0.207  1.00  0.00    -0.273 OA
ATOM     49  H   UNL     1     -11.580  -5.249  -0.242  1.00  0.00     0.164 HD
BRANCH  47  50
ATOM     50  C   UNL     1     -13.258  -4.643   1.636  1.00  0.00     0.212 CG0
ATOM     51  G   UNL     1     -13.970  -6.010   1.636  1.00  0.00     0.000 G0
BRANCH  50  52
ATOM     52  N   UNL     1     -11.849  -4.727   2.010  1.00  0.00    -0.339 N 
ATOM     53  C   UNL     1     -11.196  -3.750   2.721  1.00  0.00     0.243 C 
ATOM     54  O   UNL     1     -11.738  -2.699   3.054  1.00  0.00    -0.273 OA
ATOM     55  H   UNL     1     -11.315  -5.523   1.667  1.00  0.00     0.164 HD
BRANCH  53  56
ATOM     56  C   UNL     1      -9.691  -4.019   2.922  1.00  0.00     0.182 C 
BRANCH  56  57
ATOM     57  N   UNL     1      -8.881  -3.139   2.073  1.00  0.00    -0.344 N 
ATOM     58  C   UNL     1      -8.323  -1.975   2.541  1.00  0.00     0.220 C 
ATOM     59  O   UNL     1      -8.522  -1.553   3.675  1.00  0.00    -0.275 OA
ATOM     60  H   UNL     1      -8.609  -3.501   1.163  1.00  0.00     0.164 HD
BRANCH  58  61
ATOM     61  C   UNL     1      -7.477  -1.255   1.507  1.00  0.00     0.100 C 
BRANCH  61  62
ATOM     62  C   UNL     1      -7.702   0.257   1.471  1.00  0.00     0.010 C 
BRANCH  62  63
ATOM     63  C   UNL     1      -6.523   1.053   0.896  1.00  0.00     0.000 C 
BRANCH  63  64
ATOM     64  C   UNL     1      -5.489   0.200   0.163  1.00  0.00    -0.003 C 
ATOM     65  C   UNL     1      -5.083   0.835  -1.159  1.00  0.00     0.004 C 
ENDBRANCH  63  64
ENDBRANCH  62  63
ENDBRANCH  61  62
ENDBRANCH  58  61
ENDBRANCH  56  57
BRANCH  56  66
ATOM     66  C   UNL     1      -9.353  -5.494   2.712  1.00  0.00     0.157 C 
BRANCH  66  67
ATOM     67  C   UNL     1      -8.615  -5.705   1.422  1.00  0.00     0.305 C 
ATOM     68  O   UNL     1      -7.406  -5.803   1.277  1.00  0.00    -0.252 OA
BRANCH  67  69
ATOM     69  O   UNL     1      -9.447  -5.834   0.371  1.00  0.00    -0.481 OA
ATOM     70  H   UNL     1     -10.347  -5.777   0.757  1.00  0.00     0.296 HD
ENDBRANCH  67  69
ENDBRANCH  66  67
ENDBRANCH  56  66
ENDBRANCH  53  56
ENDBRANCH  50  52
ENDBRANCH  47  50
ENDBRANCH  45  46
BRANCH  45  71
ATOM     71  C   UNL     1     -12.002  -5.218  -2.967  1.00  0.00     0.037 C 
BRANCH  71  72
ATOM     72  C   UNL     1     -12.062  -6.588  -2.288  1.00  0.00     0.026 C 
BRANCH  72  73
ATOM     73  C   UNL     1     -13.435  -7.235  -2.453  1.00  0.00     0.146 C 
BRANCH  73  74
ATOM     74  N   UNL     1     -14.168  -7.054  -1.203  1.00  0.00    -0.254 NA
ATOM     75  C   UNL     1     -14.290  -8.067  -0.428  1.00  0.00     0.185 C 
ATOM     76  N   UNL     1     -14.957  -7.931   0.730  1.00  0.00    -0.370 N 
ATOM     77  N   UNL     1     -13.829  -9.319  -0.595  1.00  0.00    -0.370 N 
ATOM     78  H   UNL     1     -15.344  -7.020   0.931  1.00  0.00     0.159 HD
ATOM     79  H   UNL     1     -15.216  -8.707   1.314  1.00  0.00     0.159 HD
ATOM     80  H   UNL     1     -13.304  -9.568  -1.420  1.00  0.00     0.159 HD
ATOM     81  H   UNL     1     -13.887 -10.006   0.139  1.00  0.00     0.159 HD
ENDBRANCH  73  74
ENDBRANCH  72  73
ENDBRANCH  71  72
ENDBRANCH  45  71
ENDBRANCH   3  45
TORSDOF 20
ENDMDL
MODEL 37
REMARK VINA RESULT:    -5.636      4.873      9.033
REMARK INTER + INTRA:         -21.946
REMARK INTER:                 -15.924
REMARK INTRA:                  -6.022
REMARK UNBOUND:                -5.767
REMARK SMILES CCCCCC(=O)N[C@H](CC(=O)O)C(=O)N[C@H]1C(=O)N[C@H](CCCN=C(N)N)C(=O)N[C@@H]2CC[C@H](O)N(C2=O)[C@@H](CC(C)C)C(=O)N(C)[C@@H](Cc2ccccc2)C(=O)N[C@H](C(C)C)C(=O)O[C@@H]1C
REMARK SMILES IDX 30 1 31 2 29 3 32 5 35 6 37 7 34 8 38 9 33 10 39 11 36 12
REMARK SMILES IDX 40 14 41 15 42 16 43 17 44 18 45 19 46 20 47 21 48 22 49 23
REMARK SMILES IDX 50 24 51 25 52 26 56 27 53 28 55 29 54 30 57 31 58 32 59 33
REMARK SMILES IDX 60 35 61 36 62 37 63 38 64 39 65 40 66 41 67 42 68 43 21 45
REMARK SMILES IDX 20 46 18 47 19 48 17 50 16 52 14 53 15 54 9 56 8 57 6 58
REMARK SMILES IDX 7 59 5 61 4 62 3 63 2 64 1 65 10 66 11 67 12 68 13 69 22 71
REMARK SMILES IDX 23 72 24 73 25 74 26 75 27 76 28 77
REMARK H PARENT 31 4 36 13 59 34 20 49 16 55 8 60 13 70 27 78 27 79 28 80
REMARK H PARENT 28 81
REMARK Flexibility Score:  259.900
ROOT
ATOM      1  O   UNL     1      -3.515  -0.272   0.529  1.00  0.00    -0.273 OA
ATOM      2  N   UNL     1      -3.853  -1.522   2.414  1.00  0.00    -0.343 N 
ATOM      3  C   UNL     1      -4.012  -1.260   1.071  1.00  0.00     0.243 C 
ATOM      4  H   UNL     1      -4.264  -2.352   2.823  1.00  0.00     0.164 HD
ENDROOT
BRANCH   2   5
ATOM      5  C   UNL     1      -3.178  -0.564   3.283  1.00  0.00     0.171 C 
ATOM      6  C   UNL     1      -3.119  -0.224   6.162  1.00  0.00     0.214 C 
ATOM      7  N   UNL     1      -4.115   0.476   5.384  1.00  0.00    -0.303 N 
ATOM      8  C   UNL     1      -1.826  -0.471   5.401  1.00  0.00     0.057 C 
ATOM      9  C   UNL     1      -4.231   0.319   4.012  1.00  0.00     0.247 C 
ATOM     10  C   UNL     1      -2.115  -1.252   4.138  1.00  0.00     0.040 C 
ATOM     11  O   UNL     1      -5.141   0.854   3.366  1.00  0.00    -0.272 OA
BRANCH   6  12
ATOM     12  O   UNL     1      -3.682  -1.445   6.584  1.00  0.00    -0.373 OA
ATOM     13  H   UNL     1      -4.285  -1.745   5.871  1.00  0.00     0.213 HD
ENDBRANCH   6  12
BRANCH   7  14
ATOM     14  C   UNL     1      -5.116   1.266   6.132  1.00  0.00     0.177 C 
BRANCH  14  15
ATOM     15  C   UNL     1      -6.315   0.463   6.671  1.00  0.00     0.038 C 
BRANCH  15  16
ATOM     16  C   UNL     1      -7.585   0.316   5.803  1.00  0.00    -0.015 C 
ATOM     17  C   UNL     1      -8.858   0.194   6.646  1.00  0.00     0.007 C 
ATOM     18  C   UNL     1      -7.469  -0.936   4.924  1.00  0.00     0.007 C 
ENDBRANCH  15  16
ENDBRANCH  14  15
BRANCH  14  19
ATOM     19  C   UNL     1      -4.423   2.465   6.867  1.00  0.00     0.245 C 
ATOM     20  O   UNL     1      -3.855   3.306   6.150  1.00  0.00    -0.272 OA
BRANCH  19  21
ATOM     21  N   UNL     1      -4.318   2.570   8.242  1.00  0.00    -0.332 N 
ATOM     22  C   UNL     1      -3.233   2.038   9.048  1.00  0.00     0.147 C 
BRANCH  21  23
ATOM     23  C   UNL     1      -5.407   3.276   8.971  1.00  0.00     0.178 C 
BRANCH  23  24
ATOM     24  C   UNL     1      -5.737   2.693  10.361  1.00  0.00     0.070 C 
BRANCH  24  25
ATOM     25  C   UNL     1      -7.186   2.373  10.646  1.00  0.00    -0.045 A 
ATOM     26  C   UNL     1      -7.919   3.126  11.572  1.00  0.00     0.004 A 
ATOM     27  C   UNL     1      -7.818   1.307   9.988  1.00  0.00     0.004 A 
ATOM     28  C   UNL     1      -9.253   2.813  11.843  1.00  0.00     0.000 A 
ATOM     29  C   UNL     1      -9.151   0.996  10.258  1.00  0.00     0.000 A 
ATOM     30  C   UNL     1      -9.867   1.747  11.188  1.00  0.00     0.000 A 
ENDBRANCH  24  25
ENDBRANCH  23  24
BRANCH  23  31
ATOM     31  C   UNL     1      -5.263   4.816   8.928  1.00  0.00     0.243 C 
ATOM     32  O   UNL     1      -5.710   5.523   8.028  1.00  0.00    -0.273 OA
ATOM     33  N   UNL     1      -4.421   5.320   9.905  1.00  0.00    -0.341 N 
ATOM     34  H   UNL     1      -4.075   4.681  10.625  1.00  0.00     0.164 HD
BRANCH  33  35
ATOM     35  C   UNL     1      -4.044   6.734   9.982  1.00  0.00     0.194 C 
BRANCH  35  36
ATOM     36  C   UNL     1      -2.581   6.977  10.450  1.00  0.00     0.017 C 
ATOM     37  C   UNL     1      -1.857   7.974   9.529  1.00  0.00     0.010 C 
ATOM     38  C   UNL     1      -1.740   5.695  10.491  1.00  0.00     0.010 C 
ENDBRANCH  35  36
BRANCH  35  39
ATOM     39  C   UNL     1      -5.062   7.581  10.796  1.00  0.00     0.329 C 
ATOM     40  O   UNL     1      -6.179   7.885  10.394  1.00  0.00    -0.250 OA
BRANCH  39  41
ATOM     41  O   UNL     1      -4.605   7.878  12.050  1.00  0.00    -0.458 OA
BRANCH  41  42
ATOM     42  C   UNL     1      -4.905   9.205  12.544  1.00  0.00     0.205 CG0
ATOM     43  C   UNL     1      -3.905  10.165  11.903  1.00  0.00     0.056 C 
ATOM     44  G   UNL     1      -4.806   9.191  14.083  1.00  0.00     0.000 G0
ENDBRANCH  41  42
ENDBRANCH  39  41
ENDBRANCH  35  39
ENDBRANCH  33  35
ENDBRANCH  23  31
ENDBRANCH  21  23
ENDBRANCH  19  21
ENDBRANCH  14  19
ENDBRANCH   7  14
ENDBRANCH   2   5
BRANCH   3  45
ATOM     45  C   UNL     1      -4.834  -2.295   0.292  1.00  0.00     0.171 C 
BRANCH  45  46
ATOM     46  N   UNL     1      -4.605  -2.003  -1.116  1.00  0.00    -0.342 N 
ATOM     47  C   UNL     1      -4.062  -2.921  -1.980  1.00  0.00     0.247 C 
ATOM     48  O   UNL     1      -3.799  -4.077  -1.648  1.00  0.00    -0.273 OA
ATOM     49  H   UNL     1      -4.861  -1.074  -1.447  1.00  0.00     0.164 HD
BRANCH  47  50
ATOM     50  C   UNL     1      -3.778  -2.394  -3.394  1.00  0.00     0.212 CG0
ATOM     51  G   UNL     1      -3.685  -3.611  -4.336  1.00  0.00     0.000 G0
BRANCH  50  52
ATOM     52  N   UNL     1      -4.893  -1.504  -3.710  1.00  0.00    -0.339 N 
ATOM     53  C   UNL     1      -5.790  -1.746  -4.721  1.00  0.00     0.243 C 
ATOM     54  O   UNL     1      -5.692  -2.710  -5.476  1.00  0.00    -0.273 OA
ATOM     55  H   UNL     1      -4.962  -0.631  -3.190  1.00  0.00     0.164 HD
BRANCH  53  56
ATOM     56  C   UNL     1      -6.828  -0.624  -4.921  1.00  0.00     0.182 C 
BRANCH  56  57
ATOM     57  N   UNL     1      -6.185   0.694  -4.920  1.00  0.00    -0.344 N 
ATOM     58  C   UNL     1      -6.329   1.584  -5.956  1.00  0.00     0.220 C 
ATOM     59  O   UNL     1      -6.941   1.313  -6.984  1.00  0.00    -0.275 OA
ATOM     60  H   UNL     1      -5.756   0.996  -4.049  1.00  0.00     0.164 HD
BRANCH  58  61
ATOM     61  C   UNL     1      -5.625   2.906  -5.716  1.00  0.00     0.100 C 
BRANCH  61  62
ATOM     62  C   UNL     1      -4.135   2.883  -6.059  1.00  0.00     0.010 C 
BRANCH  62  63
ATOM     63  C   UNL     1      -3.212   3.189  -4.873  1.00  0.00     0.000 C 
BRANCH  63  64
ATOM     64  C   UNL     1      -2.983   2.004  -3.935  1.00  0.00    -0.003 C 
ATOM     65  C   UNL     1      -2.288   0.856  -4.652  1.00  0.00     0.004 C 
ENDBRANCH  63  64
ENDBRANCH  62  63
ENDBRANCH  61  62
ENDBRANCH  58  61
ENDBRANCH  56  57
BRANCH  56  66
ATOM     66  C   UNL     1      -7.957  -0.715  -3.895  1.00  0.00     0.157 C 
BRANCH  66  67
ATOM     67  C   UNL     1      -9.091   0.202  -4.251  1.00  0.00     0.305 C 
ATOM     68  O   UNL     1      -9.704   0.938  -3.493  1.00  0.00    -0.252 OA
BRANCH  67  69
ATOM     69  O   UNL     1      -9.367   0.188  -5.569  1.00  0.00    -0.481 OA
ATOM     70  H   UNL     1     -10.213   0.675  -5.653  1.00  0.00     0.296 HD
ENDBRANCH  67  69
ENDBRANCH  66  67
ENDBRANCH  56  66
ENDBRANCH  53  56
ENDBRANCH  50  52
ENDBRANCH  47  50
ENDBRANCH  45  46
BRANCH  45  71
ATOM     71  C   UNL     1      -6.319  -2.183   0.658  1.00  0.00     0.037 C 
BRANCH  71  72
ATOM     72  C   UNL     1      -7.109  -1.384  -0.381  1.00  0.00     0.026 C 
BRANCH  72  73
ATOM     73  C   UNL     1      -7.938  -0.281   0.273  1.00  0.00     0.146 C 
BRANCH  73  74
ATOM     74  N   UNL     1      -7.027   0.792   0.661  1.00  0.00    -0.254 NA
ATOM     75  C   UNL     1      -7.519   1.801   1.279  1.00  0.00     0.185 C 
ATOM     76  N   UNL     1      -6.705   2.803   1.651  1.00  0.00    -0.370 N 
ATOM     77  N   UNL     1      -8.794   2.034   1.638  1.00  0.00    -0.370 N 
ATOM     78  H   UNL     1      -5.728   2.711   1.413  1.00  0.00     0.159 HD
ATOM     79  H   UNL     1      -7.037   3.683   2.005  1.00  0.00     0.159 HD
ATOM     80  H   UNL     1      -9.517   1.363   1.427  1.00  0.00     0.159 HD
ATOM     81  H   UNL     1      -9.044   2.812   2.224  1.00  0.00     0.159 HD
ENDBRANCH  73  74
ENDBRANCH  72  73
ENDBRANCH  71  72
ENDBRANCH  45  71
ENDBRANCH   3  45
TORSDOF 20
ENDMDL
MODEL 38
REMARK VINA RESULT:    -5.587      3.353      7.260
REMARK INTER + INTRA:         -21.807
REMARK INTER:                 -15.335
REMARK INTRA:                  -6.472
REMARK UNBOUND:                -5.767
REMARK SMILES CCCCCC(=O)N[C@H](CC(=O)O)C(=O)N[C@H]1C(=O)N[C@H](CCCN=C(N)N)C(=O)N[C@@H]2CC[C@H](O)N(C2=O)[C@@H](CC(C)C)C(=O)N(C)[C@@H](Cc2ccccc2)C(=O)N[C@H](C(C)C)C(=O)O[C@@H]1C
REMARK SMILES IDX 30 1 31 2 29 3 32 5 35 6 37 7 34 8 38 9 33 10 39 11 36 12
REMARK SMILES IDX 40 14 41 15 42 16 43 17 44 18 45 19 46 20 47 21 48 22 49 23
REMARK SMILES IDX 50 24 51 25 52 26 56 27 53 28 55 29 54 30 57 31 58 32 59 33
REMARK SMILES IDX 60 35 61 36 62 37 63 38 64 39 65 40 66 41 67 42 68 43 21 45
REMARK SMILES IDX 20 46 18 47 19 48 17 50 16 52 14 53 15 54 9 56 8 57 6 58
REMARK SMILES IDX 7 59 5 61 4 62 3 63 2 64 1 65 10 66 11 67 12 68 13 69 22 71
REMARK SMILES IDX 23 72 24 73 25 74 26 75 27 76 28 77
REMARK H PARENT 31 4 36 13 59 34 20 49 16 55 8 60 13 70 27 78 27 79 28 80
REMARK H PARENT 28 81
REMARK Flexibility Score:  259.900
ROOT
ATOM      1  O   UNL     1      -6.571  -2.078  -1.663  1.00  0.00    -0.273 OA
ATOM      2  N   UNL     1      -5.126  -0.770  -0.465  1.00  0.00    -0.343 N 
ATOM      3  C   UNL     1      -5.728  -1.181  -1.635  1.00  0.00     0.243 C 
ATOM      4  H   UNL     1      -4.448  -0.019  -0.479  1.00  0.00     0.164 HD
ENDROOT
BRANCH   2   5
ATOM      5  C   UNL     1      -5.382  -1.473   0.787  1.00  0.00     0.171 C 
ATOM      6  C   UNL     1      -7.440  -3.344   1.605  1.00  0.00     0.214 C 
ATOM      7  N   UNL     1      -7.641  -1.929   1.818  1.00  0.00    -0.303 N 
ATOM      8  C   UNL     1      -5.978  -3.758   1.652  1.00  0.00     0.057 C 
ATOM      9  C   UNL     1      -6.721  -0.978   1.405  1.00  0.00     0.247 C 
ATOM     10  C   UNL     1      -5.192  -2.979   0.620  1.00  0.00     0.040 C 
ATOM     11  O   UNL     1      -6.939   0.235   1.513  1.00  0.00    -0.272 OA
BRANCH   6  12
ATOM     12  O   UNL     1      -8.007  -3.676   0.359  1.00  0.00    -0.373 OA
ATOM     13  H   UNL     1      -8.876  -3.225   0.309  1.00  0.00     0.213 HD
ENDBRANCH   6  12
BRANCH   7  14
ATOM     14  C   UNL     1      -8.948  -1.513   2.369  1.00  0.00     0.177 C 
BRANCH  14  15
ATOM     15  C   UNL     1     -10.075  -1.349   1.331  1.00  0.00     0.038 C 
BRANCH  15  16
ATOM     16  C   UNL     1     -10.701   0.044   1.100  1.00  0.00    -0.015 C 
ATOM     17  C   UNL     1     -10.130   0.742  -0.138  1.00  0.00     0.007 C 
ATOM     18  C   UNL     1     -10.440   0.939   2.319  1.00  0.00     0.007 C 
ENDBRANCH  15  16
ENDBRANCH  14  15
BRANCH  14  19
ATOM     19  C   UNL     1      -9.128  -2.070   3.823  1.00  0.00     0.245 C 
ATOM     20  O   UNL     1      -8.310  -1.685   4.675  1.00  0.00    -0.272 OA
BRANCH  19  21
ATOM     21  N   UNL     1     -10.058  -3.034   4.170  1.00  0.00    -0.332 N 
ATOM     22  C   UNL     1      -9.971  -4.446   3.843  1.00  0.00     0.147 C 
BRANCH  21  23
ATOM     23  C   UNL     1     -11.259  -2.598   4.934  1.00  0.00     0.178 C 
BRANCH  23  24
ATOM     24  C   UNL     1     -12.591  -2.713   4.164  1.00  0.00     0.070 C 
BRANCH  24  25
ATOM     25  C   UNL     1     -13.218  -1.427   3.678  1.00  0.00    -0.045 A 
ATOM     26  C   UNL     1     -13.233  -0.284   4.488  1.00  0.00     0.004 A 
ATOM     27  C   UNL     1     -13.802  -1.362   2.404  1.00  0.00     0.004 A 
ATOM     28  C   UNL     1     -13.830   0.895   4.038  1.00  0.00     0.000 A 
ATOM     29  C   UNL     1     -14.397  -0.182   1.955  1.00  0.00     0.000 A 
ATOM     30  C   UNL     1     -14.413   0.945   2.774  1.00  0.00     0.000 A 
ENDBRANCH  24  25
ENDBRANCH  23  24
BRANCH  23  31
ATOM     31  C   UNL     1     -11.291  -3.153   6.378  1.00  0.00     0.243 C 
ATOM     32  O   UNL     1     -10.315  -3.189   7.122  1.00  0.00    -0.273 OA
ATOM     33  N   UNL     1     -12.481  -3.784   6.701  1.00  0.00    -0.341 N 
ATOM     34  H   UNL     1     -13.257  -3.725   6.038  1.00  0.00     0.164 HD
BRANCH  33  35
ATOM     35  C   UNL     1     -12.693  -4.486   7.970  1.00  0.00     0.194 C 
BRANCH  35  36
ATOM     36  C   UNL     1     -13.632  -5.721   7.863  1.00  0.00     0.017 C 
ATOM     37  C   UNL     1     -13.090  -6.908   8.677  1.00  0.00     0.010 C 
ATOM     38  C   UNL     1     -13.831  -6.205   6.421  1.00  0.00     0.010 C 
ENDBRANCH  35  36
BRANCH  35  39
ATOM     39  C   UNL     1     -13.121  -3.530   9.118  1.00  0.00     0.329 C 
ATOM     40  O   UNL     1     -12.382  -3.179  10.030  1.00  0.00    -0.250 OA
BRANCH  39  41
ATOM     41  O   UNL     1     -14.392  -3.053   8.952  1.00  0.00    -0.458 OA
BRANCH  41  42
ATOM     42  C   UNL     1     -15.247  -3.084  10.119  1.00  0.00     0.205 CG0
ATOM     43  C   UNL     1     -16.256  -4.211   9.913  1.00  0.00     0.056 C 
ATOM     44  G   UNL     1     -15.923  -1.707  10.271  1.00  0.00     0.000 G0
ENDBRANCH  41  42
ENDBRANCH  39  41
ENDBRANCH  35  39
ENDBRANCH  33  35
ENDBRANCH  23  31
ENDBRANCH  21  23
ENDBRANCH  19  21
ENDBRANCH  14  19
ENDBRANCH   7  14
ENDBRANCH   2   5
BRANCH   3  45
ATOM     45  C   UNL     1      -5.290  -0.428  -2.899  1.00  0.00     0.171 C 
BRANCH  45  46
ATOM     46  N   UNL     1      -4.214  -1.222  -3.477  1.00  0.00    -0.342 N 
ATOM     47  C   UNL     1      -4.290  -1.758  -4.738  1.00  0.00     0.247 C 
ATOM     48  O   UNL     1      -5.237  -1.548  -5.497  1.00  0.00    -0.273 OA
ATOM     49  H   UNL     1      -3.387  -1.374  -2.903  1.00  0.00     0.164 HD
BRANCH  47  50
ATOM     50  C   UNL     1      -3.117  -2.668  -5.130  1.00  0.00     0.212 CG0
ATOM     51  G   UNL     1      -3.425  -3.253  -6.523  1.00  0.00     0.000 G0
BRANCH  50  52
ATOM     52  N   UNL     1      -1.936  -1.810  -5.112  1.00  0.00    -0.339 N 
ATOM     53  C   UNL     1      -0.651  -2.291  -5.185  1.00  0.00     0.243 C 
ATOM     54  O   UNL     1      -0.395  -3.491  -5.218  1.00  0.00    -0.273 OA
ATOM     55  H   UNL     1      -2.079  -0.811  -4.974  1.00  0.00     0.164 HD
BRANCH  53  56
ATOM     56  C   UNL     1       0.434  -1.203  -5.060  1.00  0.00     0.182 C 
BRANCH  56  57
ATOM     57  N   UNL     1       1.059  -1.232  -3.734  1.00  0.00    -0.344 N 
ATOM     58  C   UNL     1       0.428  -0.751  -2.613  1.00  0.00     0.220 C 
ATOM     59  O   UNL     1      -0.667  -0.199  -2.653  1.00  0.00    -0.275 OA
ATOM     60  H   UNL     1       1.917  -1.769  -3.641  1.00  0.00     0.164 HD
BRANCH  58  61
ATOM     61  C   UNL     1       1.236  -0.936  -1.342  1.00  0.00     0.100 C 
BRANCH  61  62
ATOM     62  C   UNL     1       1.276  -2.381  -0.842  1.00  0.00     0.010 C 
BRANCH  62  63
ATOM     63  C   UNL     1       0.425  -2.636   0.408  1.00  0.00     0.000 C 
BRANCH  63  64
ATOM     64  C   UNL     1      -1.081  -2.609   0.157  1.00  0.00    -0.003 C 
ATOM     65  C   UNL     1      -1.704  -1.313   0.658  1.00  0.00     0.004 C 
ENDBRANCH  63  64
ENDBRANCH  62  63
ENDBRANCH  61  62
ENDBRANCH  58  61
ENDBRANCH  56  57
BRANCH  56  66
ATOM     66  C   UNL     1      -0.115   0.179  -5.409  1.00  0.00     0.157 C 
BRANCH  66  67
ATOM     67  C   UNL     1       0.994   1.152  -5.687  1.00  0.00     0.305 C 
ATOM     68  O   UNL     1       2.169   1.031  -5.375  1.00  0.00    -0.252 OA
BRANCH  67  69
ATOM     69  O   UNL     1       0.576   2.216  -6.398  1.00  0.00    -0.481 OA
ATOM     70  H   UNL     1       1.399   2.680  -6.661  1.00  0.00     0.296 HD
ENDBRANCH  67  69
ENDBRANCH  66  67
ENDBRANCH  56  66
ENDBRANCH  53  56
ENDBRANCH  50  52
ENDBRANCH  47  50
ENDBRANCH  45  46
BRANCH  45  71
ATOM     71  C   UNL     1      -4.820   0.986  -2.541  1.00  0.00     0.037 C 
BRANCH  71  72
ATOM     72  C   UNL     1      -5.479   2.051  -3.421  1.00  0.00     0.026 C 
BRANCH  72  73
ATOM     73  C   UNL     1      -4.472   3.108  -3.871  1.00  0.00     0.146 C 
BRANCH  73  74
ATOM     74  N   UNL     1      -4.038   2.764  -5.221  1.00  0.00    -0.254 NA
ATOM     75  C   UNL     1      -2.796   2.910  -5.506  1.00  0.00     0.185 C 
ATOM     76  N   UNL     1      -2.366   2.601  -6.740  1.00  0.00    -0.370 N 
ATOM     77  N   UNL     1      -1.795   3.348  -4.723  1.00  0.00    -0.370 N 
ATOM     78  H   UNL     1      -3.058   2.270  -7.397  1.00  0.00     0.159 HD
ATOM     79  H   UNL     1      -1.446   2.824  -7.078  1.00  0.00     0.159 HD
ATOM     80  H   UNL     1      -1.971   3.614  -3.766  1.00  0.00     0.159 HD
ATOM     81  H   UNL     1      -0.835   3.311  -5.023  1.00  0.00     0.159 HD
ENDBRANCH  73  74
ENDBRANCH  72  73
ENDBRANCH  71  72
ENDBRANCH  45  71
ENDBRANCH   3  45
TORSDOF 20
ENDMDL
MODEL 39
REMARK VINA RESULT:    -5.546      3.082      7.205
REMARK INTER + INTRA:         -21.689
REMARK INTER:                 -16.874
REMARK INTRA:                  -4.814
REMARK UNBOUND:                -5.767
REMARK SMILES CCCCCC(=O)N[C@H](CC(=O)O)C(=O)N[C@H]1C(=O)N[C@H](CCCN=C(N)N)C(=O)N[C@@H]2CC[C@H](O)N(C2=O)[C@@H](CC(C)C)C(=O)N(C)[C@@H](Cc2ccccc2)C(=O)N[C@H](C(C)C)C(=O)O[C@@H]1C
REMARK SMILES IDX 30 1 31 2 29 3 32 5 35 6 37 7 34 8 38 9 33 10 39 11 36 12
REMARK SMILES IDX 40 14 41 15 42 16 43 17 44 18 45 19 46 20 47 21 48 22 49 23
REMARK SMILES IDX 50 24 51 25 52 26 56 27 53 28 55 29 54 30 57 31 58 32 59 33
REMARK SMILES IDX 60 35 61 36 62 37 63 38 64 39 65 40 66 41 67 42 68 43 21 45
REMARK SMILES IDX 20 46 18 47 19 48 17 50 16 52 14 53 15 54 9 56 8 57 6 58
REMARK SMILES IDX 7 59 5 61 4 62 3 63 2 64 1 65 10 66 11 67 12 68 13 69 22 71
REMARK SMILES IDX 23 72 24 73 25 74 26 75 27 76 28 77
REMARK H PARENT 31 4 36 13 59 34 20 49 16 55 8 60 13 70 27 78 27 79 28 80
REMARK H PARENT 28 81
REMARK Flexibility Score:  259.900
ROOT
ATOM      1  O   UNL     1      -6.456   1.073   0.180  1.00  0.00    -0.273 OA
ATOM      2  N   UNL     1      -7.781  -0.753   0.552  1.00  0.00    -0.343 N 
ATOM      3  C   UNL     1      -6.746  -0.096  -0.077  1.00  0.00     0.243 C 
ATOM      4  H   UNL     1      -7.982  -1.720   0.326  1.00  0.00     0.164 HD
ENDROOT
BRANCH   2   5
ATOM      5  C   UNL     1      -8.661  -0.043   1.473  1.00  0.00     0.171 C 
ATOM      6  C   UNL     1      -8.343   2.399   3.004  1.00  0.00     0.214 C 
ATOM      7  N   UNL     1      -7.973   1.135   3.597  1.00  0.00    -0.303 N 
ATOM      8  C   UNL     1      -9.472   2.281   1.991  1.00  0.00     0.057 C 
ATOM      9  C   UNL     1      -8.052  -0.062   2.905  1.00  0.00     0.247 C 
ATOM     10  C   UNL     1      -9.080   1.309   0.899  1.00  0.00     0.040 C 
ATOM     11  O   UNL     1      -7.652  -1.128   3.390  1.00  0.00    -0.272 OA
BRANCH   6  12
ATOM     12  O   UNL     1      -7.194   2.943   2.398  1.00  0.00    -0.373 OA
ATOM     13  H   UNL     1      -7.174   3.897   2.625  1.00  0.00     0.213 HD
ENDBRANCH   6  12
BRANCH   7  14
ATOM     14  C   UNL     1      -7.361   1.180   4.942  1.00  0.00     0.177 C 
BRANCH  14  15
ATOM     15  C   UNL     1      -7.851   0.098   5.923  1.00  0.00     0.038 C 
BRANCH  15  16
ATOM     16  C   UNL     1      -9.299   0.154   6.457  1.00  0.00    -0.015 C 
ATOM     17  C   UNL     1      -9.368  -0.017   7.978  1.00  0.00     0.007 C 
ATOM     18  C   UNL     1     -10.135  -0.958   5.810  1.00  0.00     0.007 C 
ENDBRANCH  15  16
ENDBRANCH  14  15
BRANCH  14  19
ATOM     19  C   UNL     1      -5.894   1.726   4.853  1.00  0.00     0.245 C 
ATOM     20  O   UNL     1      -5.247   1.427   3.835  1.00  0.00    -0.272 OA
BRANCH  19  21
ATOM     21  N   UNL     1      -5.262   2.411   5.876  1.00  0.00    -0.332 N 
ATOM     22  C   UNL     1      -5.792   3.576   6.562  1.00  0.00     0.147 C 
BRANCH  21  23
ATOM     23  C   UNL     1      -3.922   1.931   6.311  1.00  0.00     0.178 C 
BRANCH  23  24
ATOM     24  C   UNL     1      -3.549   2.289   7.764  1.00  0.00     0.070 C 
BRANCH  24  25
ATOM     25  C   UNL     1      -2.170   2.862   7.999  1.00  0.00    -0.045 A 
ATOM     26  C   UNL     1      -1.579   3.718   7.061  1.00  0.00     0.004 A 
ATOM     27  C   UNL     1      -1.458   2.537   9.164  1.00  0.00     0.004 A 
ATOM     28  C   UNL     1      -0.298   4.229   7.278  1.00  0.00     0.000 A 
ATOM     29  C   UNL     1      -0.178   3.050   9.380  1.00  0.00     0.000 A 
ATOM     30  C   UNL     1       0.402   3.893   8.435  1.00  0.00     0.000 A 
ENDBRANCH  24  25
ENDBRANCH  23  24
BRANCH  23  31
ATOM     31  C   UNL     1      -3.649   0.461   5.912  1.00  0.00     0.243 C 
ATOM     32  O   UNL     1      -4.131  -0.509   6.491  1.00  0.00    -0.273 OA
ATOM     33  N   UNL     1      -2.659   0.323   4.954  1.00  0.00    -0.341 N 
ATOM     34  H   UNL     1      -2.291   1.169   4.511  1.00  0.00     0.164 HD
BRANCH  33  35
ATOM     35  C   UNL     1      -2.152  -0.979   4.510  1.00  0.00     0.194 C 
BRANCH  35  36
ATOM     36  C   UNL     1      -0.608  -1.127   4.613  1.00  0.00     0.017 C 
ATOM     37  C   UNL     1      -0.219  -2.389   5.403  1.00  0.00     0.010 C 
ATOM     38  C   UNL     1       0.070   0.068   5.294  1.00  0.00     0.010 C 
ENDBRANCH  35  36
BRANCH  35  39
ATOM     39  C   UNL     1      -2.681  -1.379   3.104  1.00  0.00     0.329 C 
ATOM     40  O   UNL     1      -3.670  -2.078   2.917  1.00  0.00    -0.250 OA
BRANCH  39  41
ATOM     41  O   UNL     1      -1.970  -0.791   2.095  1.00  0.00    -0.458 OA
BRANCH  41  42
ATOM     42  C   UNL     1      -1.653  -1.633   0.961  1.00  0.00     0.205 CG0
ATOM     43  C   UNL     1      -0.135  -1.800   0.930  1.00  0.00     0.056 C 
ATOM     44  G   UNL     1      -2.199  -0.964  -0.317  1.00  0.00     0.000 G0
ENDBRANCH  41  42
ENDBRANCH  39  41
ENDBRANCH  35  39
ENDBRANCH  33  35
ENDBRANCH  23  31
ENDBRANCH  21  23
ENDBRANCH  19  21
ENDBRANCH  14  19
ENDBRANCH   7  14
ENDBRANCH   2   5
BRANCH   3  45
ATOM     45  C   UNL     1      -5.966  -0.928  -1.103  1.00  0.00     0.171 C 
BRANCH  45  46
ATOM     46  N   UNL     1      -4.565  -0.579  -0.911  1.00  0.00    -0.342 N 
ATOM     47  C   UNL     1      -3.610  -1.511  -0.592  1.00  0.00     0.247 C 
ATOM     48  O   UNL     1      -3.852  -2.716  -0.517  1.00  0.00    -0.273 OA
ATOM     49  H   UNL     1      -4.310   0.402  -1.020  1.00  0.00     0.164 HD
BRANCH  47  50
ATOM     50  C   UNL     1      -2.214  -0.941  -0.306  1.00  0.00     0.212 CG0
ATOM     51  G   UNL     1      -1.668  -1.650   0.950  1.00  0.00     0.000 G0
BRANCH  50  52
ATOM     52  N   UNL     1      -1.429  -1.210  -1.507  1.00  0.00    -0.339 N 
ATOM     53  C   UNL     1      -1.447  -0.402  -2.618  1.00  0.00     0.243 C 
ATOM     54  O   UNL     1      -2.169   0.587  -2.706  1.00  0.00    -0.273 OA
ATOM     55  H   UNL     1      -0.895  -2.076  -1.539  1.00  0.00     0.164 HD
BRANCH  53  56
ATOM     56  C   UNL     1      -0.605  -0.935  -3.795  1.00  0.00     0.182 C 
BRANCH  56  57
ATOM     57  N   UNL     1      -0.204   0.154  -4.691  1.00  0.00    -0.344 N 
ATOM     58  C   UNL     1       1.082   0.290  -5.155  1.00  0.00     0.220 C 
ATOM     59  O   UNL     1       1.997  -0.443  -4.797  1.00  0.00    -0.275 OA
ATOM     60  H   UNL     1      -0.948   0.720  -5.091  1.00  0.00     0.164 HD
BRANCH  58  61
ATOM     61  C   UNL     1       1.256   1.453  -6.115  1.00  0.00     0.100 C 
BRANCH  61  62
ATOM     62  C   UNL     1       0.364   2.653  -5.797  1.00  0.00     0.010 C 
BRANCH  62  63
ATOM     63  C   UNL     1      -0.428   3.182  -7.000  1.00  0.00     0.000 C 
BRANCH  63  64
ATOM     64  C   UNL     1       0.223   2.898  -8.352  1.00  0.00    -0.003 C 
ATOM     65  C   UNL     1       1.187   4.007  -8.748  1.00  0.00     0.004 C 
ENDBRANCH  63  64
ENDBRANCH  62  63
ENDBRANCH  61  62
ENDBRANCH  58  61
ENDBRANCH  56  57
BRANCH  56  66
ATOM     66  C   UNL     1      -1.329  -2.056  -4.539  1.00  0.00     0.157 C 
BRANCH  66  67
ATOM     67  C   UNL     1      -1.981  -1.545  -5.791  1.00  0.00     0.305 C 
ATOM     68  O   UNL     1      -2.781  -0.627  -5.878  1.00  0.00    -0.252 OA
BRANCH  67  69
ATOM     69  O   UNL     1      -1.550  -2.190  -6.892  1.00  0.00    -0.481 OA
ATOM     70  H   UNL     1      -2.091  -1.825  -7.624  1.00  0.00     0.296 HD
ENDBRANCH  67  69
ENDBRANCH  66  67
ENDBRANCH  56  66
ENDBRANCH  53  56
ENDBRANCH  50  52
ENDBRANCH  47  50
ENDBRANCH  45  46
BRANCH  45  71
ATOM     71  C   UNL     1      -6.440  -0.604  -2.524  1.00  0.00     0.037 C 
BRANCH  71  72
ATOM     72  C   UNL     1      -5.331   0.026  -3.371  1.00  0.00     0.026 C 
BRANCH  72  73
ATOM     73  C   UNL     1      -5.902   0.966  -4.432  1.00  0.00     0.146 C 
BRANCH  73  74
ATOM     74  N   UNL     1      -5.468   2.321  -4.108  1.00  0.00    -0.254 NA
ATOM     75  C   UNL     1      -4.333   2.711  -4.558  1.00  0.00     0.185 C 
ATOM     76  N   UNL     1      -3.907   3.953  -4.277  1.00  0.00    -0.370 N 
ATOM     77  N   UNL     1      -3.446   2.037  -5.310  1.00  0.00    -0.370 N 
ATOM     78  H   UNL     1      -4.513   4.527  -3.708  1.00  0.00     0.159 HD
ATOM     79  H   UNL     1      -2.975   4.276  -4.470  1.00  0.00     0.159 HD
ATOM     80  H   UNL     1      -3.635   1.090  -5.602  1.00  0.00     0.159 HD
ATOM     81  H   UNL     1      -2.635   2.487  -5.702  1.00  0.00     0.159 HD
ENDBRANCH  73  74
ENDBRANCH  72  73
ENDBRANCH  71  72
ENDBRANCH  45  71
ENDBRANCH   3  45
TORSDOF 20
ENDMDL
MODEL 40
REMARK VINA RESULT:    -5.535      4.296      8.279
REMARK INTER + INTRA:         -21.658
REMARK INTER:                 -14.966
REMARK INTRA:                  -6.691
REMARK UNBOUND:                -5.767
REMARK SMILES CCCCCC(=O)N[C@H](CC(=O)O)C(=O)N[C@H]1C(=O)N[C@H](CCCN=C(N)N)C(=O)N[C@@H]2CC[C@H](O)N(C2=O)[C@@H](CC(C)C)C(=O)N(C)[C@@H](Cc2ccccc2)C(=O)N[C@H](C(C)C)C(=O)O[C@@H]1C
REMARK SMILES IDX 30 1 31 2 29 3 32 5 35 6 37 7 34 8 38 9 33 10 39 11 36 12
REMARK SMILES IDX 40 14 41 15 42 16 43 17 44 18 45 19 46 20 47 21 48 22 49 23
REMARK SMILES IDX 50 24 51 25 52 26 56 27 53 28 55 29 54 30 57 31 58 32 59 33
REMARK SMILES IDX 60 35 61 36 62 37 63 38 64 39 65 40 66 41 67 42 68 43 21 45
REMARK SMILES IDX 20 46 18 47 19 48 17 50 16 52 14 53 15 54 9 56 8 57 6 58
REMARK SMILES IDX 7 59 5 61 4 62 3 63 2 64 1 65 10 66 11 67 12 68 13 69 22 71
REMARK SMILES IDX 23 72 24 73 25 74 26 75 27 76 28 77
REMARK H PARENT 31 4 36 13 59 34 20 49 16 55 8 60 13 70 27 78 27 79 28 80
REMARK H PARENT 28 81
REMARK Flexibility Score:  259.900
ROOT
ATOM      1  O   UNL     1      -6.764  -4.847  -2.248  1.00  0.00    -0.273 OA
ATOM      2  N   UNL     1      -8.919  -4.280  -1.733  1.00  0.00    -0.343 N 
ATOM      3  C   UNL     1      -7.769  -4.177  -2.486  1.00  0.00     0.243 C 
ATOM      4  H   UNL     1      -9.732  -3.723  -1.968  1.00  0.00     0.164 HD
ENDROOT
BRANCH   2   5
ATOM      5  C   UNL     1      -8.950  -5.112  -0.535  1.00  0.00     0.171 C 
ATOM      6  C   UNL     1     -11.123  -6.247   1.012  1.00  0.00     0.214 C 
ATOM      7  N   UNL     1     -10.604  -4.946   1.365  1.00  0.00    -0.303 N 
ATOM      8  C   UNL     1     -10.083  -7.160   0.384  1.00  0.00     0.057 C 
ATOM      9  C   UNL     1      -9.602  -4.324   0.637  1.00  0.00     0.247 C 
ATOM     10  C   UNL     1      -9.500  -6.503  -0.848  1.00  0.00     0.040 C 
ATOM     11  O   UNL     1      -9.223  -3.174   0.893  1.00  0.00    -0.272 OA
BRANCH   6  12
ATOM     12  O   UNL     1     -12.205  -6.054   0.130  1.00  0.00    -0.373 OA
ATOM     13  H   UNL     1     -12.978  -5.795   0.676  1.00  0.00     0.213 HD
ENDBRANCH   6  12
BRANCH   7  14
ATOM     14  C   UNL     1     -11.289  -4.225   2.458  1.00  0.00     0.177 C 
BRANCH  14  15
ATOM     15  C   UNL     1     -12.828  -4.299   2.431  1.00  0.00     0.038 C 
BRANCH  15  16
ATOM     16  C   UNL     1     -13.596  -4.661   3.722  1.00  0.00    -0.015 C 
ATOM     17  C   UNL     1     -14.938  -5.339   3.433  1.00  0.00     0.007 C 
ATOM     18  C   UNL     1     -13.865  -3.390   4.538  1.00  0.00     0.007 C 
ENDBRANCH  15  16
ENDBRANCH  14  15
BRANCH  14  19
ATOM     19  C   UNL     1     -10.404  -4.232   3.752  1.00  0.00     0.245 C 
ATOM     20  O   UNL     1      -9.896  -5.319   4.077  1.00  0.00    -0.272 OA
BRANCH  19  21
ATOM     21  N   UNL     1     -10.256  -3.142   4.591  1.00  0.00    -0.332 N 
ATOM     22  C   UNL     1     -10.280  -3.187   6.043  1.00  0.00     0.147 C 
BRANCH  21  23
ATOM     23  C   UNL     1     -10.066  -1.804   3.967  1.00  0.00     0.178 C 
BRANCH  23  24
ATOM     24  C   UNL     1     -11.025  -0.710   4.482  1.00  0.00     0.070 C 
BRANCH  24  25
ATOM     25  C   UNL     1     -12.181  -0.332   3.586  1.00  0.00    -0.045 A 
ATOM     26  C   UNL     1     -13.313   0.308   4.107  1.00  0.00     0.004 A 
ATOM     27  C   UNL     1     -12.138  -0.623   2.214  1.00  0.00     0.004 A 
ATOM     28  C   UNL     1     -14.385   0.640   3.276  1.00  0.00     0.000 A 
ATOM     29  C   UNL     1     -13.210  -0.290   1.384  1.00  0.00     0.000 A 
ATOM     30  C   UNL     1     -14.334   0.338   1.916  1.00  0.00     0.000 A 
ENDBRANCH  24  25
ENDBRANCH  23  24
BRANCH  23  31
ATOM     31  C   UNL     1      -8.580  -1.381   3.884  1.00  0.00     0.243 C 
ATOM     32  O   UNL     1      -7.843  -1.268   4.860  1.00  0.00    -0.273 OA
ATOM     33  N   UNL     1      -8.195  -0.959   2.623  1.00  0.00    -0.341 N 
ATOM     34  H   UNL     1      -8.855  -1.073   1.850  1.00  0.00     0.164 HD
BRANCH  33  35
ATOM     35  C   UNL     1      -6.869  -0.403   2.337  1.00  0.00     0.194 C 
BRANCH  35  36
ATOM     36  C   UNL     1      -6.820   1.151   2.332  1.00  0.00     0.017 C 
ATOM     37  C   UNL     1      -6.240   1.696   3.649  1.00  0.00     0.010 C 
ATOM     38  C   UNL     1      -8.195   1.799   2.133  1.00  0.00     0.010 C 
ENDBRANCH  35  36
BRANCH  35  39
ATOM     39  C   UNL     1      -6.231  -1.008   1.055  1.00  0.00     0.329 C 
ATOM     40  O   UNL     1      -5.470  -1.968   1.056  1.00  0.00    -0.250 OA
BRANCH  39  41
ATOM     41  O   UNL     1      -6.683  -0.404  -0.085  1.00  0.00    -0.458 OA
BRANCH  41  42
ATOM     42  C   UNL     1      -5.687  -0.113  -1.094  1.00  0.00     0.205 CG0
ATOM     43  C   UNL     1      -4.879   1.086  -0.602  1.00  0.00     0.056 C 
ATOM     44  G   UNL     1      -6.406   0.168  -2.429  1.00  0.00     0.000 G0
ENDBRANCH  41  42
ENDBRANCH  39  41
ENDBRANCH  35  39
ENDBRANCH  33  35
ENDBRANCH  23  31
ENDBRANCH  21  23
ENDBRANCH  19  21
ENDBRANCH  14  19
ENDBRANCH   7  14
ENDBRANCH   2   5
BRANCH   3  45
ATOM     45  C   UNL     1      -7.836  -3.186  -3.655  1.00  0.00     0.171 C 
BRANCH  45  46
ATOM     46  N   UNL     1      -7.649  -1.867  -3.065  1.00  0.00    -0.342 N 
ATOM     47  C   UNL     1      -6.493  -1.146  -3.224  1.00  0.00     0.247 C 
ATOM     48  O   UNL     1      -5.561  -1.525  -3.935  1.00  0.00    -0.273 OA
ATOM     49  H   UNL     1      -8.419  -1.490  -2.514  1.00  0.00     0.164 HD
BRANCH  47  50
ATOM     50  C   UNL     1      -6.429   0.165  -2.427  1.00  0.00     0.212 CG0
ATOM     51  G   UNL     1      -5.666  -0.120  -1.119  1.00  0.00     0.000 G0
BRANCH  50  52
ATOM     52  N   UNL     1      -5.745   1.117  -3.298  1.00  0.00    -0.339 N 
ATOM     53  C   UNL     1      -6.395   1.891  -4.229  1.00  0.00     0.243 C 
ATOM     54  O   UNL     1      -7.601   1.801  -4.439  1.00  0.00    -0.273 OA
ATOM     55  H   UNL     1      -4.729   1.157  -3.250  1.00  0.00     0.164 HD
BRANCH  53  56
ATOM     56  C   UNL     1      -5.454   2.757  -5.091  1.00  0.00     0.182 C 
BRANCH  56  57
ATOM     57  N   UNL     1      -4.181   2.071  -5.333  1.00  0.00    -0.344 N 
ATOM     58  C   UNL     1      -3.560   2.082  -6.558  1.00  0.00     0.220 C 
ATOM     59  O   UNL     1      -4.060   2.601  -7.550  1.00  0.00    -0.275 OA
ATOM     60  H   UNL     1      -3.686   1.719  -4.518  1.00  0.00     0.164 HD
BRANCH  58  61
ATOM     61  C   UNL     1      -2.226   1.359  -6.563  1.00  0.00     0.100 C 
BRANCH  61  62
ATOM     62  C   UNL     1      -1.025   2.279  -6.344  1.00  0.00     0.010 C 
BRANCH  62  63
ATOM     63  C   UNL     1       0.120   2.064  -7.341  1.00  0.00     0.000 C 
BRANCH  63  64
ATOM     64  C   UNL     1       0.302   3.205  -8.341  1.00  0.00    -0.003 C 
ATOM     65  C   UNL     1       0.944   4.420  -7.687  1.00  0.00     0.004 C 
ENDBRANCH  63  64
ENDBRANCH  62  63
ENDBRANCH  61  62
ENDBRANCH  58  61
ENDBRANCH  56  57
BRANCH  56  66
ATOM     66  C   UNL     1      -5.255   4.144  -4.482  1.00  0.00     0.157 C 
BRANCH  66  67
ATOM     67  C   UNL     1      -6.217   5.138  -5.066  1.00  0.00     0.305 C 
ATOM     68  O   UNL     1      -5.996   5.926  -5.973  1.00  0.00    -0.252 OA
BRANCH  67  69
ATOM     69  O   UNL     1      -7.440   5.054  -4.510  1.00  0.00    -0.481 OA
ATOM     70  H   UNL     1      -7.731   5.985  -4.403  1.00  0.00     0.296 HD
ENDBRANCH  67  69
ENDBRANCH  66  67
ENDBRANCH  56  66
ENDBRANCH  53  56
ENDBRANCH  50  52
ENDBRANCH  47  50
ENDBRANCH  45  46
BRANCH  45  71
ATOM     71  C   UNL     1      -9.185  -3.298  -4.374  1.00  0.00     0.037 C 
BRANCH  71  72
ATOM     72  C   UNL     1      -9.371  -2.199  -5.424  1.00  0.00     0.026 C 
BRANCH  72  73
ATOM     73  C   UNL     1     -10.509  -1.252  -5.049  1.00  0.00     0.146 C 
BRANCH  73  74
ATOM     74  N   UNL     1     -10.069  -0.455  -3.907  1.00  0.00    -0.254 NA
ATOM     75  C   UNL     1     -10.739  -0.549  -2.818  1.00  0.00     0.185 C 
ATOM     76  N   UNL     1     -10.358   0.171  -1.750  1.00  0.00    -0.370 N 
ATOM     77  N   UNL     1     -11.825  -1.296  -2.556  1.00  0.00    -0.370 N 
ATOM     78  H   UNL     1      -9.551   0.767  -1.865  1.00  0.00     0.159 HD
ATOM     79  H   UNL     1     -10.912   0.260  -0.917  1.00  0.00     0.159 HD
ATOM     80  H   UNL     1     -12.222  -1.893  -3.266  1.00  0.00     0.159 HD
ATOM     81  H   UNL     1     -12.199  -1.376  -1.624  1.00  0.00     0.159 HD
ENDBRANCH  73  74
ENDBRANCH  72  73
ENDBRANCH  71  72
ENDBRANCH  45  71
ENDBRANCH   3  45
TORSDOF 20
ENDMDL
MODEL 41
REMARK VINA RESULT:    -5.515      7.879     12.806
REMARK INTER + INTRA:         -21.601
REMARK INTER:                 -15.326
REMARK INTRA:                  -6.275
REMARK UNBOUND:                -5.767
REMARK SMILES CCCCCC(=O)N[C@H](CC(=O)O)C(=O)N[C@H]1C(=O)N[C@H](CCCN=C(N)N)C(=O)N[C@@H]2CC[C@H](O)N(C2=O)[C@@H](CC(C)C)C(=O)N(C)[C@@H](Cc2ccccc2)C(=O)N[C@H](C(C)C)C(=O)O[C@@H]1C
REMARK SMILES IDX 30 1 31 2 29 3 32 5 35 6 37 7 34 8 38 9 33 10 39 11 36 12
REMARK SMILES IDX 40 14 41 15 42 16 43 17 44 18 45 19 46 20 47 21 48 22 49 23
REMARK SMILES IDX 50 24 51 25 52 26 56 27 53 28 55 29 54 30 57 31 58 32 59 33
REMARK SMILES IDX 60 35 61 36 62 37 63 38 64 39 65 40 66 41 67 42 68 43 21 45
REMARK SMILES IDX 20 46 18 47 19 48 17 50 16 52 14 53 15 54 9 56 8 57 6 58
REMARK SMILES IDX 7 59 5 61 4 62 3 63 2 64 1 65 10 66 11 67 12 68 13 69 22 71
REMARK SMILES IDX 23 72 24 73 25 74 26 75 27 76 28 77
REMARK H PARENT 31 4 36 13 59 34 20 49 16 55 8 60 13 70 27 78 27 79 28 80
REMARK H PARENT 28 81
REMARK Flexibility Score:  259.900
ROOT
ATOM      1  O   UNL     1     -10.122  -0.446  -0.018  1.00  0.00    -0.273 OA
ATOM      2  N   UNL     1     -11.054  -1.538   1.763  1.00  0.00    -0.343 N 
ATOM      3  C   UNL     1     -10.890  -1.306   0.414  1.00  0.00     0.243 C 
ATOM      4  H   UNL     1     -11.684  -2.264   2.081  1.00  0.00     0.164 HD
ENDROOT
BRANCH   2   5
ATOM      5  C   UNL     1     -10.403  -0.681   2.748  1.00  0.00     0.171 C 
ATOM      6  C   UNL     1      -8.288   1.291   2.544  1.00  0.00     0.214 C 
ATOM      7  N   UNL     1      -7.952  -0.084   2.831  1.00  0.00    -0.303 N 
ATOM      8  C   UNL     1      -9.656   1.698   3.069  1.00  0.00     0.057 C 
ATOM      9  C   UNL     1      -8.908  -1.085   2.892  1.00  0.00     0.247 C 
ATOM     10  C   UNL     1     -10.718   0.791   2.488  1.00  0.00     0.040 C 
ATOM     11  O   UNL     1      -8.603  -2.274   3.052  1.00  0.00    -0.272 OA
BRANCH   6  12
ATOM     12  O   UNL     1      -8.224   1.467   1.148  1.00  0.00    -0.373 OA
ATOM     13  H   UNL     1      -8.005   2.410   0.987  1.00  0.00     0.213 HD
ENDBRANCH   6  12
BRANCH   7  14
ATOM     14  C   UNL     1      -6.514  -0.419   2.915  1.00  0.00     0.177 C 
BRANCH  14  15
ATOM     15  C   UNL     1      -5.934  -1.136   1.680  1.00  0.00     0.038 C 
BRANCH  15  16
ATOM     16  C   UNL     1      -4.929  -2.292   1.874  1.00  0.00    -0.015 C 
ATOM     17  C   UNL     1      -3.616  -2.057   1.121  1.00  0.00     0.007 C 
ATOM     18  C   UNL     1      -5.544  -3.604   1.369  1.00  0.00     0.007 C 
ENDBRANCH  15  16
ENDBRANCH  14  15
BRANCH  14  19
ATOM     19  C   UNL     1      -5.759   0.643   3.786  1.00  0.00     0.245 C 
ATOM     20  O   UNL     1      -5.334   1.650   3.195  1.00  0.00    -0.272 OA
BRANCH  19  21
ATOM     21  N   UNL     1      -5.450   0.466   5.123  1.00  0.00    -0.332 N 
ATOM     22  C   UNL     1      -6.413   0.393   6.207  1.00  0.00     0.147 C 
BRANCH  21  23
ATOM     23  C   UNL     1      -4.014   0.350   5.496  1.00  0.00     0.178 C 
BRANCH  23  24
ATOM     24  C   UNL     1      -3.096  -0.182   4.376  1.00  0.00     0.070 C 
BRANCH  24  25
ATOM     25  C   UNL     1      -1.777  -0.787   4.796  1.00  0.00    -0.045 A 
ATOM     26  C   UNL     1      -1.723  -2.066   5.365  1.00  0.00     0.004 A 
ATOM     27  C   UNL     1      -0.583  -0.070   4.626  1.00  0.00     0.004 A 
ATOM     28  C   UNL     1      -0.502  -2.611   5.767  1.00  0.00     0.000 A 
ATOM     29  C   UNL     1       0.637  -0.617   5.026  1.00  0.00     0.000 A 
ATOM     30  C   UNL     1       0.676  -1.886   5.599  1.00  0.00     0.000 A 
ENDBRANCH  24  25
ENDBRANCH  23  24
BRANCH  23  31
ATOM     31  C   UNL     1      -3.480   1.600   6.237  1.00  0.00     0.243 C 
ATOM     32  O   UNL     1      -3.438   2.725   5.744  1.00  0.00    -0.273 OA
ATOM     33  N   UNL     1      -2.875   1.309   7.448  1.00  0.00    -0.341 N 
ATOM     34  H   UNL     1      -2.938   0.352   7.804  1.00  0.00     0.164 HD
BRANCH  33  35
ATOM     35  C   UNL     1      -2.196   2.318   8.264  1.00  0.00     0.194 C 
BRANCH  35  36
ATOM     36  C   UNL     1      -2.995   3.641   8.433  1.00  0.00     0.017 C 
ATOM     37  C   UNL     1      -2.199   4.675   9.249  1.00  0.00     0.010 C 
ATOM     38  C   UNL     1      -4.345   3.446   9.133  1.00  0.00     0.010 C 
ENDBRANCH  35  36
BRANCH  35  39
ATOM     39  C   UNL     1      -0.735   2.577   7.801  1.00  0.00     0.329 C 
ATOM     40  O   UNL     1      -0.436   3.234   6.810  1.00  0.00    -0.250 OA
BRANCH  39  41
ATOM     41  O   UNL     1       0.186   2.064   8.672  1.00  0.00    -0.458 OA
BRANCH  41  42
ATOM     42  C   UNL     1       1.546   2.535   8.518  1.00  0.00     0.205 CG0
ATOM     43  C   UNL     1       2.419   1.315   8.229  1.00  0.00     0.056 C 
ATOM     44  G   UNL     1       1.963   3.266   9.809  1.00  0.00     0.000 G0
ENDBRANCH  41  42
ENDBRANCH  39  41
ENDBRANCH  35  39
ENDBRANCH  33  35
ENDBRANCH  23  31
ENDBRANCH  21  23
ENDBRANCH  19  21
ENDBRANCH  14  19
ENDBRANCH   7  14
ENDBRANCH   2   5
BRANCH   3  45
ATOM     45  C   UNL     1     -11.716  -2.208  -0.513  1.00  0.00     0.171 C 
BRANCH  45  46
ATOM     46  N   UNL     1     -12.651  -2.913   0.354  1.00  0.00    -0.342 N 
ATOM     47  C   UNL     1     -13.999  -2.959   0.100  1.00  0.00     0.247 C 
ATOM     48  O   UNL     1     -14.505  -2.473  -0.913  1.00  0.00    -0.273 OA
ATOM     49  H   UNL     1     -12.266  -3.378   1.174  1.00  0.00     0.164 HD
BRANCH  47  50
ATOM     50  C   UNL     1     -14.842  -3.639   1.187  1.00  0.00     0.212 CG0
ATOM     51  G   UNL     1     -15.730  -4.694   0.498  1.00  0.00     0.000 G0
BRANCH  50  52
ATOM     52  N   UNL     1     -13.880  -4.216   2.122  1.00  0.00    -0.339 N 
ATOM     53  C   UNL     1     -14.199  -5.209   3.017  1.00  0.00     0.243 C 
ATOM     54  O   UNL     1     -15.337  -5.653   3.136  1.00  0.00    -0.273 OA
ATOM     55  H   UNL     1     -12.946  -3.812   2.149  1.00  0.00     0.164 HD
BRANCH  53  56
ATOM     56  C   UNL     1     -13.042  -5.597   3.960  1.00  0.00     0.182 C 
BRANCH  56  57
ATOM     57  N   UNL     1     -12.598  -4.445   4.751  1.00  0.00    -0.344 N 
ATOM     58  C   UNL     1     -12.972  -4.262   6.060  1.00  0.00     0.220 C 
ATOM     59  O   UNL     1     -13.759  -5.006   6.635  1.00  0.00    -0.275 OA
ATOM     60  H   UNL     1     -11.869  -3.863   4.347  1.00  0.00     0.164 HD
BRANCH  58  61
ATOM     61  C   UNL     1     -12.348  -3.035   6.698  1.00  0.00     0.100 C 
BRANCH  61  62
ATOM     62  C   UNL     1     -11.447  -2.239   5.753  1.00  0.00     0.010 C 
BRANCH  62  63
ATOM     63  C   UNL     1     -10.104  -1.823   6.366  1.00  0.00     0.000 C 
BRANCH  63  64
ATOM     64  C   UNL     1     -10.026  -0.350   6.763  1.00  0.00    -0.003 C 
ATOM     65  C   UNL     1      -9.966  -0.185   8.275  1.00  0.00     0.004 C 
ENDBRANCH  63  64
ENDBRANCH  62  63
ENDBRANCH  61  62
ENDBRANCH  58  61
ENDBRANCH  56  57
BRANCH  56  66
ATOM     66  C   UNL     1     -11.892  -6.251   3.197  1.00  0.00     0.157 C 
BRANCH  66  67
ATOM     67  C   UNL     1     -10.681  -5.363   3.174  1.00  0.00     0.305 C 
ATOM     68  O   UNL     1      -9.703  -5.438   3.903  1.00  0.00    -0.252 OA
BRANCH  67  69
ATOM     69  O   UNL     1     -10.737  -4.446   2.189  1.00  0.00    -0.481 OA
ATOM     70  H   UNL     1     -11.118  -3.647   2.613  1.00  0.00     0.296 HD
ENDBRANCH  67  69
ENDBRANCH  66  67
ENDBRANCH  56  66
ENDBRANCH  53  56
ENDBRANCH  50  52
ENDBRANCH  47  50
ENDBRANCH  45  46
BRANCH  45  71
ATOM     71  C   UNL     1     -10.800  -3.180  -1.266  1.00  0.00     0.037 C 
BRANCH  71  72
ATOM     72  C   UNL     1     -11.306  -3.467  -2.682  1.00  0.00     0.026 C 
BRANCH  72  73
ATOM     73  C   UNL     1     -10.157  -3.523  -3.686  1.00  0.00     0.146 C 
BRANCH  73  74
ATOM     74  N   UNL     1     -10.453  -2.578  -4.758  1.00  0.00    -0.254 NA
ATOM     75  C   UNL     1      -9.906  -1.420  -4.703  1.00  0.00     0.185 C 
ATOM     76  N   UNL     1     -10.158  -0.528  -5.675  1.00  0.00    -0.370 N 
ATOM     77  N   UNL     1      -9.069  -0.924  -3.775  1.00  0.00    -0.370 N 
ATOM     78  H   UNL     1     -10.786  -0.819  -6.411  1.00  0.00     0.159 HD
ATOM     79  H   UNL     1      -9.885   0.438  -5.625  1.00  0.00     0.159 HD
ATOM     80  H   UNL     1      -8.787  -1.485  -2.985  1.00  0.00     0.159 HD
ATOM     81  H   UNL     1      -8.609  -0.036  -3.898  1.00  0.00     0.159 HD
ENDBRANCH  73  74
ENDBRANCH  72  73
ENDBRANCH  71  72
ENDBRANCH  45  71
ENDBRANCH   3  45
TORSDOF 20
ENDMDL
MODEL 42
REMARK VINA RESULT:    -5.505      4.789      9.095
REMARK INTER + INTRA:         -21.571
REMARK INTER:                 -17.208
REMARK INTRA:                  -4.363
REMARK UNBOUND:                -5.767
REMARK SMILES CCCCCC(=O)N[C@H](CC(=O)O)C(=O)N[C@H]1C(=O)N[C@H](CCCN=C(N)N)C(=O)N[C@@H]2CC[C@H](O)N(C2=O)[C@@H](CC(C)C)C(=O)N(C)[C@@H](Cc2ccccc2)C(=O)N[C@H](C(C)C)C(=O)O[C@@H]1C
REMARK SMILES IDX 30 1 31 2 29 3 32 5 35 6 37 7 34 8 38 9 33 10 39 11 36 12
REMARK SMILES IDX 40 14 41 15 42 16 43 17 44 18 45 19 46 20 47 21 48 22 49 23
REMARK SMILES IDX 50 24 51 25 52 26 56 27 53 28 55 29 54 30 57 31 58 32 59 33
REMARK SMILES IDX 60 35 61 36 62 37 63 38 64 39 65 40 66 41 67 42 68 43 21 45
REMARK SMILES IDX 20 46 18 47 19 48 17 50 16 52 14 53 15 54 9 56 8 57 6 58
REMARK SMILES IDX 7 59 5 61 4 62 3 63 2 64 1 65 10 66 11 67 12 68 13 69 22 71
REMARK SMILES IDX 23 72 24 73 25 74 26 75 27 76 28 77
REMARK H PARENT 31 4 36 13 59 34 20 49 16 55 8 60 13 70 27 78 27 79 28 80
REMARK H PARENT 28 81
REMARK Flexibility Score:  259.900
ROOT
ATOM      1  O   UNL     1      -9.086   1.836   0.783  1.00  0.00    -0.273 OA
ATOM      2  N   UNL     1      -8.375   0.026   1.987  1.00  0.00    -0.343 N 
ATOM      3  C   UNL     1      -8.529   0.738   0.817  1.00  0.00     0.243 C 
ATOM      4  H   UNL     1      -7.899  -0.868   1.979  1.00  0.00     0.164 HD
ENDROOT
BRANCH   2   5
ATOM      5  C   UNL     1      -8.979   0.498   3.228  1.00  0.00     0.171 C 
ATOM      6  C   UNL     1      -9.190  -0.665   5.876  1.00  0.00     0.214 C 
ATOM      7  N   UNL     1     -10.239  -0.900   4.911  1.00  0.00    -0.303 N 
ATOM      8  C   UNL     1      -8.489   0.672   5.689  1.00  0.00     0.057 C 
ATOM      9  C   UNL     1     -10.176  -0.417   3.614  1.00  0.00     0.247 C 
ATOM     10  C   UNL     1      -7.913   0.757   4.292  1.00  0.00     0.040 C 
ATOM     11  O   UNL     1     -11.037  -0.695   2.768  1.00  0.00    -0.272 OA
BRANCH   6  12
ATOM     12  O   UNL     1      -8.267  -1.723   5.774  1.00  0.00    -0.373 OA
ATOM     13  H   UNL     1      -7.390  -1.366   6.032  1.00  0.00     0.213 HD
ENDBRANCH   6  12
BRANCH   7  14
ATOM     14  C   UNL     1     -11.330  -1.811   5.316  1.00  0.00     0.177 C 
BRANCH  14  15
ATOM     15  C   UNL     1     -11.128  -3.289   4.932  1.00  0.00     0.038 C 
BRANCH  15  16
ATOM     16  C   UNL     1     -12.135  -3.975   3.983  1.00  0.00    -0.015 C 
ATOM     17  C   UNL     1     -13.555  -3.421   4.139  1.00  0.00     0.007 C 
ATOM     18  C   UNL     1     -12.173  -5.482   4.267  1.00  0.00     0.007 C 
ENDBRANCH  15  16
ENDBRANCH  14  15
BRANCH  14  19
ATOM     19  C   UNL     1     -12.002  -1.301   6.637  1.00  0.00     0.245 C 
ATOM     20  O   UNL     1     -12.595  -0.210   6.578  1.00  0.00    -0.272 OA
BRANCH  19  21
ATOM     21  N   UNL     1     -11.874  -1.932   7.861  1.00  0.00    -0.332 N 
ATOM     22  C   UNL     1     -10.849  -1.652   8.851  1.00  0.00     0.147 C 
BRANCH  21  23
ATOM     23  C   UNL     1     -12.856  -2.999   8.200  1.00  0.00     0.178 C 
BRANCH  23  24
ATOM     24  C   UNL     1     -12.361  -4.437   7.942  1.00  0.00     0.070 C 
BRANCH  24  25
ATOM     25  C   UNL     1     -13.400  -5.535   7.959  1.00  0.00    -0.045 A 
ATOM     26  C   UNL     1     -13.243  -6.658   8.781  1.00  0.00     0.004 A 
ATOM     27  C   UNL     1     -14.538  -5.445   7.143  1.00  0.00     0.004 A 
ATOM     28  C   UNL     1     -14.198  -7.677   8.778  1.00  0.00     0.000 A 
ATOM     29  C   UNL     1     -15.492  -6.463   7.142  1.00  0.00     0.000 A 
ATOM     30  C   UNL     1     -15.320  -7.580   7.957  1.00  0.00     0.000 A 
ENDBRANCH  24  25
ENDBRANCH  23  24
BRANCH  23  31
ATOM     31  C   UNL     1     -13.534  -2.781   9.574  1.00  0.00     0.243 C 
ATOM     32  O   UNL     1     -13.226  -3.387  10.596  1.00  0.00    -0.273 OA
ATOM     33  N   UNL     1     -14.654  -1.969   9.514  1.00  0.00    -0.341 N 
ATOM     34  H   UNL     1     -14.864  -1.495   8.632  1.00  0.00     0.164 HD
BRANCH  33  35
ATOM     35  C   UNL     1     -15.522  -1.719  10.668  1.00  0.00     0.194 C 
BRANCH  35  36
ATOM     36  C   UNL     1     -14.782  -1.136  11.905  1.00  0.00     0.017 C 
ATOM     37  C   UNL     1     -15.774  -0.566  12.933  1.00  0.00     0.010 C 
ATOM     38  C   UNL     1     -13.796  -0.017  11.547  1.00  0.00     0.010 C 
ENDBRANCH  35  36
BRANCH  35  39
ATOM     39  C   UNL     1     -16.392  -2.953  11.041  1.00  0.00     0.329 C 
ATOM     40  O   UNL     1     -16.952  -3.670  10.220  1.00  0.00    -0.250 OA
BRANCH  39  41
ATOM     41  O   UNL     1     -16.392  -3.202  12.385  1.00  0.00    -0.458 OA
BRANCH  41  42
ATOM     42  C   UNL     1     -17.527  -3.938  12.901  1.00  0.00     0.205 CG0
ATOM     43  C   UNL     1     -18.616  -2.920  13.232  1.00  0.00     0.056 C 
ATOM     44  G   UNL     1     -17.073  -4.739  14.137  1.00  0.00     0.000 G0
ENDBRANCH  41  42
ENDBRANCH  39  41
ENDBRANCH  35  39
ENDBRANCH  33  35
ENDBRANCH  23  31
ENDBRANCH  21  23
ENDBRANCH  19  21
ENDBRANCH  14  19
ENDBRANCH   7  14
ENDBRANCH   2   5
BRANCH   3  45
ATOM     45  C   UNL     1      -7.940   0.078  -0.437  1.00  0.00     0.171 C 
BRANCH  45  46
ATOM     46  N   UNL     1      -6.821   0.921  -0.837  1.00  0.00    -0.342 N 
ATOM     47  C   UNL     1      -5.515   0.525  -0.697  1.00  0.00     0.247 C 
ATOM     48  O   UNL     1      -5.195  -0.593  -0.293  1.00  0.00    -0.273 OA
ATOM     49  H   UNL     1      -7.043   1.834  -1.229  1.00  0.00     0.164 HD
BRANCH  47  50
ATOM     50  C   UNL     1      -4.471   1.592  -1.055  1.00  0.00     0.212 CG0
ATOM     51  G   UNL     1      -3.268   1.405  -0.109  1.00  0.00     0.000 G0
BRANCH  50  52
ATOM     52  N   UNL     1      -4.142   1.360  -2.459  1.00  0.00    -0.339 N 
ATOM     53  C   UNL     1      -2.971   0.774  -2.874  1.00  0.00     0.243 C 
ATOM     54  O   UNL     1      -2.081   0.447  -2.093  1.00  0.00    -0.273 OA
ATOM     55  H   UNL     1      -4.791   1.710  -3.161  1.00  0.00     0.164 HD
BRANCH  53  56
ATOM     56  C   UNL     1      -2.809   0.713  -4.406  1.00  0.00     0.182 C 
BRANCH  56  57
ATOM     57  N   UNL     1      -1.728   1.595  -4.857  1.00  0.00    -0.344 N 
ATOM     58  C   UNL     1      -0.731   1.167  -5.699  1.00  0.00     0.220 C 
ATOM     59  O   UNL     1      -0.633   0.003  -6.074  1.00  0.00    -0.275 OA
ATOM     60  H   UNL     1      -1.827   2.586  -4.654  1.00  0.00     0.164 HD
BRANCH  58  61
ATOM     61  C   UNL     1       0.247   2.263  -6.081  1.00  0.00     0.100 C 
BRANCH  61  62
ATOM     62  C   UNL     1      -0.313   3.263  -7.093  1.00  0.00     0.010 C 
BRANCH  62  63
ATOM     63  C   UNL     1       0.178   3.043  -8.529  1.00  0.00     0.000 C 
BRANCH  63  64
ATOM     64  C   UNL     1       1.149   4.111  -9.030  1.00  0.00    -0.003 C 
ATOM     65  C   UNL     1       1.171   5.319  -8.105  1.00  0.00     0.004 C 
ENDBRANCH  63  64
ENDBRANCH  62  63
ENDBRANCH  61  62
ENDBRANCH  58  61
ENDBRANCH  56  57
BRANCH  56  66
ATOM     66  C   UNL     1      -4.127   1.004  -5.121  1.00  0.00     0.157 C 
BRANCH  66  67
ATOM     67  C   UNL     1      -4.093   2.343  -5.800  1.00  0.00     0.305 C 
ATOM     68  O   UNL     1      -3.953   2.556  -6.994  1.00  0.00    -0.252 OA
BRANCH  67  69
ATOM     69  O   UNL     1      -4.292   3.359  -4.938  1.00  0.00    -0.481 OA
ATOM     70  H   UNL     1      -3.507   3.345  -4.350  1.00  0.00     0.296 HD
ENDBRANCH  67  69
ENDBRANCH  66  67
ENDBRANCH  56  66
ENDBRANCH  53  56
ENDBRANCH  50  52
ENDBRANCH  47  50
ENDBRANCH  45  46
BRANCH  45  71
ATOM     71  C   UNL     1      -9.001  -0.015  -1.539  1.00  0.00     0.037 C 
BRANCH  71  72
ATOM     72  C   UNL     1      -8.574  -0.954  -2.671  1.00  0.00     0.026 C 
BRANCH  72  73
ATOM     73  C   UNL     1      -8.248  -0.181  -3.947  1.00  0.00     0.146 C 
BRANCH  73  74
ATOM     74  N   UNL     1      -9.452  -0.154  -4.773  1.00  0.00    -0.254 NA
ATOM     75  C   UNL     1      -9.357  -0.567  -5.983  1.00  0.00     0.185 C 
ATOM     76  N   UNL     1     -10.447  -0.556  -6.767  1.00  0.00    -0.370 N 
ATOM     77  N   UNL     1      -8.279  -1.038  -6.633  1.00  0.00    -0.370 N 
ATOM     78  H   UNL     1     -11.302  -0.208  -6.357  1.00  0.00     0.159 HD
ATOM     79  H   UNL     1     -10.419  -0.725  -7.757  1.00  0.00     0.159 HD
ATOM     80  H   UNL     1      -7.387  -1.108  -6.166  1.00  0.00     0.159 HD
ATOM     81  H   UNL     1      -8.351  -1.443  -7.552  1.00  0.00     0.159 HD
ENDBRANCH  73  74
ENDBRANCH  72  73
ENDBRANCH  71  72
ENDBRANCH  45  71
ENDBRANCH   3  45
TORSDOF 20
ENDMDL
MODEL 43
REMARK VINA RESULT:    -5.496      6.170     10.161
REMARK INTER + INTRA:         -21.545
REMARK INTER:                 -15.075
REMARK INTRA:                  -6.469
REMARK UNBOUND:                -5.767
REMARK SMILES CCCCCC(=O)N[C@H](CC(=O)O)C(=O)N[C@H]1C(=O)N[C@H](CCCN=C(N)N)C(=O)N[C@@H]2CC[C@H](O)N(C2=O)[C@@H](CC(C)C)C(=O)N(C)[C@@H](Cc2ccccc2)C(=O)N[C@H](C(C)C)C(=O)O[C@@H]1C
REMARK SMILES IDX 30 1 31 2 29 3 32 5 35 6 37 7 34 8 38 9 33 10 39 11 36 12
REMARK SMILES IDX 40 14 41 15 42 16 43 17 44 18 45 19 46 20 47 21 48 22 49 23
REMARK SMILES IDX 50 24 51 25 52 26 56 27 53 28 55 29 54 30 57 31 58 32 59 33
REMARK SMILES IDX 60 35 61 36 62 37 63 38 64 39 65 40 66 41 67 42 68 43 21 45
REMARK SMILES IDX 20 46 18 47 19 48 17 50 16 52 14 53 15 54 9 56 8 57 6 58
REMARK SMILES IDX 7 59 5 61 4 62 3 63 2 64 1 65 10 66 11 67 12 68 13 69 22 71
REMARK SMILES IDX 23 72 24 73 25 74 26 75 27 76 28 77
REMARK H PARENT 31 4 36 13 59 34 20 49 16 55 8 60 13 70 27 78 27 79 28 80
REMARK H PARENT 28 81
REMARK Flexibility Score:  259.900
ROOT
ATOM      1  O   UNL     1      -4.333  -2.548   2.572  1.00  0.00    -0.273 OA
ATOM      2  N   UNL     1      -5.723  -2.824   0.777  1.00  0.00    -0.343 N 
ATOM      3  C   UNL     1      -4.564  -2.378   1.374  1.00  0.00     0.243 C 
ATOM      4  H   UNL     1      -5.873  -2.680  -0.214  1.00  0.00     0.164 HD
ENDROOT
BRANCH   2   5
ATOM      5  C   UNL     1      -6.788  -3.420   1.576  1.00  0.00     0.171 C 
ATOM      6  C   UNL     1      -9.353  -4.578   0.880  1.00  0.00     0.214 C 
ATOM      7  N   UNL     1      -9.271  -3.170   1.193  1.00  0.00    -0.303 N 
ATOM      8  C   UNL     1      -8.315  -5.417   1.608  1.00  0.00     0.057 C 
ATOM      9  C   UNL     1      -8.070  -2.543   1.484  1.00  0.00     0.247 C 
ATOM     10  C   UNL     1      -6.927  -4.912   1.281  1.00  0.00     0.040 C 
ATOM     11  O   UNL     1      -7.995  -1.321   1.665  1.00  0.00    -0.272 OA
BRANCH   6  12
ATOM     12  O   UNL     1      -9.211  -4.718  -0.514  1.00  0.00    -0.373 OA
ATOM     13  H   UNL     1      -8.351  -5.162  -0.672  1.00  0.00     0.213 HD
ENDBRANCH   6  12
BRANCH   7  14
ATOM     14  C   UNL     1     -10.510  -2.377   1.047  1.00  0.00     0.177 C 
BRANCH  14  15
ATOM     15  C   UNL     1     -11.127  -2.377  -0.365  1.00  0.00     0.038 C 
BRANCH  15  16
ATOM     16  C   UNL     1     -11.393  -1.033  -1.079  1.00  0.00    -0.015 C 
ATOM     17  C   UNL     1     -12.400  -0.160  -0.324  1.00  0.00     0.007 C 
ATOM     18  C   UNL     1     -11.944  -1.293  -2.486  1.00  0.00     0.007 C 
ENDBRANCH  15  16
ENDBRANCH  14  15
BRANCH  14  19
ATOM     19  C   UNL     1     -11.319  -2.381   2.390  1.00  0.00     0.245 C 
ATOM     20  O   UNL     1     -10.954  -1.579   3.266  1.00  0.00    -0.272 OA
BRANCH  19  21
ATOM     21  N   UNL     1     -12.321  -3.289   2.684  1.00  0.00    -0.332 N 
ATOM     22  C   UNL     1     -12.248  -4.326   3.698  1.00  0.00     0.147 C 
BRANCH  21  23
ATOM     23  C   UNL     1     -13.581  -3.215   1.893  1.00  0.00     0.178 C 
BRANCH  23  24
ATOM     24  C   UNL     1     -14.150  -4.580   1.456  1.00  0.00     0.070 C 
BRANCH  24  25
ATOM     25  C   UNL     1     -13.499  -5.248   0.267  1.00  0.00    -0.045 A 
ATOM     26  C   UNL     1     -12.635  -6.337   0.440  1.00  0.00     0.004 A 
ATOM     27  C   UNL     1     -13.748  -4.780  -1.032  1.00  0.00     0.004 A 
ATOM     28  C   UNL     1     -12.024  -6.938  -0.663  1.00  0.00     0.000 A 
ATOM     29  C   UNL     1     -13.137  -5.382  -2.133  1.00  0.00     0.000 A 
ATOM     30  C   UNL     1     -12.273  -6.459  -1.947  1.00  0.00     0.000 A 
ENDBRANCH  24  25
ENDBRANCH  23  24
BRANCH  23  31
ATOM     31  C   UNL     1     -14.619  -2.241   2.501  1.00  0.00     0.243 C 
ATOM     32  O   UNL     1     -15.328  -2.509   3.468  1.00  0.00    -0.273 OA
ATOM     33  N   UNL     1     -14.815  -1.099   1.745  1.00  0.00    -0.341 N 
ATOM     34  H   UNL     1     -14.197  -0.933   0.947  1.00  0.00     0.164 HD
BRANCH  33  35
ATOM     35  C   UNL     1     -15.833  -0.094   2.064  1.00  0.00     0.194 C 
BRANCH  35  36
ATOM     36  C   UNL     1     -15.493   0.784   3.301  1.00  0.00     0.017 C 
ATOM     37  C   UNL     1     -16.086   2.197   3.165  1.00  0.00     0.010 C 
ATOM     38  C   UNL     1     -13.985   0.940   3.535  1.00  0.00     0.010 C 
ENDBRANCH  35  36
BRANCH  35  39
ATOM     39  C   UNL     1     -17.262  -0.700   2.158  1.00  0.00     0.329 C 
ATOM     40  O   UNL     1     -18.000  -0.570   3.127  1.00  0.00    -0.250 OA
BRANCH  39  41
ATOM     41  O   UNL     1     -17.640  -1.322   1.000  1.00  0.00    -0.458 OA
BRANCH  41  42
ATOM     42  C   UNL     1     -18.959  -1.917   0.994  1.00  0.00     0.205 CG0
ATOM     43  C   UNL     1     -18.808  -3.352   0.491  1.00  0.00     0.056 C 
ATOM     44  G   UNL     1     -19.877  -1.069   0.091  1.00  0.00     0.000 G0
ENDBRANCH  41  42
ENDBRANCH  39  41
ENDBRANCH  35  39
ENDBRANCH  33  35
ENDBRANCH  23  31
ENDBRANCH  21  23
ENDBRANCH  19  21
ENDBRANCH  14  19
ENDBRANCH   7  14
ENDBRANCH   2   5
BRANCH   3  45
ATOM     45  C   UNL     1      -3.572  -1.673   0.439  1.00  0.00     0.171 C 
BRANCH  45  46
ATOM     46  N   UNL     1      -2.332  -1.559   1.194  1.00  0.00    -0.342 N 
ATOM     47  C   UNL     1      -1.108  -1.854   0.649  1.00  0.00     0.247 C 
ATOM     48  O   UNL     1      -0.960  -2.165  -0.534  1.00  0.00    -0.273 OA
ATOM     49  H   UNL     1      -2.403  -1.249   2.162  1.00  0.00     0.164 HD
BRANCH  47  50
ATOM     50  C   UNL     1       0.072  -1.795   1.630  1.00  0.00     0.212 CG0
ATOM     51  G   UNL     1       1.285  -1.226   0.868  1.00  0.00     0.000 G0
BRANCH  50  52
ATOM     52  N   UNL     1      -0.374  -0.940   2.726  1.00  0.00    -0.339 N 
ATOM     53  C   UNL     1      -0.039  -1.158   4.040  1.00  0.00     0.243 C 
ATOM     54  O   UNL     1       0.623  -2.127   4.402  1.00  0.00    -0.273 OA
ATOM     55  H   UNL     1      -1.018  -0.183   2.503  1.00  0.00     0.164 HD
BRANCH  53  56
ATOM     56  C   UNL     1      -0.698  -0.174   5.028  1.00  0.00     0.182 C 
BRANCH  56  57
ATOM     57  N   UNL     1      -2.028   0.230   4.559  1.00  0.00    -0.344 N 
ATOM     58  C   UNL     1      -3.183  -0.325   5.053  1.00  0.00     0.220 C 
ATOM     59  O   UNL     1      -3.183  -1.245   5.863  1.00  0.00    -0.275 OA
ATOM     60  H   UNL     1      -2.076   1.055   3.967  1.00  0.00     0.164 HD
BRANCH  58  61
ATOM     61  C   UNL     1      -4.442   0.286   4.468  1.00  0.00     0.100 C 
BRANCH  61  62
ATOM     62  C   UNL     1      -4.779   1.666   5.034  1.00  0.00     0.010 C 
BRANCH  62  63
ATOM     63  C   UNL     1      -6.245   1.831   5.454  1.00  0.00     0.000 C 
BRANCH  63  64
ATOM     64  C   UNL     1      -7.247   1.192   4.495  1.00  0.00    -0.003 C 
ATOM     65  C   UNL     1      -7.460   2.054   3.259  1.00  0.00     0.004 C 
ENDBRANCH  63  64
ENDBRANCH  62  63
ENDBRANCH  61  62
ENDBRANCH  58  61
ENDBRANCH  56  57
BRANCH  56  66
ATOM     66  C   UNL     1       0.204   1.026   5.309  1.00  0.00     0.157 C 
BRANCH  66  67
ATOM     67  C   UNL     1      -0.475   2.017   6.210  1.00  0.00     0.305 C 
ATOM     68  O   UNL     1      -0.492   3.232   6.081  1.00  0.00    -0.252 OA
BRANCH  67  69
ATOM     69  O   UNL     1      -1.149   1.421   7.211  1.00  0.00    -0.481 OA
ATOM     70  H   UNL     1      -0.689   1.708   8.028  1.00  0.00     0.296 HD
ENDBRANCH  67  69
ENDBRANCH  66  67
ENDBRANCH  56  66
ENDBRANCH  53  56
ENDBRANCH  50  52
ENDBRANCH  47  50
ENDBRANCH  45  46
BRANCH  45  71
ATOM     71  C   UNL     1      -4.112  -0.299   0.026  1.00  0.00     0.037 C 
BRANCH  71  72
ATOM     72  C   UNL     1      -4.046  -0.086  -1.488  1.00  0.00     0.026 C 
BRANCH  72  73
ATOM     73  C   UNL     1      -5.440   0.058  -2.095  1.00  0.00     0.146 C 
BRANCH  73  74
ATOM     74  N   UNL     1      -6.078  -1.255  -2.066  1.00  0.00    -0.254 NA
ATOM     75  C   UNL     1      -7.359  -1.299  -2.101  1.00  0.00     0.185 C 
ATOM     76  N   UNL     1      -7.975  -2.492  -2.078  1.00  0.00    -0.370 N 
ATOM     77  N   UNL     1      -8.238  -0.284  -2.162  1.00  0.00    -0.370 N 
ATOM     78  H   UNL     1      -7.385  -3.310  -2.024  1.00  0.00     0.159 HD
ATOM     79  H   UNL     1      -8.966  -2.601  -1.957  1.00  0.00     0.159 HD
ATOM     80  H   UNL     1      -7.918   0.672  -2.191  1.00  0.00     0.159 HD
ATOM     81  H   UNL     1      -9.222  -0.445  -2.302  1.00  0.00     0.159 HD
ENDBRANCH  73  74
ENDBRANCH  72  73
ENDBRANCH  71  72
ENDBRANCH  45  71
ENDBRANCH   3  45
TORSDOF 20
ENDMDL
MODEL 44
REMARK VINA RESULT:    -5.431      3.890      6.703
REMARK INTER + INTRA:         -21.358
REMARK INTER:                 -14.669
REMARK INTRA:                  -6.689
REMARK UNBOUND:                -5.767
REMARK SMILES CCCCCC(=O)N[C@H](CC(=O)O)C(=O)N[C@H]1C(=O)N[C@H](CCCN=C(N)N)C(=O)N[C@@H]2CC[C@H](O)N(C2=O)[C@@H](CC(C)C)C(=O)N(C)[C@@H](Cc2ccccc2)C(=O)N[C@H](C(C)C)C(=O)O[C@@H]1C
REMARK SMILES IDX 30 1 31 2 29 3 32 5 35 6 37 7 34 8 38 9 33 10 39 11 36 12
REMARK SMILES IDX 40 14 41 15 42 16 43 17 44 18 45 19 46 20 47 21 48 22 49 23
REMARK SMILES IDX 50 24 51 25 52 26 56 27 53 28 55 29 54 30 57 31 58 32 59 33
REMARK SMILES IDX 60 35 61 36 62 37 63 38 64 39 65 40 66 41 67 42 68 43 21 45
REMARK SMILES IDX 20 46 18 47 19 48 17 50 16 52 14 53 15 54 9 56 8 57 6 58
REMARK SMILES IDX 7 59 5 61 4 62 3 63 2 64 1 65 10 66 11 67 12 68 13 69 22 71
REMARK SMILES IDX 23 72 24 73 25 74 26 75 27 76 28 77
REMARK H PARENT 31 4 36 13 59 34 20 49 16 55 8 60 13 70 27 78 27 79 28 80
REMARK H PARENT 28 81
REMARK Flexibility Score:  259.900
ROOT
ATOM      1  O   UNL     1      -7.535  -3.762  -3.138  1.00  0.00    -0.273 OA
ATOM      2  N   UNL     1      -6.194  -1.978  -2.639  1.00  0.00    -0.343 N 
ATOM      3  C   UNL     1      -6.873  -2.795  -3.517  1.00  0.00     0.243 C 
ATOM      4  H   UNL     1      -5.672  -1.183  -2.985  1.00  0.00     0.164 HD
ENDROOT
BRANCH   2   5
ATOM      5  C   UNL     1      -6.136  -2.301  -1.217  1.00  0.00     0.171 C 
ATOM      6  C   UNL     1      -7.612  -4.172   0.434  1.00  0.00     0.214 C 
ATOM      7  N   UNL     1      -8.097  -2.820   0.285  1.00  0.00    -0.303 N 
ATOM      8  C   UNL     1      -6.099  -4.284   0.329  1.00  0.00     0.057 C 
ATOM      9  C   UNL     1      -7.469  -1.891  -0.528  1.00  0.00     0.247 C 
ATOM     10  C   UNL     1      -5.635  -3.728  -0.999  1.00  0.00     0.040 C 
ATOM     11  O   UNL     1      -7.938  -0.761  -0.718  1.00  0.00    -0.272 OA
BRANCH   6  12
ATOM     12  O   UNL     1      -8.234  -4.963  -0.553  1.00  0.00    -0.373 OA
ATOM     13  H   UNL     1      -7.964  -4.600  -1.424  1.00  0.00     0.213 HD
ENDBRANCH   6  12
BRANCH   7  14
ATOM     14  C   UNL     1      -9.389  -2.497   0.926  1.00  0.00     0.177 C 
BRANCH  14  15
ATOM     15  C   UNL     1     -10.636  -2.765   0.061  1.00  0.00     0.038 C 
BRANCH  15  16
ATOM     16  C   UNL     1     -11.189  -1.643  -0.846  1.00  0.00    -0.015 C 
ATOM     17  C   UNL     1     -11.471  -0.352  -0.071  1.00  0.00     0.007 C 
ATOM     18  C   UNL     1     -12.495  -2.104  -1.504  1.00  0.00     0.007 C 
ENDBRANCH  15  16
ENDBRANCH  14  15
BRANCH  14  19
ATOM     19  C   UNL     1      -9.297  -2.715   2.476  1.00  0.00     0.245 C 
ATOM     20  O   UNL     1      -8.396  -2.103   3.074  1.00  0.00    -0.272 OA
BRANCH  19  21
ATOM     21  N   UNL     1     -10.076  -3.620   3.175  1.00  0.00    -0.332 N 
ATOM     22  C   UNL     1      -9.867  -5.056   3.217  1.00  0.00     0.147 C 
BRANCH  21  23
ATOM     23  C   UNL     1     -11.236  -3.090   3.945  1.00  0.00     0.178 C 
BRANCH  23  24
ATOM     24  C   UNL     1     -12.610  -3.322   3.283  1.00  0.00     0.070 C 
BRANCH  24  25
ATOM     25  C   UNL     1     -13.336  -2.105   2.759  1.00  0.00    -0.045 A 
ATOM     26  C   UNL     1     -14.270  -2.217   1.722  1.00  0.00     0.004 A 
ATOM     27  C   UNL     1     -13.078  -0.838   3.306  1.00  0.00     0.004 A 
ATOM     28  C   UNL     1     -14.925  -1.085   1.233  1.00  0.00     0.000 A 
ATOM     29  C   UNL     1     -13.734   0.292   2.816  1.00  0.00     0.000 A 
ATOM     30  C   UNL     1     -14.655   0.168   1.778  1.00  0.00     0.000 A 
ENDBRANCH  24  25
ENDBRANCH  23  24
BRANCH  23  31
ATOM     31  C   UNL     1     -11.171  -3.439   5.451  1.00  0.00     0.243 C 
ATOM     32  O   UNL     1     -10.127  -3.524   6.092  1.00  0.00    -0.273 OA
ATOM     33  N   UNL     1     -12.388  -3.833   5.980  1.00  0.00    -0.341 N 
ATOM     34  H   UNL     1     -13.223  -3.745   5.395  1.00  0.00     0.164 HD
BRANCH  33  35
ATOM     35  C   UNL     1     -12.542  -4.321   7.353  1.00  0.00     0.194 C 
BRANCH  35  36
ATOM     36  C   UNL     1     -13.573  -5.475   7.505  1.00  0.00     0.017 C 
ATOM     37  C   UNL     1     -13.075  -6.542   8.496  1.00  0.00     0.010 C 
ATOM     38  C   UNL     1     -13.884  -6.186   6.183  1.00  0.00     0.010 C 
ENDBRANCH  35  36
BRANCH  35  39
ATOM     39  C   UNL     1     -12.801  -3.174   8.370  1.00  0.00     0.329 C 
ATOM     40  O   UNL     1     -11.939  -2.394   8.758  1.00  0.00    -0.250 OA
BRANCH  39  41
ATOM     41  O   UNL     1     -14.119  -3.077   8.719  1.00  0.00    -0.458 OA
BRANCH  41  42
ATOM     42  C   UNL     1     -14.413  -3.130  10.136  1.00  0.00     0.205 CG0
ATOM     43  C   UNL     1     -15.868  -3.568  10.282  1.00  0.00     0.056 C 
ATOM     44  G   UNL     1     -14.152  -1.738  10.745  1.00  0.00     0.000 G0
ENDBRANCH  41  42
ENDBRANCH  39  41
ENDBRANCH  35  39
ENDBRANCH  33  35
ENDBRANCH  23  31
ENDBRANCH  21  23
ENDBRANCH  19  21
ENDBRANCH  14  19
ENDBRANCH   7  14
ENDBRANCH   2   5
BRANCH   3  45
ATOM     45  C   UNL     1      -6.764  -2.404  -4.996  1.00  0.00     0.171 C 
BRANCH  45  46
ATOM     46  N   UNL     1      -5.338  -2.283  -5.268  1.00  0.00    -0.342 N 
ATOM     47  C   UNL     1      -4.686  -3.100  -6.157  1.00  0.00     0.247 C 
ATOM     48  O   UNL     1      -5.268  -3.942  -6.842  1.00  0.00    -0.273 OA
ATOM     49  H   UNL     1      -4.827  -1.560  -4.764  1.00  0.00     0.164 HD
BRANCH  47  50
ATOM     50  C   UNL     1      -3.164  -2.909  -6.221  1.00  0.00     0.212 CG0
ATOM     51  G   UNL     1      -2.792  -2.605  -7.685  1.00  0.00     0.000 G0
BRANCH  50  52
ATOM     52  N   UNL     1      -2.872  -1.805  -5.310  1.00  0.00    -0.339 N 
ATOM     53  C   UNL     1      -1.939  -1.882  -4.305  1.00  0.00     0.243 C 
ATOM     54  O   UNL     1      -1.313  -2.909  -4.059  1.00  0.00    -0.273 OA
ATOM     55  H   UNL     1      -3.438  -0.963  -5.391  1.00  0.00     0.164 HD
BRANCH  53  56
ATOM     56  C   UNL     1      -1.867  -0.622  -3.418  1.00  0.00     0.182 C 
BRANCH  56  57
ATOM     57  N   UNL     1      -1.601   0.574  -4.224  1.00  0.00    -0.344 N 
ATOM     58  C   UNL     1      -2.437   1.664  -4.221  1.00  0.00     0.220 C 
ATOM     59  O   UNL     1      -3.497   1.686  -3.606  1.00  0.00    -0.275 OA
ATOM     60  H   UNL     1      -0.688   0.638  -4.666  1.00  0.00     0.164 HD
BRANCH  58  61
ATOM     61  C   UNL     1      -1.935   2.809  -5.082  1.00  0.00     0.100 C 
BRANCH  61  62
ATOM     62  C   UNL     1      -1.998   2.525  -6.583  1.00  0.00     0.010 C 
BRANCH  62  63
ATOM     63  C   UNL     1      -0.637   2.222  -7.222  1.00  0.00     0.000 C 
BRANCH  63  64
ATOM     64  C   UNL     1       0.531   2.989  -6.603  1.00  0.00    -0.003 C 
ATOM     65  C   UNL     1       0.802   4.286  -7.352  1.00  0.00     0.004 C 
ENDBRANCH  63  64
ENDBRANCH  62  63
ENDBRANCH  61  62
ENDBRANCH  58  61
ENDBRANCH  56  57
BRANCH  56  66
ATOM     66  C   UNL     1      -0.856  -0.791  -2.286  1.00  0.00     0.157 C 
BRANCH  66  67
ATOM     67  C   UNL     1      -1.494  -0.555  -0.947  1.00  0.00     0.305 C 
ATOM     68  O   UNL     1      -1.086  -0.942   0.138  1.00  0.00    -0.252 OA
BRANCH  67  69
ATOM     69  O   UNL     1      -2.599   0.209  -1.035  1.00  0.00    -0.481 OA
ATOM     70  H   UNL     1      -3.284  -0.283  -0.533  1.00  0.00     0.296 HD
ENDBRANCH  67  69
ENDBRANCH  66  67
ENDBRANCH  56  66
ENDBRANCH  53  56
ENDBRANCH  50  52
ENDBRANCH  47  50
ENDBRANCH  45  46
BRANCH  45  71
ATOM     71  C   UNL     1      -7.502  -1.086  -5.256  1.00  0.00     0.037 C 
BRANCH  71  72
ATOM     72  C   UNL     1      -7.499  -0.706  -6.738  1.00  0.00     0.026 C 
BRANCH  72  73
ATOM     73  C   UNL     1      -7.054   0.740  -6.946  1.00  0.00     0.146 C 
BRANCH  73  74
ATOM     74  N   UNL     1      -7.010   1.386  -5.637  1.00  0.00    -0.254 NA
ATOM     75  C   UNL     1      -6.331   2.467  -5.526  1.00  0.00     0.185 C 
ATOM     76  N   UNL     1      -6.273   3.085  -4.335  1.00  0.00    -0.370 N 
ATOM     77  N   UNL     1      -5.625   3.122  -6.463  1.00  0.00    -0.370 N 
ATOM     78  H   UNL     1      -6.772   2.653  -3.570  1.00  0.00     0.159 HD
ATOM     79  H   UNL     1      -5.650   3.848  -4.137  1.00  0.00     0.159 HD
ATOM     80  H   UNL     1      -5.581   2.775  -7.410  1.00  0.00     0.159 HD
ATOM     81  H   UNL     1      -5.224   4.029  -6.286  1.00  0.00     0.159 HD
ENDBRANCH  73  74
ENDBRANCH  72  73
ENDBRANCH  71  72
ENDBRANCH  45  71
ENDBRANCH   3  45
TORSDOF 20
ENDMDL
MODEL 45
REMARK VINA RESULT:    -5.408      4.173     13.374
REMARK INTER + INTRA:         -21.294
REMARK INTER:                 -14.729
REMARK INTRA:                  -6.564
REMARK UNBOUND:                -5.767
REMARK SMILES CCCCCC(=O)N[C@H](CC(=O)O)C(=O)N[C@H]1C(=O)N[C@H](CCCN=C(N)N)C(=O)N[C@@H]2CC[C@H](O)N(C2=O)[C@@H](CC(C)C)C(=O)N(C)[C@@H](Cc2ccccc2)C(=O)N[C@H](C(C)C)C(=O)O[C@@H]1C
REMARK SMILES IDX 30 1 31 2 29 3 32 5 35 6 37 7 34 8 38 9 33 10 39 11 36 12
REMARK SMILES IDX 40 14 41 15 42 16 43 17 44 18 45 19 46 20 47 21 48 22 49 23
REMARK SMILES IDX 50 24 51 25 52 26 56 27 53 28 55 29 54 30 57 31 58 32 59 33
REMARK SMILES IDX 60 35 61 36 62 37 63 38 64 39 65 40 66 41 67 42 68 43 21 45
REMARK SMILES IDX 20 46 18 47 19 48 17 50 16 52 14 53 15 54 9 56 8 57 6 58
REMARK SMILES IDX 7 59 5 61 4 62 3 63 2 64 1 65 10 66 11 67 12 68 13 69 22 71
REMARK SMILES IDX 23 72 24 73 25 74 26 75 27 76 28 77
REMARK H PARENT 31 4 36 13 59 34 20 49 16 55 8 60 13 70 27 78 27 79 28 80
REMARK H PARENT 28 81
REMARK Flexibility Score:  259.900
ROOT
ATOM      1  O   UNL     1     -10.790  -0.432   0.229  1.00  0.00    -0.273 OA
ATOM      2  N   UNL     1      -9.380  -2.225   0.389  1.00  0.00    -0.343 N 
ATOM      3  C   UNL     1     -10.236  -1.285   0.922  1.00  0.00     0.243 C 
ATOM      4  H   UNL     1      -8.954  -2.922   0.987  1.00  0.00     0.164 HD
ENDROOT
BRANCH   2   5
ATOM      5  C   UNL     1      -9.001  -2.171  -1.019  1.00  0.00     0.171 C 
ATOM      6  C   UNL     1      -7.389  -3.908  -2.687  1.00  0.00     0.214 C 
ATOM      7  N   UNL     1      -6.762  -2.806  -1.996  1.00  0.00    -0.303 N 
ATOM      8  C   UNL     1      -8.841  -3.643  -3.051  1.00  0.00     0.057 C 
ATOM      9  C   UNL     1      -7.464  -1.969  -1.143  1.00  0.00     0.247 C 
ATOM     10  C   UNL     1      -9.632  -3.321  -1.801  1.00  0.00     0.040 C 
ATOM     11  O   UNL     1      -6.903  -1.081  -0.487  1.00  0.00    -0.272 OA
BRANCH   6  12
ATOM     12  O   UNL     1      -7.287  -5.047  -1.864  1.00  0.00    -0.373 OA
ATOM     13  H   UNL     1      -6.716  -5.691  -2.334  1.00  0.00     0.213 HD
ENDBRANCH   6  12
BRANCH   7  14
ATOM     14  C   UNL     1      -5.293  -2.687  -2.115  1.00  0.00     0.177 C 
BRANCH  14  15
ATOM     15  C   UNL     1      -4.492  -3.889  -1.577  1.00  0.00     0.038 C 
BRANCH  15  16
ATOM     16  C   UNL     1      -4.111  -3.940  -0.080  1.00  0.00    -0.015 C 
ATOM     17  C   UNL     1      -5.261  -4.443   0.798  1.00  0.00     0.007 C 
ATOM     18  C   UNL     1      -3.715  -2.539   0.403  1.00  0.00     0.007 C 
ENDBRANCH  15  16
ENDBRANCH  14  15
BRANCH  14  19
ATOM     19  C   UNL     1      -4.918  -1.840  -3.379  1.00  0.00     0.245 C 
ATOM     20  O   UNL     1      -5.160  -2.349  -4.486  1.00  0.00    -0.272 OA
BRANCH  19  21
ATOM     21  N   UNL     1      -4.243  -0.633  -3.326  1.00  0.00    -0.332 N 
ATOM     22  C   UNL     1      -4.797   0.621  -2.848  1.00  0.00     0.147 C 
BRANCH  21  23
ATOM     23  C   UNL     1      -2.834  -0.602  -3.806  1.00  0.00     0.178 C 
BRANCH  23  24
ATOM     24  C   UNL     1      -2.094  -1.952  -3.725  1.00  0.00     0.070 C 
BRANCH  24  25
ATOM     25  C   UNL     1      -1.338  -2.247  -2.450  1.00  0.00    -0.045 A 
ATOM     26  C   UNL     1      -1.000  -3.561  -2.103  1.00  0.00     0.004 A 
ATOM     27  C   UNL     1      -0.967  -1.202  -1.590  1.00  0.00     0.004 A 
ATOM     28  C   UNL     1      -0.316  -3.827  -0.915  1.00  0.00     0.000 A 
ATOM     29  C   UNL     1      -0.283  -1.469  -0.403  1.00  0.00     0.000 A 
ATOM     30  C   UNL     1       0.040  -2.782  -0.065  1.00  0.00     0.000 A 
ENDBRANCH  24  25
ENDBRANCH  23  24
BRANCH  23  31
ATOM     31  C   UNL     1      -2.670   0.151  -5.149  1.00  0.00     0.243 C 
ATOM     32  O   UNL     1      -3.511   0.148  -6.044  1.00  0.00    -0.273 OA
ATOM     33  N   UNL     1      -1.405   0.682  -5.334  1.00  0.00    -0.341 N 
ATOM     34  H   UNL     1      -0.746   0.649  -4.553  1.00  0.00     0.164 HD
BRANCH  33  35
ATOM     35  C   UNL     1      -0.987   1.333  -6.579  1.00  0.00     0.194 C 
BRANCH  35  36
ATOM     36  C   UNL     1       0.058   0.525  -7.398  1.00  0.00     0.017 C 
ATOM     37  C   UNL     1      -0.536  -0.798  -7.912  1.00  0.00     0.010 C 
ATOM     38  C   UNL     1       1.319   0.180  -6.596  1.00  0.00     0.010 C 
ENDBRANCH  35  36
BRANCH  35  39
ATOM     39  C   UNL     1      -0.541   2.806  -6.362  1.00  0.00     0.329 C 
ATOM     40  O   UNL     1      -0.484   3.352  -5.266  1.00  0.00    -0.250 OA
BRANCH  39  41
ATOM     41  O   UNL     1      -0.134   3.402  -7.524  1.00  0.00    -0.458 OA
BRANCH  41  42
ATOM     42  C   UNL     1       1.228   3.890  -7.551  1.00  0.00     0.205 CG0
ATOM     43  C   UNL     1       1.170   5.385  -7.859  1.00  0.00     0.056 C 
ATOM     44  G   UNL     1       2.012   3.099  -8.617  1.00  0.00     0.000 G0
ENDBRANCH  41  42
ENDBRANCH  39  41
ENDBRANCH  35  39
ENDBRANCH  33  35
ENDBRANCH  23  31
ENDBRANCH  21  23
ENDBRANCH  19  21
ENDBRANCH  14  19
ENDBRANCH   7  14
ENDBRANCH   2   5
BRANCH   3  45
ATOM     45  C   UNL     1     -10.466  -1.390   2.436  1.00  0.00     0.171 C 
BRANCH  45  46
ATOM     46  N   UNL     1     -11.511  -2.390   2.607  1.00  0.00    -0.342 N 
ATOM     47  C   UNL     1     -11.774  -2.980   3.818  1.00  0.00     0.247 C 
ATOM     48  O   UNL     1     -11.200  -2.656   4.858  1.00  0.00    -0.273 OA
ATOM     49  H   UNL     1     -12.049  -2.647   1.782  1.00  0.00     0.164 HD
BRANCH  47  50
ATOM     50  C   UNL     1     -12.823  -4.100   3.781  1.00  0.00     0.212 CG0
ATOM     51  G   UNL     1     -14.215  -3.437   3.772  1.00  0.00     0.000 G0
BRANCH  50  52
ATOM     52  N   UNL     1     -12.539  -4.861   2.567  1.00  0.00    -0.339 N 
ATOM     53  C   UNL     1     -12.049  -6.144   2.577  1.00  0.00     0.243 C 
ATOM     54  O   UNL     1     -11.762  -6.735   3.614  1.00  0.00    -0.273 OA
ATOM     55  H   UNL     1     -12.652  -4.385   1.674  1.00  0.00     0.164 HD
BRANCH  53  56
ATOM     56  C   UNL     1     -11.745  -6.711   1.175  1.00  0.00     0.182 C 
BRANCH  56  57
ATOM     57  N   UNL     1     -12.462  -5.961   0.138  1.00  0.00    -0.344 N 
ATOM     58  C   UNL     1     -12.082  -5.985  -1.182  1.00  0.00     0.220 C 
ATOM     59  O   UNL     1     -11.079  -6.572  -1.574  1.00  0.00    -0.275 OA
ATOM     60  H   UNL     1     -13.352  -5.546   0.401  1.00  0.00     0.164 HD
BRANCH  58  61
ATOM     61  C   UNL     1     -13.001  -5.185  -2.087  1.00  0.00     0.100 C 
BRANCH  61  62
ATOM     62  C   UNL     1     -14.470  -5.230  -1.668  1.00  0.00     0.010 C 
BRANCH  62  63
ATOM     63  C   UNL     1     -15.104  -3.850  -1.453  1.00  0.00     0.000 C 
BRANCH  63  64
ATOM     64  C   UNL     1     -14.437  -3.017  -0.360  1.00  0.00    -0.003 C 
ATOM     65  C   UNL     1     -13.951  -1.679  -0.900  1.00  0.00     0.004 C 
ENDBRANCH  63  64
ENDBRANCH  62  63
ENDBRANCH  61  62
ENDBRANCH  58  61
ENDBRANCH  56  57
BRANCH  56  66
ATOM     66  C   UNL     1     -12.030  -8.210   1.103  1.00  0.00     0.157 C 
BRANCH  66  67
ATOM     67  C   UNL     1     -10.760  -9.008   1.179  1.00  0.00     0.305 C 
ATOM     68  O   UNL     1      -9.758  -8.858   0.498  1.00  0.00    -0.252 OA
BRANCH  67  69
ATOM     69  O   UNL     1     -10.796  -9.934   2.157  1.00  0.00    -0.481 OA
ATOM     70  H   UNL     1     -11.481  -9.613   2.780  1.00  0.00     0.296 HD
ENDBRANCH  67  69
ENDBRANCH  66  67
ENDBRANCH  56  66
ENDBRANCH  53  56
ENDBRANCH  50  52
ENDBRANCH  47  50
ENDBRANCH  45  46
BRANCH  45  71
ATOM     71  C   UNL     1     -10.885  -0.031   3.007  1.00  0.00     0.037 C 
BRANCH  71  72
ATOM     72  C   UNL     1      -9.765   0.623   3.819  1.00  0.00     0.026 C 
BRANCH  72  73
ATOM     73  C   UNL     1      -8.388   0.158   3.350  1.00  0.00     0.146 C 
BRANCH  73  74
ATOM     74  N   UNL     1      -7.572   1.345   3.111  1.00  0.00    -0.254 NA
ATOM     75  C   UNL     1      -7.453   1.756   1.903  1.00  0.00     0.185 C 
ATOM     76  N   UNL     1      -6.711   2.846   1.651  1.00  0.00    -0.370 N 
ATOM     77  N   UNL     1      -7.983   1.243   0.779  1.00  0.00    -0.370 N 
ATOM     78  H   UNL     1      -6.268   3.291   2.443  1.00  0.00     0.159 HD
ATOM     79  H   UNL     1      -6.455   3.140   0.725  1.00  0.00     0.159 HD
ATOM     80  H   UNL     1      -8.569   0.422   0.816  1.00  0.00     0.159 HD
ATOM     81  H   UNL     1      -7.914   1.721  -0.104  1.00  0.00     0.159 HD
ENDBRANCH  73  74
ENDBRANCH  72  73
ENDBRANCH  71  72
ENDBRANCH  45  71
ENDBRANCH   3  45
TORSDOF 20
ENDMDL
MODEL 46
REMARK VINA RESULT:    -5.370      4.793      9.041
REMARK INTER + INTRA:         -21.184
REMARK INTER:                 -13.658
REMARK INTRA:                  -7.526
REMARK UNBOUND:                -5.767
REMARK SMILES CCCCCC(=O)N[C@H](CC(=O)O)C(=O)N[C@H]1C(=O)N[C@H](CCCN=C(N)N)C(=O)N[C@@H]2CC[C@H](O)N(C2=O)[C@@H](CC(C)C)C(=O)N(C)[C@@H](Cc2ccccc2)C(=O)N[C@H](C(C)C)C(=O)O[C@@H]1C
REMARK SMILES IDX 30 1 31 2 29 3 32 5 35 6 37 7 34 8 38 9 33 10 39 11 36 12
REMARK SMILES IDX 40 14 41 15 42 16 43 17 44 18 45 19 46 20 47 21 48 22 49 23
REMARK SMILES IDX 50 24 51 25 52 26 56 27 53 28 55 29 54 30 57 31 58 32 59 33
REMARK SMILES IDX 60 35 61 36 62 37 63 38 64 39 65 40 66 41 67 42 68 43 21 45
REMARK SMILES IDX 20 46 18 47 19 48 17 50 16 52 14 53 15 54 9 56 8 57 6 58
REMARK SMILES IDX 7 59 5 61 4 62 3 63 2 64 1 65 10 66 11 67 12 68 13 69 22 71
REMARK SMILES IDX 23 72 24 73 25 74 26 75 27 76 28 77
REMARK H PARENT 31 4 36 13 59 34 20 49 16 55 8 60 13 70 27 78 27 79 28 80
REMARK H PARENT 28 81
REMARK Flexibility Score:  259.900
ROOT
ATOM      1  O   UNL     1      -8.223   1.592  -4.018  1.00  0.00    -0.273 OA
ATOM      2  N   UNL     1      -8.456  -0.682  -4.050  1.00  0.00    -0.343 N 
ATOM      3  C   UNL     1      -8.198   0.516  -3.420  1.00  0.00     0.243 C 
ATOM      4  H   UNL     1      -8.441  -1.547  -3.524  1.00  0.00     0.164 HD
ENDROOT
BRANCH   2   5
ATOM      5  C   UNL     1      -8.655  -0.734  -5.495  1.00  0.00     0.171 C 
ATOM      6  C   UNL     1     -10.013  -2.624  -7.224  1.00  0.00     0.214 C 
ATOM      7  N   UNL     1      -8.607  -2.801  -6.943  1.00  0.00    -0.303 N 
ATOM      8  C   UNL     1     -10.454  -1.169  -7.198  1.00  0.00     0.057 C 
ATOM      9  C   UNL     1      -7.910  -1.965  -6.086  1.00  0.00     0.247 C 
ATOM     10  C   UNL     1     -10.131  -0.560  -5.851  1.00  0.00     0.040 C 
ATOM     11  O   UNL     1      -6.728  -2.174  -5.783  1.00  0.00    -0.272 OA
BRANCH   6  12
ATOM     12  O   UNL     1     -10.739  -3.375  -6.278  1.00  0.00    -0.373 OA
ATOM     13  H   UNL     1     -11.400  -2.771  -5.878  1.00  0.00     0.213 HD
ENDBRANCH   6  12
BRANCH   7  14
ATOM     14  C   UNL     1      -7.960  -4.010  -7.496  1.00  0.00     0.177 C 
BRANCH  14  15
ATOM     15  C   UNL     1      -6.665  -3.755  -8.290  1.00  0.00     0.038 C 
BRANCH  15  16
ATOM     16  C   UNL     1      -6.741  -3.515  -9.814  1.00  0.00    -0.015 C 
ATOM     17  C   UNL     1      -6.433  -2.063 -10.193  1.00  0.00     0.007 C 
ATOM     18  C   UNL     1      -8.147  -3.857 -10.324  1.00  0.00     0.007 C 
ENDBRANCH  15  16
ENDBRANCH  14  15
BRANCH  14  19
ATOM     19  C   UNL     1      -8.227  -5.243  -6.565  1.00  0.00     0.245 C 
ATOM     20  O   UNL     1      -9.053  -6.078  -6.966  1.00  0.00    -0.272 OA
BRANCH  19  21
ATOM     21  N   UNL     1      -7.685  -5.384  -5.300  1.00  0.00    -0.332 N 
ATOM     22  C   UNL     1      -6.288  -5.650  -5.006  1.00  0.00     0.147 C 
BRANCH  21  23
ATOM     23  C   UNL     1      -8.603  -5.268  -4.133  1.00  0.00     0.178 C 
BRANCH  23  24
ATOM     24  C   UNL     1      -9.271  -6.590  -3.703  1.00  0.00     0.070 C 
BRANCH  24  25
ATOM     25  C   UNL     1     -10.746  -6.542  -3.379  1.00  0.00    -0.045 A 
ATOM     26  C   UNL     1     -11.189  -6.527  -2.050  1.00  0.00     0.004 A 
ATOM     27  C   UNL     1     -11.697  -6.517  -4.411  1.00  0.00     0.004 A 
ATOM     28  C   UNL     1     -12.555  -6.500  -1.759  1.00  0.00     0.000 A 
ATOM     29  C   UNL     1     -13.061  -6.488  -4.118  1.00  0.00     0.000 A 
ATOM     30  C   UNL     1     -13.489  -6.483  -2.792  1.00  0.00     0.000 A 
ENDBRANCH  24  25
ENDBRANCH  23  24
BRANCH  23  31
ATOM     31  C   UNL     1      -8.005  -4.434  -2.975  1.00  0.00     0.243 C 
ATOM     32  O   UNL     1      -7.710  -3.245  -3.066  1.00  0.00    -0.273 OA
ATOM     33  N   UNL     1      -7.654  -5.192  -1.871  1.00  0.00    -0.341 N 
ATOM     34  H   UNL     1      -7.921  -6.179  -1.856  1.00  0.00     0.164 HD
BRANCH  33  35
ATOM     35  C   UNL     1      -6.963  -4.633  -0.706  1.00  0.00     0.194 C 
BRANCH  35  36
ATOM     36  C   UNL     1      -7.864  -3.751   0.204  1.00  0.00     0.017 C 
ATOM     37  C   UNL     1      -7.320  -3.691   1.642  1.00  0.00     0.010 C 
ATOM     38  C   UNL     1      -9.313  -4.247   0.282  1.00  0.00     0.010 C 
ENDBRANCH  35  36
BRANCH  35  39
ATOM     39  C   UNL     1      -5.639  -3.912  -1.084  1.00  0.00     0.329 C 
ATOM     40  O   UNL     1      -4.719  -4.444  -1.695  1.00  0.00    -0.250 OA
BRANCH  39  41
ATOM     41  O   UNL     1      -5.648  -2.590  -0.735  1.00  0.00    -0.458 OA
BRANCH  41  42
ATOM     42  C   UNL     1      -4.368  -2.010  -0.389  1.00  0.00     0.205 CG0
ATOM     43  C   UNL     1      -4.207  -2.135   1.125  1.00  0.00     0.056 C 
ATOM     44  G   UNL     1      -4.348  -0.543  -0.864  1.00  0.00     0.000 G0
ENDBRANCH  41  42
ENDBRANCH  39  41
ENDBRANCH  35  39
ENDBRANCH  33  35
ENDBRANCH  23  31
ENDBRANCH  21  23
ENDBRANCH  19  21
ENDBRANCH  14  19
ENDBRANCH   7  14
ENDBRANCH   2   5
BRANCH   3  45
ATOM     45  C   UNL     1      -7.898   0.418  -1.919  1.00  0.00     0.171 C 
BRANCH  45  46
ATOM     46  N   UNL     1      -6.563  -0.157  -1.820  1.00  0.00    -0.342 N 
ATOM     47  C   UNL     1      -5.751   0.048  -0.733  1.00  0.00     0.247 C 
ATOM     48  O   UNL     1      -6.117   0.669   0.266  1.00  0.00    -0.273 OA
ATOM     49  H   UNL     1      -6.242  -0.726  -2.602  1.00  0.00     0.164 HD
BRANCH  47  50
ATOM     50  C   UNL     1      -4.335  -0.530  -0.861  1.00  0.00     0.212 CG0
ATOM     51  G   UNL     1      -4.385  -1.997  -0.387  1.00  0.00     0.000 G0
BRANCH  50  52
ATOM     52  N   UNL     1      -3.983  -0.391  -2.271  1.00  0.00    -0.339 N 
ATOM     53  C   UNL     1      -2.960   0.409  -2.719  1.00  0.00     0.243 C 
ATOM     54  O   UNL     1      -2.293   1.114  -1.967  1.00  0.00    -0.273 OA
ATOM     55  H   UNL     1      -4.571  -0.865  -2.954  1.00  0.00     0.164 HD
BRANCH  53  56
ATOM     56  C   UNL     1      -2.832   0.463  -4.255  1.00  0.00     0.182 C 
BRANCH  56  57
ATOM     57  N   UNL     1      -1.562  -0.119  -4.699  1.00  0.00    -0.344 N 
ATOM     58  C   UNL     1      -1.431  -0.774  -5.899  1.00  0.00     0.220 C 
ATOM     59  O   UNL     1      -2.380  -0.981  -6.649  1.00  0.00    -0.275 OA
ATOM     60  H   UNL     1      -0.734   0.117  -4.159  1.00  0.00     0.164 HD
BRANCH  58  61
ATOM     61  C   UNL     1      -0.015  -1.242  -6.178  1.00  0.00     0.100 C 
BRANCH  61  62
ATOM     62  C   UNL     1       0.332  -2.579  -5.522  1.00  0.00     0.010 C 
BRANCH  62  63
ATOM     63  C   UNL     1       1.651  -2.569  -4.739  1.00  0.00     0.000 C 
BRANCH  63  64
ATOM     64  C   UNL     1       1.562  -1.894  -3.371  1.00  0.00    -0.003 C 
ATOM     65  C   UNL     1       2.903  -1.919  -2.651  1.00  0.00     0.004 C 
ENDBRANCH  63  64
ENDBRANCH  62  63
ENDBRANCH  61  62
ENDBRANCH  58  61
ENDBRANCH  56  57
BRANCH  56  66
ATOM     66  C   UNL     1      -3.032   1.882  -4.784  1.00  0.00     0.157 C 
BRANCH  66  67
ATOM     67  C   UNL     1      -4.469   2.305  -4.678  1.00  0.00     0.305 C 
ATOM     68  O   UNL     1      -4.912   3.436  -4.805  1.00  0.00    -0.252 OA
BRANCH  67  69
ATOM     69  O   UNL     1      -5.295   1.262  -4.467  1.00  0.00    -0.481 OA
ATOM     70  H   UNL     1      -4.722   0.470  -4.542  1.00  0.00     0.296 HD
ENDBRANCH  67  69
ENDBRANCH  66  67
ENDBRANCH  56  66
ENDBRANCH  53  56
ENDBRANCH  50  52
ENDBRANCH  47  50
ENDBRANCH  45  46
BRANCH  45  71
ATOM     71  C   UNL     1      -8.944  -0.460  -1.222  1.00  0.00     0.037 C 
BRANCH  71  72
ATOM     72  C   UNL     1     -10.094   0.367  -0.641  1.00  0.00     0.026 C 
BRANCH  72  73
ATOM     73  C   UNL     1     -11.445  -0.089  -1.189  1.00  0.00     0.146 C 
BRANCH  73  74
ATOM     74  N   UNL     1     -11.193  -0.922  -2.362  1.00  0.00    -0.254 NA
ATOM     75  C   UNL     1     -11.485  -2.167  -2.285  1.00  0.00     0.185 C 
ATOM     76  N   UNL     1     -11.267  -2.959  -3.348  1.00  0.00    -0.370 N 
ATOM     77  N   UNL     1     -12.007  -2.851  -1.252  1.00  0.00    -0.370 N 
ATOM     78  H   UNL     1     -10.867  -2.524  -4.168  1.00  0.00     0.159 HD
ATOM     79  H   UNL     1     -11.333  -3.961  -3.315  1.00  0.00     0.159 HD
ATOM     80  H   UNL     1     -12.228  -2.384  -0.386  1.00  0.00     0.159 HD
ATOM     81  H   UNL     1     -12.303  -3.809  -1.348  1.00  0.00     0.159 HD
ENDBRANCH  73  74
ENDBRANCH  72  73
ENDBRANCH  71  72
ENDBRANCH  45  71
ENDBRANCH   3  45
TORSDOF 20
ENDMDL
MODEL 47
REMARK VINA RESULT:    -5.336      4.946     11.743
REMARK INTER + INTRA:         -21.086
REMARK INTER:                 -15.933
REMARK INTRA:                  -5.152
REMARK UNBOUND:                -5.767
REMARK SMILES CCCCCC(=O)N[C@H](CC(=O)O)C(=O)N[C@H]1C(=O)N[C@H](CCCN=C(N)N)C(=O)N[C@@H]2CC[C@H](O)N(C2=O)[C@@H](CC(C)C)C(=O)N(C)[C@@H](Cc2ccccc2)C(=O)N[C@H](C(C)C)C(=O)O[C@@H]1C
REMARK SMILES IDX 30 1 31 2 29 3 32 5 35 6 37 7 34 8 38 9 33 10 39 11 36 12
REMARK SMILES IDX 40 14 41 15 42 16 43 17 44 18 45 19 46 20 47 21 48 22 49 23
REMARK SMILES IDX 50 24 51 25 52 26 56 27 53 28 55 29 54 30 57 31 58 32 59 33
REMARK SMILES IDX 60 35 61 36 62 37 63 38 64 39 65 40 66 41 67 42 68 43 21 45
REMARK SMILES IDX 20 46 18 47 19 48 17 50 16 52 14 53 15 54 9 56 8 57 6 58
REMARK SMILES IDX 7 59 5 61 4 62 3 63 2 64 1 65 10 66 11 67 12 68 13 69 22 71
REMARK SMILES IDX 23 72 24 73 25 74 26 75 27 76 28 77
REMARK H PARENT 31 4 36 13 59 34 20 49 16 55 8 60 13 70 27 78 27 79 28 80
REMARK H PARENT 28 81
REMARK Flexibility Score:  259.900
ROOT
ATOM      1  O   UNL     1       3.396   2.055  -9.694  1.00  0.00    -0.273 OA
ATOM      2  N   UNL     1       1.632   0.600  -9.640  1.00  0.00    -0.343 N 
ATOM      3  C   UNL     1       2.286   1.751  -9.257  1.00  0.00     0.243 C 
ATOM      4  H   UNL     1       0.713   0.390  -9.270  1.00  0.00     0.164 HD
ENDROOT
BRANCH   2   5
ATOM      5  C   UNL     1       2.291  -0.377 -10.500  1.00  0.00     0.171 C 
ATOM      6  C   UNL     1       1.308  -2.660 -11.992  1.00  0.00     0.214 C 
ATOM      7  N   UNL     1       1.776  -2.844 -10.638  1.00  0.00    -0.303 N 
ATOM      8  C   UNL     1       2.007  -1.522 -12.720  1.00  0.00     0.057 C 
ATOM      9  C   UNL     1       2.211  -1.789  -9.853  1.00  0.00     0.247 C 
ATOM     10  C   UNL     1       1.827  -0.233 -11.949  1.00  0.00     0.040 C 
ATOM     11  O   UNL     1       2.528  -1.942  -8.666  1.00  0.00    -0.272 OA
BRANCH   6  12
ATOM     12  O   UNL     1      -0.081  -2.432 -11.940  1.00  0.00    -0.373 OA
ATOM     13  H   UNL     1      -0.320  -2.326 -10.995  1.00  0.00     0.213 HD
ENDBRANCH   6  12
BRANCH   7  14
ATOM     14  C   UNL     1       1.637  -4.197 -10.059  1.00  0.00     0.177 C 
BRANCH  14  15
ATOM     15  C   UNL     1       0.425  -5.005 -10.564  1.00  0.00     0.038 C 
BRANCH  15  16
ATOM     16  C   UNL     1      -0.675  -5.431  -9.566  1.00  0.00    -0.015 C 
ATOM     17  C   UNL     1      -1.785  -6.247 -10.234  1.00  0.00     0.007 C 
ATOM     18  C   UNL     1      -1.308  -4.187  -8.930  1.00  0.00     0.007 C 
ENDBRANCH  15  16
ENDBRANCH  14  15
BRANCH  14  19
ATOM     19  C   UNL     1       3.047  -4.792  -9.723  1.00  0.00     0.245 C 
ATOM     20  O   UNL     1       3.819  -4.977 -10.679  1.00  0.00    -0.272 OA
BRANCH  19  21
ATOM     21  N   UNL     1       3.424  -5.218  -8.461  1.00  0.00    -0.332 N 
ATOM     22  C   UNL     1       4.788  -5.454  -8.024  1.00  0.00     0.147 C 
BRANCH  21  23
ATOM     23  C   UNL     1       2.349  -5.469  -7.462  1.00  0.00     0.178 C 
BRANCH  23  24
ATOM     24  C   UNL     1       2.252  -6.928  -6.970  1.00  0.00     0.070 C 
BRANCH  24  25
ATOM     25  C   UNL     1       1.252  -7.823  -7.665  1.00  0.00    -0.045 A 
ATOM     26  C   UNL     1       0.048  -8.173  -7.041  1.00  0.00     0.004 A 
ATOM     27  C   UNL     1       1.522  -8.323  -8.948  1.00  0.00     0.004 A 
ATOM     28  C   UNL     1      -0.863  -9.015  -7.683  1.00  0.00     0.000 A 
ATOM     29  C   UNL     1       0.609  -9.163  -9.588  1.00  0.00     0.000 A 
ATOM     30  C   UNL     1      -0.581  -9.511  -8.953  1.00  0.00     0.000 A 
ENDBRANCH  24  25
ENDBRANCH  23  24
BRANCH  23  31
ATOM     31  C   UNL     1       2.302  -4.400  -6.344  1.00  0.00     0.243 C 
ATOM     32  O   UNL     1       2.954  -4.465  -5.305  1.00  0.00    -0.273 OA
ATOM     33  N   UNL     1       1.315  -3.447  -6.530  1.00  0.00    -0.341 N 
ATOM     34  H   UNL     1       0.801  -3.448  -7.414  1.00  0.00     0.164 HD
BRANCH  33  35
ATOM     35  C   UNL     1       1.010  -2.410  -5.541  1.00  0.00     0.194 C 
BRANCH  35  36
ATOM     36  C   UNL     1       1.896  -2.468  -4.265  1.00  0.00     0.017 C 
ATOM     37  C   UNL     1       1.064  -2.837  -3.024  1.00  0.00     0.010 C 
ATOM     38  C   UNL     1       2.609  -1.145  -3.963  1.00  0.00     0.010 C 
ENDBRANCH  35  36
BRANCH  35  39
ATOM     39  C   UNL     1      -0.504  -2.341  -5.195  1.00  0.00     0.329 C 
ATOM     40  O   UNL     1      -1.071  -3.122  -4.440  1.00  0.00    -0.250 OA
BRANCH  39  41
ATOM     41  O   UNL     1      -1.117  -1.256  -5.758  1.00  0.00    -0.458 OA
BRANCH  41  42
ATOM     42  C   UNL     1      -0.608   0.042  -5.370  1.00  0.00     0.205 CG0
ATOM     43  C   UNL     1      -0.864   0.201  -3.873  1.00  0.00     0.056 C 
ATOM     44  G   UNL     1      -1.322   1.121  -6.208  1.00  0.00     0.000 G0
ENDBRANCH  41  42
ENDBRANCH  39  41
ENDBRANCH  35  39
ENDBRANCH  33  35
ENDBRANCH  23  31
ENDBRANCH  21  23
ENDBRANCH  19  21
ENDBRANCH  14  19
ENDBRANCH   7  14
ENDBRANCH   2   5
BRANCH   3  45
ATOM     45  C   UNL     1       1.525   2.640  -8.264  1.00  0.00     0.171 C 
BRANCH  45  46
ATOM     46  N   UNL     1       0.426   1.823  -7.767  1.00  0.00    -0.342 N 
ATOM     47  C   UNL     1      -0.304   2.167  -6.657  1.00  0.00     0.247 C 
ATOM     48  O   UNL     1      -0.133   3.222  -6.046  1.00  0.00    -0.273 OA
ATOM     49  H   UNL     1       0.213   0.967  -8.277  1.00  0.00     0.164 HD
BRANCH  47  50
ATOM     50  C   UNL     1      -1.338   1.124  -6.210  1.00  0.00     0.212 CG0
ATOM     51  G   UNL     1      -0.596   0.055  -5.383  1.00  0.00     0.000 G0
BRANCH  50  52
ATOM     52  N   UNL     1      -2.330   1.866  -5.436  1.00  0.00    -0.339 N 
ATOM     53  C   UNL     1      -3.554   2.240  -5.936  1.00  0.00     0.243 C 
ATOM     54  O   UNL     1      -3.888   2.023  -7.098  1.00  0.00    -0.273 OA
ATOM     55  H   UNL     1      -2.068   2.172  -4.501  1.00  0.00     0.164 HD
BRANCH  53  56
ATOM     56  C   UNL     1      -4.396   3.089  -4.964  1.00  0.00     0.182 C 
BRANCH  56  57
ATOM     57  N   UNL     1      -5.224   2.239  -4.103  1.00  0.00    -0.344 N 
ATOM     58  C   UNL     1      -4.745   1.674  -2.947  1.00  0.00     0.220 C 
ATOM     59  O   UNL     1      -3.576   1.779  -2.591  1.00  0.00    -0.275 OA
ATOM     60  H   UNL     1      -6.220   2.209  -4.306  1.00  0.00     0.164 HD
BRANCH  58  61
ATOM     61  C   UNL     1      -5.792   0.881  -2.185  1.00  0.00     0.100 C 
BRANCH  61  62
ATOM     62  C   UNL     1      -5.443  -0.597  -2.015  1.00  0.00     0.010 C 
BRANCH  62  63
ATOM     63  C   UNL     1      -5.318  -1.048  -0.554  1.00  0.00     0.000 C 
BRANCH  63  64
ATOM     64  C   UNL     1      -4.475  -0.119   0.319  1.00  0.00    -0.003 C 
ATOM     65  C   UNL     1      -3.026  -0.580   0.382  1.00  0.00     0.004 C 
ENDBRANCH  63  64
ENDBRANCH  62  63
ENDBRANCH  61  62
ENDBRANCH  58  61
ENDBRANCH  56  57
BRANCH  56  66
ATOM     66  C   UNL     1      -5.224   4.136  -5.708  1.00  0.00     0.157 C 
BRANCH  66  67
ATOM     67  C   UNL     1      -6.162   4.849  -4.777  1.00  0.00     0.305 C 
ATOM     68  O   UNL     1      -5.919   5.233  -3.643  1.00  0.00    -0.252 OA
BRANCH  67  69
ATOM     69  O   UNL     1      -7.359   5.093  -5.345  1.00  0.00    -0.481 OA
ATOM     70  H   UNL     1      -7.347   4.583  -6.182  1.00  0.00     0.296 HD
ENDBRANCH  67  69
ENDBRANCH  66  67
ENDBRANCH  56  66
ENDBRANCH  53  56
ENDBRANCH  50  52
ENDBRANCH  47  50
ENDBRANCH  45  46
BRANCH  45  71
ATOM     71  C   UNL     1       1.016   3.906  -8.962  1.00  0.00     0.037 C 
BRANCH  71  72
ATOM     72  C   UNL     1       0.211   3.585 -10.223  1.00  0.00     0.026 C 
BRANCH  72  73
ATOM     73  C   UNL     1       0.615   4.483 -11.390  1.00  0.00     0.146 C 
BRANCH  73  74
ATOM     74  N   UNL     1       1.200   3.635 -12.425  1.00  0.00    -0.254 NA
ATOM     75  C   UNL     1       2.476   3.635 -12.548  1.00  0.00     0.185 C 
ATOM     76  N   UNL     1       3.044   2.864 -13.490  1.00  0.00    -0.370 N 
ATOM     77  N   UNL     1       3.393   4.322 -11.845  1.00  0.00    -0.370 N 
ATOM     78  H   UNL     1       2.423   2.319 -14.070  1.00  0.00     0.159 HD
ATOM     79  H   UNL     1       4.015   2.921 -13.740  1.00  0.00     0.159 HD
ATOM     80  H   UNL     1       3.111   4.940 -11.099  1.00  0.00     0.159 HD
ATOM     81  H   UNL     1       4.379   4.152 -11.955  1.00  0.00     0.159 HD
ENDBRANCH  73  74
ENDBRANCH  72  73
ENDBRANCH  71  72
ENDBRANCH  45  71
ENDBRANCH   3  45
TORSDOF 20
ENDMDL
MODEL 48
REMARK VINA RESULT:    -5.321      7.498     11.050
REMARK INTER + INTRA:         -21.041
REMARK INTER:                 -14.442
REMARK INTRA:                  -6.599
REMARK UNBOUND:                -5.767
REMARK SMILES CCCCCC(=O)N[C@H](CC(=O)O)C(=O)N[C@H]1C(=O)N[C@H](CCCN=C(N)N)C(=O)N[C@@H]2CC[C@H](O)N(C2=O)[C@@H](CC(C)C)C(=O)N(C)[C@@H](Cc2ccccc2)C(=O)N[C@H](C(C)C)C(=O)O[C@@H]1C
REMARK SMILES IDX 30 1 31 2 29 3 32 5 35 6 37 7 34 8 38 9 33 10 39 11 36 12
REMARK SMILES IDX 40 14 41 15 42 16 43 17 44 18 45 19 46 20 47 21 48 22 49 23
REMARK SMILES IDX 50 24 51 25 52 26 56 27 53 28 55 29 54 30 57 31 58 32 59 33
REMARK SMILES IDX 60 35 61 36 62 37 63 38 64 39 65 40 66 41 67 42 68 43 21 45
REMARK SMILES IDX 20 46 18 47 19 48 17 50 16 52 14 53 15 54 9 56 8 57 6 58
REMARK SMILES IDX 7 59 5 61 4 62 3 63 2 64 1 65 10 66 11 67 12 68 13 69 22 71
REMARK SMILES IDX 23 72 24 73 25 74 26 75 27 76 28 77
REMARK H PARENT 31 4 36 13 59 34 20 49 16 55 8 60 13 70 27 78 27 79 28 80
REMARK H PARENT 28 81
REMARK Flexibility Score:  259.900
ROOT
ATOM      1  O   UNL     1      -8.599  -2.487  -0.288  1.00  0.00    -0.273 OA
ATOM      2  N   UNL     1      -9.482  -3.155  -2.289  1.00  0.00    -0.343 N 
ATOM      3  C   UNL     1      -8.447  -2.725  -1.487  1.00  0.00     0.243 C 
ATOM      4  H   UNL     1      -9.317  -3.356  -3.268  1.00  0.00     0.164 HD
ENDROOT
BRANCH   2   5
ATOM      5  C   UNL     1     -10.843  -3.233  -1.768  1.00  0.00     0.171 C 
ATOM      6  C   UNL     1     -11.947  -2.922   0.894  1.00  0.00     0.214 C 
ATOM      7  N   UNL     1     -11.550  -4.234   0.439  1.00  0.00    -0.303 N 
ATOM      8  C   UNL     1     -12.412  -2.010  -0.230  1.00  0.00     0.057 C 
ATOM      9  C   UNL     1     -10.969  -4.445  -0.801  1.00  0.00     0.247 C 
ATOM     10  C   UNL     1     -11.315  -1.870  -1.263  1.00  0.00     0.040 C 
ATOM     11  O   UNL     1     -10.552  -5.557  -1.150  1.00  0.00    -0.272 OA
BRANCH   6  12
ATOM     12  O   UNL     1     -10.851  -2.351   1.571  1.00  0.00    -0.373 OA
ATOM     13  H   UNL     1     -10.911  -1.380   1.446  1.00  0.00     0.213 HD
ENDBRANCH   6  12
BRANCH   7  14
ATOM     14  C   UNL     1     -11.652  -5.341   1.413  1.00  0.00     0.177 C 
BRANCH  14  15
ATOM     15  C   UNL     1     -10.594  -5.328   2.534  1.00  0.00     0.038 C 
BRANCH  15  16
ATOM     16  C   UNL     1      -9.337  -6.216   2.403  1.00  0.00    -0.015 C 
ATOM     17  C   UNL     1      -8.229  -5.544   1.587  1.00  0.00     0.007 C 
ATOM     18  C   UNL     1      -9.704  -7.538   1.717  1.00  0.00     0.007 C 
ENDBRANCH  15  16
ENDBRANCH  14  15
BRANCH  14  19
ATOM     19  C   UNL     1     -13.147  -5.781   1.582  1.00  0.00     0.245 C 
ATOM     20  O   UNL     1     -13.631  -5.689   2.722  1.00  0.00    -0.272 OA
BRANCH  19  21
ATOM     21  N   UNL     1     -13.900  -6.357   0.574  1.00  0.00    -0.332 N 
ATOM     22  C   UNL     1     -13.454  -7.421  -0.307  1.00  0.00     0.147 C 
BRANCH  21  23
ATOM     23  C   UNL     1     -15.281  -5.845   0.358  1.00  0.00     0.178 C 
BRANCH  23  24
ATOM     24  C   UNL     1     -15.450  -4.946  -0.884  1.00  0.00     0.070 C 
BRANCH  24  25
ATOM     25  C   UNL     1     -15.705  -3.477  -0.641  1.00  0.00    -0.045 A 
ATOM     26  C   UNL     1     -15.830  -2.976   0.662  1.00  0.00     0.004 A 
ATOM     27  C   UNL     1     -15.826  -2.591  -1.722  1.00  0.00     0.004 A 
ATOM     28  C   UNL     1     -16.084  -1.620   0.877  1.00  0.00     0.000 A 
ATOM     29  C   UNL     1     -16.078  -1.236  -1.505  1.00  0.00     0.000 A 
ATOM     30  C   UNL     1     -16.210  -0.752  -0.205  1.00  0.00     0.000 A 
ENDBRANCH  24  25
ENDBRANCH  23  24
BRANCH  23  31
ATOM     31  C   UNL     1     -16.363  -6.939   0.522  1.00  0.00     0.243 C 
ATOM     32  O   UNL     1     -16.443  -7.687   1.494  1.00  0.00    -0.273 OA
ATOM     33  N   UNL     1     -17.132  -7.132  -0.613  1.00  0.00    -0.341 N 
ATOM     34  H   UNL     1     -17.016  -6.480  -1.394  1.00  0.00     0.164 HD
BRANCH  33  35
ATOM     35  C   UNL     1     -18.136  -8.193  -0.728  1.00  0.00     0.194 C 
BRANCH  35  36
ATOM     36  C   UNL     1     -18.051  -9.007  -2.050  1.00  0.00     0.017 C 
ATOM     37  C   UNL     1     -17.695  -8.102  -3.242  1.00  0.00     0.010 C 
ATOM     38  C   UNL     1     -19.357  -9.731  -2.398  1.00  0.00     0.010 C 
ENDBRANCH  35  36
BRANCH  35  39
ATOM     39  C   UNL     1     -19.578  -7.684  -0.451  1.00  0.00     0.329 C 
ATOM     40  O   UNL     1     -20.124  -6.790  -1.087  1.00  0.00    -0.250 OA
BRANCH  39  41
ATOM     41  O   UNL     1     -20.205  -8.405   0.527  1.00  0.00    -0.458 OA
BRANCH  41  42
ATOM     42  C   UNL     1     -21.638  -8.231   0.633  1.00  0.00     0.205 CG0
ATOM     43  C   UNL     1     -21.929  -7.687   2.030  1.00  0.00     0.056 C 
ATOM     44  G   UNL     1     -22.318  -9.591   0.376  1.00  0.00     0.000 G0
ENDBRANCH  41  42
ENDBRANCH  39  41
ENDBRANCH  35  39
ENDBRANCH  33  35
ENDBRANCH  23  31
ENDBRANCH  21  23
ENDBRANCH  19  21
ENDBRANCH  14  19
ENDBRANCH   7  14
ENDBRANCH   2   5
BRANCH   3  45
ATOM     45  C   UNL     1      -7.089  -2.584  -2.186  1.00  0.00     0.171 C 
BRANCH  45  46
ATOM     46  N   UNL     1      -6.654  -1.217  -1.930  1.00  0.00    -0.342 N 
ATOM     47  C   UNL     1      -5.387  -0.916  -1.499  1.00  0.00     0.247 C 
ATOM     48  O   UNL     1      -4.506  -1.767  -1.367  1.00  0.00    -0.273 OA
ATOM     49  H   UNL     1      -7.336  -0.476  -2.081  1.00  0.00     0.164 HD
BRANCH  47  50
ATOM     50  C   UNL     1      -5.148   0.563  -1.163  1.00  0.00     0.212 CG0
ATOM     51  G   UNL     1      -3.628   0.770  -1.017  1.00  0.00     0.000 G0
BRANCH  50  52
ATOM     52  N   UNL     1      -5.729   1.313  -2.273  1.00  0.00    -0.339 N 
ATOM     53  C   UNL     1      -4.996   1.768  -3.343  1.00  0.00     0.243 C 
ATOM     54  O   UNL     1      -3.779   1.624  -3.421  1.00  0.00    -0.273 OA
ATOM     55  H   UNL     1      -6.714   1.561  -2.212  1.00  0.00     0.164 HD
BRANCH  53  56
ATOM     56  C   UNL     1      -5.809   2.610  -4.347  1.00  0.00     0.182 C 
BRANCH  56  57
ATOM     57  N   UNL     1      -6.172   1.816  -5.526  1.00  0.00    -0.344 N 
ATOM     58  C   UNL     1      -7.207   0.913  -5.515  1.00  0.00     0.220 C 
ATOM     59  O   UNL     1      -7.850   0.653  -4.503  1.00  0.00    -0.275 OA
ATOM     60  H   UNL     1      -5.734   2.073  -6.407  1.00  0.00     0.164 HD
BRANCH  58  61
ATOM     61  C   UNL     1      -7.441   0.250  -6.859  1.00  0.00     0.100 C 
BRANCH  61  62
ATOM     62  C   UNL     1      -7.863  -1.216  -6.758  1.00  0.00     0.010 C 
BRANCH  62  63
ATOM     63  C   UNL     1      -8.559  -1.757  -8.014  1.00  0.00     0.000 C 
BRANCH  63  64
ATOM     64  C   UNL     1      -7.708  -1.687  -9.281  1.00  0.00    -0.003 C 
ATOM     65  C   UNL     1      -7.627  -3.041  -9.971  1.00  0.00     0.004 C 
ENDBRANCH  63  64
ENDBRANCH  62  63
ENDBRANCH  61  62
ENDBRANCH  58  61
ENDBRANCH  56  57
BRANCH  56  66
ATOM     66  C   UNL     1      -5.076   3.897  -4.722  1.00  0.00     0.157 C 
BRANCH  66  67
ATOM     67  C   UNL     1      -6.002   5.079  -4.690  1.00  0.00     0.305 C 
ATOM     68  O   UNL     1      -5.836   6.123  -4.079  1.00  0.00    -0.252 OA
BRANCH  67  69
ATOM     69  O   UNL     1      -7.080   4.906  -5.479  1.00  0.00    -0.481 OA
ATOM     70  H   UNL     1      -7.161   3.934  -5.582  1.00  0.00     0.296 HD
ENDBRANCH  67  69
ENDBRANCH  66  67
ENDBRANCH  56  66
ENDBRANCH  53  56
ENDBRANCH  50  52
ENDBRANCH  47  50
ENDBRANCH  45  46
BRANCH  45  71
ATOM     71  C   UNL     1      -7.230  -2.861  -3.687  1.00  0.00     0.037 C 
BRANCH  71  72
ATOM     72  C   UNL     1      -6.304  -3.987  -4.154  1.00  0.00     0.026 C 
BRANCH  72  73
ATOM     73  C   UNL     1      -6.692  -5.326  -3.529  1.00  0.00     0.146 C 
BRANCH  73  74
ATOM     74  N   UNL     1      -8.123  -5.521  -3.742  1.00  0.00    -0.254 NA
ATOM     75  C   UNL     1      -8.564  -6.724  -3.777  1.00  0.00     0.185 C 
ATOM     76  N   UNL     1      -9.876  -6.936  -3.970  1.00  0.00    -0.370 N 
ATOM     77  N   UNL     1      -7.887  -7.877  -3.643  1.00  0.00    -0.370 N 
ATOM     78  H   UNL     1     -10.459  -6.119  -4.088  1.00  0.00     0.159 HD
ATOM     79  H   UNL     1     -10.270  -7.842  -4.153  1.00  0.00     0.159 HD
ATOM     80  H   UNL     1      -6.890  -7.872  -3.488  1.00  0.00     0.159 HD
ATOM     81  H   UNL     1      -8.360  -8.763  -3.573  1.00  0.00     0.159 HD
ENDBRANCH  73  74
ENDBRANCH  72  73
ENDBRANCH  71  72
ENDBRANCH  45  71
ENDBRANCH   3  45
TORSDOF 20
ENDMDL
MODEL 49
REMARK VINA RESULT:    -5.287      4.092     13.763
REMARK INTER + INTRA:         -20.945
REMARK INTER:                 -14.673
REMARK INTRA:                  -6.272
REMARK UNBOUND:                -5.767
REMARK SMILES CCCCCC(=O)N[C@H](CC(=O)O)C(=O)N[C@H]1C(=O)N[C@H](CCCN=C(N)N)C(=O)N[C@@H]2CC[C@H](O)N(C2=O)[C@@H](CC(C)C)C(=O)N(C)[C@@H](Cc2ccccc2)C(=O)N[C@H](C(C)C)C(=O)O[C@@H]1C
REMARK SMILES IDX 30 1 31 2 29 3 32 5 35 6 37 7 34 8 38 9 33 10 39 11 36 12
REMARK SMILES IDX 40 14 41 15 42 16 43 17 44 18 45 19 46 20 47 21 48 22 49 23
REMARK SMILES IDX 50 24 51 25 52 26 56 27 53 28 55 29 54 30 57 31 58 32 59 33
REMARK SMILES IDX 60 35 61 36 62 37 63 38 64 39 65 40 66 41 67 42 68 43 21 45
REMARK SMILES IDX 20 46 18 47 19 48 17 50 16 52 14 53 15 54 9 56 8 57 6 58
REMARK SMILES IDX 7 59 5 61 4 62 3 63 2 64 1 65 10 66 11 67 12 68 13 69 22 71
REMARK SMILES IDX 23 72 24 73 25 74 26 75 27 76 28 77
REMARK H PARENT 31 4 36 13 59 34 20 49 16 55 8 60 13 70 27 78 27 79 28 80
REMARK H PARENT 28 81
REMARK Flexibility Score:  259.900
ROOT
ATOM      1  O   UNL     1     -10.628  -0.256   0.245  1.00  0.00    -0.273 OA
ATOM      2  N   UNL     1      -9.122  -1.945   0.574  1.00  0.00    -0.343 N 
ATOM      3  C   UNL     1     -10.014  -0.993   1.017  1.00  0.00     0.243 C 
ATOM      4  H   UNL     1      -8.645  -2.544   1.237  1.00  0.00     0.164 HD
ENDROOT
BRANCH   2   5
ATOM      5  C   UNL     1      -8.777  -2.039  -0.841  1.00  0.00     0.171 C 
ATOM      6  C   UNL     1      -7.079  -3.854  -2.333  1.00  0.00     0.214 C 
ATOM      7  N   UNL     1      -6.519  -2.635  -1.799  1.00  0.00    -0.303 N 
ATOM      8  C   UNL     1      -8.555  -3.737  -2.682  1.00  0.00     0.057 C 
ATOM      9  C   UNL     1      -7.261  -1.749  -1.035  1.00  0.00     0.247 C 
ATOM     10  C   UNL     1      -9.340  -3.319  -1.458  1.00  0.00     0.040 C 
ATOM     11  O   UNL     1      -6.753  -0.750  -0.509  1.00  0.00    -0.272 OA
BRANCH   6  12
ATOM     12  O   UNL     1      -6.879  -4.873  -1.380  1.00  0.00    -0.373 OA
ATOM     13  H   UNL     1      -6.272  -5.529  -1.785  1.00  0.00     0.213 HD
ENDBRANCH   6  12
BRANCH   7  14
ATOM     14  C   UNL     1      -5.066  -2.431  -1.977  1.00  0.00     0.177 C 
BRANCH  14  15
ATOM     15  C   UNL     1      -4.169  -3.494  -1.314  1.00  0.00     0.038 C 
BRANCH  15  16
ATOM     16  C   UNL     1      -3.719  -3.304   0.152  1.00  0.00    -0.015 C 
ATOM     17  C   UNL     1      -4.828  -3.642   1.152  1.00  0.00     0.007 C 
ATOM     18  C   UNL     1      -3.295  -1.847   0.380  1.00  0.00     0.007 C 
ENDBRANCH  15  16
ENDBRANCH  14  15
BRANCH  14  19
ATOM     19  C   UNL     1      -4.779  -1.729  -3.349  1.00  0.00     0.245 C 
ATOM     20  O   UNL     1      -5.058  -2.371  -4.375  1.00  0.00    -0.272 OA
BRANCH  19  21
ATOM     21  N   UNL     1      -4.141  -0.507  -3.471  1.00  0.00    -0.332 N 
ATOM     22  C   UNL     1      -4.725   0.784  -3.153  1.00  0.00     0.147 C 
BRANCH  21  23
ATOM     23  C   UNL     1      -2.742  -0.500  -3.982  1.00  0.00     0.178 C 
BRANCH  23  24
ATOM     24  C   UNL     1      -2.009  -1.853  -3.874  1.00  0.00     0.070 C 
BRANCH  24  25
ATOM     25  C   UNL     1      -1.104  -2.051  -2.680  1.00  0.00    -0.045 A 
ATOM     26  C   UNL     1      -0.778  -3.338  -2.233  1.00  0.00     0.004 A 
ATOM     27  C   UNL     1      -0.578  -0.943  -1.999  1.00  0.00     0.004 A 
ATOM     28  C   UNL     1       0.046  -3.513  -1.119  1.00  0.00     0.000 A 
ATOM     29  C   UNL     1       0.246  -1.120  -0.886  1.00  0.00     0.000 A 
ATOM     30  C   UNL     1       0.555  -2.405  -0.445  1.00  0.00     0.000 A 
ENDBRANCH  24  25
ENDBRANCH  23  24
BRANCH  23  31
ATOM     31  C   UNL     1      -2.602   0.209  -5.350  1.00  0.00     0.243 C 
ATOM     32  O   UNL     1      -3.442   0.148  -6.244  1.00  0.00    -0.273 OA
ATOM     33  N   UNL     1      -1.355   0.775  -5.554  1.00  0.00    -0.341 N 
ATOM     34  H   UNL     1      -0.696   0.791  -4.772  1.00  0.00     0.164 HD
BRANCH  33  35
ATOM     35  C   UNL     1      -0.957   1.396  -6.821  1.00  0.00     0.194 C 
BRANCH  35  36
ATOM     36  C   UNL     1       0.130   0.604  -7.601  1.00  0.00     0.017 C 
ATOM     37  C   UNL     1      -0.408  -0.752  -8.090  1.00  0.00     0.010 C 
ATOM     38  C   UNL     1       1.388   0.326  -6.770  1.00  0.00     0.010 C 
ENDBRANCH  35  36
BRANCH  35  39
ATOM     39  C   UNL     1      -0.581   2.895  -6.660  1.00  0.00     0.329 C 
ATOM     40  O   UNL     1      -0.624   3.503  -5.597  1.00  0.00    -0.250 OA
BRANCH  39  41
ATOM     41  O   UNL     1      -0.110   3.440  -7.822  1.00  0.00    -0.458 OA
BRANCH  41  42
ATOM     42  C   UNL     1       1.244   3.953  -7.788  1.00  0.00     0.205 CG0
ATOM     43  C   UNL     1       1.171   5.447  -8.096  1.00  0.00     0.056 C 
ATOM     44  G   UNL     1       2.089   3.179  -8.818  1.00  0.00     0.000 G0
ENDBRANCH  41  42
ENDBRANCH  39  41
ENDBRANCH  35  39
ENDBRANCH  33  35
ENDBRANCH  23  31
ENDBRANCH  21  23
ENDBRANCH  19  21
ENDBRANCH  14  19
ENDBRANCH   7  14
ENDBRANCH   2   5
BRANCH   3  45
ATOM     45  C   UNL     1     -10.204  -0.928   2.538  1.00  0.00     0.171 C 
BRANCH  45  46
ATOM     46  N   UNL     1     -11.263  -1.881   2.843  1.00  0.00    -0.342 N 
ATOM     47  C   UNL     1     -11.113  -2.875   3.778  1.00  0.00     0.247 C 
ATOM     48  O   UNL     1     -10.105  -2.989   4.476  1.00  0.00    -0.273 OA
ATOM     49  H   UNL     1     -12.137  -1.788   2.327  1.00  0.00     0.164 HD
BRANCH  47  50
ATOM     50  C   UNL     1     -12.287  -3.859   3.874  1.00  0.00     0.212 CG0
ATOM     51  G   UNL     1     -13.020  -3.584   5.203  1.00  0.00     0.000 G0
BRANCH  50  52
ATOM     52  N   UNL     1     -13.111  -3.600   2.697  1.00  0.00    -0.339 N 
ATOM     53  C   UNL     1     -13.265  -4.499   1.669  1.00  0.00     0.243 C 
ATOM     54  O   UNL     1     -12.674  -5.575   1.637  1.00  0.00    -0.273 OA
ATOM     55  H   UNL     1     -13.538  -2.680   2.612  1.00  0.00     0.164 HD
BRANCH  53  56
ATOM     56  C   UNL     1     -14.111  -3.969   0.494  1.00  0.00     0.182 C 
BRANCH  56  57
ATOM     57  N   UNL     1     -14.489  -2.568   0.706  1.00  0.00    -0.344 N 
ATOM     58  C   UNL     1     -14.334  -1.609  -0.264  1.00  0.00     0.220 C 
ATOM     59  O   UNL     1     -13.804  -1.839  -1.346  1.00  0.00    -0.275 OA
ATOM     60  H   UNL     1     -15.022  -2.357   1.546  1.00  0.00     0.164 HD
BRANCH  58  61
ATOM     61  C   UNL     1     -14.846  -0.243   0.153  1.00  0.00     0.100 C 
BRANCH  61  62
ATOM     62  C   UNL     1     -16.235  -0.273   0.791  1.00  0.00     0.010 C 
BRANCH  62  63
ATOM     63  C   UNL     1     -16.247   0.076   2.285  1.00  0.00     0.000 C 
BRANCH  63  64
ATOM     64  C   UNL     1     -15.408   1.300   2.649  1.00  0.00    -0.003 C 
ATOM     65  C   UNL     1     -16.280   2.438   3.161  1.00  0.00     0.004 C 
ENDBRANCH  63  64
ENDBRANCH  62  63
ENDBRANCH  61  62
ENDBRANCH  58  61
ENDBRANCH  56  57
BRANCH  56  66
ATOM     66  C   UNL     1     -15.324  -4.860   0.232  1.00  0.00     0.157 C 
BRANCH  66  67
ATOM     67  C   UNL     1     -15.316  -5.390  -1.173  1.00  0.00     0.305 C 
ATOM     68  O   UNL     1     -15.961  -6.334  -1.604  1.00  0.00    -0.252 OA
BRANCH  67  69
ATOM     69  O   UNL     1     -14.526  -4.666  -1.989  1.00  0.00    -0.481 OA
ATOM     70  H   UNL     1     -14.447  -3.793  -1.550  1.00  0.00     0.296 HD
ENDBRANCH  67  69
ENDBRANCH  66  67
ENDBRANCH  56  66
ENDBRANCH  53  56
ENDBRANCH  50  52
ENDBRANCH  47  50
ENDBRANCH  45  46
BRANCH  45  71
ATOM     71  C   UNL     1     -10.582   0.493   2.969  1.00  0.00     0.037 C 
BRANCH  71  72
ATOM     72  C   UNL     1      -9.419   1.215   3.655  1.00  0.00     0.026 C 
BRANCH  72  73
ATOM     73  C   UNL     1      -8.088   0.517   3.384  1.00  0.00     0.146 C 
BRANCH  73  74
ATOM     74  N   UNL     1      -7.133   1.530   2.944  1.00  0.00    -0.254 NA
ATOM     75  C   UNL     1      -7.163   1.886   1.713  1.00  0.00     0.185 C 
ATOM     76  N   UNL     1      -6.298   2.817   1.279  1.00  0.00    -0.370 N 
ATOM     77  N   UNL     1      -7.968   1.453   0.727  1.00  0.00    -0.370 N 
ATOM     78  H   UNL     1      -5.650   3.191   1.957  1.00  0.00     0.159 HD
ATOM     79  H   UNL     1      -6.165   3.039   0.308  1.00  0.00     0.159 HD
ATOM     80  H   UNL     1      -8.672   0.754   0.908  1.00  0.00     0.159 HD
ATOM     81  H   UNL     1      -7.975   1.891  -0.179  1.00  0.00     0.159 HD
ENDBRANCH  73  74
ENDBRANCH  72  73
ENDBRANCH  71  72
ENDBRANCH  45  71
ENDBRANCH   3  45
TORSDOF 20
ENDMDL
MODEL 50
REMARK VINA RESULT:    -5.229      7.799     13.249
REMARK INTER + INTRA:         -20.778
REMARK INTER:                 -15.579
REMARK INTRA:                  -5.199
REMARK UNBOUND:                -5.767
REMARK SMILES CCCCCC(=O)N[C@H](CC(=O)O)C(=O)N[C@H]1C(=O)N[C@H](CCCN=C(N)N)C(=O)N[C@@H]2CC[C@H](O)N(C2=O)[C@@H](CC(C)C)C(=O)N(C)[C@@H](Cc2ccccc2)C(=O)N[C@H](C(C)C)C(=O)O[C@@H]1C
REMARK SMILES IDX 30 1 31 2 29 3 32 5 35 6 37 7 34 8 38 9 33 10 39 11 36 12
REMARK SMILES IDX 40 14 41 15 42 16 43 17 44 18 45 19 46 20 47 21 48 22 49 23
REMARK SMILES IDX 50 24 51 25 52 26 56 27 53 28 55 29 54 30 57 31 58 32 59 33
REMARK SMILES IDX 60 35 61 36 62 37 63 38 64 39 65 40 66 41 67 42 68 43 21 45
REMARK SMILES IDX 20 46 18 47 19 48 17 50 16 52 14 53 15 54 9 56 8 57 6 58
REMARK SMILES IDX 7 59 5 61 4 62 3 63 2 64 1 65 10 66 11 67 12 68 13 69 22 71
REMARK SMILES IDX 23 72 24 73 25 74 26 75 27 76 28 77
REMARK H PARENT 31 4 36 13 59 34 20 49 16 55 8 60 13 70 27 78 27 79 28 80
REMARK H PARENT 28 81
REMARK Flexibility Score:  259.900
ROOT
ATOM      1  O   UNL     1      -9.109  -1.941  -0.242  1.00  0.00    -0.273 OA
ATOM      2  N   UNL     1     -10.449  -1.565   1.573  1.00  0.00    -0.343 N 
ATOM      3  C   UNL     1     -10.100  -2.242   0.425  1.00  0.00     0.243 C 
ATOM      4  H   UNL     1     -11.262  -1.849   2.105  1.00  0.00     0.164 HD
ENDROOT
BRANCH   2   5
ATOM      5  C   UNL     1      -9.714  -0.373   1.984  1.00  0.00     0.171 C 
ATOM      6  C   UNL     1      -7.332   0.919   0.953  1.00  0.00     0.214 C 
ATOM      7  N   UNL     1      -7.206  -0.083   1.986  1.00  0.00    -0.303 N 
ATOM      8  C   UNL     1      -8.644   1.686   1.016  1.00  0.00     0.057 C 
ATOM      9  C   UNL     1      -8.297  -0.774   2.487  1.00  0.00     0.247 C 
ATOM     10  C   UNL     1      -9.806   0.722   0.923  1.00  0.00     0.040 C 
ATOM     11  O   UNL     1      -8.172  -1.691   3.309  1.00  0.00    -0.272 OA
BRANCH   6  12
ATOM     12  O   UNL     1      -7.198   0.273  -0.291  1.00  0.00    -0.373 OA
ATOM     13  H   UNL     1      -6.682   0.872  -0.872  1.00  0.00     0.213 HD
ENDBRANCH   6  12
BRANCH   7  14
ATOM     14  C   UNL     1      -5.835  -0.455   2.395  1.00  0.00     0.177 C 
BRANCH  14  15
ATOM     15  C   UNL     1      -4.937  -0.994   1.265  1.00  0.00     0.038 C 
BRANCH  15  16
ATOM     16  C   UNL     1      -4.296  -2.392   1.403  1.00  0.00    -0.015 C 
ATOM     17  C   UNL     1      -3.507  -2.800   0.156  1.00  0.00     0.007 C 
ATOM     18  C   UNL     1      -5.389  -3.442   1.645  1.00  0.00     0.007 C 
ENDBRANCH  15  16
ENDBRANCH  14  15
BRANCH  14  19
ATOM     19  C   UNL     1      -5.356   0.453   3.580  1.00  0.00     0.245 C 
ATOM     20  O   UNL     1      -5.268   1.671   3.351  1.00  0.00    -0.272 OA
BRANCH  19  21
ATOM     21  N   UNL     1      -4.928  -0.036   4.802  1.00  0.00    -0.332 N 
ATOM     22  C   UNL     1      -5.782  -0.616   5.823  1.00  0.00     0.147 C 
BRANCH  21  23
ATOM     23  C   UNL     1      -3.474   0.044   5.113  1.00  0.00     0.178 C 
BRANCH  23  24
ATOM     24  C   UNL     1      -2.542  -0.293   3.931  1.00  0.00     0.070 C 
BRANCH  24  25
ATOM     25  C   UNL     1      -1.366  -1.197   4.219  1.00  0.00    -0.045 A 
ATOM     26  C   UNL     1      -0.308  -1.310   3.308  1.00  0.00     0.004 A 
ATOM     27  C   UNL     1      -1.321  -1.944   5.406  1.00  0.00     0.004 A 
ATOM     28  C   UNL     1       0.767  -2.162   3.573  1.00  0.00     0.000 A 
ATOM     29  C   UNL     1      -0.246  -2.793   5.670  1.00  0.00     0.000 A 
ATOM     30  C   UNL     1       0.796  -2.903   4.752  1.00  0.00     0.000 A 
ENDBRANCH  24  25
ENDBRANCH  23  24
BRANCH  23  31
ATOM     31  C   UNL     1      -3.095   1.322   5.898  1.00  0.00     0.243 C 
ATOM     32  O   UNL     1      -3.057   2.446   5.404  1.00  0.00    -0.273 OA
ATOM     33  N   UNL     1      -2.617   1.066   7.172  1.00  0.00    -0.341 N 
ATOM     34  H   UNL     1      -2.668   0.108   7.527  1.00  0.00     0.164 HD
BRANCH  33  35
ATOM     35  C   UNL     1      -2.088   2.113   8.052  1.00  0.00     0.194 C 
BRANCH  35  36
ATOM     36  C   UNL     1      -2.988   3.377   8.148  1.00  0.00     0.017 C 
ATOM     37  C   UNL     1      -2.337   4.462   9.022  1.00  0.00     0.010 C 
ATOM     38  C   UNL     1      -4.376   3.087   8.732  1.00  0.00     0.010 C 
ENDBRANCH  35  36
BRANCH  35  39
ATOM     39  C   UNL     1      -0.611   2.475   7.730  1.00  0.00     0.329 C 
ATOM     40  O   UNL     1      -0.262   3.123   6.750  1.00  0.00    -0.250 OA
BRANCH  39  41
ATOM     41  O   UNL     1       0.251   2.063   8.708  1.00  0.00    -0.458 OA
BRANCH  41  42
ATOM     42  C   UNL     1       1.558   2.685   8.715  1.00  0.00     0.205 CG0
ATOM     43  C   UNL     1       2.594   1.564   8.759  1.00  0.00     0.056 C 
ATOM     44  G   UNL     1       1.650   3.623   9.935  1.00  0.00     0.000 G0
ENDBRANCH  41  42
ENDBRANCH  39  41
ENDBRANCH  35  39
ENDBRANCH  33  35
ENDBRANCH  23  31
ENDBRANCH  21  23
ENDBRANCH  19  21
ENDBRANCH  14  19
ENDBRANCH   7  14
ENDBRANCH   2   5
BRANCH   3  45
ATOM     45  C   UNL     1     -11.020  -3.411   0.047  1.00  0.00     0.171 C 
BRANCH  45  46
ATOM     46  N   UNL     1     -12.331  -2.820  -0.186  1.00  0.00    -0.342 N 
ATOM     47  C   UNL     1     -12.752  -2.430  -1.433  1.00  0.00     0.247 C 
ATOM     48  O   UNL     1     -12.086  -2.616  -2.452  1.00  0.00    -0.273 OA
ATOM     49  H   UNL     1     -12.938  -2.700   0.623  1.00  0.00     0.164 HD
BRANCH  47  50
ATOM     50  C   UNL     1     -14.110  -1.715  -1.466  1.00  0.00     0.212 CG0
ATOM     51  G   UNL     1     -14.447  -1.419  -2.941  1.00  0.00     0.000 G0
BRANCH  50  52
ATOM     52  N   UNL     1     -15.051  -2.635  -0.832  1.00  0.00    -0.339 N 
ATOM     53  C   UNL     1     -15.398  -2.567   0.495  1.00  0.00     0.243 C 
ATOM     54  O   UNL     1     -14.899  -1.753   1.268  1.00  0.00    -0.273 OA
ATOM     55  H   UNL     1     -15.414  -3.402  -1.395  1.00  0.00     0.164 HD
BRANCH  53  56
ATOM     56  C   UNL     1     -16.340  -3.697   0.957  1.00  0.00     0.182 C 
BRANCH  56  57
ATOM     57  N   UNL     1     -15.715  -5.011   0.775  1.00  0.00    -0.344 N 
ATOM     58  C   UNL     1     -15.667  -5.948   1.778  1.00  0.00     0.220 C 
ATOM     59  O   UNL     1     -16.076  -5.728   2.912  1.00  0.00    -0.275 OA
ATOM     60  H   UNL     1     -15.456  -5.270  -0.173  1.00  0.00     0.164 HD
BRANCH  58  61
ATOM     61  C   UNL     1     -15.027  -7.255   1.349  1.00  0.00     0.100 C 
BRANCH  61  62
ATOM     62  C   UNL     1     -14.403  -7.207  -0.046  1.00  0.00     0.010 C 
BRANCH  62  63
ATOM     63  C   UNL     1     -12.891  -7.465  -0.067  1.00  0.00     0.000 C 
BRANCH  63  64
ATOM     64  C   UNL     1     -12.338  -8.057   1.229  1.00  0.00    -0.003 C 
ATOM     65  C   UNL     1     -12.158  -9.564   1.117  1.00  0.00     0.004 C 
ENDBRANCH  63  64
ENDBRANCH  62  63
ENDBRANCH  61  62
ENDBRANCH  58  61
ENDBRANCH  56  57
BRANCH  56  66
ATOM     66  C   UNL     1     -17.702  -3.606   0.270  1.00  0.00     0.157 C 
BRANCH  66  67
ATOM     67  C   UNL     1     -18.223  -2.198   0.280  1.00  0.00     0.305 C 
ATOM     68  O   UNL     1     -18.488  -1.521   1.262  1.00  0.00    -0.252 OA
BRANCH  67  69
ATOM     69  O   UNL     1     -18.336  -1.686  -0.961  1.00  0.00    -0.481 OA
ATOM     70  H   UNL     1     -18.655  -2.432  -1.511  1.00  0.00     0.296 HD
ENDBRANCH  67  69
ENDBRANCH  66  67
ENDBRANCH  56  66
ENDBRANCH  53  56
ENDBRANCH  50  52
ENDBRANCH  47  50
ENDBRANCH  45  46
BRANCH  45  71
ATOM     71  C   UNL     1     -11.059  -4.447   1.175  1.00  0.00     0.037 C 
BRANCH  71  72
ATOM     72  C   UNL     1     -12.330  -4.331   2.020  1.00  0.00     0.026 C 
BRANCH  72  73
ATOM     73  C   UNL     1     -12.010  -4.307   3.513  1.00  0.00     0.146 C 
BRANCH  73  74
ATOM     74  N   UNL     1     -11.788  -2.917   3.901  1.00  0.00    -0.254 NA
ATOM     75  C   UNL     1     -10.964  -2.686   4.855  1.00  0.00     0.185 C 
ATOM     76  N   UNL     1     -10.737  -1.418   5.234  1.00  0.00    -0.370 N 
ATOM     77  N   UNL     1     -10.246  -3.560   5.582  1.00  0.00    -0.370 N 
ATOM     78  H   UNL     1     -11.244  -0.696   4.741  1.00  0.00     0.159 HD
ATOM     79  H   UNL     1     -10.222  -1.170   6.060  1.00  0.00     0.159 HD
ATOM     80  H   UNL     1     -10.312  -4.551   5.406  1.00  0.00     0.159 HD
ATOM     81  H   UNL     1      -9.541  -3.253   6.232  1.00  0.00     0.159 HD
ENDBRANCH  73  74
ENDBRANCH  72  73
ENDBRANCH  71  72
ENDBRANCH  45  71
ENDBRANCH   3  45
TORSDOF 20
ENDMDL
