MODEL 1
REMARK VINA RESULT:    -7.831      0.000      0.000
REMARK INTER + INTRA:         -19.478
REMARK INTER:                 -19.505
REMARK INTRA:                   0.027
REMARK UNBOUND:                 0.027
REMARK SMILES CCCCCCC[C@H](N)[C@H](O)C(=O)N[C@H](C)C(=O)N(C)[C@H](CC(C)C)C(=O)N[C@@H](Cc1ccc(O)cc1)C(=O)N[C@@H](Cc1ccc(O)cc1)C(=O)O
REMARK SMILES IDX 18 1 17 2 15 3 16 4 14 5 12 6 13 7 10 9 11 10 8 12 9 13 7 16
REMARK SMILES IDX 6 17 5 18 4 19 3 20 2 21 1 22 19 23 20 24 21 25 22 26 23 27
REMARK SMILES IDX 24 28 25 29 26 30 27 31 28 32 29 34 30 35 31 36 32 37 37 38
REMARK SMILES IDX 33 39 36 40 34 41 35 42 38 44 39 45 40 46 41 48 42 49 43 50
REMARK SMILES IDX 44 51 49 52 45 53 48 54 46 55 47 56 50 58 51 59 52 60
REMARK H PARENT 14 8 11 11 9 14 9 15 28 33 35 43 40 47 47 57 52 61
ROOT
ATOM      1  O   UNL     1       4.004   0.201  -4.718  1.00  0.00    -0.272 OA
ATOM      2  C   UNL     1       4.878   0.944  -5.188  1.00  0.00     0.245 C 
ENDROOT
BRANCH   2   3
ATOM      3  C   UNL     1       6.340   0.764  -4.708  1.00  0.00     0.168 C 
ATOM      4  C   UNL     1       6.448   0.993  -3.204  1.00  0.00     0.041 C 
BRANCH   3   5
ATOM      5  N   UNL     1       6.966  -0.485  -5.112  1.00  0.00    -0.342 N 
ATOM      6  C   UNL     1       8.269  -0.788  -4.777  1.00  0.00     0.251 C 
ATOM      7  O   UNL     1       9.003  -0.025  -4.158  1.00  0.00    -0.272 OA
ATOM      8  H   UNL     1       6.467  -1.183  -5.659  1.00  0.00     0.164 HD
BRANCH   6   9
ATOM      9  C   UNL     1       8.671  -2.214  -5.185  1.00  0.00     0.219 C 
BRANCH   9  10
ATOM     10  O   UNL     1       8.916  -2.338  -6.591  1.00  0.00    -0.382 OA
ATOM     11  H   UNL     1       8.484  -3.188  -6.827  1.00  0.00     0.211 HD
ENDBRANCH   9  10
BRANCH   9  12
ATOM     12  C   UNL     1       9.867  -2.768  -4.367  1.00  0.00     0.089 C 
BRANCH  12  13
ATOM     13  N   UNL     1      10.079  -1.887  -3.196  1.00  0.00    -0.325 NA
ATOM     14  H   UNL     1      10.483  -2.433  -2.433  1.00  0.00     0.119 HD
ATOM     15  H   UNL     1       9.170  -1.574  -2.847  1.00  0.00     0.119 HD
ENDBRANCH  12  13
BRANCH  12  16
ATOM     16  C   UNL     1       9.752  -4.242  -3.909  1.00  0.00     0.022 C 
BRANCH  16  17
ATOM     17  C   UNL     1      10.221  -4.625  -2.499  1.00  0.00     0.002 C 
BRANCH  17  18
ATOM     18  C   UNL     1       9.530  -5.848  -1.900  1.00  0.00     0.000 C 
BRANCH  18  19
ATOM     19  C   UNL     1       9.995  -6.195  -0.479  1.00  0.00    -0.000 C 
BRANCH  19  20
ATOM     20  C   UNL     1       9.944  -5.037   0.522  1.00  0.00    -0.000 C 
BRANCH  20  21
ATOM     21  C   UNL     1       8.737  -5.109   1.460  1.00  0.00    -0.003 C 
ATOM     22  C   UNL     1       8.016  -6.442   1.336  1.00  0.00     0.004 C 
ENDBRANCH  20  21
ENDBRANCH  19  20
ENDBRANCH  18  19
ENDBRANCH  17  18
ENDBRANCH  16  17
ENDBRANCH  12  16
ENDBRANCH   9  12
ENDBRANCH   6   9
ENDBRANCH   3   5
ENDBRANCH   2   3
BRANCH   2  23
ATOM     23  N   UNL     1       4.561   1.831  -6.211  1.00  0.00    -0.332 N 
ATOM     24  C   UNL     1       4.905   1.633  -7.611  1.00  0.00     0.147 C 
BRANCH  23  25
ATOM     25  C   UNL     1       3.707   3.019  -5.938  1.00  0.00     0.174 C 
BRANCH  25  26
ATOM     26  C   UNL     1       2.898   2.890  -4.626  1.00  0.00     0.038 C 
BRANCH  26  27
ATOM     27  C   UNL     1       1.427   2.435  -4.753  1.00  0.00    -0.015 C 
ATOM     28  C   UNL     1       1.036   1.415  -3.683  1.00  0.00     0.007 C 
ATOM     29  C   UNL     1       0.433   3.593  -4.780  1.00  0.00     0.007 C 
ENDBRANCH  26  27
ENDBRANCH  25  26
BRANCH  25  30
ATOM     30  C   UNL     1       2.839   3.347  -7.174  1.00  0.00     0.243 C 
ATOM     31  O   UNL     1       2.074   2.520  -7.669  1.00  0.00    -0.273 OA
ATOM     32  N   UNL     1       2.984   4.612  -7.683  1.00  0.00    -0.342 N 
ATOM     33  H   UNL     1       3.528   5.283  -7.135  1.00  0.00     0.164 HD
BRANCH  32  34
ATOM     34  C   UNL     1       2.262   5.088  -8.866  1.00  0.00     0.175 C 
BRANCH  34  35
ATOM     35  C   UNL     1       1.875   6.568  -8.727  1.00  0.00     0.070 C 
BRANCH  35  36
ATOM     36  C   UNL     1       3.077   7.483  -8.663  1.00  0.00    -0.045 A 
ATOM     37  C   UNL     1       3.576   7.901  -7.420  1.00  0.00     0.007 A 
ATOM     38  C   UNL     1       3.694   7.943  -9.835  1.00  0.00     0.007 A 
ATOM     39  C   UNL     1       4.676   8.756  -7.352  1.00  0.00     0.046 A 
ATOM     40  C   UNL     1       4.795   8.800  -9.767  1.00  0.00     0.046 A 
ATOM     41  C   UNL     1       5.277   9.198  -8.525  1.00  0.00     0.115 A 
BRANCH  41  42
ATOM     42  O   UNL     1       6.348  10.035  -8.414  1.00  0.00    -0.508 OA
ATOM     43  H   UNL     1       7.149   9.536  -8.643  1.00  0.00     0.293 HD
ENDBRANCH  41  42
ENDBRANCH  35  36
ENDBRANCH  34  35
BRANCH  34  44
ATOM     44  C   UNL     1       3.153   4.837 -10.103  1.00  0.00     0.243 C 
ATOM     45  O   UNL     1       4.344   4.543 -10.052  1.00  0.00    -0.273 OA
ATOM     46  N   UNL     1       2.520   5.104 -11.299  1.00  0.00    -0.341 N 
ATOM     47  H   UNL     1       1.567   5.458 -11.285  1.00  0.00     0.164 HD
BRANCH  46  48
ATOM     48  C   UNL     1       3.183   5.004 -12.601  1.00  0.00     0.196 C 
BRANCH  48  49
ATOM     49  C   UNL     1       2.484   3.977 -13.508  1.00  0.00     0.072 C 
BRANCH  49  50
ATOM     50  C   UNL     1       1.160   3.511 -12.947  1.00  0.00    -0.045 A 
ATOM     51  C   UNL     1       1.108   2.366 -12.138  1.00  0.00     0.007 A 
ATOM     52  C   UNL     1      -0.027   4.194 -13.238  1.00  0.00     0.007 A 
ATOM     53  C   UNL     1      -0.109   1.918 -11.625  1.00  0.00     0.046 A 
ATOM     54  C   UNL     1      -1.247   3.745 -12.725  1.00  0.00     0.046 A 
ATOM     55  C   UNL     1      -1.277   2.611 -11.922  1.00  0.00     0.115 A 
BRANCH  55  56
ATOM     56  O   UNL     1      -2.446   2.139 -11.402  1.00  0.00    -0.508 OA
ATOM     57  H   UNL     1      -2.349   2.076 -10.439  1.00  0.00     0.293 HD
ENDBRANCH  55  56
ENDBRANCH  49  50
ENDBRANCH  48  49
BRANCH  48  58
ATOM     58  C   UNL     1       3.166   6.383 -13.276  1.00  0.00     0.326 C 
ATOM     59  O   UNL     1       4.110   6.972 -13.778  1.00  0.00    -0.250 OA
BRANCH  58  60
ATOM     60  O   UNL     1       1.937   6.958 -13.301  1.00  0.00    -0.480 OA
ATOM     61  H   UNL     1       1.840   7.322 -12.394  1.00  0.00     0.296 HD
ENDBRANCH  58  60
ENDBRANCH  48  58
ENDBRANCH  46  48
ENDBRANCH  34  44
ENDBRANCH  32  34
ENDBRANCH  25  30
ENDBRANCH  23  25
ENDBRANCH   2  23
TORSDOF 28
ENDMDL
MODEL 2
REMARK VINA RESULT:    -6.464      1.728      2.363
REMARK INTER + INTRA:         -16.073
REMARK INTER:                 -16.963
REMARK INTRA:                   0.890
REMARK UNBOUND:                 0.027
REMARK SMILES CCCCCCC[C@H](N)[C@H](O)C(=O)N[C@H](C)C(=O)N(C)[C@H](CC(C)C)C(=O)N[C@@H](Cc1ccc(O)cc1)C(=O)N[C@@H](Cc1ccc(O)cc1)C(=O)O
REMARK SMILES IDX 18 1 17 2 15 3 16 4 14 5 12 6 13 7 10 9 11 10 8 12 9 13 7 16
REMARK SMILES IDX 6 17 5 18 4 19 3 20 2 21 1 22 19 23 20 24 21 25 22 26 23 27
REMARK SMILES IDX 24 28 25 29 26 30 27 31 28 32 29 34 30 35 31 36 32 37 37 38
REMARK SMILES IDX 33 39 36 40 34 41 35 42 38 44 39 45 40 46 41 48 42 49 43 50
REMARK SMILES IDX 44 51 49 52 45 53 48 54 46 55 47 56 50 58 51 59 52 60
REMARK H PARENT 14 8 11 11 9 14 9 15 28 33 35 43 40 47 47 57 52 61
ROOT
ATOM      1  O   UNL     1       5.228   2.120  -5.162  1.00  0.00    -0.272 OA
ATOM      2  C   UNL     1       4.678   1.830  -6.235  1.00  0.00     0.245 C 
ENDROOT
BRANCH   2   3
ATOM      3  C   UNL     1       4.914   0.420  -6.831  1.00  0.00     0.168 C 
ATOM      4  C   UNL     1       5.381   0.515  -8.279  1.00  0.00     0.041 C 
BRANCH   3   5
ATOM      5  N   UNL     1       5.778  -0.442  -6.039  1.00  0.00    -0.342 N 
ATOM      6  C   UNL     1       6.884  -1.061  -6.581  1.00  0.00     0.251 C 
ATOM      7  O   UNL     1       7.199  -0.969  -7.763  1.00  0.00    -0.272 OA
ATOM      8  H   UNL     1       5.598  -0.622  -5.054  1.00  0.00     0.164 HD
BRANCH   6   9
ATOM      9  C   UNL     1       7.725  -1.803  -5.530  1.00  0.00     0.219 C 
BRANCH   9  10
ATOM     10  O   UNL     1       8.511  -2.859  -6.097  1.00  0.00    -0.382 OA
ATOM     11  H   UNL     1       7.867  -3.357  -6.646  1.00  0.00     0.211 HD
ENDBRANCH   9  10
BRANCH   9  12
ATOM     12  C   UNL     1       8.608  -0.856  -4.677  1.00  0.00     0.089 C 
BRANCH  12  13
ATOM     13  N   UNL     1       7.726   0.120  -3.997  1.00  0.00    -0.325 NA
ATOM     14  H   UNL     1       7.833   1.035  -4.439  1.00  0.00     0.119 HD
ATOM     15  H   UNL     1       8.051   0.247  -3.036  1.00  0.00     0.119 HD
ENDBRANCH  12  13
BRANCH  12  16
ATOM     16  C   UNL     1       9.537  -1.541  -3.646  1.00  0.00     0.022 C 
BRANCH  16  17
ATOM     17  C   UNL     1       9.799  -3.049  -3.762  1.00  0.00     0.002 C 
BRANCH  17  18
ATOM     18  C   UNL     1      10.387  -3.699  -2.512  1.00  0.00     0.000 C 
BRANCH  18  19
ATOM     19  C   UNL     1      10.106  -5.204  -2.399  1.00  0.00    -0.000 C 
BRANCH  19  20
ATOM     20  C   UNL     1       9.577  -5.666  -1.039  1.00  0.00    -0.000 C 
BRANCH  20  21
ATOM     21  C   UNL     1       9.570  -7.189  -0.884  1.00  0.00    -0.003 C 
ATOM     22  C   UNL     1       8.375  -7.659  -0.070  1.00  0.00     0.004 C 
ENDBRANCH  20  21
ENDBRANCH  19  20
ENDBRANCH  18  19
ENDBRANCH  17  18
ENDBRANCH  16  17
ENDBRANCH  12  16
ENDBRANCH   9  12
ENDBRANCH   6   9
ENDBRANCH   3   5
ENDBRANCH   2   3
BRANCH   2  23
ATOM     23  N   UNL     1       3.775   2.714  -6.815  1.00  0.00    -0.332 N 
ATOM     24  C   UNL     1       3.044   2.458  -8.047  1.00  0.00     0.147 C 
BRANCH  23  25
ATOM     25  C   UNL     1       3.398   3.971  -6.112  1.00  0.00     0.174 C 
BRANCH  25  26
ATOM     26  C   UNL     1       2.511   3.722  -4.869  1.00  0.00     0.038 C 
BRANCH  26  27
ATOM     27  C   UNL     1       1.419   2.636  -4.995  1.00  0.00    -0.015 C 
ATOM     28  C   UNL     1       1.636   1.475  -4.025  1.00  0.00     0.007 C 
ATOM     29  C   UNL     1      -0.000   3.184  -4.867  1.00  0.00     0.007 C 
ENDBRANCH  26  27
ENDBRANCH  25  26
BRANCH  25  30
ATOM     30  C   UNL     1       2.794   4.981  -7.115  1.00  0.00     0.243 C 
ATOM     31  O   UNL     1       1.602   4.961  -7.419  1.00  0.00    -0.273 OA
ATOM     32  N   UNL     1       3.674   5.890  -7.643  1.00  0.00    -0.342 N 
ATOM     33  H   UNL     1       4.611   5.933  -7.236  1.00  0.00     0.164 HD
BRANCH  32  34
ATOM     34  C   UNL     1       3.284   6.903  -8.628  1.00  0.00     0.175 C 
BRANCH  34  35
ATOM     35  C   UNL     1       3.807   8.294  -8.236  1.00  0.00     0.070 C 
BRANCH  35  36
ATOM     36  C   UNL     1       4.785   8.856  -9.243  1.00  0.00    -0.045 A 
ATOM     37  C   UNL     1       6.164   8.676  -9.059  1.00  0.00     0.007 A 
ATOM     38  C   UNL     1       4.335   9.580 -10.355  1.00  0.00     0.007 A 
ATOM     39  C   UNL     1       7.074   9.204  -9.975  1.00  0.00     0.046 A 
ATOM     40  C   UNL     1       5.245  10.109 -11.273  1.00  0.00     0.046 A 
ATOM     41  C   UNL     1       6.608   9.915 -11.075  1.00  0.00     0.115 A 
BRANCH  41  42
ATOM     42  O   UNL     1       7.531  10.416 -11.945  1.00  0.00    -0.508 OA
ATOM     43  H   UNL     1       7.073  11.001 -12.570  1.00  0.00     0.293 HD
ENDBRANCH  41  42
ENDBRANCH  35  36
ENDBRANCH  34  35
BRANCH  34  44
ATOM     44  C   UNL     1       3.813   6.456 -10.009  1.00  0.00     0.243 C 
ATOM     45  O   UNL     1       4.982   6.162 -10.243  1.00  0.00    -0.273 OA
ATOM     46  N   UNL     1       2.870   6.540 -11.012  1.00  0.00    -0.341 N 
ATOM     47  H   UNL     1       1.945   6.901 -10.791  1.00  0.00     0.164 HD
BRANCH  46  48
ATOM     48  C   UNL     1       3.156   6.234 -12.415  1.00  0.00     0.196 C 
BRANCH  48  49
ATOM     49  C   UNL     1       1.988   5.479 -13.073  1.00  0.00     0.072 C 
BRANCH  49  50
ATOM     50  C   UNL     1       1.683   4.167 -12.386  1.00  0.00    -0.045 A 
ATOM     51  C   UNL     1       0.551   4.054 -11.565  1.00  0.00     0.007 A 
ATOM     52  C   UNL     1       2.527   3.060 -12.538  1.00  0.00     0.007 A 
ATOM     53  C   UNL     1       0.267   2.853 -10.915  1.00  0.00     0.046 A 
ATOM     54  C   UNL     1       2.243   1.857 -11.887  1.00  0.00     0.046 A 
ATOM     55  C   UNL     1       1.114   1.764 -11.081  1.00  0.00     0.115 A 
BRANCH  55  56
ATOM     56  O   UNL     1       0.801   0.609 -10.427  1.00  0.00    -0.508 OA
ATOM     57  H   UNL     1       1.299   0.585  -9.595  1.00  0.00     0.293 HD
ENDBRANCH  55  56
ENDBRANCH  49  50
ENDBRANCH  48  49
BRANCH  48  58
ATOM     58  C   UNL     1       3.411   7.545 -13.170  1.00  0.00     0.326 C 
ATOM     59  O   UNL     1       2.618   8.453 -13.364  1.00  0.00    -0.250 OA
BRANCH  58  60
ATOM     60  O   UNL     1       4.678   7.661 -13.640  1.00  0.00    -0.480 OA
ATOM     61  H   UNL     1       5.203   7.117 -13.013  1.00  0.00     0.296 HD
ENDBRANCH  58  60
ENDBRANCH  48  58
ENDBRANCH  46  48
ENDBRANCH  34  44
ENDBRANCH  32  34
ENDBRANCH  25  30
ENDBRANCH  23  25
ENDBRANCH   2  23
TORSDOF 28
ENDMDL
MODEL 3
REMARK VINA RESULT:    -5.735      2.319      5.318
REMARK INTER + INTRA:         -14.257
REMARK INTER:                 -12.357
REMARK INTRA:                  -1.900
REMARK UNBOUND:                 0.027
REMARK SMILES CCCCCCC[C@H](N)[C@H](O)C(=O)N[C@H](C)C(=O)N(C)[C@H](CC(C)C)C(=O)N[C@@H](Cc1ccc(O)cc1)C(=O)N[C@@H](Cc1ccc(O)cc1)C(=O)O
REMARK SMILES IDX 18 1 17 2 15 3 16 4 14 5 12 6 13 7 10 9 11 10 8 12 9 13 7 16
REMARK SMILES IDX 6 17 5 18 4 19 3 20 2 21 1 22 19 23 20 24 21 25 22 26 23 27
REMARK SMILES IDX 24 28 25 29 26 30 27 31 28 32 29 34 30 35 31 36 32 37 37 38
REMARK SMILES IDX 33 39 36 40 34 41 35 42 38 44 39 45 40 46 41 48 42 49 43 50
REMARK SMILES IDX 44 51 49 52 45 53 48 54 46 55 47 56 50 58 51 59 52 60
REMARK H PARENT 14 8 11 11 9 14 9 15 28 33 35 43 40 47 47 57 52 61
ROOT
ATOM      1  O   UNL     1       9.456   0.367  -4.298  1.00  0.00    -0.272 OA
ATOM      2  C   UNL     1       8.575  -0.504  -4.330  1.00  0.00     0.245 C 
ENDROOT
BRANCH   2   3
ATOM      3  C   UNL     1       8.990  -1.968  -4.618  1.00  0.00     0.168 C 
ATOM      4  C   UNL     1       9.900  -2.043  -5.840  1.00  0.00     0.041 C 
BRANCH   3   5
ATOM      5  N   UNL     1       9.552  -2.679  -3.480  1.00  0.00    -0.342 N 
ATOM      6  C   UNL     1       9.793  -4.036  -3.517  1.00  0.00     0.251 C 
ATOM      7  O   UNL     1       9.519  -4.747  -4.478  1.00  0.00    -0.272 OA
ATOM      8  H   UNL     1       9.788  -2.202  -2.613  1.00  0.00     0.164 HD
BRANCH   6   9
ATOM      9  C   UNL     1      10.518  -4.545  -2.260  1.00  0.00     0.219 C 
BRANCH   9  10
ATOM     10  O   UNL     1      11.278  -3.520  -1.608  1.00  0.00    -0.382 OA
ATOM     11  H   UNL     1      12.139  -3.536  -2.080  1.00  0.00     0.211 HD
ENDBRANCH   9  10
BRANCH   9  12
ATOM     12  C   UNL     1       9.572  -5.253  -1.256  1.00  0.00     0.089 C 
BRANCH  12  13
ATOM     13  N   UNL     1       9.384  -6.654  -1.698  1.00  0.00    -0.325 NA
ATOM     14  H   UNL     1       9.945  -7.271  -1.108  1.00  0.00     0.119 HD
ATOM     15  H   UNL     1       9.773  -6.759  -2.638  1.00  0.00     0.119 HD
ENDBRANCH  12  13
BRANCH  12  16
ATOM     16  C   UNL     1      10.010  -5.219   0.228  1.00  0.00     0.022 C 
BRANCH  16  17
ATOM     17  C   UNL     1       9.000  -4.778   1.295  1.00  0.00     0.002 C 
BRANCH  17  18
ATOM     18  C   UNL     1       8.084  -5.885   1.813  1.00  0.00     0.000 C 
BRANCH  18  19
ATOM     19  C   UNL     1       8.815  -6.989   2.587  1.00  0.00    -0.000 C 
BRANCH  19  20
ATOM     20  C   UNL     1       9.632  -6.508   3.790  1.00  0.00    -0.000 C 
BRANCH  20  21
ATOM     21  C   UNL     1      10.923  -7.306   3.995  1.00  0.00    -0.003 C 
ATOM     22  C   UNL     1      11.755  -7.350   2.724  1.00  0.00     0.004 C 
ENDBRANCH  20  21
ENDBRANCH  19  20
ENDBRANCH  18  19
ENDBRANCH  17  18
ENDBRANCH  16  17
ENDBRANCH  12  16
ENDBRANCH   9  12
ENDBRANCH   6   9
ENDBRANCH   3   5
ENDBRANCH   2   3
BRANCH   2  23
ATOM     23  N   UNL     1       7.265  -0.181  -3.992  1.00  0.00    -0.332 N 
ATOM     24  C   UNL     1       6.839   0.264  -2.673  1.00  0.00     0.147 C 
BRANCH  23  25
ATOM     25  C   UNL     1       6.204  -0.152  -5.036  1.00  0.00     0.174 C 
BRANCH  25  26
ATOM     26  C   UNL     1       6.420  -1.211  -6.143  1.00  0.00     0.038 C 
BRANCH  26  27
ATOM     27  C   UNL     1       6.736  -0.686  -7.562  1.00  0.00    -0.015 C 
ATOM     28  C   UNL     1       7.799  -1.524  -8.272  1.00  0.00     0.007 C 
ATOM     29  C   UNL     1       5.498  -0.530  -8.441  1.00  0.00     0.007 C 
ENDBRANCH  26  27
ENDBRANCH  25  26
BRANCH  25  30
ATOM     30  C   UNL     1       6.029   1.286  -5.576  1.00  0.00     0.243 C 
ATOM     31  O   UNL     1       6.902   2.141  -5.442  1.00  0.00    -0.273 OA
ATOM     32  N   UNL     1       4.838   1.542  -6.206  1.00  0.00    -0.342 N 
ATOM     33  H   UNL     1       4.226   0.746  -6.403  1.00  0.00     0.164 HD
BRANCH  32  34
ATOM     34  C   UNL     1       4.488   2.854  -6.756  1.00  0.00     0.175 C 
BRANCH  34  35
ATOM     35  C   UNL     1       4.146   2.760  -8.251  1.00  0.00     0.070 C 
BRANCH  35  36
ATOM     36  C   UNL     1       3.930   4.115  -8.887  1.00  0.00    -0.045 A 
ATOM     37  C   UNL     1       4.103   4.276 -10.270  1.00  0.00     0.007 A 
ATOM     38  C   UNL     1       3.578   5.226  -8.110  1.00  0.00     0.007 A 
ATOM     39  C   UNL     1       3.919   5.525 -10.865  1.00  0.00     0.046 A 
ATOM     40  C   UNL     1       3.395   6.478  -8.704  1.00  0.00     0.046 A 
ATOM     41  C   UNL     1       3.566   6.615 -10.078  1.00  0.00     0.115 A 
BRANCH  41  42
ATOM     42  O   UNL     1       3.400   7.818 -10.697  1.00  0.00    -0.508 OA
ATOM     43  H   UNL     1       3.000   7.660 -11.568  1.00  0.00     0.293 HD
ENDBRANCH  41  42
ENDBRANCH  35  36
ENDBRANCH  34  35
BRANCH  34  44
ATOM     44  C   UNL     1       3.312   3.421  -5.929  1.00  0.00     0.243 C 
ATOM     45  O   UNL     1       3.440   4.174  -4.968  1.00  0.00    -0.273 OA
ATOM     46  N   UNL     1       2.088   2.899  -6.287  1.00  0.00    -0.341 N 
ATOM     47  H   UNL     1       2.047   2.189  -7.013  1.00  0.00     0.164 HD
BRANCH  46  48
ATOM     48  C   UNL     1       0.837   3.234  -5.601  1.00  0.00     0.196 C 
BRANCH  48  49
ATOM     49  C   UNL     1      -0.357   3.210  -6.570  1.00  0.00     0.072 C 
BRANCH  49  50
ATOM     50  C   UNL     1       0.069   3.070  -8.014  1.00  0.00    -0.045 A 
ATOM     51  C   UNL     1       0.159   4.207  -8.830  1.00  0.00     0.007 A 
ATOM     52  C   UNL     1       0.356   1.813  -8.562  1.00  0.00     0.007 A 
ATOM     53  C   UNL     1       0.538   4.089 -10.167  1.00  0.00     0.046 A 
ATOM     54  C   UNL     1       0.734   1.695  -9.902  1.00  0.00     0.046 A 
ATOM     55  C   UNL     1       0.823   2.835 -10.693  1.00  0.00     0.115 A 
BRANCH  55  56
ATOM     56  O   UNL     1       1.187   2.762 -12.005  1.00  0.00    -0.508 OA
ATOM     57  H   UNL     1       1.396   3.658 -12.314  1.00  0.00     0.293 HD
ENDBRANCH  55  56
ENDBRANCH  49  50
ENDBRANCH  48  49
BRANCH  48  58
ATOM     58  C   UNL     1       0.603   2.224  -4.469  1.00  0.00     0.326 C 
ATOM     59  O   UNL     1      -0.077   2.381  -3.468  1.00  0.00    -0.250 OA
BRANCH  58  60
ATOM     60  O   UNL     1       1.233   1.039  -4.662  1.00  0.00    -0.480 OA
ATOM     61  H   UNL     1       1.865   0.994  -3.912  1.00  0.00     0.296 HD
ENDBRANCH  58  60
ENDBRANCH  48  58
ENDBRANCH  46  48
ENDBRANCH  34  44
ENDBRANCH  32  34
ENDBRANCH  25  30
ENDBRANCH  23  25
ENDBRANCH   2  23
TORSDOF 28
ENDMDL
MODEL 4
REMARK VINA RESULT:    -5.483      2.417      5.315
REMARK INTER + INTRA:         -13.629
REMARK INTER:                 -11.916
REMARK INTRA:                  -1.713
REMARK UNBOUND:                 0.027
REMARK SMILES CCCCCCC[C@H](N)[C@H](O)C(=O)N[C@H](C)C(=O)N(C)[C@H](CC(C)C)C(=O)N[C@@H](Cc1ccc(O)cc1)C(=O)N[C@@H](Cc1ccc(O)cc1)C(=O)O
REMARK SMILES IDX 18 1 17 2 15 3 16 4 14 5 12 6 13 7 10 9 11 10 8 12 9 13 7 16
REMARK SMILES IDX 6 17 5 18 4 19 3 20 2 21 1 22 19 23 20 24 21 25 22 26 23 27
REMARK SMILES IDX 24 28 25 29 26 30 27 31 28 32 29 34 30 35 31 36 32 37 37 38
REMARK SMILES IDX 33 39 36 40 34 41 35 42 38 44 39 45 40 46 41 48 42 49 43 50
REMARK SMILES IDX 44 51 49 52 45 53 48 54 46 55 47 56 50 58 51 59 52 60
REMARK H PARENT 14 8 11 11 9 14 9 15 28 33 35 43 40 47 47 57 52 61
ROOT
ATOM      1  O   UNL     1       9.468   0.361  -4.302  1.00  0.00    -0.272 OA
ATOM      2  C   UNL     1       8.586  -0.510  -4.319  1.00  0.00     0.245 C 
ENDROOT
BRANCH   2   3
ATOM      3  C   UNL     1       9.000  -1.979  -4.587  1.00  0.00     0.168 C 
ATOM      4  C   UNL     1       9.879  -2.076  -5.830  1.00  0.00     0.041 C 
BRANCH   3   5
ATOM      5  N   UNL     1       9.593  -2.664  -3.449  1.00  0.00    -0.342 N 
ATOM      6  C   UNL     1       9.754  -4.033  -3.427  1.00  0.00     0.251 C 
ATOM      7  O   UNL     1       9.379  -4.773  -4.330  1.00  0.00    -0.272 OA
ATOM      8  H   UNL     1       9.911  -2.159  -2.626  1.00  0.00     0.164 HD
BRANCH   6   9
ATOM      9  C   UNL     1      10.529  -4.521  -2.192  1.00  0.00     0.219 C 
BRANCH   9  10
ATOM     10  O   UNL     1      11.336  -3.493  -1.605  1.00  0.00    -0.382 OA
ATOM     11  H   UNL     1      10.862  -3.273  -0.774  1.00  0.00     0.211 HD
ENDBRANCH   9  10
BRANCH   9  12
ATOM     12  C   UNL     1       9.620  -5.184  -1.125  1.00  0.00     0.089 C 
BRANCH  12  13
ATOM     13  N   UNL     1       9.249  -6.536  -1.602  1.00  0.00    -0.325 NA
ATOM     14  H   UNL     1       9.090  -6.504  -2.610  1.00  0.00     0.119 HD
ATOM     15  H   UNL     1       8.346  -6.793  -1.197  1.00  0.00     0.119 HD
ENDBRANCH  12  13
BRANCH  12  16
ATOM     16  C   UNL     1      10.203  -5.266   0.306  1.00  0.00     0.022 C 
BRANCH  16  17
ATOM     17  C   UNL     1      11.128  -6.435   0.670  1.00  0.00     0.002 C 
BRANCH  17  18
ATOM     18  C   UNL     1      12.617  -6.167   0.465  1.00  0.00     0.000 C 
BRANCH  18  19
ATOM     19  C   UNL     1      13.306  -7.160  -0.481  1.00  0.00    -0.000 C 
BRANCH  19  20
ATOM     20  C   UNL     1      12.389  -8.231  -1.079  1.00  0.00    -0.000 C 
BRANCH  20  21
ATOM     21  C   UNL     1      12.384  -8.229  -2.610  1.00  0.00    -0.003 C 
ATOM     22  C   UNL     1      11.365  -9.214  -3.162  1.00  0.00     0.004 C 
ENDBRANCH  20  21
ENDBRANCH  19  20
ENDBRANCH  18  19
ENDBRANCH  17  18
ENDBRANCH  16  17
ENDBRANCH  12  16
ENDBRANCH   9  12
ENDBRANCH   6   9
ENDBRANCH   3   5
ENDBRANCH   2   3
BRANCH   2  23
ATOM     23  N   UNL     1       7.277  -0.182  -3.982  1.00  0.00    -0.332 N 
ATOM     24  C   UNL     1       6.852   0.266  -2.664  1.00  0.00     0.147 C 
BRANCH  23  25
ATOM     25  C   UNL     1       6.218  -0.150  -5.027  1.00  0.00     0.174 C 
BRANCH  25  26
ATOM     26  C   UNL     1       6.438  -1.201  -6.140  1.00  0.00     0.038 C 
BRANCH  26  27
ATOM     27  C   UNL     1       6.747  -0.666  -7.556  1.00  0.00    -0.015 C 
ATOM     28  C   UNL     1       7.785  -1.517  -8.288  1.00  0.00     0.007 C 
ATOM     29  C   UNL     1       5.503  -0.477  -8.419  1.00  0.00     0.007 C 
ENDBRANCH  26  27
ENDBRANCH  25  26
BRANCH  25  30
ATOM     30  C   UNL     1       6.039   1.291  -5.559  1.00  0.00     0.243 C 
ATOM     31  O   UNL     1       6.912   2.147  -5.423  1.00  0.00    -0.273 OA
ATOM     32  N   UNL     1       4.846   1.549  -6.183  1.00  0.00    -0.342 N 
ATOM     33  H   UNL     1       4.233   0.754  -6.382  1.00  0.00     0.164 HD
BRANCH  32  34
ATOM     34  C   UNL     1       4.492   2.864  -6.724  1.00  0.00     0.175 C 
BRANCH  34  35
ATOM     35  C   UNL     1       4.168   2.782  -8.224  1.00  0.00     0.070 C 
BRANCH  35  36
ATOM     36  C   UNL     1       3.979   4.143  -8.856  1.00  0.00    -0.045 A 
ATOM     37  C   UNL     1       3.634   5.245  -8.060  1.00  0.00     0.007 A 
ATOM     38  C   UNL     1       4.123   4.319 -10.239  1.00  0.00     0.007 A 
ATOM     39  C   UNL     1       3.444   6.501  -8.636  1.00  0.00     0.046 A 
ATOM     40  C   UNL     1       3.931   5.576 -10.817  1.00  0.00     0.046 A 
ATOM     41  C   UNL     1       3.595   6.657 -10.009  1.00  0.00     0.115 A 
BRANCH  41  42
ATOM     42  O   UNL     1       3.397   7.900 -10.533  1.00  0.00    -0.508 OA
ATOM     43  H   UNL     1       4.183   8.439 -10.343  1.00  0.00     0.293 HD
ENDBRANCH  41  42
ENDBRANCH  35  36
ENDBRANCH  34  35
BRANCH  34  44
ATOM     44  C   UNL     1       3.302   3.414  -5.906  1.00  0.00     0.243 C 
ATOM     45  O   UNL     1       3.410   3.996  -4.830  1.00  0.00    -0.273 OA
ATOM     46  N   UNL     1       2.072   3.077  -6.431  1.00  0.00    -0.341 N 
ATOM     47  H   UNL     1       2.034   2.493  -7.262  1.00  0.00     0.164 HD
BRANCH  46  48
ATOM     48  C   UNL     1       0.801   3.428  -5.794  1.00  0.00     0.196 C 
BRANCH  48  49
ATOM     49  C   UNL     1      -0.373   3.298  -6.779  1.00  0.00     0.072 C 
BRANCH  49  50
ATOM     50  C   UNL     1       0.084   3.103  -8.207  1.00  0.00    -0.045 A 
ATOM     51  C   UNL     1       0.211   4.210  -9.057  1.00  0.00     0.007 A 
ATOM     52  C   UNL     1       0.365   1.824  -8.706  1.00  0.00     0.007 A 
ATOM     53  C   UNL     1       0.619   4.042 -10.381  1.00  0.00     0.046 A 
ATOM     54  C   UNL     1       0.773   1.655 -10.031  1.00  0.00     0.046 A 
ATOM     55  C   UNL     1       0.897   2.766 -10.857  1.00  0.00     0.115 A 
BRANCH  55  56
ATOM     56  O   UNL     1       1.292   2.644 -12.157  1.00  0.00    -0.508 OA
ATOM     57  H   UNL     1       2.223   2.909 -12.220  1.00  0.00     0.293 HD
ENDBRANCH  55  56
ENDBRANCH  49  50
ENDBRANCH  48  49
BRANCH  48  58
ATOM     58  C   UNL     1       0.571   2.500  -4.593  1.00  0.00     0.326 C 
ATOM     59  O   UNL     1       1.162   1.464  -4.336  1.00  0.00    -0.250 OA
BRANCH  58  60
ATOM     60  O   UNL     1      -0.398   2.937  -3.750  1.00  0.00    -0.480 OA
ATOM     61  H   UNL     1      -0.754   2.106  -3.365  1.00  0.00     0.296 HD
ENDBRANCH  58  60
ENDBRANCH  48  58
ENDBRANCH  46  48
ENDBRANCH  34  44
ENDBRANCH  32  34
ENDBRANCH  25  30
ENDBRANCH  23  25
ENDBRANCH   2  23
TORSDOF 28
ENDMDL
MODEL 5
REMARK VINA RESULT:    -5.064      6.491     13.261
REMARK INTER + INTRA:         -12.585
REMARK INTER:                 -10.242
REMARK INTRA:                  -2.343
REMARK UNBOUND:                 0.027
REMARK SMILES CCCCCCC[C@H](N)[C@H](O)C(=O)N[C@H](C)C(=O)N(C)[C@H](CC(C)C)C(=O)N[C@@H](Cc1ccc(O)cc1)C(=O)N[C@@H](Cc1ccc(O)cc1)C(=O)O
REMARK SMILES IDX 18 1 17 2 15 3 16 4 14 5 12 6 13 7 10 9 11 10 8 12 9 13 7 16
REMARK SMILES IDX 6 17 5 18 4 19 3 20 2 21 1 22 19 23 20 24 21 25 22 26 23 27
REMARK SMILES IDX 24 28 25 29 26 30 27 31 28 32 29 34 30 35 31 36 32 37 37 38
REMARK SMILES IDX 33 39 36 40 34 41 35 42 38 44 39 45 40 46 41 48 42 49 43 50
REMARK SMILES IDX 44 51 49 52 45 53 48 54 46 55 47 56 50 58 51 59 52 60
REMARK H PARENT 14 8 11 11 9 14 9 15 28 33 35 43 40 47 47 57 52 61
ROOT
ATOM      1  O   UNL     1       9.202  -3.955   2.255  1.00  0.00    -0.272 OA
ATOM      2  C   UNL     1       9.023  -5.181   2.309  1.00  0.00     0.245 C 
ENDROOT
BRANCH   2   3
ATOM      3  C   UNL     1       9.842  -6.004   3.334  1.00  0.00     0.168 C 
ATOM      4  C   UNL     1       8.998  -7.129   3.923  1.00  0.00     0.041 C 
BRANCH   3   5
ATOM      5  N   UNL     1      11.124  -6.488   2.845  1.00  0.00    -0.342 N 
ATOM      6  C   UNL     1      12.138  -6.856   3.703  1.00  0.00     0.251 C 
ATOM      7  O   UNL     1      12.057  -6.767   4.924  1.00  0.00    -0.272 OA
ATOM      8  H   UNL     1      11.321  -6.572   1.851  1.00  0.00     0.164 HD
BRANCH   6   9
ATOM      9  C   UNL     1      13.343  -7.468   2.971  1.00  0.00     0.219 C 
BRANCH   9  10
ATOM     10  O   UNL     1      14.439  -6.553   2.850  1.00  0.00    -0.382 OA
ATOM     11  H   UNL     1      14.180  -5.804   3.431  1.00  0.00     0.211 HD
ENDBRANCH   9  10
BRANCH   9  12
ATOM     12  C   UNL     1      13.813  -8.811   3.589  1.00  0.00     0.089 C 
BRANCH  12  13
ATOM     13  N   UNL     1      14.573  -8.517   4.825  1.00  0.00    -0.325 NA
ATOM     14  H   UNL     1      15.549  -8.791   4.693  1.00  0.00     0.119 HD
ATOM     15  H   UNL     1      14.227  -9.116   5.578  1.00  0.00     0.119 HD
ENDBRANCH  12  13
BRANCH  12  16
ATOM     16  C   UNL     1      12.702  -9.848   3.882  1.00  0.00     0.022 C 
BRANCH  16  17
ATOM     17  C   UNL     1      12.971 -11.332   3.598  1.00  0.00     0.002 C 
BRANCH  17  18
ATOM     18  C   UNL     1      11.810 -12.270   3.919  1.00  0.00     0.000 C 
BRANCH  18  19
ATOM     19  C   UNL     1      10.881 -11.759   5.028  1.00  0.00    -0.000 C 
BRANCH  19  20
ATOM     20  C   UNL     1      10.638 -12.741   6.177  1.00  0.00    -0.000 C 
BRANCH  20  21
ATOM     21  C   UNL     1      10.987 -12.157   7.549  1.00  0.00    -0.003 C 
ATOM     22  C   UNL     1      12.062 -11.087   7.439  1.00  0.00     0.004 C 
ENDBRANCH  20  21
ENDBRANCH  19  20
ENDBRANCH  18  19
ENDBRANCH  17  18
ENDBRANCH  16  17
ENDBRANCH  12  16
ENDBRANCH   9  12
ENDBRANCH   6   9
ENDBRANCH   3   5
ENDBRANCH   2   3
BRANCH   2  23
ATOM     23  N   UNL     1       8.020  -5.772   1.548  1.00  0.00    -0.332 N 
ATOM     24  C   UNL     1       6.594  -5.604   1.787  1.00  0.00     0.147 C 
BRANCH  23  25
ATOM     25  C   UNL     1       8.363  -6.540   0.320  1.00  0.00     0.174 C 
BRANCH  25  26
ATOM     26  C   UNL     1       8.723  -8.015   0.613  1.00  0.00     0.038 C 
BRANCH  26  27
ATOM     27  C   UNL     1       9.977  -8.583  -0.089  1.00  0.00    -0.015 C 
ATOM     28  C   UNL     1      10.833  -9.437   0.845  1.00  0.00     0.007 C 
ATOM     29  C   UNL     1       9.661  -9.343  -1.375  1.00  0.00     0.007 C 
ENDBRANCH  26  27
ENDBRANCH  25  26
BRANCH  25  30
ATOM     30  C   UNL     1       9.440  -5.787  -0.495  1.00  0.00     0.243 C 
ATOM     31  O   UNL     1      10.306  -5.103   0.049  1.00  0.00    -0.273 OA
ATOM     32  N   UNL     1       9.361  -5.929  -1.856  1.00  0.00    -0.342 N 
ATOM     33  H   UNL     1       8.705  -6.624  -2.223  1.00  0.00     0.164 HD
BRANCH  32  34
ATOM     34  C   UNL     1      10.280  -5.267  -2.786  1.00  0.00     0.175 C 
BRANCH  34  35
ATOM     35  C   UNL     1      11.190  -6.285  -3.491  1.00  0.00     0.070 C 
BRANCH  35  36
ATOM     36  C   UNL     1      12.165  -6.951  -2.546  1.00  0.00    -0.045 A 
ATOM     37  C   UNL     1      12.737  -8.187  -2.885  1.00  0.00     0.007 A 
ATOM     38  C   UNL     1      12.492  -6.363  -1.318  1.00  0.00     0.007 A 
ATOM     39  C   UNL     1      13.627  -8.816  -2.014  1.00  0.00     0.046 A 
ATOM     40  C   UNL     1      13.381  -6.993  -0.444  1.00  0.00     0.046 A 
ATOM     41  C   UNL     1      13.942  -8.214  -0.801  1.00  0.00     0.115 A 
BRANCH  41  42
ATOM     42  O   UNL     1      14.813  -8.864   0.023  1.00  0.00    -0.508 OA
ATOM     43  H   UNL     1      15.431  -8.209   0.389  1.00  0.00     0.293 HD
ENDBRANCH  41  42
ENDBRANCH  35  36
ENDBRANCH  34  35
BRANCH  34  44
ATOM     44  C   UNL     1       9.438  -4.451  -3.792  1.00  0.00     0.243 C 
ATOM     45  O   UNL     1       8.861  -4.931  -4.764  1.00  0.00    -0.273 OA
ATOM     46  N   UNL     1       9.495  -3.090  -3.579  1.00  0.00    -0.341 N 
ATOM     47  H   UNL     1      10.082  -2.732  -2.830  1.00  0.00     0.164 HD
BRANCH  46  48
ATOM     48  C   UNL     1       8.834  -2.110  -4.443  1.00  0.00     0.196 C 
BRANCH  48  49
ATOM     49  C   UNL     1       8.731  -0.737  -3.758  1.00  0.00     0.072 C 
BRANCH  49  50
ATOM     50  C   UNL     1       7.468   0.006  -4.130  1.00  0.00    -0.045 A 
ATOM     51  C   UNL     1       6.836   0.828  -3.186  1.00  0.00     0.007 A 
ATOM     52  C   UNL     1       6.901  -0.129  -5.404  1.00  0.00     0.007 A 
ATOM     53  C   UNL     1       5.663   1.508  -3.514  1.00  0.00     0.046 A 
ATOM     54  C   UNL     1       5.726   0.551  -5.732  1.00  0.00     0.046 A 
ATOM     55  C   UNL     1       5.118   1.365  -4.783  1.00  0.00     0.115 A 
BRANCH  55  56
ATOM     56  O   UNL     1       3.969   2.045  -5.063  1.00  0.00    -0.508 OA
ATOM     57  H   UNL     1       3.366   1.447  -5.532  1.00  0.00     0.293 HD
ENDBRANCH  55  56
ENDBRANCH  49  50
ENDBRANCH  48  49
BRANCH  48  58
ATOM     58  C   UNL     1       9.632  -1.976  -5.747  1.00  0.00     0.326 C 
ATOM     59  O   UNL     1      10.795  -1.627  -5.869  1.00  0.00    -0.250 OA
BRANCH  58  60
ATOM     60  O   UNL     1       8.921  -2.307  -6.854  1.00  0.00    -0.480 OA
ATOM     61  H   UNL     1       8.051  -1.879  -6.700  1.00  0.00     0.296 HD
ENDBRANCH  58  60
ENDBRANCH  48  58
ENDBRANCH  46  48
ENDBRANCH  34  44
ENDBRANCH  32  34
ENDBRANCH  25  30
ENDBRANCH  23  25
ENDBRANCH   2  23
TORSDOF 28
ENDMDL
MODEL 6
REMARK VINA RESULT:    -5.008      6.478     13.324
REMARK INTER + INTRA:         -12.446
REMARK INTER:                 -10.289
REMARK INTRA:                  -2.158
REMARK UNBOUND:                 0.027
REMARK SMILES CCCCCCC[C@H](N)[C@H](O)C(=O)N[C@H](C)C(=O)N(C)[C@H](CC(C)C)C(=O)N[C@@H](Cc1ccc(O)cc1)C(=O)N[C@@H](Cc1ccc(O)cc1)C(=O)O
REMARK SMILES IDX 18 1 17 2 15 3 16 4 14 5 12 6 13 7 10 9 11 10 8 12 9 13 7 16
REMARK SMILES IDX 6 17 5 18 4 19 3 20 2 21 1 22 19 23 20 24 21 25 22 26 23 27
REMARK SMILES IDX 24 28 25 29 26 30 27 31 28 32 29 34 30 35 31 36 32 37 37 38
REMARK SMILES IDX 33 39 36 40 34 41 35 42 38 44 39 45 40 46 41 48 42 49 43 50
REMARK SMILES IDX 44 51 49 52 45 53 48 54 46 55 47 56 50 58 51 59 52 60
REMARK H PARENT 14 8 11 11 9 14 9 15 28 33 35 43 40 47 47 57 52 61
ROOT
ATOM      1  O   UNL     1       9.170  -3.963   2.307  1.00  0.00    -0.272 OA
ATOM      2  C   UNL     1       9.006  -5.191   2.342  1.00  0.00     0.245 C 
ENDROOT
BRANCH   2   3
ATOM      3  C   UNL     1       9.834  -6.021   3.355  1.00  0.00     0.168 C 
ATOM      4  C   UNL     1       9.015  -7.186   3.899  1.00  0.00     0.041 C 
BRANCH   3   5
ATOM      5  N   UNL     1      11.137  -6.452   2.872  1.00  0.00    -0.342 N 
ATOM      6  C   UNL     1      12.137  -6.852   3.733  1.00  0.00     0.251 C 
ATOM      7  O   UNL     1      12.025  -6.835   4.954  1.00  0.00    -0.272 OA
ATOM      8  H   UNL     1      11.360  -6.475   1.880  1.00  0.00     0.164 HD
BRANCH   6   9
ATOM      9  C   UNL     1      13.371  -7.399   2.997  1.00  0.00     0.219 C 
BRANCH   9  10
ATOM     10  O   UNL     1      14.375  -6.400   2.783  1.00  0.00    -0.382 OA
ATOM     11  H   UNL     1      14.385  -5.899   3.628  1.00  0.00     0.211 HD
ENDBRANCH   9  10
BRANCH   9  12
ATOM     12  C   UNL     1      13.978  -8.654   3.678  1.00  0.00     0.089 C 
BRANCH  12  13
ATOM     13  N   UNL     1      13.921  -9.780   2.718  1.00  0.00    -0.325 NA
ATOM     14  H   UNL     1      14.846  -9.917   2.305  1.00  0.00     0.119 HD
ATOM     15  H   UNL     1      13.316  -9.518   1.936  1.00  0.00     0.119 HD
ENDBRANCH  12  13
BRANCH  12  16
ATOM     16  C   UNL     1      15.416  -8.497   4.228  1.00  0.00     0.022 C 
BRANCH  16  17
ATOM     17  C   UNL     1      15.614  -8.084   5.693  1.00  0.00     0.002 C 
BRANCH  17  18
ATOM     18  C   UNL     1      15.460  -9.214   6.708  1.00  0.00     0.000 C 
BRANCH  18  19
ATOM     19  C   UNL     1      15.063  -8.741   8.113  1.00  0.00    -0.000 C 
BRANCH  19  20
ATOM     20  C   UNL     1      13.601  -8.313   8.266  1.00  0.00    -0.000 C 
BRANCH  20  21
ATOM     21  C   UNL     1      13.424  -6.794   8.320  1.00  0.00    -0.003 C 
ATOM     22  C   UNL     1      13.809  -6.238   9.683  1.00  0.00     0.004 C 
ENDBRANCH  20  21
ENDBRANCH  19  20
ENDBRANCH  18  19
ENDBRANCH  17  18
ENDBRANCH  16  17
ENDBRANCH  12  16
ENDBRANCH   9  12
ENDBRANCH   6   9
ENDBRANCH   3   5
ENDBRANCH   2   3
BRANCH   2  23
ATOM     23  N   UNL     1       8.011  -5.783   1.571  1.00  0.00    -0.332 N 
ATOM     24  C   UNL     1       6.583  -5.610   1.792  1.00  0.00     0.147 C 
BRANCH  23  25
ATOM     25  C   UNL     1       8.367  -6.556   0.350  1.00  0.00     0.174 C 
BRANCH  25  26
ATOM     26  C   UNL     1       8.751  -8.022   0.657  1.00  0.00     0.038 C 
BRANCH  26  27
ATOM     27  C   UNL     1      10.024  -8.570  -0.027  1.00  0.00    -0.015 C 
ATOM     28  C   UNL     1      10.893  -9.390   0.927  1.00  0.00     0.007 C 
ATOM     29  C   UNL     1       9.738  -9.358  -1.303  1.00  0.00     0.007 C 
ENDBRANCH  26  27
ENDBRANCH  25  26
BRANCH  25  30
ATOM     30  C   UNL     1       9.432  -5.793  -0.471  1.00  0.00     0.243 C 
ATOM     31  O   UNL     1      10.292  -5.097   0.066  1.00  0.00    -0.273 OA
ATOM     32  N   UNL     1       9.348  -5.939  -1.832  1.00  0.00    -0.342 N 
ATOM     33  H   UNL     1       8.699  -6.643  -2.194  1.00  0.00     0.164 HD
BRANCH  32  34
ATOM     34  C   UNL     1      10.256  -5.270  -2.768  1.00  0.00     0.175 C 
BRANCH  34  35
ATOM     35  C   UNL     1      11.179  -6.278  -3.469  1.00  0.00     0.070 C 
BRANCH  35  36
ATOM     36  C   UNL     1      12.162  -6.928  -2.521  1.00  0.00    -0.045 A 
ATOM     37  C   UNL     1      12.722  -8.175  -2.837  1.00  0.00     0.007 A 
ATOM     38  C   UNL     1      12.508  -6.312  -1.311  1.00  0.00     0.007 A 
ATOM     39  C   UNL     1      13.619  -8.789  -1.962  1.00  0.00     0.046 A 
ATOM     40  C   UNL     1      13.405  -6.927  -0.434  1.00  0.00     0.046 A 
ATOM     41  C   UNL     1      13.954  -8.160  -0.769  1.00  0.00     0.115 A 
BRANCH  41  42
ATOM     42  O   UNL     1      14.831  -8.796   0.059  1.00  0.00    -0.508 OA
ATOM     43  H   UNL     1      14.689  -8.468   0.963  1.00  0.00     0.293 HD
ENDBRANCH  41  42
ENDBRANCH  35  36
ENDBRANCH  34  35
BRANCH  34  44
ATOM     44  C   UNL     1       9.399  -4.472  -3.777  1.00  0.00     0.243 C 
ATOM     45  O   UNL     1       8.748  -4.979  -4.686  1.00  0.00    -0.273 OA
ATOM     46  N   UNL     1       9.532  -3.106  -3.651  1.00  0.00    -0.341 N 
ATOM     47  H   UNL     1      10.176  -2.734  -2.956  1.00  0.00     0.164 HD
BRANCH  46  48
ATOM     48  C   UNL     1       8.872  -2.146  -4.539  1.00  0.00     0.196 C 
BRANCH  48  49
ATOM     49  C   UNL     1       8.690  -0.782  -3.853  1.00  0.00     0.072 C 
BRANCH  49  50
ATOM     50  C   UNL     1       7.382  -0.117  -4.218  1.00  0.00    -0.045 A 
ATOM     51  C   UNL     1       6.911  -0.179  -5.538  1.00  0.00     0.007 A 
ATOM     52  C   UNL     1       6.637   0.584  -3.261  1.00  0.00     0.007 A 
ATOM     53  C   UNL     1       5.713   0.442  -5.890  1.00  0.00     0.046 A 
ATOM     54  C   UNL     1       5.438   1.207  -3.613  1.00  0.00     0.046 A 
ATOM     55  C   UNL     1       4.985   1.129  -4.926  1.00  0.00     0.115 A 
BRANCH  55  56
ATOM     56  O   UNL     1       3.820   1.724  -5.311  1.00  0.00    -0.508 OA
ATOM     57  H   UNL     1       3.310   1.087  -5.835  1.00  0.00     0.293 HD
ENDBRANCH  55  56
ENDBRANCH  49  50
ENDBRANCH  48  49
BRANCH  48  58
ATOM     58  C   UNL     1       9.718  -1.976  -5.808  1.00  0.00     0.326 C 
ATOM     59  O   UNL     1      10.879  -1.608  -5.877  1.00  0.00    -0.250 OA
BRANCH  58  60
ATOM     60  O   UNL     1       9.055  -2.296  -6.947  1.00  0.00    -0.480 OA
ATOM     61  H   UNL     1       8.974  -1.435  -7.412  1.00  0.00     0.296 HD
ENDBRANCH  58  60
ENDBRANCH  48  58
ENDBRANCH  46  48
ENDBRANCH  34  44
ENDBRANCH  32  34
ENDBRANCH  25  30
ENDBRANCH  23  25
ENDBRANCH   2  23
TORSDOF 28
ENDMDL
MODEL 7
REMARK VINA RESULT:    -4.989      9.503     16.961
REMARK INTER + INTRA:         -12.399
REMARK INTER:                 -12.665
REMARK INTRA:                   0.267
REMARK UNBOUND:                 0.027
REMARK SMILES CCCCCCC[C@H](N)[C@H](O)C(=O)N[C@H](C)C(=O)N(C)[C@H](CC(C)C)C(=O)N[C@@H](Cc1ccc(O)cc1)C(=O)N[C@@H](Cc1ccc(O)cc1)C(=O)O
REMARK SMILES IDX 18 1 17 2 15 3 16 4 14 5 12 6 13 7 10 9 11 10 8 12 9 13 7 16
REMARK SMILES IDX 6 17 5 18 4 19 3 20 2 21 1 22 19 23 20 24 21 25 22 26 23 27
REMARK SMILES IDX 24 28 25 29 26 30 27 31 28 32 29 34 30 35 31 36 32 37 37 38
REMARK SMILES IDX 33 39 36 40 34 41 35 42 38 44 39 45 40 46 41 48 42 49 43 50
REMARK SMILES IDX 44 51 49 52 45 53 48 54 46 55 47 56 50 58 51 59 52 60
REMARK H PARENT 14 8 11 11 9 14 9 15 28 33 35 43 40 47 47 57 52 61
ROOT
ATOM      1  O   UNL     1      15.258  -9.208   4.515  1.00  0.00    -0.272 OA
ATOM      2  C   UNL     1      14.073  -8.874   4.368  1.00  0.00     0.245 C 
ENDROOT
BRANCH   2   3
ATOM      3  C   UNL     1      13.655  -7.433   4.754  1.00  0.00     0.168 C 
ATOM      4  C   UNL     1      12.183  -7.193   4.438  1.00  0.00     0.041 C 
BRANCH   3   5
ATOM      5  N   UNL     1      13.987  -7.045   6.116  1.00  0.00    -0.342 N 
ATOM      6  C   UNL     1      13.566  -7.778   7.205  1.00  0.00     0.251 C 
ATOM      7  O   UNL     1      12.855  -8.773   7.117  1.00  0.00    -0.272 OA
ATOM      8  H   UNL     1      14.543  -6.217   6.317  1.00  0.00     0.164 HD
BRANCH   6   9
ATOM      9  C   UNL     1      14.152  -7.264   8.530  1.00  0.00     0.219 C 
BRANCH   9  10
ATOM     10  O   UNL     1      13.313  -6.291   9.165  1.00  0.00    -0.382 OA
ATOM     11  H   UNL     1      12.424  -6.474   8.791  1.00  0.00     0.211 HD
ENDBRANCH   9  10
BRANCH   9  12
ATOM     12  C   UNL     1      14.519  -8.403   9.516  1.00  0.00     0.089 C 
BRANCH  12  13
ATOM     13  N   UNL     1      13.271  -9.087   9.926  1.00  0.00    -0.325 NA
ATOM     14  H   UNL     1      13.506  -9.933  10.448  1.00  0.00     0.119 HD
ATOM     15  H   UNL     1      12.784  -9.416   9.089  1.00  0.00     0.119 HD
ENDBRANCH  12  13
BRANCH  12  16
ATOM     16  C   UNL     1      15.548  -9.439   9.003  1.00  0.00     0.022 C 
BRANCH  16  17
ATOM     17  C   UNL     1      15.786 -10.720   9.814  1.00  0.00     0.002 C 
BRANCH  17  18
ATOM     18  C   UNL     1      15.369 -12.012   9.116  1.00  0.00     0.000 C 
BRANCH  18  19
ATOM     19  C   UNL     1      14.315 -11.817   8.018  1.00  0.00    -0.000 C 
BRANCH  19  20
ATOM     20  C   UNL     1      13.055 -12.674   8.166  1.00  0.00    -0.000 C 
BRANCH  20  21
ATOM     21  C   UNL     1      11.787 -11.966   7.680  1.00  0.00    -0.003 C 
ATOM     22  C   UNL     1      10.918 -12.895   6.847  1.00  0.00     0.004 C 
ENDBRANCH  20  21
ENDBRANCH  19  20
ENDBRANCH  18  19
ENDBRANCH  17  18
ENDBRANCH  16  17
ENDBRANCH  12  16
ENDBRANCH   9  12
ENDBRANCH   6   9
ENDBRANCH   3   5
ENDBRANCH   2   3
BRANCH   2  23
ATOM     23  N   UNL     1      13.177  -9.743   3.754  1.00  0.00    -0.332 N 
ATOM     24  C   UNL     1      11.863 -10.083   4.280  1.00  0.00     0.147 C 
BRANCH  23  25
ATOM     25  C   UNL     1      13.474 -10.298   2.405  1.00  0.00     0.174 C 
BRANCH  25  26
ATOM     26  C   UNL     1      14.346 -11.575   2.457  1.00  0.00     0.038 C 
BRANCH  26  27
ATOM     27  C   UNL     1      13.639 -12.889   2.855  1.00  0.00    -0.015 C 
ATOM     28  C   UNL     1      13.731 -13.173   4.354  1.00  0.00     0.007 C 
ATOM     29  C   UNL     1      12.189 -12.966   2.382  1.00  0.00     0.007 C 
ENDBRANCH  26  27
ENDBRANCH  25  26
BRANCH  25  30
ATOM     30  C   UNL     1      14.046  -9.192   1.488  1.00  0.00     0.243 C 
ATOM     31  O   UNL     1      15.248  -9.111   1.241  1.00  0.00    -0.273 OA
ATOM     32  N   UNL     1      13.128  -8.310   0.979  1.00  0.00    -0.342 N 
ATOM     33  H   UNL     1      12.138  -8.526   1.114  1.00  0.00     0.164 HD
BRANCH  32  34
ATOM     34  C   UNL     1      13.493  -7.184   0.115  1.00  0.00     0.175 C 
BRANCH  34  35
ATOM     35  C   UNL     1      13.911  -7.664  -1.283  1.00  0.00     0.070 C 
BRANCH  35  36
ATOM     36  C   UNL     1      12.785  -8.343  -2.030  1.00  0.00    -0.045 A 
ATOM     37  C   UNL     1      11.647  -8.782  -1.335  1.00  0.00     0.007 A 
ATOM     38  C   UNL     1      12.868  -8.563  -3.411  1.00  0.00     0.007 A 
ATOM     39  C   UNL     1      10.609  -9.422  -2.013  1.00  0.00     0.046 A 
ATOM     40  C   UNL     1      11.829  -9.204  -4.090  1.00  0.00     0.046 A 
ATOM     41  C   UNL     1      10.708  -9.627  -3.384  1.00  0.00     0.115 A 
BRANCH  41  42
ATOM     42  O   UNL     1       9.673 -10.258  -4.008  1.00  0.00    -0.508 OA
ATOM     43  H   UNL     1       9.797 -10.171  -4.968  1.00  0.00     0.293 HD
ENDBRANCH  41  42
ENDBRANCH  35  36
ENDBRANCH  34  35
BRANCH  34  44
ATOM     44  C   UNL     1      12.289  -6.216   0.057  1.00  0.00     0.243 C 
ATOM     45  O   UNL     1      11.745  -5.725   1.042  1.00  0.00    -0.273 OA
ATOM     46  N   UNL     1      11.782  -6.047  -1.214  1.00  0.00    -0.341 N 
ATOM     47  H   UNL     1      12.195  -6.568  -1.984  1.00  0.00     0.164 HD
BRANCH  46  48
ATOM     48  C   UNL     1      10.602  -5.231  -1.509  1.00  0.00     0.196 C 
BRANCH  48  49
ATOM     49  C   UNL     1      10.272  -5.245  -3.011  1.00  0.00     0.072 C 
BRANCH  49  50
ATOM     50  C   UNL     1       9.865  -3.885  -3.531  1.00  0.00    -0.045 A 
ATOM     51  C   UNL     1      10.159  -2.735  -2.783  1.00  0.00     0.007 A 
ATOM     52  C   UNL     1       9.177  -3.753  -4.743  1.00  0.00     0.007 A 
ATOM     53  C   UNL     1       9.777  -1.476  -3.246  1.00  0.00     0.046 A 
ATOM     54  C   UNL     1       8.793  -2.492  -5.206  1.00  0.00     0.046 A 
ATOM     55  C   UNL     1       9.098  -1.363  -4.453  1.00  0.00     0.115 A 
BRANCH  55  56
ATOM     56  O   UNL     1       8.740  -0.115  -4.869  1.00  0.00    -0.508 OA
ATOM     57  H   UNL     1       8.806  -0.084  -5.837  1.00  0.00     0.293 HD
ENDBRANCH  55  56
ENDBRANCH  49  50
ENDBRANCH  48  49
BRANCH  48  58
ATOM     58  C   UNL     1       9.407  -5.775  -0.714  1.00  0.00     0.326 C 
ATOM     59  O   UNL     1       8.741  -6.766  -0.967  1.00  0.00    -0.250 OA
BRANCH  58  60
ATOM     60  O   UNL     1       9.111  -5.043   0.389  1.00  0.00    -0.480 OA
ATOM     61  H   UNL     1       8.355  -5.527   0.786  1.00  0.00     0.296 HD
ENDBRANCH  58  60
ENDBRANCH  48  58
ENDBRANCH  46  48
ENDBRANCH  34  44
ENDBRANCH  32  34
ENDBRANCH  25  30
ENDBRANCH  23  25
ENDBRANCH   2  23
TORSDOF 28
ENDMDL
