MODEL 1
REMARK VINA RESULT:    -5.950      0.000      0.000
REMARK INTER + INTRA:         -23.831
REMARK INTER:                 -17.081
REMARK INTRA:                  -6.750
REMARK UNBOUND:                -6.750
REMARK SMILES CCCCCC(=O)N[C@H](CC(=O)O)C(=O)N[C@H]1C(=O)N[C@H](CCCN=C(N)N)C(=O)N[C@@H]2CC[C@H](O)N(C2=O)[C@@H](CC(C)C)C(=O)N(C)[C@@H](Cc2ccccc2)C(=O)N[C@H](C(C)C)C(=O)O[C@@H]1C
REMARK SMILES IDX 30 1 31 2 29 3 32 5 35 6 37 7 34 8 38 9 33 10 39 11 36 12
REMARK SMILES IDX 40 14 41 15 42 16 43 17 44 18 45 19 46 20 47 21 48 22 49 23
REMARK SMILES IDX 50 24 51 25 52 26 56 27 53 28 55 29 54 30 57 31 58 32 59 33
REMARK SMILES IDX 60 35 61 36 62 37 63 38 64 39 65 40 66 41 67 42 68 43 21 45
REMARK SMILES IDX 20 46 18 47 19 48 17 50 16 52 14 53 15 54 9 56 8 57 6 58
REMARK SMILES IDX 7 59 5 61 4 62 3 63 2 64 1 65 10 66 11 67 12 68 13 69 22 71
REMARK SMILES IDX 23 72 24 73 25 74 26 75 27 76 28 77
REMARK H PARENT 31 4 36 13 59 34 20 49 16 55 8 60 13 70 27 78 27 79 28 80
REMARK H PARENT 28 81
REMARK Flexibility Score:  259.900
ROOT
ATOM      1  O   UNL     1     -13.228 -12.008   1.864  1.00  0.00    -0.273 OA
ATOM      2  N   UNL     1     -13.471 -13.598   0.238  1.00  0.00    -0.343 N 
ATOM      3  C   UNL     1     -13.253 -12.307   0.670  1.00  0.00     0.243 C 
ATOM      4  H   UNL     1     -13.470 -13.810  -0.752  1.00  0.00     0.164 HD
ENDROOT
BRANCH   2   5
ATOM      5  C   UNL     1     -13.803 -14.653   1.189  1.00  0.00     0.171 C 
ATOM      6  C   UNL     1     -14.065 -14.684   4.076  1.00  0.00     0.214 C 
ATOM      7  N   UNL     1     -12.786 -14.987   3.476  1.00  0.00    -0.303 N 
ATOM      8  C   UNL     1     -15.247 -15.075   3.204  1.00  0.00     0.057 C 
ATOM      9  C   UNL     1     -12.580 -14.941   2.106  1.00  0.00     0.247 C 
ATOM     10  C   UNL     1     -15.147 -14.381   1.863  1.00  0.00     0.040 C 
ATOM     11  O   UNL     1     -11.461 -15.117   1.605  1.00  0.00    -0.272 OA
BRANCH   6  12
ATOM     12  O   UNL     1     -14.093 -13.304   4.354  1.00  0.00    -0.373 OA
ATOM     13  H   UNL     1     -14.636 -13.184   5.162  1.00  0.00     0.213 HD
ENDBRANCH   6  12
BRANCH   7  14
ATOM     14  C   UNL     1     -11.650 -15.210   4.394  1.00  0.00     0.177 C 
BRANCH  14  15
ATOM     15  C   UNL     1     -11.763 -14.508   5.761  1.00  0.00     0.038 C 
BRANCH  15  16
ATOM     16  C   UNL     1     -10.836 -14.940   6.918  1.00  0.00    -0.015 C 
ATOM     17  C   UNL     1     -11.575 -15.025   8.258  1.00  0.00     0.007 C 
ATOM     18  C   UNL     1      -9.687 -13.935   7.066  1.00  0.00     0.007 C 
ENDBRANCH  15  16
ENDBRANCH  14  15
BRANCH  14  19
ATOM     19  C   UNL     1     -11.026 -16.628   4.152  1.00  0.00     0.245 C 
ATOM     20  O   UNL     1     -11.690 -17.605   4.537  1.00  0.00    -0.272 OA
BRANCH  19  21
ATOM     21  N   UNL     1      -9.754 -16.834   3.647  1.00  0.00    -0.332 N 
ATOM     22  C   UNL     1      -9.422 -17.698   2.528  1.00  0.00     0.147 C 
BRANCH  21  23
ATOM     23  C   UNL     1      -8.621 -16.127   4.305  1.00  0.00     0.178 C 
BRANCH  23  24
ATOM     24  C   UNL     1      -7.588 -17.051   4.981  1.00  0.00     0.070 C 
BRANCH  24  25
ATOM     25  C   UNL     1      -7.615 -17.125   6.490  1.00  0.00    -0.045 A 
ATOM     26  C   UNL     1      -8.660 -17.776   7.158  1.00  0.00     0.004 A 
ATOM     27  C   UNL     1      -6.590 -16.537   7.246  1.00  0.00     0.004 A 
ATOM     28  C   UNL     1      -8.687 -17.826   8.553  1.00  0.00     0.000 A 
ATOM     29  C   UNL     1      -6.617 -16.588   8.640  1.00  0.00     0.000 A 
ATOM     30  C   UNL     1      -7.667 -17.230   9.293  1.00  0.00     0.000 A 
ENDBRANCH  24  25
ENDBRANCH  23  24
BRANCH  23  31
ATOM     31  C   UNL     1      -8.016 -15.007   3.424  1.00  0.00     0.243 C 
ATOM     32  O   UNL     1      -7.020 -15.150   2.720  1.00  0.00    -0.273 OA
ATOM     33  N   UNL     1      -8.588 -13.765   3.639  1.00  0.00    -0.341 N 
ATOM     34  H   UNL     1      -9.413 -13.708   4.241  1.00  0.00     0.164 HD
BRANCH  33  35
ATOM     35  C   UNL     1      -8.096 -12.539   3.004  1.00  0.00     0.194 C 
BRANCH  35  36
ATOM     36  C   UNL     1      -7.505 -11.501   4.000  1.00  0.00     0.017 C 
ATOM     37  C   UNL     1      -8.597 -10.918   4.913  1.00  0.00     0.010 C 
ATOM     38  C   UNL     1      -6.812 -10.323   3.304  1.00  0.00     0.010 C 
ENDBRANCH  35  36
BRANCH  35  39
ATOM     39  C   UNL     1      -9.143 -11.898   2.051  1.00  0.00     0.329 C 
ATOM     40  O   UNL     1     -10.304 -11.663   2.365  1.00  0.00    -0.250 OA
BRANCH  39  41
ATOM     41  O   UNL     1      -8.601 -11.543   0.846  1.00  0.00    -0.458 OA
BRANCH  41  42
ATOM     42  C   UNL     1      -8.856 -12.441  -0.260  1.00  0.00     0.205 CG0
ATOM     43  C   UNL     1      -7.559 -13.200  -0.537  1.00  0.00     0.056 C 
ATOM     44  G   UNL     1      -9.322 -11.609  -1.472  1.00  0.00     0.000 G0
ENDBRANCH  41  42
ENDBRANCH  39  41
ENDBRANCH  35  39
ENDBRANCH  33  35
ENDBRANCH  23  31
ENDBRANCH  21  23
ENDBRANCH  19  21
ENDBRANCH  14  19
ENDBRANCH   7  14
ENDBRANCH   2   5
BRANCH   3  45
ATOM     45  C   UNL     1     -13.022 -11.273  -0.440  1.00  0.00     0.171 C 
BRANCH  45  46
ATOM     46  N   UNL     1     -11.576 -11.136  -0.556  1.00  0.00    -0.342 N 
ATOM     47  C   UNL     1     -10.856 -11.748  -1.551  1.00  0.00     0.247 C 
ATOM     48  O   UNL     1     -11.383 -12.394  -2.457  1.00  0.00    -0.273 OA
ATOM     49  H   UNL     1     -11.105 -10.563   0.142  1.00  0.00     0.164 HD
BRANCH  47  50
ATOM     50  C   UNL     1      -9.333 -11.593  -1.440  1.00  0.00     0.212 CG0
ATOM     51  G   UNL     1      -8.859 -12.459  -0.256  1.00  0.00     0.000 G0
BRANCH  50  52
ATOM     52  N   UNL     1      -8.801 -12.035  -2.727  1.00  0.00    -0.339 N 
ATOM     53  C   UNL     1      -8.385 -11.170  -3.709  1.00  0.00     0.243 C 
ATOM     54  O   UNL     1      -8.477  -9.950  -3.601  1.00  0.00    -0.273 OA
ATOM     55  H   UNL     1      -8.803 -13.034  -2.921  1.00  0.00     0.164 HD
BRANCH  53  56
ATOM     56  C   UNL     1      -7.944 -11.866  -5.013  1.00  0.00     0.182 C 
BRANCH  56  57
ATOM     57  N   UNL     1      -9.007 -11.815  -6.022  1.00  0.00    -0.344 N 
ATOM     58  C   UNL     1      -8.848 -11.175  -7.227  1.00  0.00     0.220 C 
ATOM     59  O   UNL     1      -7.838 -10.542  -7.513  1.00  0.00    -0.275 OA
ATOM     60  H   UNL     1      -9.817 -12.410  -5.868  1.00  0.00     0.164 HD
BRANCH  58  61
ATOM     61  C   UNL     1     -10.055 -11.300  -8.138  1.00  0.00     0.100 C 
BRANCH  61  62
ATOM     62  C   UNL     1     -11.375 -10.917  -7.469  1.00  0.00     0.010 C 
BRANCH  62  63
ATOM     63  C   UNL     1     -12.617 -11.203  -8.322  1.00  0.00     0.000 C 
BRANCH  63  64
ATOM     64  C   UNL     1     -13.202 -12.601  -8.129  1.00  0.00    -0.003 C 
ATOM     65  C   UNL     1     -14.696 -12.543  -7.844  1.00  0.00     0.004 C 
ENDBRANCH  63  64
ENDBRANCH  62  63
ENDBRANCH  61  62
ENDBRANCH  58  61
ENDBRANCH  56  57
BRANCH  56  66
ATOM     66  C   UNL     1      -7.466 -13.293  -4.751  1.00  0.00     0.157 C 
BRANCH  66  67
ATOM     67  C   UNL     1      -8.463 -14.301  -5.247  1.00  0.00     0.305 C 
ATOM     68  O   UNL     1      -9.541 -14.575  -4.742  1.00  0.00    -0.252 OA
BRANCH  67  69
ATOM     69  O   UNL     1      -8.073 -14.883  -6.397  1.00  0.00    -0.481 OA
ATOM     70  H   UNL     1      -7.683 -15.740  -6.123  1.00  0.00     0.296 HD
ENDBRANCH  67  69
ENDBRANCH  66  67
ENDBRANCH  56  66
ENDBRANCH  53  56
ENDBRANCH  50  52
ENDBRANCH  47  50
ENDBRANCH  45  46
BRANCH  45  71
ATOM     71  C   UNL     1     -13.689  -9.942  -0.076  1.00  0.00     0.037 C 
BRANCH  71  72
ATOM     72  C   UNL     1     -15.215 -10.051  -0.050  1.00  0.00     0.026 C 
BRANCH  72  73
ATOM     73  C   UNL     1     -15.791  -9.538   1.269  1.00  0.00     0.146 C 
BRANCH  73  74
ATOM     74  N   UNL     1     -16.731 -10.538   1.766  1.00  0.00    -0.254 NA
ATOM     75  C   UNL     1     -16.497 -11.062   2.912  1.00  0.00     0.185 C 
ATOM     76  N   UNL     1     -17.344 -11.984   3.397  1.00  0.00    -0.370 N 
ATOM     77  N   UNL     1     -15.481 -10.823   3.760  1.00  0.00    -0.370 N 
ATOM     78  H   UNL     1     -18.135 -12.229   2.818  1.00  0.00     0.159 HD
ATOM     79  H   UNL     1     -17.152 -12.539   4.213  1.00  0.00     0.159 HD
ATOM     80  H   UNL     1     -14.768 -10.148   3.528  1.00  0.00     0.159 HD
ATOM     81  H   UNL     1     -15.464 -11.212   4.688  1.00  0.00     0.159 HD
ENDBRANCH  73  74
ENDBRANCH  72  73
ENDBRANCH  71  72
ENDBRANCH  45  71
ENDBRANCH   3  45
TORSDOF 20
ENDMDL
MODEL 2
REMARK VINA RESULT:    -5.909      2.176      3.301
REMARK INTER + INTRA:         -23.714
REMARK INTER:                 -17.241
REMARK INTRA:                  -6.473
REMARK UNBOUND:                -6.750
REMARK SMILES CCCCCC(=O)N[C@H](CC(=O)O)C(=O)N[C@H]1C(=O)N[C@H](CCCN=C(N)N)C(=O)N[C@@H]2CC[C@H](O)N(C2=O)[C@@H](CC(C)C)C(=O)N(C)[C@@H](Cc2ccccc2)C(=O)N[C@H](C(C)C)C(=O)O[C@@H]1C
REMARK SMILES IDX 30 1 31 2 29 3 32 5 35 6 37 7 34 8 38 9 33 10 39 11 36 12
REMARK SMILES IDX 40 14 41 15 42 16 43 17 44 18 45 19 46 20 47 21 48 22 49 23
REMARK SMILES IDX 50 24 51 25 52 26 56 27 53 28 55 29 54 30 57 31 58 32 59 33
REMARK SMILES IDX 60 35 61 36 62 37 63 38 64 39 65 40 66 41 67 42 68 43 21 45
REMARK SMILES IDX 20 46 18 47 19 48 17 50 16 52 14 53 15 54 9 56 8 57 6 58
REMARK SMILES IDX 7 59 5 61 4 62 3 63 2 64 1 65 10 66 11 67 12 68 13 69 22 71
REMARK SMILES IDX 23 72 24 73 25 74 26 75 27 76 28 77
REMARK H PARENT 31 4 36 13 59 34 20 49 16 55 8 60 13 70 27 78 27 79 28 80
REMARK H PARENT 28 81
REMARK Flexibility Score:  259.900
ROOT
ATOM      1  O   UNL     1     -12.247 -14.920   1.458  1.00  0.00    -0.273 OA
ATOM      2  N   UNL     1     -13.769 -13.490   2.390  1.00  0.00    -0.343 N 
ATOM      3  C   UNL     1     -12.940 -13.906   1.371  1.00  0.00     0.243 C 
ATOM      4  H   UNL     1     -14.336 -12.659   2.277  1.00  0.00     0.164 HD
ENDROOT
BRANCH   2   5
ATOM      5  C   UNL     1     -13.767 -14.179   3.676  1.00  0.00     0.171 C 
ATOM      6  C   UNL     1     -14.769 -13.448   6.297  1.00  0.00     0.214 C 
ATOM      7  N   UNL     1     -13.407 -13.126   5.942  1.00  0.00    -0.303 N 
ATOM      8  C   UNL     1     -15.290 -14.700   5.608  1.00  0.00     0.057 C 
ATOM      9  C   UNL     1     -12.881 -13.400   4.690  1.00  0.00     0.247 C 
ATOM     10  C   UNL     1     -15.188 -14.539   4.107  1.00  0.00     0.040 C 
ATOM     11  O   UNL     1     -11.741 -13.043   4.365  1.00  0.00    -0.272 OA
BRANCH   6  12
ATOM     12  O   UNL     1     -15.573 -12.338   5.973  1.00  0.00    -0.373 OA
ATOM     13  H   UNL     1     -15.537 -11.724   6.737  1.00  0.00     0.213 HD
ENDBRANCH   6  12
BRANCH   7  14
ATOM     14  C   UNL     1     -12.624 -12.348   6.926  1.00  0.00     0.177 C 
BRANCH  14  15
ATOM     15  C   UNL     1     -13.451 -11.417   7.834  1.00  0.00     0.038 C 
BRANCH  15  16
ATOM     16  C   UNL     1     -13.309  -9.886   7.685  1.00  0.00    -0.015 C 
ATOM     17  C   UNL     1     -13.817  -9.130   8.916  1.00  0.00     0.007 C 
ATOM     18  C   UNL     1     -14.106  -9.408   6.465  1.00  0.00     0.007 C 
ENDBRANCH  15  16
ENDBRANCH  14  15
BRANCH  14  19
ATOM     19  C   UNL     1     -11.354 -13.154   7.369  1.00  0.00     0.245 C 
ATOM     20  O   UNL     1     -10.307 -12.505   7.526  1.00  0.00    -0.272 OA
BRANCH  19  21
ATOM     21  N   UNL     1     -11.316 -14.532   7.480  1.00  0.00    -0.332 N 
ATOM     22  C   UNL     1     -12.356 -15.360   8.064  1.00  0.00     0.147 C 
BRANCH  21  23
ATOM     23  C   UNL     1     -10.107 -15.238   6.973  1.00  0.00     0.178 C 
BRANCH  23  24
ATOM     24  C   UNL     1      -9.739 -16.524   7.741  1.00  0.00     0.070 C 
BRANCH  24  25
ATOM     25  C   UNL     1      -8.492 -17.255   7.303  1.00  0.00    -0.045 A 
ATOM     26  C   UNL     1      -7.221 -16.763   7.625  1.00  0.00     0.004 A 
ATOM     27  C   UNL     1      -8.591 -18.440   6.558  1.00  0.00     0.004 A 
ATOM     28  C   UNL     1      -6.072 -17.435   7.202  1.00  0.00     0.000 A 
ATOM     29  C   UNL     1      -7.442 -19.111   6.137  1.00  0.00     0.000 A 
ATOM     30  C   UNL     1      -6.184 -18.607   6.456  1.00  0.00     0.000 A 
ENDBRANCH  24  25
ENDBRANCH  23  24
BRANCH  23  31
ATOM     31  C   UNL     1     -10.090 -15.373   5.431  1.00  0.00     0.243 C 
ATOM     32  O   UNL     1     -10.785 -16.167   4.803  1.00  0.00    -0.273 OA
ATOM     33  N   UNL     1      -9.080 -14.646   4.824  1.00  0.00    -0.341 N 
ATOM     34  H   UNL     1      -8.529 -14.005   5.400  1.00  0.00     0.164 HD
BRANCH  33  35
ATOM     35  C   UNL     1      -8.799 -14.715   3.387  1.00  0.00     0.194 C 
BRANCH  35  36
ATOM     36  C   UNL     1      -7.698 -15.743   3.004  1.00  0.00     0.017 C 
ATOM     37  C   UNL     1      -8.267 -17.170   2.929  1.00  0.00     0.010 C 
ATOM     38  C   UNL     1      -6.525 -15.768   3.992  1.00  0.00     0.010 C 
ENDBRANCH  35  36
BRANCH  35  39
ATOM     39  C   UNL     1      -8.531 -13.317   2.762  1.00  0.00     0.329 C 
ATOM     40  O   UNL     1      -7.737 -12.502   3.219  1.00  0.00    -0.250 OA
BRANCH  39  41
ATOM     41  O   UNL     1      -9.215 -13.129   1.594  1.00  0.00    -0.458 OA
BRANCH  41  42
ATOM     42  C   UNL     1      -8.501 -13.446   0.375  1.00  0.00     0.205 CG0
ATOM     43  C   UNL     1      -7.086 -12.889   0.519  1.00  0.00     0.056 C 
ATOM     44  G   UNL     1      -9.260 -12.825  -0.815  1.00  0.00     0.000 G0
ENDBRANCH  41  42
ENDBRANCH  39  41
ENDBRANCH  35  39
ENDBRANCH  33  35
ENDBRANCH  23  31
ENDBRANCH  21  23
ENDBRANCH  19  21
ENDBRANCH  14  19
ENDBRANCH   7  14
ENDBRANCH   2   5
BRANCH   3  45
ATOM     45  C   UNL     1     -12.958 -13.031   0.111  1.00  0.00     0.171 C 
BRANCH  45  46
ATOM     46  N   UNL     1     -11.578 -12.615  -0.100  1.00  0.00    -0.342 N 
ATOM     47  C   UNL     1     -10.689 -13.357  -0.836  1.00  0.00     0.247 C 
ATOM     48  O   UNL     1     -11.010 -14.386  -1.432  1.00  0.00    -0.273 OA
ATOM     49  H   UNL     1     -11.285 -11.739   0.329  1.00  0.00     0.164 HD
BRANCH  47  50
ATOM     50  C   UNL     1      -9.249 -12.826  -0.845  1.00  0.00     0.212 CG0
ATOM     51  G   UNL     1      -8.522 -13.427   0.375  1.00  0.00     0.000 G0
BRANCH  50  52
ATOM     52  N   UNL     1      -8.684 -13.253  -2.122  1.00  0.00    -0.339 N 
ATOM     53  C   UNL     1      -8.481 -12.403  -3.181  1.00  0.00     0.243 C 
ATOM     54  O   UNL     1      -8.811 -11.220  -3.153  1.00  0.00    -0.273 OA
ATOM     55  H   UNL     1      -8.492 -14.246  -2.246  1.00  0.00     0.164 HD
BRANCH  53  56
ATOM     56  C   UNL     1      -7.954 -13.098  -4.453  1.00  0.00     0.182 C 
BRANCH  56  57
ATOM     57  N   UNL     1      -8.899 -12.948  -5.564  1.00  0.00    -0.344 N 
ATOM     58  C   UNL     1      -8.537 -13.160  -6.872  1.00  0.00     0.220 C 
ATOM     59  O   UNL     1      -7.386 -13.416  -7.208  1.00  0.00    -0.275 OA
ATOM     60  H   UNL     1      -9.880 -12.838  -5.323  1.00  0.00     0.164 HD
BRANCH  58  61
ATOM     61  C   UNL     1      -9.689 -13.006  -7.848  1.00  0.00     0.100 C 
BRANCH  61  62
ATOM     62  C   UNL     1     -10.118 -11.556  -8.071  1.00  0.00     0.010 C 
BRANCH  62  63
ATOM     63  C   UNL     1     -11.602 -11.290  -7.786  1.00  0.00     0.000 C 
BRANCH  63  64
ATOM     64  C   UNL     1     -12.502 -12.511  -7.963  1.00  0.00    -0.003 C 
ATOM     65  C   UNL     1     -13.935 -12.210  -7.547  1.00  0.00     0.004 C 
ENDBRANCH  63  64
ENDBRANCH  62  63
ENDBRANCH  61  62
ENDBRANCH  58  61
ENDBRANCH  56  57
BRANCH  56  66
ATOM     66  C   UNL     1      -7.604 -14.561  -4.187  1.00  0.00     0.157 C 
BRANCH  66  67
ATOM     67  C   UNL     1      -8.793 -15.453  -4.401  1.00  0.00     0.305 C 
ATOM     68  O   UNL     1      -9.176 -15.922  -5.462  1.00  0.00    -0.252 OA
BRANCH  67  69
ATOM     69  O   UNL     1      -9.420 -15.755  -3.248  1.00  0.00    -0.481 OA
ATOM     70  H   UNL     1     -10.371 -15.606  -3.433  1.00  0.00     0.296 HD
ENDBRANCH  67  69
ENDBRANCH  66  67
ENDBRANCH  56  66
ENDBRANCH  53  56
ENDBRANCH  50  52
ENDBRANCH  47  50
ENDBRANCH  45  46
BRANCH  45  71
ATOM     71  C   UNL     1     -13.887 -11.828   0.310  1.00  0.00     0.037 C 
BRANCH  71  72
ATOM     72  C   UNL     1     -13.321 -10.553  -0.320  1.00  0.00     0.026 C 
BRANCH  72  73
ATOM     73  C   UNL     1     -12.948  -9.521   0.742  1.00  0.00     0.146 C 
BRANCH  73  74
ATOM     74  N   UNL     1     -11.628  -9.868   1.258  1.00  0.00    -0.254 NA
ATOM     75  C   UNL     1     -11.534 -10.188   2.496  1.00  0.00     0.185 C 
ATOM     76  N   UNL     1     -10.332 -10.514   3.000  1.00  0.00    -0.370 N 
ATOM     77  N   UNL     1     -12.501 -10.256   3.427  1.00  0.00    -0.370 N 
ATOM     78  H   UNL     1      -9.546 -10.481   2.366  1.00  0.00     0.159 HD
ATOM     79  H   UNL     1     -10.158 -10.633   3.982  1.00  0.00     0.159 HD
ATOM     80  H   UNL     1     -13.458 -10.042   3.190  1.00  0.00     0.159 HD
ATOM     81  H   UNL     1     -12.326 -10.633   4.344  1.00  0.00     0.159 HD
ENDBRANCH  73  74
ENDBRANCH  72  73
ENDBRANCH  71  72
ENDBRANCH  45  71
ENDBRANCH   3  45
TORSDOF 20
ENDMDL
MODEL 3
REMARK VINA RESULT:    -5.880      3.306      9.253
REMARK INTER + INTRA:         -23.631
REMARK INTER:                 -19.611
REMARK INTRA:                  -4.019
REMARK UNBOUND:                -6.750
REMARK SMILES CCCCCC(=O)N[C@H](CC(=O)O)C(=O)N[C@H]1C(=O)N[C@H](CCCN=C(N)N)C(=O)N[C@@H]2CC[C@H](O)N(C2=O)[C@@H](CC(C)C)C(=O)N(C)[C@@H](Cc2ccccc2)C(=O)N[C@H](C(C)C)C(=O)O[C@@H]1C
REMARK SMILES IDX 30 1 31 2 29 3 32 5 35 6 37 7 34 8 38 9 33 10 39 11 36 12
REMARK SMILES IDX 40 14 41 15 42 16 43 17 44 18 45 19 46 20 47 21 48 22 49 23
REMARK SMILES IDX 50 24 51 25 52 26 56 27 53 28 55 29 54 30 57 31 58 32 59 33
REMARK SMILES IDX 60 35 61 36 62 37 63 38 64 39 65 40 66 41 67 42 68 43 21 45
REMARK SMILES IDX 20 46 18 47 19 48 17 50 16 52 14 53 15 54 9 56 8 57 6 58
REMARK SMILES IDX 7 59 5 61 4 62 3 63 2 64 1 65 10 66 11 67 12 68 13 69 22 71
REMARK SMILES IDX 23 72 24 73 25 74 26 75 27 76 28 77
REMARK H PARENT 31 4 36 13 59 34 20 49 16 55 8 60 13 70 27 78 27 79 28 80
REMARK H PARENT 28 81
REMARK Flexibility Score:  259.900
ROOT
ATOM      1  O   UNL     1     -12.444 -10.863   0.349  1.00  0.00    -0.273 OA
ATOM      2  N   UNL     1     -13.164 -13.017   0.616  1.00  0.00    -0.343 N 
ATOM      3  C   UNL     1     -12.239 -12.071   0.229  1.00  0.00     0.243 C 
ATOM      4  H   UNL     1     -12.956 -14.003   0.516  1.00  0.00     0.164 HD
ENDROOT
BRANCH   2   5
ATOM      5  C   UNL     1     -14.487 -12.615   1.081  1.00  0.00     0.171 C 
ATOM      6  C   UNL     1     -15.740 -10.025   1.441  1.00  0.00     0.214 C 
ATOM      7  N   UNL     1     -15.025 -10.628   2.542  1.00  0.00    -0.303 N 
ATOM      8  C   UNL     1     -16.361 -11.043   0.497  1.00  0.00     0.057 C 
ATOM      9  C   UNL     1     -14.362 -11.838   2.423  1.00  0.00     0.247 C 
ATOM     10  C   UNL     1     -15.288 -11.962  -0.045  1.00  0.00     0.040 C 
ATOM     11  O   UNL     1     -13.680 -12.306   3.344  1.00  0.00    -0.272 OA
BRANCH   6  12
ATOM     12  O   UNL     1     -14.838  -9.196   0.745  1.00  0.00    -0.373 OA
ATOM     13  H   UNL     1     -14.226  -8.815   1.410  1.00  0.00     0.213 HD
ENDBRANCH   6  12
BRANCH   7  14
ATOM     14  C   UNL     1     -14.901  -9.828   3.779  1.00  0.00     0.177 C 
BRANCH  14  15
ATOM     15  C   UNL     1     -14.671  -8.319   3.564  1.00  0.00     0.038 C 
BRANCH  15  16
ATOM     16  C   UNL     1     -15.858  -7.341   3.699  1.00  0.00    -0.015 C 
ATOM     17  C   UNL     1     -15.984  -6.404   2.494  1.00  0.00     0.007 C 
ATOM     18  C   UNL     1     -15.683  -6.483   4.959  1.00  0.00     0.007 C 
ENDBRANCH  15  16
ENDBRANCH  14  15
BRANCH  14  19
ATOM     19  C   UNL     1     -15.766 -10.459   4.924  1.00  0.00     0.245 C 
ATOM     20  O   UNL     1     -16.966 -10.139   4.959  1.00  0.00    -0.272 OA
BRANCH  19  21
ATOM     21  N   UNL     1     -15.247 -11.245   5.938  1.00  0.00    -0.332 N 
ATOM     22  C   UNL     1     -15.457 -12.674   6.087  1.00  0.00     0.147 C 
BRANCH  21  23
ATOM     23  C   UNL     1     -14.412 -10.580   6.975  1.00  0.00     0.178 C 
BRANCH  23  24
ATOM     24  C   UNL     1     -15.209  -9.835   8.066  1.00  0.00     0.070 C 
BRANCH  24  25
ATOM     25  C   UNL     1     -14.716  -8.462   8.462  1.00  0.00    -0.045 A 
ATOM     26  C   UNL     1     -13.866  -7.734   7.619  1.00  0.00     0.004 A 
ATOM     27  C   UNL     1     -15.101  -7.898   9.687  1.00  0.00     0.004 A 
ATOM     28  C   UNL     1     -13.401  -6.474   8.000  1.00  0.00     0.000 A 
ATOM     29  C   UNL     1     -14.637  -6.638  10.066  1.00  0.00     0.000 A 
ATOM     30  C   UNL     1     -13.785  -5.928   9.223  1.00  0.00     0.000 A 
ENDBRANCH  24  25
ENDBRANCH  23  24
BRANCH  23  31
ATOM     31  C   UNL     1     -13.273 -11.484   7.504  1.00  0.00     0.243 C 
ATOM     32  O   UNL     1     -12.997 -11.616   8.694  1.00  0.00    -0.273 OA
ATOM     33  N   UNL     1     -12.462 -11.994   6.504  1.00  0.00    -0.341 N 
ATOM     34  H   UNL     1     -12.741 -11.845   5.531  1.00  0.00     0.164 HD
BRANCH  33  35
ATOM     35  C   UNL     1     -11.254 -12.777   6.777  1.00  0.00     0.194 C 
BRANCH  35  36
ATOM     36  C   UNL     1     -10.002 -11.918   7.111  1.00  0.00     0.017 C 
ATOM     37  C   UNL     1      -9.222 -12.506   8.299  1.00  0.00     0.010 C 
ATOM     38  C   UNL     1     -10.342 -10.464   7.459  1.00  0.00     0.010 C 
ENDBRANCH  35  36
BRANCH  35  39
ATOM     39  C   UNL     1     -10.959 -13.826   5.668  1.00  0.00     0.329 C 
ATOM     40  O   UNL     1     -10.794 -15.022   5.881  1.00  0.00    -0.250 OA
BRANCH  39  41
ATOM     41  O   UNL     1     -10.991 -13.281   4.414  1.00  0.00    -0.458 OA
BRANCH  41  42
ATOM     42  C   UNL     1      -9.752 -12.709   3.933  1.00  0.00     0.205 CG0
ATOM     43  C   UNL     1     -10.080 -11.331   3.360  1.00  0.00     0.056 C 
ATOM     44  G   UNL     1      -9.149 -13.657   2.878  1.00  0.00     0.000 G0
ENDBRANCH  41  42
ENDBRANCH  39  41
ENDBRANCH  35  39
ENDBRANCH  33  35
ENDBRANCH  23  31
ENDBRANCH  21  23
ENDBRANCH  19  21
ENDBRANCH  14  19
ENDBRANCH   7  14
ENDBRANCH   2   5
BRANCH   3  45
ATOM     45  C   UNL     1     -10.929 -12.629  -0.343  1.00  0.00     0.171 C 
BRANCH  45  46
ATOM     46  N   UNL     1     -10.022 -12.743   0.791  1.00  0.00    -0.342 N 
ATOM     47  C   UNL     1     -10.064 -13.799   1.666  1.00  0.00     0.247 C 
ATOM     48  O   UNL     1     -10.819 -14.761   1.516  1.00  0.00    -0.273 OA
ATOM     49  H   UNL     1      -9.342 -11.995   0.920  1.00  0.00     0.164 HD
BRANCH  47  50
ATOM     50  C   UNL     1      -9.118 -13.686   2.869  1.00  0.00     0.212 CG0
ATOM     51  G   UNL     1      -9.763 -12.721   3.883  1.00  0.00     0.000 G0
BRANCH  50  52
ATOM     52  N   UNL     1      -8.972 -15.047   3.379  1.00  0.00    -0.339 N 
ATOM     53  C   UNL     1      -7.846 -15.810   3.186  1.00  0.00     0.243 C 
ATOM     54  O   UNL     1      -6.891 -15.423   2.518  1.00  0.00    -0.273 OA
ATOM     55  H   UNL     1      -9.774 -15.465   3.846  1.00  0.00     0.164 HD
BRANCH  53  56
ATOM     56  C   UNL     1      -7.957 -17.244   3.741  1.00  0.00     0.182 C 
BRANCH  56  57
ATOM     57  N   UNL     1      -7.697 -17.271   5.184  1.00  0.00    -0.344 N 
ATOM     58  C   UNL     1      -8.603 -17.774   6.086  1.00  0.00     0.220 C 
ATOM     59  O   UNL     1      -9.717 -18.166   5.759  1.00  0.00    -0.275 OA
ATOM     60  H   UNL     1      -6.751 -17.052   5.486  1.00  0.00     0.164 HD
BRANCH  58  61
ATOM     61  C   UNL     1      -8.099 -17.755   7.518  1.00  0.00     0.100 C 
BRANCH  61  62
ATOM     62  C   UNL     1      -8.033 -16.356   8.130  1.00  0.00     0.010 C 
BRANCH  62  63
ATOM     63  C   UNL     1      -6.619 -15.909   8.522  1.00  0.00     0.000 C 
BRANCH  63  64
ATOM     64  C   UNL     1      -6.487 -15.449   9.973  1.00  0.00    -0.003 C 
ATOM     65  C   UNL     1      -6.375 -13.934  10.068  1.00  0.00     0.004 C 
ENDBRANCH  63  64
ENDBRANCH  62  63
ENDBRANCH  61  62
ENDBRANCH  58  61
ENDBRANCH  56  57
BRANCH  56  66
ATOM     66  C   UNL     1      -7.058 -18.213   2.975  1.00  0.00     0.157 C 
BRANCH  66  67
ATOM     67  C   UNL     1      -7.842 -19.381   2.449  1.00  0.00     0.305 C 
ATOM     68  O   UNL     1      -7.657 -19.973   1.397  1.00  0.00    -0.252 OA
BRANCH  67  69
ATOM     69  O   UNL     1      -8.797 -19.785   3.308  1.00  0.00    -0.481 OA
ATOM     70  H   UNL     1      -8.415 -19.630   4.198  1.00  0.00     0.296 HD
ENDBRANCH  67  69
ENDBRANCH  66  67
ENDBRANCH  56  66
ENDBRANCH  53  56
ENDBRANCH  50  52
ENDBRANCH  47  50
ENDBRANCH  45  46
BRANCH  45  71
ATOM     71  C   UNL     1     -10.374 -11.691  -1.420  1.00  0.00     0.037 C 
BRANCH  71  72
ATOM     72  C   UNL     1      -9.335 -12.382  -2.306  1.00  0.00     0.026 C 
BRANCH  72  73
ATOM     73  C   UNL     1      -8.959 -11.518  -3.508  1.00  0.00     0.146 C 
BRANCH  73  74
ATOM     74  N   UNL     1      -8.754 -12.404  -4.649  1.00  0.00    -0.254 NA
ATOM     75  C   UNL     1      -9.741 -12.597  -5.443  1.00  0.00     0.185 C 
ATOM     76  N   UNL     1      -9.583 -13.406  -6.503  1.00  0.00    -0.370 N 
ATOM     77  N   UNL     1     -10.985 -12.090  -5.384  1.00  0.00    -0.370 N 
ATOM     78  H   UNL     1      -8.676 -13.837  -6.618  1.00  0.00     0.159 HD
ATOM     79  H   UNL     1     -10.343 -13.717  -7.081  1.00  0.00     0.159 HD
ATOM     80  H   UNL     1     -11.248 -11.460  -4.641  1.00  0.00     0.159 HD
ATOM     81  H   UNL     1     -11.646 -12.222  -6.132  1.00  0.00     0.159 HD
ENDBRANCH  73  74
ENDBRANCH  72  73
ENDBRANCH  71  72
ENDBRANCH  45  71
ENDBRANCH   3  45
TORSDOF 20
ENDMDL
MODEL 4
REMARK VINA RESULT:    -5.852      3.273      8.955
REMARK INTER + INTRA:         -23.551
REMARK INTER:                 -18.015
REMARK INTRA:                  -5.536
REMARK UNBOUND:                -6.750
REMARK SMILES CCCCCC(=O)N[C@H](CC(=O)O)C(=O)N[C@H]1C(=O)N[C@H](CCCN=C(N)N)C(=O)N[C@@H]2CC[C@H](O)N(C2=O)[C@@H](CC(C)C)C(=O)N(C)[C@@H](Cc2ccccc2)C(=O)N[C@H](C(C)C)C(=O)O[C@@H]1C
REMARK SMILES IDX 30 1 31 2 29 3 32 5 35 6 37 7 34 8 38 9 33 10 39 11 36 12
REMARK SMILES IDX 40 14 41 15 42 16 43 17 44 18 45 19 46 20 47 21 48 22 49 23
REMARK SMILES IDX 50 24 51 25 52 26 56 27 53 28 55 29 54 30 57 31 58 32 59 33
REMARK SMILES IDX 60 35 61 36 62 37 63 38 64 39 65 40 66 41 67 42 68 43 21 45
REMARK SMILES IDX 20 46 18 47 19 48 17 50 16 52 14 53 15 54 9 56 8 57 6 58
REMARK SMILES IDX 7 59 5 61 4 62 3 63 2 64 1 65 10 66 11 67 12 68 13 69 22 71
REMARK SMILES IDX 23 72 24 73 25 74 26 75 27 76 28 77
REMARK H PARENT 31 4 36 13 59 34 20 49 16 55 8 60 13 70 27 78 27 79 28 80
REMARK H PARENT 28 81
REMARK Flexibility Score:  259.900
ROOT
ATOM      1  O   UNL     1     -12.056 -11.876   0.273  1.00  0.00    -0.273 OA
ATOM      2  N   UNL     1     -12.494 -14.051   0.827  1.00  0.00    -0.343 N 
ATOM      3  C   UNL     1     -11.683 -13.047   0.344  1.00  0.00     0.243 C 
ATOM      4  H   UNL     1     -12.148 -15.001   0.885  1.00  0.00     0.164 HD
ENDROOT
BRANCH   2   5
ATOM      5  C   UNL     1     -13.887 -13.782   1.165  1.00  0.00     0.171 C 
ATOM      6  C   UNL     1     -15.559 -11.430   0.880  1.00  0.00     0.214 C 
ATOM      7  N   UNL     1     -14.815 -11.629   2.102  1.00  0.00    -0.303 N 
ATOM      8  C   UNL     1     -15.958 -12.731   0.200  1.00  0.00     0.057 C 
ATOM      9  C   UNL     1     -13.959 -12.703   2.284  1.00  0.00     0.247 C 
ATOM     10  C   UNL     1     -14.724 -13.555  -0.093  1.00  0.00     0.040 C 
ATOM     11  O   UNL     1     -13.260 -12.820   3.299  1.00  0.00    -0.272 OA
BRANCH   6  12
ATOM     12  O   UNL     1     -14.768 -10.646   0.017  1.00  0.00    -0.373 OA
ATOM     13  H   UNL     1     -15.381 -10.087  -0.506  1.00  0.00     0.213 HD
ENDBRANCH   6  12
BRANCH   7  14
ATOM     14  C   UNL     1     -14.887 -10.553   3.112  1.00  0.00     0.177 C 
BRANCH  14  15
ATOM     15  C   UNL     1     -14.646  -9.129   2.573  1.00  0.00     0.038 C 
BRANCH  15  16
ATOM     16  C   UNL     1     -15.832  -8.145   2.468  1.00  0.00    -0.015 C 
ATOM     17  C   UNL     1     -15.969  -7.542   1.067  1.00  0.00     0.007 C 
ATOM     18  C   UNL     1     -15.644  -6.997   3.469  1.00  0.00     0.007 C 
ENDBRANCH  15  16
ENDBRANCH  14  15
BRANCH  14  19
ATOM     19  C   UNL     1     -15.904 -10.935   4.242  1.00  0.00     0.245 C 
ATOM     20  O   UNL     1     -17.090 -10.613   4.060  1.00  0.00    -0.272 OA
BRANCH  19  21
ATOM     21  N   UNL     1     -15.537 -11.497   5.452  1.00  0.00    -0.332 N 
ATOM     22  C   UNL     1     -16.018 -12.764   5.974  1.00  0.00     0.147 C 
BRANCH  21  23
ATOM     23  C   UNL     1     -14.577 -10.744   6.307  1.00  0.00     0.178 C 
BRANCH  23  24
ATOM     24  C   UNL     1     -15.183 -10.161   7.599  1.00  0.00     0.070 C 
BRANCH  24  25
ATOM     25  C   UNL     1     -14.776  -8.755   7.978  1.00  0.00    -0.045 A 
ATOM     26  C   UNL     1     -14.494  -7.800   6.993  1.00  0.00     0.004 A 
ATOM     27  C   UNL     1     -14.670  -8.389   9.328  1.00  0.00     0.004 A 
ATOM     28  C   UNL     1     -14.101  -6.509   7.351  1.00  0.00     0.000 A 
ATOM     29  C   UNL     1     -14.279  -7.097   9.684  1.00  0.00     0.000 A 
ATOM     30  C   UNL     1     -13.992  -6.159   8.695  1.00  0.00     0.000 A 
ENDBRANCH  24  25
ENDBRANCH  23  24
BRANCH  23  31
ATOM     31  C   UNL     1     -13.229 -11.480   6.494  1.00  0.00     0.243 C 
ATOM     32  O   UNL     1     -13.036 -12.357   7.333  1.00  0.00    -0.273 OA
ATOM     33  N   UNL     1     -12.194 -10.936   5.754  1.00  0.00    -0.341 N 
ATOM     34  H   UNL     1     -12.415 -10.203   5.075  1.00  0.00     0.164 HD
BRANCH  33  35
ATOM     35  C   UNL     1     -10.806 -11.395   5.863  1.00  0.00     0.194 C 
BRANCH  35  36
ATOM     36  C   UNL     1      -9.970 -10.641   6.935  1.00  0.00     0.017 C 
ATOM     37  C   UNL     1      -9.346 -11.618   7.947  1.00  0.00     0.010 C 
ATOM     38  C   UNL     1     -10.790  -9.618   7.731  1.00  0.00     0.010 C 
ENDBRANCH  35  36
BRANCH  35  39
ATOM     39  C   UNL     1     -10.082 -11.440   4.489  1.00  0.00     0.329 C 
ATOM     40  O   UNL     1     -10.295 -10.653   3.574  1.00  0.00    -0.250 OA
BRANCH  39  41
ATOM     41  O   UNL     1      -9.113 -12.405   4.443  1.00  0.00    -0.458 OA
BRANCH  41  42
ATOM     42  C   UNL     1      -9.572 -13.765   4.251  1.00  0.00     0.205 CG0
ATOM     43  C   UNL     1      -9.583 -14.438   5.622  1.00  0.00     0.056 C 
ATOM     44  G   UNL     1      -8.626 -14.467   3.257  1.00  0.00     0.000 G0
ENDBRANCH  41  42
ENDBRANCH  39  41
ENDBRANCH  35  39
ENDBRANCH  33  35
ENDBRANCH  23  31
ENDBRANCH  21  23
ENDBRANCH  19  21
ENDBRANCH  14  19
ENDBRANCH   7  14
ENDBRANCH   2   5
BRANCH   3  45
ATOM     45  C   UNL     1     -10.274 -13.486  -0.077  1.00  0.00     0.171 C 
BRANCH  45  46
ATOM     46  N   UNL     1      -9.491 -13.527   1.151  1.00  0.00    -0.342 N 
ATOM     47  C   UNL     1      -9.407 -14.651   1.933  1.00  0.00     0.247 C 
ATOM     48  O   UNL     1      -9.925 -15.724   1.620  1.00  0.00    -0.273 OA
ATOM     49  H   UNL     1      -8.999 -12.676   1.418  1.00  0.00     0.164 HD
BRANCH  47  50
ATOM     50  C   UNL     1      -8.640 -14.471   3.251  1.00  0.00     0.212 CG0
ATOM     51  G   UNL     1      -9.569 -13.732   4.235  1.00  0.00     0.000 G0
BRANCH  50  52
ATOM     52  N   UNL     1      -8.292 -15.820   3.687  1.00  0.00    -0.339 N 
ATOM     53  C   UNL     1      -7.052 -16.379   3.498  1.00  0.00     0.243 C 
ATOM     54  O   UNL     1      -6.150 -15.803   2.896  1.00  0.00    -0.273 OA
ATOM     55  H   UNL     1      -9.031 -16.391   4.094  1.00  0.00     0.164 HD
BRANCH  53  56
ATOM     56  C   UNL     1      -6.947 -17.846   3.965  1.00  0.00     0.182 C 
BRANCH  56  57
ATOM     57  N   UNL     1      -8.230 -18.325   4.487  1.00  0.00    -0.344 N 
ATOM     58  C   UNL     1      -9.209 -18.841   3.673  1.00  0.00     0.220 C 
ATOM     59  O   UNL     1      -9.109 -18.870   2.451  1.00  0.00    -0.275 OA
ATOM     60  H   UNL     1      -8.313 -18.413   5.496  1.00  0.00     0.164 HD
BRANCH  58  61
ATOM     61  C   UNL     1     -10.428 -19.330   4.434  1.00  0.00     0.100 C 
BRANCH  61  62
ATOM     62  C   UNL     1     -10.453 -18.897   5.900  1.00  0.00     0.010 C 
BRANCH  62  63
ATOM     63  C   UNL     1     -11.592 -17.930   6.250  1.00  0.00     0.000 C 
BRANCH  63  64
ATOM     64  C   UNL     1     -12.209 -17.227   5.042  1.00  0.00    -0.003 C 
ATOM     65  C   UNL     1     -13.463 -16.457   5.430  1.00  0.00     0.004 C 
ENDBRANCH  63  64
ENDBRANCH  62  63
ENDBRANCH  61  62
ENDBRANCH  58  61
ENDBRANCH  56  57
BRANCH  56  66
ATOM     66  C   UNL     1      -5.810 -18.034   4.968  1.00  0.00     0.157 C 
BRANCH  66  67
ATOM     67  C   UNL     1      -6.179 -17.489   6.317  1.00  0.00     0.305 C 
ATOM     68  O   UNL     1      -6.975 -16.593   6.552  1.00  0.00    -0.252 OA
BRANCH  67  69
ATOM     69  O   UNL     1      -5.558 -18.139   7.319  1.00  0.00    -0.481 OA
ATOM     70  H   UNL     1      -4.879 -17.511   7.643  1.00  0.00     0.296 HD
ENDBRANCH  67  69
ENDBRANCH  66  67
ENDBRANCH  56  66
ENDBRANCH  53  56
ENDBRANCH  50  52
ENDBRANCH  47  50
ENDBRANCH  45  46
BRANCH  45  71
ATOM     71  C   UNL     1      -9.687 -12.496  -1.089  1.00  0.00     0.037 C 
BRANCH  71  72
ATOM     72  C   UNL     1     -10.014 -12.887  -2.533  1.00  0.00     0.026 C 
BRANCH  72  73
ATOM     73  C   UNL     1      -8.784 -12.785  -3.433  1.00  0.00     0.146 C 
BRANCH  73  74
ATOM     74  N   UNL     1      -7.669 -13.423  -2.740  1.00  0.00    -0.254 NA
ATOM     75  C   UNL     1      -6.620 -13.699  -3.423  1.00  0.00     0.185 C 
ATOM     76  N   UNL     1      -5.576 -14.285  -2.813  1.00  0.00    -0.370 N 
ATOM     77  N   UNL     1      -6.379 -13.485  -4.728  1.00  0.00    -0.370 N 
ATOM     78  H   UNL     1      -5.677 -14.489  -1.829  1.00  0.00     0.159 HD
ATOM     79  H   UNL     1      -4.786 -14.660  -3.307  1.00  0.00     0.159 HD
ATOM     80  H   UNL     1      -7.075 -13.047  -5.313  1.00  0.00     0.159 HD
ATOM     81  H   UNL     1      -5.470 -13.640  -5.130  1.00  0.00     0.159 HD
ENDBRANCH  73  74
ENDBRANCH  72  73
ENDBRANCH  71  72
ENDBRANCH  45  71
ENDBRANCH   3  45
TORSDOF 20
ENDMDL
MODEL 5
REMARK VINA RESULT:    -5.847      3.618      8.955
REMARK INTER + INTRA:         -23.535
REMARK INTER:                 -18.460
REMARK INTRA:                  -5.074
REMARK UNBOUND:                -6.750
REMARK SMILES CCCCCC(=O)N[C@H](CC(=O)O)C(=O)N[C@H]1C(=O)N[C@H](CCCN=C(N)N)C(=O)N[C@@H]2CC[C@H](O)N(C2=O)[C@@H](CC(C)C)C(=O)N(C)[C@@H](Cc2ccccc2)C(=O)N[C@H](C(C)C)C(=O)O[C@@H]1C
REMARK SMILES IDX 30 1 31 2 29 3 32 5 35 6 37 7 34 8 38 9 33 10 39 11 36 12
REMARK SMILES IDX 40 14 41 15 42 16 43 17 44 18 45 19 46 20 47 21 48 22 49 23
REMARK SMILES IDX 50 24 51 25 52 26 56 27 53 28 55 29 54 30 57 31 58 32 59 33
REMARK SMILES IDX 60 35 61 36 62 37 63 38 64 39 65 40 66 41 67 42 68 43 21 45
REMARK SMILES IDX 20 46 18 47 19 48 17 50 16 52 14 53 15 54 9 56 8 57 6 58
REMARK SMILES IDX 7 59 5 61 4 62 3 63 2 64 1 65 10 66 11 67 12 68 13 69 22 71
REMARK SMILES IDX 23 72 24 73 25 74 26 75 27 76 28 77
REMARK H PARENT 31 4 36 13 59 34 20 49 16 55 8 60 13 70 27 78 27 79 28 80
REMARK H PARENT 28 81
REMARK Flexibility Score:  259.900
ROOT
ATOM      1  O   UNL     1     -11.632 -12.435   1.945  1.00  0.00    -0.273 OA
ATOM      2  N   UNL     1     -10.373 -10.526   1.996  1.00  0.00    -0.343 N 
ATOM      3  C   UNL     1     -11.359 -11.332   1.470  1.00  0.00     0.243 C 
ATOM      4  H   UNL     1     -10.186  -9.619   1.588  1.00  0.00     0.164 HD
ENDROOT
BRANCH   2   5
ATOM      5  C   UNL     1      -9.521 -11.006   3.079  1.00  0.00     0.171 C 
ATOM      6  C   UNL     1      -9.301 -13.569   4.416  1.00  0.00     0.214 C 
ATOM      7  N   UNL     1     -10.200 -12.569   4.942  1.00  0.00    -0.303 N 
ATOM      8  C   UNL     1      -8.093 -12.979   3.705  1.00  0.00     0.057 C 
ATOM      9  C   UNL     1     -10.391 -11.344   4.324  1.00  0.00     0.247 C 
ATOM     10  C   UNL     1      -8.551 -12.076   2.581  1.00  0.00     0.040 C 
ATOM     11  O   UNL     1     -11.227 -10.527   4.731  1.00  0.00    -0.272 OA
BRANCH   6  12
ATOM     12  O   UNL     1     -10.036 -14.390   3.538  1.00  0.00    -0.373 OA
ATOM     13  H   UNL     1     -10.847 -13.896   3.293  1.00  0.00     0.213 HD
ENDBRANCH   6  12
BRANCH   7  14
ATOM     14  C   UNL     1     -11.033 -12.959   6.099  1.00  0.00     0.177 C 
BRANCH  14  15
ATOM     15  C   UNL     1     -10.804 -12.132   7.380  1.00  0.00     0.038 C 
BRANCH  15  16
ATOM     16  C   UNL     1      -9.722 -12.577   8.389  1.00  0.00    -0.015 C 
ATOM     17  C   UNL     1      -8.488 -11.670   8.359  1.00  0.00     0.007 C 
ATOM     18  C   UNL     1      -9.273 -14.009   8.071  1.00  0.00     0.007 C 
ENDBRANCH  15  16
ENDBRANCH  14  15
BRANCH  14  19
ATOM     19  C   UNL     1     -12.416 -13.512   5.612  1.00  0.00     0.245 C 
ATOM     20  O   UNL     1     -13.225 -12.681   5.166  1.00  0.00    -0.272 OA
BRANCH  19  21
ATOM     21  N   UNL     1     -12.814 -14.829   5.756  1.00  0.00    -0.332 N 
ATOM     22  C   UNL     1     -12.801 -15.583   6.997  1.00  0.00     0.147 C 
BRANCH  21  23
ATOM     23  C   UNL     1     -13.286 -15.550   4.541  1.00  0.00     0.178 C 
BRANCH  23  24
ATOM     24  C   UNL     1     -12.896 -17.041   4.483  1.00  0.00     0.070 C 
BRANCH  24  25
ATOM     25  C   UNL     1     -11.509 -17.371   3.983  1.00  0.00    -0.045 A 
ATOM     26  C   UNL     1     -10.456 -17.592   4.880  1.00  0.00     0.004 A 
ATOM     27  C   UNL     1     -11.255 -17.455   2.606  1.00  0.00     0.004 A 
ATOM     28  C   UNL     1      -9.173 -17.879   4.410  1.00  0.00     0.000 A 
ATOM     29  C   UNL     1      -9.972 -17.743   2.137  1.00  0.00     0.000 A 
ATOM     30  C   UNL     1      -8.932 -17.952   3.040  1.00  0.00     0.000 A 
ENDBRANCH  24  25
ENDBRANCH  23  24
BRANCH  23  31
ATOM     31  C   UNL     1     -14.765 -15.249   4.198  1.00  0.00     0.243 C 
ATOM     32  O   UNL     1     -15.706 -15.966   4.529  1.00  0.00    -0.273 OA
ATOM     33  N   UNL     1     -14.925 -14.192   3.319  1.00  0.00    -0.341 N 
ATOM     34  H   UNL     1     -14.102 -13.635   3.075  1.00  0.00     0.164 HD
BRANCH  33  35
ATOM     35  C   UNL     1     -16.224 -13.804   2.764  1.00  0.00     0.194 C 
BRANCH  35  36
ATOM     36  C   UNL     1     -16.203 -13.525   1.234  1.00  0.00     0.017 C 
ATOM     37  C   UNL     1     -17.314 -14.303   0.509  1.00  0.00     0.010 C 
ATOM     38  C   UNL     1     -14.872 -13.898   0.570  1.00  0.00     0.010 C 
ENDBRANCH  35  36
BRANCH  35  39
ATOM     39  C   UNL     1     -16.891 -12.645   3.556  1.00  0.00     0.329 C 
ATOM     40  O   UNL     1     -17.431 -12.781   4.648  1.00  0.00    -0.250 OA
BRANCH  39  41
ATOM     41  O   UNL     1     -16.732 -11.434   2.940  1.00  0.00    -0.458 OA
BRANCH  41  42
ATOM     42  C   UNL     1     -15.488 -10.740   3.201  1.00  0.00     0.205 CG0
ATOM     43  C   UNL     1     -15.579 -10.161   4.611  1.00  0.00     0.056 C 
ATOM     44  G   UNL     1     -15.298  -9.651   2.127  1.00  0.00     0.000 G0
ENDBRANCH  41  42
ENDBRANCH  39  41
ENDBRANCH  35  39
ENDBRANCH  33  35
ENDBRANCH  23  31
ENDBRANCH  21  23
ENDBRANCH  19  21
ENDBRANCH  14  19
ENDBRANCH   7  14
ENDBRANCH   2   5
BRANCH   3  45
ATOM     45  C   UNL     1     -12.109 -10.751   0.264  1.00  0.00     0.171 C 
BRANCH  45  46
ATOM     46  N   UNL     1     -13.480 -10.549   0.712  1.00  0.00    -0.342 N 
ATOM     47  C   UNL     1     -13.813  -9.630   1.675  1.00  0.00     0.247 C 
ATOM     48  O   UNL     1     -12.992  -8.861   2.177  1.00  0.00    -0.273 OA
ATOM     49  H   UNL     1     -14.200 -11.127   0.281  1.00  0.00     0.164 HD
BRANCH  47  50
ATOM     50  C   UNL     1     -15.286  -9.646   2.108  1.00  0.00     0.212 CG0
ATOM     51  G   UNL     1     -15.447 -10.745   3.177  1.00  0.00     0.000 G0
BRANCH  50  52
ATOM     52  N   UNL     1     -15.557  -8.304   2.615  1.00  0.00    -0.339 N 
ATOM     53  C   UNL     1     -16.256  -7.356   1.907  1.00  0.00     0.243 C 
ATOM     54  O   UNL     1     -16.662  -7.549   0.765  1.00  0.00    -0.273 OA
ATOM     55  H   UNL     1     -15.150  -8.046   3.512  1.00  0.00     0.164 HD
BRANCH  53  56
ATOM     56  C   UNL     1     -16.342  -5.986   2.610  1.00  0.00     0.182 C 
BRANCH  56  57
ATOM     57  N   UNL     1     -16.062  -6.111   4.044  1.00  0.00    -0.344 N 
ATOM     58  C   UNL     1     -16.225  -5.065   4.919  1.00  0.00     0.220 C 
ATOM     59  O   UNL     1     -16.543  -3.938   4.555  1.00  0.00    -0.275 OA
ATOM     60  H   UNL     1     -15.896  -7.048   4.401  1.00  0.00     0.164 HD
BRANCH  58  61
ATOM     61  C   UNL     1     -15.934  -5.437   6.362  1.00  0.00     0.100 C 
BRANCH  61  62
ATOM     62  C   UNL     1     -14.664  -6.269   6.539  1.00  0.00     0.010 C 
BRANCH  62  63
ATOM     63  C   UNL     1     -14.919  -7.719   6.970  1.00  0.00     0.000 C 
BRANCH  63  64
ATOM     64  C   UNL     1     -13.974  -8.225   8.059  1.00  0.00    -0.003 C 
ATOM     65  C   UNL     1     -14.041  -9.739   8.193  1.00  0.00     0.004 C 
ENDBRANCH  63  64
ENDBRANCH  62  63
ENDBRANCH  61  62
ENDBRANCH  58  61
ENDBRANCH  56  57
BRANCH  56  66
ATOM     66  C   UNL     1     -17.681  -5.301   2.341  1.00  0.00     0.157 C 
BRANCH  66  67
ATOM     67  C   UNL     1     -17.591  -4.374   1.163  1.00  0.00     0.305 C 
ATOM     68  O   UNL     1     -17.042  -3.283   1.130  1.00  0.00    -0.252 OA
BRANCH  67  69
ATOM     69  O   UNL     1     -18.157  -4.894   0.058  1.00  0.00    -0.481 OA
ATOM     70  H   UNL     1     -17.434  -5.383  -0.388  1.00  0.00     0.296 HD
ENDBRANCH  67  69
ENDBRANCH  66  67
ENDBRANCH  56  66
ENDBRANCH  53  56
ENDBRANCH  50  52
ENDBRANCH  47  50
ENDBRANCH  45  46
BRANCH  45  71
ATOM     71  C   UNL     1     -12.038 -11.716  -0.925  1.00  0.00     0.037 C 
BRANCH  71  72
ATOM     72  C   UNL     1     -10.644 -11.751  -1.556  1.00  0.00     0.026 C 
BRANCH  72  73
ATOM     73  C   UNL     1     -10.139 -13.184  -1.718  1.00  0.00     0.146 C 
BRANCH  73  74
ATOM     74  N   UNL     1     -10.355 -13.579  -3.106  1.00  0.00    -0.254 NA
ATOM     75  C   UNL     1      -9.458 -13.265  -3.966  1.00  0.00     0.185 C 
ATOM     76  N   UNL     1      -9.628 -13.617  -5.251  1.00  0.00    -0.370 N 
ATOM     77  N   UNL     1      -8.304 -12.602  -3.778  1.00  0.00    -0.370 N 
ATOM     78  H   UNL     1     -10.477 -14.114  -5.480  1.00  0.00     0.159 HD
ATOM     79  H   UNL     1      -9.045 -13.283  -5.998  1.00  0.00     0.159 HD
ATOM     80  H   UNL     1      -8.040 -12.279  -2.859  1.00  0.00     0.159 HD
ATOM     81  H   UNL     1      -7.620 -12.514  -4.511  1.00  0.00     0.159 HD
ENDBRANCH  73  74
ENDBRANCH  72  73
ENDBRANCH  71  72
ENDBRANCH  45  71
ENDBRANCH   3  45
TORSDOF 20
ENDMDL
MODEL 6
REMARK VINA RESULT:    -5.730      4.061      8.246
REMARK INTER + INTRA:         -23.201
REMARK INTER:                 -17.983
REMARK INTRA:                  -5.218
REMARK UNBOUND:                -6.750
REMARK SMILES CCCCCC(=O)N[C@H](CC(=O)O)C(=O)N[C@H]1C(=O)N[C@H](CCCN=C(N)N)C(=O)N[C@@H]2CC[C@H](O)N(C2=O)[C@@H](CC(C)C)C(=O)N(C)[C@@H](Cc2ccccc2)C(=O)N[C@H](C(C)C)C(=O)O[C@@H]1C
REMARK SMILES IDX 30 1 31 2 29 3 32 5 35 6 37 7 34 8 38 9 33 10 39 11 36 12
REMARK SMILES IDX 40 14 41 15 42 16 43 17 44 18 45 19 46 20 47 21 48 22 49 23
REMARK SMILES IDX 50 24 51 25 52 26 56 27 53 28 55 29 54 30 57 31 58 32 59 33
REMARK SMILES IDX 60 35 61 36 62 37 63 38 64 39 65 40 66 41 67 42 68 43 21 45
REMARK SMILES IDX 20 46 18 47 19 48 17 50 16 52 14 53 15 54 9 56 8 57 6 58
REMARK SMILES IDX 7 59 5 61 4 62 3 63 2 64 1 65 10 66 11 67 12 68 13 69 22 71
REMARK SMILES IDX 23 72 24 73 25 74 26 75 27 76 28 77
REMARK H PARENT 31 4 36 13 59 34 20 49 16 55 8 60 13 70 27 78 27 79 28 80
REMARK H PARENT 28 81
REMARK Flexibility Score:  259.900
ROOT
ATOM      1  O   UNL     1     -10.779 -12.356   0.616  1.00  0.00    -0.273 OA
ATOM      2  N   UNL     1     -10.407 -10.757   2.208  1.00  0.00    -0.343 N 
ATOM      3  C   UNL     1     -11.185 -11.390   1.263  1.00  0.00     0.243 C 
ATOM      4  H   UNL     1     -10.780  -9.974   2.731  1.00  0.00     0.164 HD
ENDROOT
BRANCH   2   5
ATOM      5  C   UNL     1      -9.012 -11.139   2.399  1.00  0.00     0.171 C 
ATOM      6  C   UNL     1      -7.348 -13.172   1.174  1.00  0.00     0.214 C 
ATOM      7  N   UNL     1      -8.082 -13.485   2.378  1.00  0.00    -0.303 N 
ATOM      8  C   UNL     1      -6.951 -11.707   1.075  1.00  0.00     0.057 C 
ATOM      9  C   UNL     1      -8.934 -12.577   2.985  1.00  0.00     0.247 C 
ATOM     10  C   UNL     1      -8.186 -10.836   1.150  1.00  0.00     0.040 C 
ATOM     11  O   UNL     1      -9.626 -12.882   3.966  1.00  0.00    -0.272 OA
BRANCH   6  12
ATOM     12  O   UNL     1      -8.147 -13.541   0.074  1.00  0.00    -0.373 OA
ATOM     13  H   UNL     1      -8.686 -12.757  -0.165  1.00  0.00     0.213 HD
ENDBRANCH   6  12
BRANCH   7  14
ATOM     14  C   UNL     1      -8.005 -14.878   2.866  1.00  0.00     0.177 C 
BRANCH  14  15
ATOM     15  C   UNL     1      -6.932 -15.138   3.941  1.00  0.00     0.038 C 
BRANCH  15  16
ATOM     16  C   UNL     1      -6.317 -16.549   4.077  1.00  0.00    -0.015 C 
ATOM     17  C   UNL     1      -6.224 -17.007   5.536  1.00  0.00     0.007 C 
ATOM     18  C   UNL     1      -4.905 -16.559   3.479  1.00  0.00     0.007 C 
ENDBRANCH  15  16
ENDBRANCH  14  15
BRANCH  14  19
ATOM     19  C   UNL     1      -9.420 -15.551   2.816  1.00  0.00     0.245 C 
ATOM     20  O   UNL     1     -10.022 -15.508   1.730  1.00  0.00    -0.272 OA
BRANCH  19  21
ATOM     21  N   UNL     1     -10.064 -16.076   3.922  1.00  0.00    -0.332 N 
ATOM     22  C   UNL     1      -9.565 -16.037   5.285  1.00  0.00     0.147 C 
BRANCH  21  23
ATOM     23  C   UNL     1     -11.375 -16.751   3.710  1.00  0.00     0.178 C 
BRANCH  23  24
ATOM     24  C   UNL     1     -11.279 -18.244   3.337  1.00  0.00     0.070 C 
BRANCH  24  25
ATOM     25  C   UNL     1      -9.946 -18.923   3.550  1.00  0.00    -0.045 A 
ATOM     26  C   UNL     1      -9.670 -19.605   4.742  1.00  0.00     0.004 A 
ATOM     27  C   UNL     1      -8.959 -18.874   2.554  1.00  0.00     0.004 A 
ATOM     28  C   UNL     1      -8.430 -20.215   4.939  1.00  0.00     0.000 A 
ATOM     29  C   UNL     1      -7.720 -19.485   2.752  1.00  0.00     0.000 A 
ATOM     30  C   UNL     1      -7.455 -20.152   3.945  1.00  0.00     0.000 A 
ENDBRANCH  24  25
ENDBRANCH  23  24
BRANCH  23  31
ATOM     31  C   UNL     1     -12.410 -16.419   4.811  1.00  0.00     0.243 C 
ATOM     32  O   UNL     1     -12.955 -17.263   5.517  1.00  0.00    -0.273 OA
ATOM     33  N   UNL     1     -12.813 -15.095   4.810  1.00  0.00    -0.341 N 
ATOM     34  H   UNL     1     -12.325 -14.439   4.195  1.00  0.00     0.164 HD
BRANCH  33  35
ATOM     35  C   UNL     1     -13.871 -14.581   5.685  1.00  0.00     0.194 C 
BRANCH  35  36
ATOM     36  C   UNL     1     -15.149 -14.118   4.932  1.00  0.00     0.017 C 
ATOM     37  C   UNL     1     -16.410 -14.786   5.507  1.00  0.00     0.010 C 
ATOM     38  C   UNL     1     -15.111 -14.426   3.430  1.00  0.00     0.010 C 
ENDBRANCH  35  36
BRANCH  35  39
ATOM     39  C   UNL     1     -13.355 -13.498   6.674  1.00  0.00     0.329 C 
ATOM     40  O   UNL     1     -12.576 -13.723   7.593  1.00  0.00    -0.250 OA
BRANCH  39  41
ATOM     41  O   UNL     1     -13.799 -12.246   6.351  1.00  0.00    -0.458 OA
BRANCH  41  42
ATOM     42  C   UNL     1     -13.030 -11.529   5.357  1.00  0.00     0.205 CG0
ATOM     43  C   UNL     1     -11.867 -10.855   6.082  1.00  0.00     0.056 C 
ATOM     44  G   UNL     1     -13.955 -10.515   4.656  1.00  0.00     0.000 G0
ENDBRANCH  41  42
ENDBRANCH  39  41
ENDBRANCH  35  39
ENDBRANCH  33  35
ENDBRANCH  23  31
ENDBRANCH  21  23
ENDBRANCH  19  21
ENDBRANCH  14  19
ENDBRANCH   7  14
ENDBRANCH   2   5
BRANCH   3  45
ATOM     45  C   UNL     1     -12.599 -10.820   1.087  1.00  0.00     0.171 C 
BRANCH  45  46
ATOM     46  N   UNL     1     -13.269 -11.027   2.364  1.00  0.00    -0.342 N 
ATOM     47  C   UNL     1     -13.320 -10.057   3.334  1.00  0.00     0.247 C 
ATOM     48  O   UNL     1     -12.870  -8.922   3.168  1.00  0.00    -0.273 OA
ATOM     49  H   UNL     1     -13.704 -11.934   2.521  1.00  0.00     0.164 HD
BRANCH  47  50
ATOM     50  C   UNL     1     -13.957 -10.496   4.660  1.00  0.00     0.212 CG0
ATOM     51  G   UNL     1     -13.009 -11.518   5.318  1.00  0.00     0.000 G0
BRANCH  50  52
ATOM     52  N   UNL     1     -14.117  -9.272   5.440  1.00  0.00    -0.339 N 
ATOM     53  C   UNL     1     -15.339  -8.760   5.801  1.00  0.00     0.243 C 
ATOM     54  O   UNL     1     -16.400  -9.268   5.448  1.00  0.00    -0.273 OA
ATOM     55  H   UNL     1     -13.277  -8.744   5.668  1.00  0.00     0.164 HD
BRANCH  53  56
ATOM     56  C   UNL     1     -15.260  -7.413   6.547  1.00  0.00     0.182 C 
BRANCH  56  57
ATOM     57  N   UNL     1     -15.988  -6.366   5.823  1.00  0.00    -0.344 N 
ATOM     58  C   UNL     1     -15.829  -6.157   4.474  1.00  0.00     0.220 C 
ATOM     59  O   UNL     1     -15.017  -6.780   3.798  1.00  0.00    -0.275 OA
ATOM     60  H   UNL     1     -16.740  -5.898   6.322  1.00  0.00     0.164 HD
BRANCH  58  61
ATOM     61  C   UNL     1     -16.725  -5.062   3.926  1.00  0.00     0.100 C 
BRANCH  61  62
ATOM     62  C   UNL     1     -17.480  -5.461   2.658  1.00  0.00     0.010 C 
BRANCH  62  63
ATOM     63  C   UNL     1     -16.841  -4.951   1.360  1.00  0.00     0.000 C 
BRANCH  63  64
ATOM     64  C   UNL     1     -16.657  -6.024   0.288  1.00  0.00    -0.003 C 
ATOM     65  C   UNL     1     -16.600  -7.416   0.900  1.00  0.00     0.004 C 
ENDBRANCH  63  64
ENDBRANCH  62  63
ENDBRANCH  61  62
ENDBRANCH  58  61
ENDBRANCH  56  57
BRANCH  56  66
ATOM     66  C   UNL     1     -13.813  -7.016   6.834  1.00  0.00     0.157 C 
BRANCH  66  67
ATOM     67  C   UNL     1     -13.745  -5.853   7.781  1.00  0.00     0.305 C 
ATOM     68  O   UNL     1     -14.529  -4.918   7.852  1.00  0.00    -0.252 OA
BRANCH  67  69
ATOM     69  O   UNL     1     -12.711  -5.951   8.639  1.00  0.00    -0.481 OA
ATOM     70  H   UNL     1     -12.976  -6.652   9.271  1.00  0.00     0.296 HD
ENDBRANCH  67  69
ENDBRANCH  66  67
ENDBRANCH  56  66
ENDBRANCH  53  56
ENDBRANCH  50  52
ENDBRANCH  47  50
ENDBRANCH  45  46
BRANCH  45  71
ATOM     71  C   UNL     1     -13.326 -11.539  -0.055  1.00  0.00     0.037 C 
BRANCH  71  72
ATOM     72  C   UNL     1     -14.610 -12.224   0.420  1.00  0.00     0.026 C 
BRANCH  72  73
ATOM     73  C   UNL     1     -15.808 -11.280   0.349  1.00  0.00     0.146 C 
BRANCH  73  74
ATOM     74  N   UNL     1     -16.227 -10.985   1.715  1.00  0.00    -0.254 NA
ATOM     75  C   UNL     1     -17.047 -11.794   2.278  1.00  0.00     0.185 C 
ATOM     76  N   UNL     1     -17.450 -11.551   3.536  1.00  0.00    -0.370 N 
ATOM     77  N   UNL     1     -17.601 -12.915   1.784  1.00  0.00    -0.370 N 
ATOM     78  H   UNL     1     -17.085 -10.721   3.980  1.00  0.00     0.159 HD
ATOM     79  H   UNL     1     -18.195 -12.054   3.986  1.00  0.00     0.159 HD
ATOM     80  H   UNL     1     -17.386 -13.226   0.849  1.00  0.00     0.159 HD
ATOM     81  H   UNL     1     -18.144 -13.535   2.362  1.00  0.00     0.159 HD
ENDBRANCH  73  74
ENDBRANCH  72  73
ENDBRANCH  71  72
ENDBRANCH  45  71
ENDBRANCH   3  45
TORSDOF 20
ENDMDL
MODEL 7
REMARK VINA RESULT:    -5.675      3.420      8.932
REMARK INTER + INTRA:         -23.042
REMARK INTER:                 -19.188
REMARK INTRA:                  -3.854
REMARK UNBOUND:                -6.750
REMARK SMILES CCCCCC(=O)N[C@H](CC(=O)O)C(=O)N[C@H]1C(=O)N[C@H](CCCN=C(N)N)C(=O)N[C@@H]2CC[C@H](O)N(C2=O)[C@@H](CC(C)C)C(=O)N(C)[C@@H](Cc2ccccc2)C(=O)N[C@H](C(C)C)C(=O)O[C@@H]1C
REMARK SMILES IDX 30 1 31 2 29 3 32 5 35 6 37 7 34 8 38 9 33 10 39 11 36 12
REMARK SMILES IDX 40 14 41 15 42 16 43 17 44 18 45 19 46 20 47 21 48 22 49 23
REMARK SMILES IDX 50 24 51 25 52 26 56 27 53 28 55 29 54 30 57 31 58 32 59 33
REMARK SMILES IDX 60 35 61 36 62 37 63 38 64 39 65 40 66 41 67 42 68 43 21 45
REMARK SMILES IDX 20 46 18 47 19 48 17 50 16 52 14 53 15 54 9 56 8 57 6 58
REMARK SMILES IDX 7 59 5 61 4 62 3 63 2 64 1 65 10 66 11 67 12 68 13 69 22 71
REMARK SMILES IDX 23 72 24 73 25 74 26 75 27 76 28 77
REMARK H PARENT 31 4 36 13 59 34 20 49 16 55 8 60 13 70 27 78 27 79 28 80
REMARK H PARENT 28 81
REMARK Flexibility Score:  259.900
ROOT
ATOM      1  O   UNL     1     -10.596 -12.983   1.025  1.00  0.00    -0.273 OA
ATOM      2  N   UNL     1      -9.082 -11.270   1.088  1.00  0.00    -0.343 N 
ATOM      3  C   UNL     1     -10.156 -11.939   0.542  1.00  0.00     0.243 C 
ATOM      4  H   UNL     1      -8.756 -10.406   0.672  1.00  0.00     0.164 HD
ENDROOT
BRANCH   2   5
ATOM      5  C   UNL     1      -8.341 -11.842   2.206  1.00  0.00     0.171 C 
ATOM      6  C   UNL     1      -8.890 -14.052   4.001  1.00  0.00     0.214 C 
ATOM      7  N   UNL     1      -9.318 -12.721   4.362  1.00  0.00    -0.303 N 
ATOM      8  C   UNL     1      -7.637 -14.068   3.140  1.00  0.00     0.057 C 
ATOM      9  C   UNL     1      -9.133 -11.629   3.528  1.00  0.00     0.247 C 
ATOM     10  C   UNL     1      -7.868 -13.258   1.883  1.00  0.00     0.040 C 
ATOM     11  O   UNL     1      -9.579 -10.509   3.806  1.00  0.00    -0.272 OA
BRANCH   6  12
ATOM     12  O   UNL     1      -9.957 -14.680   3.329  1.00  0.00    -0.373 OA
ATOM     13  H   UNL     1      -9.771 -15.643   3.331  1.00  0.00     0.213 HD
ENDBRANCH   6  12
BRANCH   7  14
ATOM     14  C   UNL     1     -10.103 -12.583   5.607  1.00  0.00     0.177 C 
BRANCH  14  15
ATOM     15  C   UNL     1      -9.452 -11.715   6.701  1.00  0.00     0.038 C 
BRANCH  15  16
ATOM     16  C   UNL     1      -9.396 -12.238   8.154  1.00  0.00    -0.015 C 
ATOM     17  C   UNL     1      -8.191 -11.690   8.925  1.00  0.00     0.007 C 
ATOM     18  C   UNL     1      -9.308 -13.769   8.151  1.00  0.00     0.007 C 
ENDBRANCH  15  16
ENDBRANCH  14  15
BRANCH  14  19
ATOM     19  C   UNL     1     -11.638 -12.644   5.291  1.00  0.00     0.245 C 
ATOM     20  O   UNL     1     -12.083 -11.785   4.512  1.00  0.00    -0.272 OA
BRANCH  19  21
ATOM     21  N   UNL     1     -12.518 -13.515   5.909  1.00  0.00    -0.332 N 
ATOM     22  C   UNL     1     -12.865 -13.502   7.319  1.00  0.00     0.147 C 
BRANCH  21  23
ATOM     23  C   UNL     1     -13.162 -14.564   5.072  1.00  0.00     0.178 C 
BRANCH  23  24
ATOM     24  C   UNL     1     -12.913 -16.011   5.546  1.00  0.00     0.070 C 
BRANCH  24  25
ATOM     25  C   UNL     1     -13.158 -17.115   4.544  1.00  0.00    -0.045 A 
ATOM     26  C   UNL     1     -14.324 -17.890   4.602  1.00  0.00     0.004 A 
ATOM     27  C   UNL     1     -12.215 -17.383   3.541  1.00  0.00     0.004 A 
ATOM     28  C   UNL     1     -14.535 -18.920   3.683  1.00  0.00     0.000 A 
ATOM     29  C   UNL     1     -12.428 -18.412   2.623  1.00  0.00     0.000 A 
ATOM     30  C   UNL     1     -13.587 -19.182   2.696  1.00  0.00     0.000 A 
ENDBRANCH  24  25
ENDBRANCH  23  24
BRANCH  23  31
ATOM     31  C   UNL     1     -14.633 -14.238   4.721  1.00  0.00     0.243 C 
ATOM     32  O   UNL     1     -15.543 -14.194   5.545  1.00  0.00    -0.273 OA
ATOM     33  N   UNL     1     -14.877 -14.180   3.359  1.00  0.00    -0.341 N 
ATOM     34  H   UNL     1     -14.079 -14.229   2.721  1.00  0.00     0.164 HD
BRANCH  33  35
ATOM     35  C   UNL     1     -16.217 -14.002   2.794  1.00  0.00     0.194 C 
BRANCH  35  36
ATOM     36  C   UNL     1     -16.653 -15.137   1.825  1.00  0.00     0.017 C 
ATOM     37  C   UNL     1     -15.454 -16.001   1.399  1.00  0.00     0.010 C 
ATOM     38  C   UNL     1     -17.320 -14.616   0.546  1.00  0.00     0.010 C 
ENDBRANCH  35  36
BRANCH  35  39
ATOM     39  C   UNL     1     -16.421 -12.594   2.169  1.00  0.00     0.329 C 
ATOM     40  O   UNL     1     -17.329 -11.832   2.476  1.00  0.00    -0.250 OA
BRANCH  39  41
ATOM     41  O   UNL     1     -15.420 -12.263   1.297  1.00  0.00    -0.458 OA
BRANCH  41  42
ATOM     42  C   UNL     1     -14.390 -11.384   1.808  1.00  0.00     0.205 CG0
ATOM     43  C   UNL     1     -14.860 -10.877   3.170  1.00  0.00     0.056 C 
ATOM     44  G   UNL     1     -14.173 -10.241   0.796  1.00  0.00     0.000 G0
ENDBRANCH  41  42
ENDBRANCH  39  41
ENDBRANCH  35  39
ENDBRANCH  33  35
ENDBRANCH  23  31
ENDBRANCH  21  23
ENDBRANCH  19  21
ENDBRANCH  14  19
ENDBRANCH   7  14
ENDBRANCH   2   5
BRANCH   3  45
ATOM     45  C   UNL     1     -10.778 -11.283  -0.698  1.00  0.00     0.171 C 
BRANCH  45  46
ATOM     46  N   UNL     1     -12.193 -11.124  -0.391  1.00  0.00    -0.342 N 
ATOM     47  C   UNL     1     -12.655 -10.167   0.477  1.00  0.00     0.247 C 
ATOM     48  O   UNL     1     -11.920  -9.330   1.002  1.00  0.00    -0.273 OA
ATOM     49  H   UNL     1     -12.843 -11.761  -0.848  1.00  0.00     0.164 HD
BRANCH  47  50
ATOM     50  C   UNL     1     -14.161 -10.230   0.774  1.00  0.00     0.212 CG0
ATOM     51  G   UNL     1     -14.390 -11.370   1.786  1.00  0.00     0.000 G0
BRANCH  50  52
ATOM     52  N   UNL     1     -14.510  -8.913   1.299  1.00  0.00    -0.339 N 
ATOM     53  C   UNL     1     -15.768  -8.371   1.202  1.00  0.00     0.243 C 
ATOM     54  O   UNL     1     -16.689  -8.934   0.616  1.00  0.00    -0.273 OA
ATOM     55  H   UNL     1     -13.762  -8.350   1.698  1.00  0.00     0.164 HD
BRANCH  53  56
ATOM     56  C   UNL     1     -15.876  -6.934   1.752  1.00  0.00     0.182 C 
BRANCH  56  57
ATOM     57  N   UNL     1     -16.251  -6.939   3.169  1.00  0.00    -0.344 N 
ATOM     58  C   UNL     1     -15.349  -7.212   4.168  1.00  0.00     0.220 C 
ATOM     59  O   UNL     1     -14.189  -7.541   3.943  1.00  0.00    -0.275 OA
ATOM     60  H   UNL     1     -17.171  -6.574   3.404  1.00  0.00     0.164 HD
BRANCH  58  61
ATOM     61  C   UNL     1     -15.942  -7.103   5.561  1.00  0.00     0.100 C 
BRANCH  61  62
ATOM     62  C   UNL     1     -15.062  -7.707   6.655  1.00  0.00     0.010 C 
BRANCH  62  63
ATOM     63  C   UNL     1     -14.488  -6.679   7.638  1.00  0.00     0.000 C 
BRANCH  63  64
ATOM     64  C   UNL     1     -14.456  -5.249   7.101  1.00  0.00    -0.003 C 
ATOM     65  C   UNL     1     -13.852  -4.288   8.115  1.00  0.00     0.004 C 
ENDBRANCH  63  64
ENDBRANCH  62  63
ENDBRANCH  61  62
ENDBRANCH  58  61
ENDBRANCH  56  57
BRANCH  56  66
ATOM     66  C   UNL     1     -16.822  -6.081   0.908  1.00  0.00     0.157 C 
BRANCH  66  67
ATOM     67  C   UNL     1     -16.986  -4.709   1.495  1.00  0.00     0.305 C 
ATOM     68  O   UNL     1     -16.248  -3.749   1.333  1.00  0.00    -0.252 OA
BRANCH  67  69
ATOM     69  O   UNL     1     -18.113  -4.595   2.223  1.00  0.00    -0.481 OA
ATOM     70  H   UNL     1     -17.815  -4.259   3.095  1.00  0.00     0.296 HD
ENDBRANCH  67  69
ENDBRANCH  66  67
ENDBRANCH  56  66
ENDBRANCH  53  56
ENDBRANCH  50  52
ENDBRANCH  47  50
ENDBRANCH  45  46
BRANCH  45  71
ATOM     71  C   UNL     1     -10.563 -12.164  -1.933  1.00  0.00     0.037 C 
BRANCH  71  72
ATOM     72  C   UNL     1      -9.224 -11.878  -2.618  1.00  0.00     0.026 C 
BRANCH  72  73
ATOM     73  C   UNL     1      -8.899 -12.932  -3.675  1.00  0.00     0.146 C 
BRANCH  73  74
ATOM     74  N   UNL     1     -10.127 -13.221  -4.410  1.00  0.00    -0.254 NA
ATOM     75  C   UNL     1     -10.145 -12.973  -5.667  1.00  0.00     0.185 C 
ATOM     76  N   UNL     1     -11.260 -13.230  -6.371  1.00  0.00    -0.370 N 
ATOM     77  N   UNL     1      -9.170 -12.467  -6.443  1.00  0.00    -0.370 N 
ATOM     78  H   UNL     1     -12.046 -13.606  -5.861  1.00  0.00     0.159 HD
ATOM     79  H   UNL     1     -11.397 -12.929  -7.320  1.00  0.00     0.159 HD
ATOM     80  H   UNL     1      -8.272 -12.229  -6.049  1.00  0.00     0.159 HD
ATOM     81  H   UNL     1      -9.261 -12.423  -7.444  1.00  0.00     0.159 HD
ENDBRANCH  73  74
ENDBRANCH  72  73
ENDBRANCH  71  72
ENDBRANCH  45  71
ENDBRANCH   3  45
TORSDOF 20
ENDMDL
MODEL 8
REMARK VINA RESULT:    -5.652      3.977      8.612
REMARK INTER + INTRA:         -22.976
REMARK INTER:                 -19.081
REMARK INTRA:                  -3.894
REMARK UNBOUND:                -6.750
REMARK SMILES CCCCCC(=O)N[C@H](CC(=O)O)C(=O)N[C@H]1C(=O)N[C@H](CCCN=C(N)N)C(=O)N[C@@H]2CC[C@H](O)N(C2=O)[C@@H](CC(C)C)C(=O)N(C)[C@@H](Cc2ccccc2)C(=O)N[C@H](C(C)C)C(=O)O[C@@H]1C
REMARK SMILES IDX 30 1 31 2 29 3 32 5 35 6 37 7 34 8 38 9 33 10 39 11 36 12
REMARK SMILES IDX 40 14 41 15 42 16 43 17 44 18 45 19 46 20 47 21 48 22 49 23
REMARK SMILES IDX 50 24 51 25 52 26 56 27 53 28 55 29 54 30 57 31 58 32 59 33
REMARK SMILES IDX 60 35 61 36 62 37 63 38 64 39 65 40 66 41 67 42 68 43 21 45
REMARK SMILES IDX 20 46 18 47 19 48 17 50 16 52 14 53 15 54 9 56 8 57 6 58
REMARK SMILES IDX 7 59 5 61 4 62 3 63 2 64 1 65 10 66 11 67 12 68 13 69 22 71
REMARK SMILES IDX 23 72 24 73 25 74 26 75 27 76 28 77
REMARK H PARENT 31 4 36 13 59 34 20 49 16 55 8 60 13 70 27 78 27 79 28 80
REMARK H PARENT 28 81
REMARK Flexibility Score:  259.900
ROOT
ATOM      1  O   UNL     1     -12.153 -11.864   1.317  1.00  0.00    -0.273 OA
ATOM      2  N   UNL     1     -10.632 -10.239   0.790  1.00  0.00    -0.343 N 
ATOM      3  C   UNL     1     -11.894 -10.674   1.134  1.00  0.00     0.243 C 
ATOM      4  H   UNL     1     -10.452  -9.250   0.662  1.00  0.00     0.164 HD
ENDROOT
BRANCH   2   5
ATOM      5  C   UNL     1      -9.568 -11.196   0.509  1.00  0.00     0.171 C 
ATOM      6  C   UNL     1      -9.514 -14.091   0.377  1.00  0.00     0.214 C 
ATOM      7  N   UNL     1      -9.225 -13.432   1.629  1.00  0.00    -0.303 N 
ATOM      8  C   UNL     1      -9.121 -13.270  -0.841  1.00  0.00     0.057 C 
ATOM      9  C   UNL     1      -9.283 -12.055   1.774  1.00  0.00     0.247 C 
ATOM     10  C   UNL     1      -9.825 -11.932  -0.805  1.00  0.00     0.040 C 
ATOM     11  O   UNL     1      -9.119 -11.503   2.870  1.00  0.00    -0.272 OA
BRANCH   6  12
ATOM     12  O   UNL     1     -10.893 -14.381   0.351  1.00  0.00    -0.373 OA
ATOM     13  H   UNL     1     -11.352 -13.568   0.049  1.00  0.00     0.213 HD
ENDBRANCH   6  12
BRANCH   7  14
ATOM     14  C   UNL     1      -9.004 -14.297   2.807  1.00  0.00     0.177 C 
BRANCH  14  15
ATOM     15  C   UNL     1      -7.528 -14.541   3.174  1.00  0.00     0.038 C 
BRANCH  15  16
ATOM     16  C   UNL     1      -7.122 -15.868   3.854  1.00  0.00    -0.015 C 
ATOM     17  C   UNL     1      -5.641 -16.200   3.648  1.00  0.00     0.007 C 
ATOM     18  C   UNL     1      -7.957 -17.021   3.281  1.00  0.00     0.007 C 
ENDBRANCH  15  16
ENDBRANCH  14  15
BRANCH  14  19
ATOM     19  C   UNL     1     -10.178 -14.129   3.833  1.00  0.00     0.245 C 
ATOM     20  O   UNL     1     -11.328 -14.090   3.365  1.00  0.00    -0.272 OA
BRANCH  19  21
ATOM     21  N   UNL     1      -9.994 -13.913   5.187  1.00  0.00    -0.332 N 
ATOM     22  C   UNL     1      -9.519 -12.679   5.787  1.00  0.00     0.147 C 
BRANCH  21  23
ATOM     23  C   UNL     1     -10.293 -15.036   6.118  1.00  0.00     0.178 C 
BRANCH  23  24
ATOM     24  C   UNL     1      -9.246 -15.250   7.230  1.00  0.00     0.070 C 
BRANCH  24  25
ATOM     25  C   UNL     1      -8.382 -16.485   7.133  1.00  0.00    -0.045 A 
ATOM     26  C   UNL     1      -8.931 -17.719   6.761  1.00  0.00     0.004 A 
ATOM     27  C   UNL     1      -7.010 -16.413   7.421  1.00  0.00     0.004 A 
ATOM     28  C   UNL     1      -8.129 -18.859   6.691  1.00  0.00     0.000 A 
ATOM     29  C   UNL     1      -6.209 -17.554   7.348  1.00  0.00     0.000 A 
ATOM     30  C   UNL     1      -6.770 -18.777   6.986  1.00  0.00     0.000 A 
ENDBRANCH  24  25
ENDBRANCH  23  24
BRANCH  23  31
ATOM     31  C   UNL     1     -11.764 -15.047   6.597  1.00  0.00     0.243 C 
ATOM     32  O   UNL     1     -12.225 -15.872   7.382  1.00  0.00    -0.273 OA
ATOM     33  N   UNL     1     -12.574 -14.151   5.919  1.00  0.00    -0.341 N 
ATOM     34  H   UNL     1     -12.133 -13.492   5.273  1.00  0.00     0.164 HD
BRANCH  33  35
ATOM     35  C   UNL     1     -14.023 -14.071   6.123  1.00  0.00     0.194 C 
BRANCH  35  36
ATOM     36  C   UNL     1     -14.833 -15.148   5.348  1.00  0.00     0.017 C 
ATOM     37  C   UNL     1     -14.737 -14.935   3.828  1.00  0.00     0.010 C 
ATOM     38  C   UNL     1     -16.322 -15.165   5.716  1.00  0.00     0.010 C 
ENDBRANCH  35  36
BRANCH  35  39
ATOM     39  C   UNL     1     -14.582 -12.641   5.883  1.00  0.00     0.329 C 
ATOM     40  O   UNL     1     -15.581 -12.193   6.435  1.00  0.00    -0.250 OA
BRANCH  39  41
ATOM     41  O   UNL     1     -13.785 -11.903   5.052  1.00  0.00    -0.458 OA
BRANCH  41  42
ATOM     42  C   UNL     1     -13.408 -10.588   5.526  1.00  0.00     0.205 CG0
ATOM     43  C   UNL     1     -13.507 -10.609   7.050  1.00  0.00     0.056 C 
ATOM     44  G   UNL     1     -14.349  -9.547   4.888  1.00  0.00     0.000 G0
ENDBRANCH  41  42
ENDBRANCH  39  41
ENDBRANCH  35  39
ENDBRANCH  33  35
ENDBRANCH  23  31
ENDBRANCH  21  23
ENDBRANCH  19  21
ENDBRANCH  14  19
ENDBRANCH   7  14
ENDBRANCH   2   5
BRANCH   3  45
ATOM     45  C   UNL     1     -12.948  -9.570   1.296  1.00  0.00     0.171 C 
BRANCH  45  46
ATOM     46  N   UNL     1     -13.648  -9.873   2.537  1.00  0.00    -0.342 N 
ATOM     47  C   UNL     1     -13.661  -9.009   3.604  1.00  0.00     0.247 C 
ATOM     48  O   UNL     1     -13.147  -7.891   3.565  1.00  0.00    -0.273 OA
ATOM     49  H   UNL     1     -14.134 -10.766   2.592  1.00  0.00     0.164 HD
BRANCH  47  50
ATOM     50  C   UNL     1     -14.342  -9.550   4.869  1.00  0.00     0.212 CG0
ATOM     51  G   UNL     1     -13.380 -10.562   5.522  1.00  0.00     0.000 G0
BRANCH  50  52
ATOM     52  N   UNL     1     -14.599  -8.379   5.703  1.00  0.00    -0.339 N 
ATOM     53  C   UNL     1     -15.621  -7.491   5.466  1.00  0.00     0.243 C 
ATOM     54  O   UNL     1     -16.368  -7.586   4.496  1.00  0.00    -0.273 OA
ATOM     55  H   UNL     1     -13.946  -8.184   6.459  1.00  0.00     0.164 HD
BRANCH  53  56
ATOM     56  C   UNL     1     -15.642  -6.287   6.428  1.00  0.00     0.182 C 
BRANCH  56  57
ATOM     57  N   UNL     1     -16.391  -5.165   5.851  1.00  0.00    -0.344 N 
ATOM     58  C   UNL     1     -15.878  -3.893   5.788  1.00  0.00     0.220 C 
ATOM     59  O   UNL     1     -14.793  -3.590   6.274  1.00  0.00    -0.275 OA
ATOM     60  H   UNL     1     -17.245  -5.392   5.349  1.00  0.00     0.164 HD
BRANCH  58  61
ATOM     61  C   UNL     1     -16.801  -2.905   5.099  1.00  0.00     0.100 C 
BRANCH  61  62
ATOM     62  C   UNL     1     -17.543  -3.491   3.897  1.00  0.00     0.010 C 
BRANCH  62  63
ATOM     63  C   UNL     1     -16.933  -3.118   2.540  1.00  0.00     0.000 C 
BRANCH  63  64
ATOM     64  C   UNL     1     -17.962  -2.858   1.441  1.00  0.00    -0.003 C 
ATOM     65  C   UNL     1     -19.156  -3.793   1.565  1.00  0.00     0.004 C 
ENDBRANCH  63  64
ENDBRANCH  62  63
ENDBRANCH  61  62
ENDBRANCH  58  61
ENDBRANCH  56  57
BRANCH  56  66
ATOM     66  C   UNL     1     -14.230  -5.881   6.849  1.00  0.00     0.157 C 
BRANCH  66  67
ATOM     67  C   UNL     1     -13.993  -6.170   8.304  1.00  0.00     0.305 C 
ATOM     68  O   UNL     1     -14.052  -5.373   9.228  1.00  0.00    -0.252 OA
BRANCH  67  69
ATOM     69  O   UNL     1     -13.743  -7.473   8.533  1.00  0.00    -0.481 OA
ATOM     70  H   UNL     1     -14.536  -7.943   8.199  1.00  0.00     0.296 HD
ENDBRANCH  67  69
ENDBRANCH  66  67
ENDBRANCH  56  66
ENDBRANCH  53  56
ENDBRANCH  50  52
ENDBRANCH  47  50
ENDBRANCH  45  46
BRANCH  45  71
ATOM     71  C   UNL     1     -13.902  -9.564   0.096  1.00  0.00     0.037 C 
BRANCH  71  72
ATOM     72  C   UNL     1     -14.712 -10.859  -0.002  1.00  0.00     0.026 C 
BRANCH  72  73
ATOM     73  C   UNL     1     -16.193 -10.617   0.285  1.00  0.00     0.146 C 
BRANCH  73  74
ATOM     74  N   UNL     1     -16.376 -10.632   1.733  1.00  0.00    -0.254 NA
ATOM     75  C   UNL     1     -16.883 -11.685   2.261  1.00  0.00     0.185 C 
ATOM     76  N   UNL     1     -17.063 -11.729   3.591  1.00  0.00    -0.370 N 
ATOM     77  N   UNL     1     -17.288 -12.819   1.664  1.00  0.00    -0.370 N 
ATOM     78  H   UNL     1     -16.791 -10.911   4.117  1.00  0.00     0.159 HD
ATOM     79  H   UNL     1     -17.583 -12.453   4.056  1.00  0.00     0.159 HD
ATOM     80  H   UNL     1     -17.209 -12.930   0.664  1.00  0.00     0.159 HD
ATOM     81  H   UNL     1     -17.565 -13.627   2.197  1.00  0.00     0.159 HD
ENDBRANCH  73  74
ENDBRANCH  72  73
ENDBRANCH  71  72
ENDBRANCH  45  71
ENDBRANCH   3  45
TORSDOF 20
ENDMDL
MODEL 9
REMARK VINA RESULT:    -5.648      2.527      4.231
REMARK INTER + INTRA:         -22.965
REMARK INTER:                 -16.759
REMARK INTRA:                  -6.205
REMARK UNBOUND:                -6.750
REMARK SMILES CCCCCC(=O)N[C@H](CC(=O)O)C(=O)N[C@H]1C(=O)N[C@H](CCCN=C(N)N)C(=O)N[C@@H]2CC[C@H](O)N(C2=O)[C@@H](CC(C)C)C(=O)N(C)[C@@H](Cc2ccccc2)C(=O)N[C@H](C(C)C)C(=O)O[C@@H]1C
REMARK SMILES IDX 30 1 31 2 29 3 32 5 35 6 37 7 34 8 38 9 33 10 39 11 36 12
REMARK SMILES IDX 40 14 41 15 42 16 43 17 44 18 45 19 46 20 47 21 48 22 49 23
REMARK SMILES IDX 50 24 51 25 52 26 56 27 53 28 55 29 54 30 57 31 58 32 59 33
REMARK SMILES IDX 60 35 61 36 62 37 63 38 64 39 65 40 66 41 67 42 68 43 21 45
REMARK SMILES IDX 20 46 18 47 19 48 17 50 16 52 14 53 15 54 9 56 8 57 6 58
REMARK SMILES IDX 7 59 5 61 4 62 3 63 2 64 1 65 10 66 11 67 12 68 13 69 22 71
REMARK SMILES IDX 23 72 24 73 25 74 26 75 27 76 28 77
REMARK H PARENT 31 4 36 13 59 34 20 49 16 55 8 60 13 70 27 78 27 79 28 80
REMARK H PARENT 28 81
REMARK Flexibility Score:  259.900
ROOT
ATOM      1  O   UNL     1     -12.447 -15.105   1.570  1.00  0.00    -0.273 OA
ATOM      2  N   UNL     1     -13.915 -13.656   2.558  1.00  0.00    -0.343 N 
ATOM      3  C   UNL     1     -13.118 -14.074   1.514  1.00  0.00     0.243 C 
ATOM      4  H   UNL     1     -14.464 -12.810   2.471  1.00  0.00     0.164 HD
ENDROOT
BRANCH   2   5
ATOM      5  C   UNL     1     -13.903 -14.366   3.832  1.00  0.00     0.171 C 
ATOM      6  C   UNL     1     -14.828 -13.655   6.486  1.00  0.00     0.214 C 
ATOM      7  N   UNL     1     -13.466 -13.361   6.107  1.00  0.00    -0.303 N 
ATOM      8  C   UNL     1     -15.396 -14.881   5.789  1.00  0.00     0.057 C 
ATOM      9  C   UNL     1     -12.974 -13.628   4.839  1.00  0.00     0.247 C 
ATOM     10  C   UNL     1     -15.323 -14.697   4.289  1.00  0.00     0.040 C 
ATOM     11  O   UNL     1     -11.833 -13.295   4.494  1.00  0.00    -0.272 OA
BRANCH   6  12
ATOM     12  O   UNL     1     -15.610 -12.519   6.199  1.00  0.00    -0.373 OA
ATOM     13  H   UNL     1     -15.110 -11.985   5.545  1.00  0.00     0.213 HD
ENDBRANCH   6  12
BRANCH   7  14
ATOM     14  C   UNL     1     -12.642 -12.621   7.086  1.00  0.00     0.177 C 
BRANCH  14  15
ATOM     15  C   UNL     1     -13.419 -11.656   8.001  1.00  0.00     0.038 C 
BRANCH  15  16
ATOM     16  C   UNL     1     -13.318 -10.134   7.764  1.00  0.00    -0.015 C 
ATOM     17  C   UNL     1     -14.052  -9.324   8.836  1.00  0.00     0.007 C 
ATOM     18  C   UNL     1     -13.921  -9.781   6.398  1.00  0.00     0.007 C 
ENDBRANCH  15  16
ENDBRANCH  14  15
BRANCH  14  19
ATOM     19  C   UNL     1     -11.405 -13.483   7.517  1.00  0.00     0.245 C 
ATOM     20  O   UNL     1     -10.363 -12.867   7.793  1.00  0.00    -0.272 OA
BRANCH  19  21
ATOM     21  N   UNL     1     -11.385 -14.867   7.497  1.00  0.00    -0.332 N 
ATOM     22  C   UNL     1     -12.465 -15.732   7.936  1.00  0.00     0.147 C 
BRANCH  21  23
ATOM     23  C   UNL     1     -10.154 -15.537   6.994  1.00  0.00     0.178 C 
BRANCH  23  24
ATOM     24  C   UNL     1      -9.733 -16.792   7.786  1.00  0.00     0.070 C 
BRANCH  24  25
ATOM     25  C   UNL     1      -8.372 -17.373   7.483  1.00  0.00    -0.045 A 
ATOM     26  C   UNL     1      -8.246 -18.632   6.882  1.00  0.00     0.004 A 
ATOM     27  C   UNL     1      -7.209 -16.657   7.805  1.00  0.00     0.004 A 
ATOM     28  C   UNL     1      -6.984 -19.169   6.620  1.00  0.00     0.000 A 
ATOM     29  C   UNL     1      -5.948 -17.195   7.542  1.00  0.00     0.000 A 
ATOM     30  C   UNL     1      -5.837 -18.452   6.952  1.00  0.00     0.000 A 
ENDBRANCH  24  25
ENDBRANCH  23  24
BRANCH  23  31
ATOM     31  C   UNL     1     -10.141 -15.703   5.456  1.00  0.00     0.243 C 
ATOM     32  O   UNL     1     -10.851 -16.498   4.845  1.00  0.00    -0.273 OA
ATOM     33  N   UNL     1      -9.122 -15.003   4.832  1.00  0.00    -0.341 N 
ATOM     34  H   UNL     1      -8.561 -14.359   5.395  1.00  0.00     0.164 HD
BRANCH  33  35
ATOM     35  C   UNL     1      -8.845 -15.105   3.397  1.00  0.00     0.194 C 
BRANCH  35  36
ATOM     36  C   UNL     1      -7.724 -16.120   3.037  1.00  0.00     0.017 C 
ATOM     37  C   UNL     1      -8.271 -17.556   2.968  1.00  0.00     0.010 C 
ATOM     38  C   UNL     1      -6.563 -16.118   4.039  1.00  0.00     0.010 C 
ENDBRANCH  35  36
BRANCH  35  39
ATOM     39  C   UNL     1      -8.609 -13.719   2.734  1.00  0.00     0.329 C 
ATOM     40  O   UNL     1      -7.782 -12.904   3.124  1.00  0.00    -0.250 OA
BRANCH  39  41
ATOM     41  O   UNL     1      -9.367 -13.545   1.609  1.00  0.00    -0.458 OA
BRANCH  41  42
ATOM     42  C   UNL     1      -8.677 -13.680   0.343  1.00  0.00     0.205 CG0
ATOM     43  C   UNL     1      -7.259 -13.150   0.540  1.00  0.00     0.056 C 
ATOM     44  G   UNL     1      -9.457 -12.892  -0.728  1.00  0.00     0.000 G0
ENDBRANCH  41  42
ENDBRANCH  39  41
ENDBRANCH  35  39
ENDBRANCH  33  35
ENDBRANCH  23  31
ENDBRANCH  21  23
ENDBRANCH  19  21
ENDBRANCH  14  19
ENDBRANCH   7  14
ENDBRANCH   2   5
BRANCH   3  45
ATOM     45  C   UNL     1     -13.141 -13.177   0.270  1.00  0.00     0.171 C 
BRANCH  45  46
ATOM     46  N   UNL     1     -11.765 -12.744   0.070  1.00  0.00    -0.342 N 
ATOM     47  C   UNL     1     -10.897 -13.410  -0.759  1.00  0.00     0.247 C 
ATOM     48  O   UNL     1     -11.236 -14.372  -1.448  1.00  0.00    -0.273 OA
ATOM     49  H   UNL     1     -11.458 -11.917   0.579  1.00  0.00     0.164 HD
BRANCH  47  50
ATOM     50  C   UNL     1      -9.454 -12.883  -0.747  1.00  0.00     0.212 CG0
ATOM     51  G   UNL     1      -8.678 -13.671   0.326  1.00  0.00     0.000 G0
BRANCH  50  52
ATOM     52  N   UNL     1      -8.950 -13.101  -2.100  1.00  0.00    -0.339 N 
ATOM     53  C   UNL     1      -8.856 -12.104  -3.042  1.00  0.00     0.243 C 
ATOM     54  O   UNL     1      -9.243 -10.958  -2.832  1.00  0.00    -0.273 OA
ATOM     55  H   UNL     1      -8.717 -14.054  -2.371  1.00  0.00     0.164 HD
BRANCH  53  56
ATOM     56  C   UNL     1      -8.376 -12.590  -4.424  1.00  0.00     0.182 C 
BRANCH  56  57
ATOM     57  N   UNL     1      -8.383 -14.054  -4.499  1.00  0.00    -0.344 N 
ATOM     58  C   UNL     1      -8.712 -14.731  -5.648  1.00  0.00     0.220 C 
ATOM     59  O   UNL     1      -9.093 -14.164  -6.666  1.00  0.00    -0.275 OA
ATOM     60  H   UNL     1      -7.978 -14.557  -3.714  1.00  0.00     0.164 HD
BRANCH  58  61
ATOM     61  C   UNL     1      -8.594 -16.238  -5.513  1.00  0.00     0.100 C 
BRANCH  61  62
ATOM     62  C   UNL     1      -7.156 -16.731  -5.344  1.00  0.00     0.010 C 
BRANCH  62  63
ATOM     63  C   UNL     1      -6.995 -17.851  -4.308  1.00  0.00     0.000 C 
BRANCH  63  64
ATOM     64  C   UNL     1      -6.101 -19.002  -4.764  1.00  0.00    -0.003 C 
ATOM     65  C   UNL     1      -6.252 -20.215  -3.857  1.00  0.00     0.004 C 
ENDBRANCH  63  64
ENDBRANCH  62  63
ENDBRANCH  61  62
ENDBRANCH  58  61
ENDBRANCH  56  57
BRANCH  56  66
ATOM     66  C   UNL     1      -7.013 -12.000  -4.783  1.00  0.00     0.157 C 
BRANCH  66  67
ATOM     67  C   UNL     1      -5.931 -13.037  -4.693  1.00  0.00     0.305 C 
ATOM     68  O   UNL     1      -5.413 -13.638  -5.622  1.00  0.00    -0.252 OA
BRANCH  67  69
ATOM     69  O   UNL     1      -5.513 -13.232  -3.428  1.00  0.00    -0.481 OA
ATOM     70  H   UNL     1      -4.537 -13.146  -3.471  1.00  0.00     0.296 HD
ENDBRANCH  67  69
ENDBRANCH  66  67
ENDBRANCH  56  66
ENDBRANCH  53  56
ENDBRANCH  50  52
ENDBRANCH  47  50
ENDBRANCH  45  46
BRANCH  45  71
ATOM     71  C   UNL     1     -14.082 -11.986   0.487  1.00  0.00     0.037 C 
BRANCH  71  72
ATOM     72  C   UNL     1     -13.395 -10.649   0.200  1.00  0.00     0.026 C 
BRANCH  72  73
ATOM     73  C   UNL     1     -12.869 -10.003   1.480  1.00  0.00     0.146 C 
BRANCH  73  74
ATOM     74  N   UNL     1     -11.427 -10.219   1.530  1.00  0.00    -0.254 NA
ATOM     75  C   UNL     1     -10.879 -10.337   2.683  1.00  0.00     0.185 C 
ATOM     76  N   UNL     1      -9.553 -10.539   2.762  1.00  0.00    -0.370 N 
ATOM     77  N   UNL     1     -11.450 -10.290   3.899  1.00  0.00    -0.370 N 
ATOM     78  H   UNL     1      -9.044 -10.580   1.891  1.00  0.00     0.159 HD
ATOM     79  H   UNL     1      -9.037 -10.496   3.623  1.00  0.00     0.159 HD
ATOM     80  H   UNL     1     -12.444 -10.148   3.994  1.00  0.00     0.159 HD
ATOM     81  H   UNL     1     -10.934 -10.512   4.734  1.00  0.00     0.159 HD
ENDBRANCH  73  74
ENDBRANCH  72  73
ENDBRANCH  71  72
ENDBRANCH  45  71
ENDBRANCH   3  45
TORSDOF 20
ENDMDL
MODEL 10
REMARK VINA RESULT:    -5.548      2.139      3.446
REMARK INTER + INTRA:         -22.676
REMARK INTER:                 -18.734
REMARK INTRA:                  -3.942
REMARK UNBOUND:                -6.750
REMARK SMILES CCCCCC(=O)N[C@H](CC(=O)O)C(=O)N[C@H]1C(=O)N[C@H](CCCN=C(N)N)C(=O)N[C@@H]2CC[C@H](O)N(C2=O)[C@@H](CC(C)C)C(=O)N(C)[C@@H](Cc2ccccc2)C(=O)N[C@H](C(C)C)C(=O)O[C@@H]1C
REMARK SMILES IDX 30 1 31 2 29 3 32 5 35 6 37 7 34 8 38 9 33 10 39 11 36 12
REMARK SMILES IDX 40 14 41 15 42 16 43 17 44 18 45 19 46 20 47 21 48 22 49 23
REMARK SMILES IDX 50 24 51 25 52 26 56 27 53 28 55 29 54 30 57 31 58 32 59 33
REMARK SMILES IDX 60 35 61 36 62 37 63 38 64 39 65 40 66 41 67 42 68 43 21 45
REMARK SMILES IDX 20 46 18 47 19 48 17 50 16 52 14 53 15 54 9 56 8 57 6 58
REMARK SMILES IDX 7 59 5 61 4 62 3 63 2 64 1 65 10 66 11 67 12 68 13 69 22 71
REMARK SMILES IDX 23 72 24 73 25 74 26 75 27 76 28 77
REMARK H PARENT 31 4 36 13 59 34 20 49 16 55 8 60 13 70 27 78 27 79 28 80
REMARK H PARENT 28 81
REMARK Flexibility Score:  259.900
ROOT
ATOM      1  O   UNL     1     -14.446 -12.923   3.200  1.00  0.00    -0.273 OA
ATOM      2  N   UNL     1     -14.456 -14.564   1.607  1.00  0.00    -0.343 N 
ATOM      3  C   UNL     1     -14.566 -13.253   2.020  1.00  0.00     0.243 C 
ATOM      4  H   UNL     1     -14.546 -14.797   0.626  1.00  0.00     0.164 HD
ENDROOT
BRANCH   2   5
ATOM      5  C   UNL     1     -14.309 -15.639   2.582  1.00  0.00     0.171 C 
ATOM      6  C   UNL     1     -14.070 -15.652   5.471  1.00  0.00     0.214 C 
ATOM      7  N   UNL     1     -12.877 -15.597   4.660  1.00  0.00    -0.303 N 
ATOM      8  C   UNL     1     -15.218 -16.392   4.803  1.00  0.00     0.057 C 
ATOM      9  C   UNL     1     -12.921 -15.536   3.277  1.00  0.00     0.247 C 
ATOM     10  C   UNL     1     -15.544 -15.741   3.477  1.00  0.00     0.040 C 
ATOM     11  O   UNL     1     -11.898 -15.401   2.592  1.00  0.00    -0.272 OA
BRANCH   6  12
ATOM     12  O   UNL     1     -14.447 -14.329   5.774  1.00  0.00    -0.373 OA
ATOM     13  H   UNL     1     -14.841 -13.949   4.960  1.00  0.00     0.213 HD
ENDBRANCH   6  12
BRANCH   7  14
ATOM     14  C   UNL     1     -11.588 -15.457   5.371  1.00  0.00     0.177 C 
BRANCH  14  15
ATOM     15  C   UNL     1     -11.651 -14.668   6.694  1.00  0.00     0.038 C 
BRANCH  15  16
ATOM     16  C   UNL     1     -10.973 -13.283   6.787  1.00  0.00    -0.015 C 
ATOM     17  C   UNL     1      -9.644 -13.333   7.547  1.00  0.00     0.007 C 
ATOM     18  C   UNL     1     -11.902 -12.298   7.508  1.00  0.00     0.007 C 
ENDBRANCH  15  16
ENDBRANCH  14  15
BRANCH  14  19
ATOM     19  C   UNL     1     -10.681 -16.706   5.103  1.00  0.00     0.245 C 
ATOM     20  O   UNL     1     -10.963 -17.746   5.722  1.00  0.00    -0.272 OA
BRANCH  19  21
ATOM     21  N   UNL     1      -9.541 -16.677   4.319  1.00  0.00    -0.332 N 
ATOM     22  C   UNL     1      -9.327 -17.460   3.114  1.00  0.00     0.147 C 
BRANCH  21  23
ATOM     23  C   UNL     1      -8.429 -15.782   4.740  1.00  0.00     0.178 C 
BRANCH  23  24
ATOM     24  C   UNL     1      -7.498 -16.372   5.819  1.00  0.00     0.070 C 
BRANCH  24  25
ATOM     25  C   UNL     1      -6.859 -17.708   5.522  1.00  0.00    -0.045 A 
ATOM     26  C   UNL     1      -7.610 -18.890   5.572  1.00  0.00     0.004 A 
ATOM     27  C   UNL     1      -5.497 -17.784   5.194  1.00  0.00     0.004 A 
ATOM     28  C   UNL     1      -7.008 -20.123   5.312  1.00  0.00     0.000 A 
ATOM     29  C   UNL     1      -4.897 -19.017   4.934  1.00  0.00     0.000 A 
ATOM     30  C   UNL     1      -5.653 -20.186   4.996  1.00  0.00     0.000 A 
ENDBRANCH  24  25
ENDBRANCH  23  24
BRANCH  23  31
ATOM     31  C   UNL     1      -7.702 -15.119   3.545  1.00  0.00     0.243 C 
ATOM     32  O   UNL     1      -6.640 -15.522   3.078  1.00  0.00    -0.273 OA
ATOM     33  N   UNL     1      -8.260 -13.912   3.160  1.00  0.00    -0.341 N 
ATOM     34  H   UNL     1      -9.143 -13.626   3.589  1.00  0.00     0.164 HD
BRANCH  33  35
ATOM     35  C   UNL     1      -7.669 -13.052   2.130  1.00  0.00     0.194 C 
BRANCH  35  36
ATOM     36  C   UNL     1      -7.644 -11.542   2.502  1.00  0.00     0.017 C 
ATOM     37  C   UNL     1      -6.432 -10.832   1.875  1.00  0.00     0.010 C 
ATOM     38  C   UNL     1      -7.590 -11.293   4.014  1.00  0.00     0.010 C 
ENDBRANCH  35  36
BRANCH  35  39
ATOM     39  C   UNL     1      -8.286 -13.293   0.724  1.00  0.00     0.329 C 
ATOM     40  O   UNL     1      -7.628 -13.533  -0.282  1.00  0.00    -0.250 OA
BRANCH  39  41
ATOM     41  O   UNL     1      -9.653 -13.294   0.749  1.00  0.00    -0.458 OA
BRANCH  41  42
ATOM     42  C   UNL     1     -10.290 -12.019   1.004  1.00  0.00     0.205 CG0
ATOM     43  C   UNL     1     -11.081 -12.159   2.303  1.00  0.00     0.056 C 
ATOM     44  G   UNL     1     -11.189 -11.669  -0.198  1.00  0.00     0.000 G0
ENDBRANCH  41  42
ENDBRANCH  39  41
ENDBRANCH  35  39
ENDBRANCH  33  35
ENDBRANCH  23  31
ENDBRANCH  21  23
ENDBRANCH  19  21
ENDBRANCH  14  19
ENDBRANCH   7  14
ENDBRANCH   2   5
BRANCH   3  45
ATOM     45  C   UNL     1     -14.826 -12.233   0.904  1.00  0.00     0.171 C 
BRANCH  45  46
ATOM     46  N   UNL     1     -13.526 -11.657   0.586  1.00  0.00    -0.342 N 
ATOM     47  C   UNL     1     -12.551 -12.359  -0.075  1.00  0.00     0.247 C 
ATOM     48  O   UNL     1     -12.727 -13.497  -0.512  1.00  0.00    -0.273 OA
ATOM     49  H   UNL     1     -13.359 -10.696   0.880  1.00  0.00     0.164 HD
BRANCH  47  50
ATOM     50  C   UNL     1     -11.205 -11.633  -0.210  1.00  0.00     0.212 CG0
ATOM     51  G   UNL     1     -10.328 -12.046   0.989  1.00  0.00     0.000 G0
BRANCH  50  52
ATOM     52  N   UNL     1     -10.660 -12.059  -1.497  1.00  0.00    -0.339 N 
ATOM     53  C   UNL     1      -9.613 -11.426  -2.121  1.00  0.00     0.243 C 
ATOM     54  O   UNL     1      -9.085 -10.415  -1.666  1.00  0.00    -0.273 OA
ATOM     55  H   UNL     1     -11.128 -12.825  -1.978  1.00  0.00     0.164 HD
BRANCH  53  56
ATOM     56  C   UNL     1      -9.269 -12.001  -3.510  1.00  0.00     0.182 C 
BRANCH  56  57
ATOM     57  N   UNL     1      -8.788 -13.382  -3.403  1.00  0.00    -0.344 N 
ATOM     58  C   UNL     1      -9.533 -14.456  -3.827  1.00  0.00     0.220 C 
ATOM     59  O   UNL     1     -10.677 -14.342  -4.255  1.00  0.00    -0.275 OA
ATOM     60  H   UNL     1      -7.812 -13.512  -3.151  1.00  0.00     0.164 HD
BRANCH  58  61
ATOM     61  C   UNL     1      -8.815 -15.784  -3.675  1.00  0.00     0.100 C 
BRANCH  61  62
ATOM     62  C   UNL     1      -7.600 -15.936  -4.590  1.00  0.00     0.010 C 
BRANCH  62  63
ATOM     63  C   UNL     1      -6.251 -15.809  -3.869  1.00  0.00     0.000 C 
BRANCH  63  64
ATOM     64  C   UNL     1      -5.480 -14.533  -4.203  1.00  0.00    -0.003 C 
ATOM     65  C   UNL     1      -4.871 -13.911  -2.955  1.00  0.00     0.004 C 
ENDBRANCH  63  64
ENDBRANCH  62  63
ENDBRANCH  61  62
ENDBRANCH  58  61
ENDBRANCH  56  57
BRANCH  56  66
ATOM     66  C   UNL     1      -8.286 -11.104  -4.260  1.00  0.00     0.157 C 
BRANCH  66  67
ATOM     67  C   UNL     1      -8.409 -11.286  -5.745  1.00  0.00     0.305 C 
ATOM     68  O   UNL     1      -7.977 -10.542  -6.613  1.00  0.00    -0.252 OA
BRANCH  67  69
ATOM     69  O   UNL     1      -9.032 -12.434  -6.071  1.00  0.00    -0.481 OA
ATOM     70  H   UNL     1      -9.479 -12.719  -5.246  1.00  0.00     0.296 HD
ENDBRANCH  67  69
ENDBRANCH  66  67
ENDBRANCH  56  66
ENDBRANCH  53  56
ENDBRANCH  50  52
ENDBRANCH  47  50
ENDBRANCH  45  46
BRANCH  45  71
ATOM     71  C   UNL     1     -15.818 -11.165   1.378  1.00  0.00     0.037 C 
BRANCH  71  72
ATOM     72  C   UNL     1     -15.117  -9.861   1.768  1.00  0.00     0.026 C 
BRANCH  72  73
ATOM     73  C   UNL     1     -15.601  -9.350   3.124  1.00  0.00     0.146 C 
BRANCH  73  74
ATOM     74  N   UNL     1     -14.528  -9.563   4.090  1.00  0.00    -0.254 NA
ATOM     75  C   UNL     1     -14.716  -9.159   5.292  1.00  0.00     0.185 C 
ATOM     76  N   UNL     1     -13.748  -9.342   6.205  1.00  0.00    -0.370 N 
ATOM     77  N   UNL     1     -15.789  -8.545   5.820  1.00  0.00    -0.370 N 
ATOM     78  H   UNL     1     -12.900  -9.792   5.889  1.00  0.00     0.159 HD
ATOM     79  H   UNL     1     -13.763  -8.928   7.120  1.00  0.00     0.159 HD
ATOM     80  H   UNL     1     -16.598  -8.346   5.250  1.00  0.00     0.159 HD
ATOM     81  H   UNL     1     -15.869  -8.378   6.809  1.00  0.00     0.159 HD
ENDBRANCH  73  74
ENDBRANCH  72  73
ENDBRANCH  71  72
ENDBRANCH  45  71
ENDBRANCH   3  45
TORSDOF 20
ENDMDL
MODEL 11
REMARK VINA RESULT:    -5.501      2.089      2.882
REMARK INTER + INTRA:         -22.544
REMARK INTER:                 -18.938
REMARK INTRA:                  -3.606
REMARK UNBOUND:                -6.750
REMARK SMILES CCCCCC(=O)N[C@H](CC(=O)O)C(=O)N[C@H]1C(=O)N[C@H](CCCN=C(N)N)C(=O)N[C@@H]2CC[C@H](O)N(C2=O)[C@@H](CC(C)C)C(=O)N(C)[C@@H](Cc2ccccc2)C(=O)N[C@H](C(C)C)C(=O)O[C@@H]1C
REMARK SMILES IDX 30 1 31 2 29 3 32 5 35 6 37 7 34 8 38 9 33 10 39 11 36 12
REMARK SMILES IDX 40 14 41 15 42 16 43 17 44 18 45 19 46 20 47 21 48 22 49 23
REMARK SMILES IDX 50 24 51 25 52 26 56 27 53 28 55 29 54 30 57 31 58 32 59 33
REMARK SMILES IDX 60 35 61 36 62 37 63 38 64 39 65 40 66 41 67 42 68 43 21 45
REMARK SMILES IDX 20 46 18 47 19 48 17 50 16 52 14 53 15 54 9 56 8 57 6 58
REMARK SMILES IDX 7 59 5 61 4 62 3 63 2 64 1 65 10 66 11 67 12 68 13 69 22 71
REMARK SMILES IDX 23 72 24 73 25 74 26 75 27 76 28 77
REMARK H PARENT 31 4 36 13 59 34 20 49 16 55 8 60 13 70 27 78 27 79 28 80
REMARK H PARENT 28 81
REMARK Flexibility Score:  259.900
ROOT
ATOM      1  O   UNL     1     -15.009 -10.963   2.895  1.00  0.00    -0.273 OA
ATOM      2  N   UNL     1     -15.636 -12.664   1.500  1.00  0.00    -0.343 N 
ATOM      3  C   UNL     1     -15.238 -11.369   1.755  1.00  0.00     0.243 C 
ATOM      4  H   UNL     1     -15.801 -12.967   0.548  1.00  0.00     0.164 HD
ENDROOT
BRANCH   2   5
ATOM      5  C   UNL     1     -15.920 -13.583   2.597  1.00  0.00     0.171 C 
ATOM      6  C   UNL     1     -15.626 -13.360   5.472  1.00  0.00     0.214 C 
ATOM      7  N   UNL     1     -14.540 -13.898   4.687  1.00  0.00    -0.303 N 
ATOM      8  C   UNL     1     -16.996 -13.629   4.869  1.00  0.00     0.057 C 
ATOM      9  C   UNL     1     -14.595 -13.985   3.305  1.00  0.00     0.247 C 
ATOM     10  C   UNL     1     -17.060 -13.060   3.469  1.00  0.00     0.040 C 
ATOM     11  O   UNL     1     -13.628 -14.366   2.633  1.00  0.00    -0.272 OA
BRANCH   6  12
ATOM     12  O   UNL     1     -15.412 -11.974   5.610  1.00  0.00    -0.373 OA
ATOM     13  H   UNL     1     -15.982 -11.529   4.947  1.00  0.00     0.213 HD
ENDBRANCH   6  12
BRANCH   7  14
ATOM     14  C   UNL     1     -13.290 -14.224   5.405  1.00  0.00     0.177 C 
BRANCH  14  15
ATOM     15  C   UNL     1     -13.073 -13.458   6.725  1.00  0.00     0.038 C 
BRANCH  15  16
ATOM     16  C   UNL     1     -11.949 -12.403   6.818  1.00  0.00    -0.015 C 
ATOM     17  C   UNL     1     -10.863 -12.793   7.825  1.00  0.00     0.007 C 
ATOM     18  C   UNL     1     -12.539 -11.053   7.246  1.00  0.00     0.007 C 
ENDBRANCH  15  16
ENDBRANCH  14  15
BRANCH  14  19
ATOM     19  C   UNL     1     -12.886 -15.716   5.146  1.00  0.00     0.245 C 
ATOM     20  O   UNL     1     -13.595 -16.587   5.675  1.00  0.00    -0.272 OA
BRANCH  19  21
ATOM     21  N   UNL     1     -11.742 -16.098   4.467  1.00  0.00    -0.332 N 
ATOM     22  C   UNL     1     -11.711 -16.777   3.184  1.00  0.00     0.147 C 
BRANCH  21  23
ATOM     23  C   UNL     1     -10.427 -15.805   5.100  1.00  0.00     0.178 C 
BRANCH  23  24
ATOM     24  C   UNL     1      -9.836 -16.965   5.928  1.00  0.00     0.070 C 
BRANCH  24  25
ATOM     25  C   UNL     1     -10.533 -17.311   7.223  1.00  0.00    -0.045 A 
ATOM     26  C   UNL     1     -11.250 -16.340   7.934  1.00  0.00     0.004 A 
ATOM     27  C   UNL     1     -10.467 -18.615   7.735  1.00  0.00     0.004 A 
ATOM     28  C   UNL     1     -11.877 -16.664   9.139  1.00  0.00     0.000 A 
ATOM     29  C   UNL     1     -11.096 -18.938   8.939  1.00  0.00     0.000 A 
ATOM     30  C   UNL     1     -11.798 -17.960   9.641  1.00  0.00     0.000 A 
ENDBRANCH  24  25
ENDBRANCH  23  24
BRANCH  23  31
ATOM     31  C   UNL     1      -9.431 -15.121   4.133  1.00  0.00     0.243 C 
ATOM     32  O   UNL     1      -8.503 -15.704   3.578  1.00  0.00    -0.273 OA
ATOM     33  N   UNL     1      -9.562 -13.744   4.088  1.00  0.00    -0.341 N 
ATOM     34  H   UNL     1     -10.352 -13.315   4.576  1.00  0.00     0.164 HD
BRANCH  33  35
ATOM     35  C   UNL     1      -8.650 -12.879   3.333  1.00  0.00     0.194 C 
BRANCH  35  36
ATOM     36  C   UNL     1      -8.551 -11.428   3.882  1.00  0.00     0.017 C 
ATOM     37  C   UNL     1      -7.091 -10.944   3.922  1.00  0.00     0.010 C 
ATOM     38  C   UNL     1      -9.123 -11.277   5.296  1.00  0.00     0.010 C 
ENDBRANCH  35  36
BRANCH  35  39
ATOM     39  C   UNL     1      -8.932 -12.904   1.804  1.00  0.00     0.329 C 
ATOM     40  O   UNL     1      -8.088 -13.163   0.955  1.00  0.00    -0.250 OA
BRANCH  39  41
ATOM     41  O   UNL     1     -10.251 -12.687   1.516  1.00  0.00    -0.458 OA
BRANCH  41  42
ATOM     42  C   UNL     1     -10.677 -11.305   1.462  1.00  0.00     0.205 CG0
ATOM     43  C   UNL     1     -11.653 -11.085   2.616  1.00  0.00     0.056 C 
ATOM     44  G   UNL     1     -11.321 -11.042   0.086  1.00  0.00     0.000 G0
ENDBRANCH  41  42
ENDBRANCH  39  41
ENDBRANCH  35  39
ENDBRANCH  33  35
ENDBRANCH  23  31
ENDBRANCH  21  23
ENDBRANCH  19  21
ENDBRANCH  14  19
ENDBRANCH   7  14
ENDBRANCH   2   5
BRANCH   3  45
ATOM     45  C   UNL     1     -15.078 -10.476   0.518  1.00  0.00     0.171 C 
BRANCH  45  46
ATOM     46  N   UNL     1     -13.643 -10.306   0.336  1.00  0.00    -0.342 N 
ATOM     47  C   UNL     1     -12.804 -11.361   0.075  1.00  0.00     0.247 C 
ATOM     48  O   UNL     1     -13.210 -12.511  -0.097  1.00  0.00    -0.273 OA
ATOM     49  H   UNL     1     -13.272  -9.361   0.415  1.00  0.00     0.164 HD
BRANCH  47  50
ATOM     50  C   UNL     1     -11.310 -11.010   0.039  1.00  0.00     0.212 CG0
ATOM     51  G   UNL     1     -10.727 -11.306   1.435  1.00  0.00     0.000 G0
BRANCH  50  52
ATOM     52  N   UNL     1     -10.739 -11.845  -1.014  1.00  0.00    -0.339 N 
ATOM     53  C   UNL     1      -9.554 -11.558  -1.647  1.00  0.00     0.243 C 
ATOM     54  O   UNL     1      -8.906 -10.542  -1.410  1.00  0.00    -0.273 OA
ATOM     55  H   UNL     1     -11.285 -12.643  -1.333  1.00  0.00     0.164 HD
BRANCH  53  56
ATOM     56  C   UNL     1      -9.197 -12.536  -2.784  1.00  0.00     0.182 C 
BRANCH  56  57
ATOM     57  N   UNL     1      -9.618 -12.007  -4.085  1.00  0.00    -0.344 N 
ATOM     58  C   UNL     1      -8.763 -11.320  -4.912  1.00  0.00     0.220 C 
ATOM     59  O   UNL     1      -7.614 -11.038  -4.591  1.00  0.00    -0.275 OA
ATOM     60  H   UNL     1     -10.526 -12.305  -4.431  1.00  0.00     0.164 HD
BRANCH  58  61
ATOM     61  C   UNL     1      -9.396 -10.918  -6.231  1.00  0.00     0.100 C 
BRANCH  61  62
ATOM     62  C   UNL     1     -10.766 -11.551  -6.476  1.00  0.00     0.010 C 
BRANCH  62  63
ATOM     63  C   UNL     1     -11.222 -11.514  -7.940  1.00  0.00     0.000 C 
BRANCH  63  64
ATOM     64  C   UNL     1     -10.765 -12.714  -8.769  1.00  0.00    -0.003 C 
ATOM     65  C   UNL     1     -10.537 -12.329 -10.223  1.00  0.00     0.004 C 
ENDBRANCH  63  64
ENDBRANCH  62  63
ENDBRANCH  61  62
ENDBRANCH  58  61
ENDBRANCH  56  57
BRANCH  56  66
ATOM     66  C   UNL     1      -9.759 -13.932  -2.519  1.00  0.00     0.157 C 
BRANCH  66  67
ATOM     67  C   UNL     1      -9.371 -14.890  -3.608  1.00  0.00     0.305 C 
ATOM     68  O   UNL     1      -9.436 -14.697  -4.813  1.00  0.00    -0.252 OA
BRANCH  67  69
ATOM     69  O   UNL     1      -8.865 -16.039  -3.122  1.00  0.00    -0.481 OA
ATOM     70  H   UNL     1      -7.893 -15.910  -3.136  1.00  0.00     0.296 HD
ENDBRANCH  67  69
ENDBRANCH  66  67
ENDBRANCH  56  66
ENDBRANCH  53  56
ENDBRANCH  50  52
ENDBRANCH  47  50
ENDBRANCH  45  46
BRANCH  45  71
ATOM     71  C   UNL     1     -15.783  -9.132   0.736  1.00  0.00     0.037 C 
BRANCH  71  72
ATOM     72  C   UNL     1     -14.969  -8.193   1.629  1.00  0.00     0.026 C 
BRANCH  72  73
ATOM     73  C   UNL     1     -15.708  -7.874   2.927  1.00  0.00     0.146 C 
BRANCH  73  74
ATOM     74  N   UNL     1     -14.756  -7.254   3.843  1.00  0.00    -0.254 NA
ATOM     75  C   UNL     1     -14.987  -7.347   5.101  1.00  0.00     0.185 C 
ATOM     76  N   UNL     1     -14.128  -6.788   5.969  1.00  0.00    -0.370 N 
ATOM     77  N   UNL     1     -16.010  -7.951   5.729  1.00  0.00    -0.370 N 
ATOM     78  H   UNL     1     -13.332  -6.306   5.578  1.00  0.00     0.159 HD
ATOM     79  H   UNL     1     -14.316  -6.696   6.951  1.00  0.00     0.159 HD
ATOM     80  H   UNL     1     -16.733  -8.419   5.202  1.00  0.00     0.159 HD
ATOM     81  H   UNL     1     -16.026  -8.060   6.730  1.00  0.00     0.159 HD
ENDBRANCH  73  74
ENDBRANCH  72  73
ENDBRANCH  71  72
ENDBRANCH  45  71
ENDBRANCH   3  45
TORSDOF 20
ENDMDL
MODEL 12
REMARK VINA RESULT:    -5.500      1.738      2.931
REMARK INTER + INTRA:         -22.539
REMARK INTER:                 -17.557
REMARK INTRA:                  -4.982
REMARK UNBOUND:                -6.750
REMARK SMILES CCCCCC(=O)N[C@H](CC(=O)O)C(=O)N[C@H]1C(=O)N[C@H](CCCN=C(N)N)C(=O)N[C@@H]2CC[C@H](O)N(C2=O)[C@@H](CC(C)C)C(=O)N(C)[C@@H](Cc2ccccc2)C(=O)N[C@H](C(C)C)C(=O)O[C@@H]1C
REMARK SMILES IDX 30 1 31 2 29 3 32 5 35 6 37 7 34 8 38 9 33 10 39 11 36 12
REMARK SMILES IDX 40 14 41 15 42 16 43 17 44 18 45 19 46 20 47 21 48 22 49 23
REMARK SMILES IDX 50 24 51 25 52 26 56 27 53 28 55 29 54 30 57 31 58 32 59 33
REMARK SMILES IDX 60 35 61 36 62 37 63 38 64 39 65 40 66 41 67 42 68 43 21 45
REMARK SMILES IDX 20 46 18 47 19 48 17 50 16 52 14 53 15 54 9 56 8 57 6 58
REMARK SMILES IDX 7 59 5 61 4 62 3 63 2 64 1 65 10 66 11 67 12 68 13 69 22 71
REMARK SMILES IDX 23 72 24 73 25 74 26 75 27 76 28 77
REMARK H PARENT 31 4 36 13 59 34 20 49 16 55 8 60 13 70 27 78 27 79 28 80
REMARK H PARENT 28 81
REMARK Flexibility Score:  259.900
ROOT
ATOM      1  O   UNL     1     -13.201 -11.935   2.163  1.00  0.00    -0.273 OA
ATOM      2  N   UNL     1     -14.117 -13.369   0.635  1.00  0.00    -0.343 N 
ATOM      3  C   UNL     1     -13.594 -12.153   1.016  1.00  0.00     0.243 C 
ATOM      4  H   UNL     1     -14.417 -13.517  -0.321  1.00  0.00     0.164 HD
ENDROOT
BRANCH   2   5
ATOM      5  C   UNL     1     -14.338 -14.424   1.618  1.00  0.00     0.171 C 
ATOM      6  C   UNL     1     -14.117 -14.491   4.508  1.00  0.00     0.214 C 
ATOM      7  N   UNL     1     -12.974 -14.844   3.700  1.00  0.00    -0.303 N 
ATOM      8  C   UNL     1     -15.446 -14.811   3.842  1.00  0.00     0.057 C 
ATOM      9  C   UNL     1     -12.995 -14.784   2.316  1.00  0.00     0.247 C 
ATOM     10  C   UNL     1     -15.536 -14.099   2.510  1.00  0.00     0.040 C 
ATOM     11  O   UNL     1     -11.986 -15.005   1.634  1.00  0.00    -0.272 OA
BRANCH   6  12
ATOM     12  O   UNL     1     -14.031 -13.116   4.799  1.00  0.00    -0.373 OA
ATOM     13  H   UNL     1     -13.822 -13.037   5.755  1.00  0.00     0.213 HD
ENDBRANCH   6  12
BRANCH   7  14
ATOM     14  C   UNL     1     -11.713 -15.137   4.414  1.00  0.00     0.177 C 
BRANCH  14  15
ATOM     15  C   UNL     1     -11.547 -14.425   5.771  1.00  0.00     0.038 C 
BRANCH  15  16
ATOM     16  C   UNL     1     -10.754 -15.117   6.901  1.00  0.00    -0.015 C 
ATOM     17  C   UNL     1     -11.557 -16.229   7.582  1.00  0.00     0.007 C 
ATOM     18  C   UNL     1     -10.363 -14.085   7.967  1.00  0.00     0.007 C 
ENDBRANCH  15  16
ENDBRANCH  14  15
BRANCH  14  19
ATOM     19  C   UNL     1     -11.228 -16.591   4.088  1.00  0.00     0.245 C 
ATOM     20  O   UNL     1     -12.039 -17.510   4.292  1.00  0.00    -0.272 OA
BRANCH  19  21
ATOM     21  N   UNL     1      -9.937 -16.906   3.701  1.00  0.00    -0.332 N 
ATOM     22  C   UNL     1      -9.562 -18.008   2.833  1.00  0.00     0.147 C 
BRANCH  21  23
ATOM     23  C   UNL     1      -8.829 -16.057   4.220  1.00  0.00     0.178 C 
BRANCH  23  24
ATOM     24  C   UNL     1      -7.682 -16.836   4.896  1.00  0.00     0.070 C 
BRANCH  24  25
ATOM     25  C   UNL     1      -7.809 -17.100   6.378  1.00  0.00    -0.045 A 
ATOM     26  C   UNL     1      -8.399 -18.279   6.849  1.00  0.00     0.004 A 
ATOM     27  C   UNL     1      -7.339 -16.159   7.307  1.00  0.00     0.004 A 
ATOM     28  C   UNL     1      -8.528 -18.508   8.221  1.00  0.00     0.000 A 
ATOM     29  C   UNL     1      -7.468 -16.389   8.678  1.00  0.00     0.000 A 
ATOM     30  C   UNL     1      -8.065 -17.563   9.134  1.00  0.00     0.000 A 
ENDBRANCH  24  25
ENDBRANCH  23  24
BRANCH  23  31
ATOM     31  C   UNL     1      -8.376 -14.973   3.213  1.00  0.00     0.243 C 
ATOM     32  O   UNL     1      -7.782 -15.214   2.166  1.00  0.00    -0.273 OA
ATOM     33  N   UNL     1      -8.534 -13.681   3.684  1.00  0.00    -0.341 N 
ATOM     34  H   UNL     1      -9.032 -13.543   4.567  1.00  0.00     0.164 HD
BRANCH  33  35
ATOM     35  C   UNL     1      -8.065 -12.501   2.951  1.00  0.00     0.194 C 
BRANCH  35  36
ATOM     36  C   UNL     1      -7.439 -11.400   3.854  1.00  0.00     0.017 C 
ATOM     37  C   UNL     1      -8.437 -10.917   4.920  1.00  0.00     0.010 C 
ATOM     38  C   UNL     1      -6.973 -10.168   3.069  1.00  0.00     0.010 C 
ENDBRANCH  35  36
BRANCH  35  39
ATOM     39  C   UNL     1      -9.146 -11.922   1.996  1.00  0.00     0.329 C 
ATOM     40  O   UNL     1     -10.268 -11.585   2.353  1.00  0.00    -0.250 OA
BRANCH  39  41
ATOM     41  O   UNL     1      -8.676 -11.749   0.723  1.00  0.00    -0.458 OA
BRANCH  41  42
ATOM     42  C   UNL     1      -9.206 -12.645  -0.283  1.00  0.00     0.205 CG0
ATOM     43  C   UNL     1      -8.025 -13.408  -0.880  1.00  0.00     0.056 C 
ATOM     44  G   UNL     1      -9.961 -11.809  -1.336  1.00  0.00     0.000 G0
ENDBRANCH  41  42
ENDBRANCH  39  41
ENDBRANCH  35  39
ENDBRANCH  33  35
ENDBRANCH  23  31
ENDBRANCH  21  23
ENDBRANCH  19  21
ENDBRANCH  14  19
ENDBRANCH   7  14
ENDBRANCH   2   5
BRANCH   3  45
ATOM     45  C   UNL     1     -13.515 -11.095  -0.093  1.00  0.00     0.171 C 
BRANCH  45  46
ATOM     46  N   UNL     1     -12.106 -11.008  -0.455  1.00  0.00    -0.342 N 
ATOM     47  C   UNL     1     -11.467 -11.992  -1.167  1.00  0.00     0.247 C 
ATOM     48  O   UNL     1     -12.051 -12.981  -1.613  1.00  0.00    -0.273 OA
ATOM     49  H   UNL     1     -11.598 -10.179  -0.154  1.00  0.00     0.164 HD
BRANCH  47  50
ATOM     50  C   UNL     1      -9.957 -11.788  -1.347  1.00  0.00     0.212 CG0
ATOM     51  G   UNL     1      -9.239 -12.648  -0.288  1.00  0.00     0.000 G0
BRANCH  50  52
ATOM     52  N   UNL     1      -9.668 -12.201  -2.718  1.00  0.00    -0.339 N 
ATOM     53  C   UNL     1      -8.921 -11.449  -3.592  1.00  0.00     0.243 C 
ATOM     54  O   UNL     1      -8.480 -10.340  -3.303  1.00  0.00    -0.273 OA
ATOM     55  H   UNL     1     -10.099 -13.060  -3.054  1.00  0.00     0.164 HD
BRANCH  53  56
ATOM     56  C   UNL     1      -8.824 -12.048  -5.010  1.00  0.00     0.182 C 
BRANCH  56  57
ATOM     57  N   UNL     1      -8.653 -13.504  -4.956  1.00  0.00    -0.344 N 
ATOM     58  C   UNL     1      -9.657 -14.376  -5.300  1.00  0.00     0.220 C 
ATOM     59  O   UNL     1     -10.785 -14.003  -5.605  1.00  0.00    -0.275 OA
ATOM     60  H   UNL     1      -7.709 -13.851  -4.808  1.00  0.00     0.164 HD
BRANCH  58  61
ATOM     61  C   UNL     1      -9.239 -15.833  -5.226  1.00  0.00     0.100 C 
BRANCH  61  62
ATOM     62  C   UNL     1      -7.730 -16.035  -5.087  1.00  0.00     0.010 C 
BRANCH  62  63
ATOM     63  C   UNL     1      -7.335 -17.248  -4.236  1.00  0.00     0.000 C 
BRANCH  63  64
ATOM     64  C   UNL     1      -6.152 -18.042  -4.788  1.00  0.00    -0.003 C 
ATOM     65  C   UNL     1      -6.227 -19.506  -4.379  1.00  0.00     0.004 C 
ENDBRANCH  63  64
ENDBRANCH  62  63
ENDBRANCH  61  62
ENDBRANCH  58  61
ENDBRANCH  56  57
BRANCH  56  66
ATOM     66  C   UNL     1      -7.730 -11.369  -5.831  1.00  0.00     0.157 C 
BRANCH  66  67
ATOM     67  C   UNL     1      -6.957 -12.370  -6.641  1.00  0.00     0.305 C 
ATOM     68  O   UNL     1      -5.901 -12.901  -6.336  1.00  0.00    -0.252 OA
BRANCH  67  69
ATOM     69  O   UNL     1      -7.586 -12.696  -7.787  1.00  0.00    -0.481 OA
ATOM     70  H   UNL     1      -7.554 -13.675  -7.820  1.00  0.00     0.296 HD
ENDBRANCH  67  69
ENDBRANCH  66  67
ENDBRANCH  56  66
ENDBRANCH  53  56
ENDBRANCH  50  52
ENDBRANCH  47  50
ENDBRANCH  45  46
BRANCH  45  71
ATOM     71  C   UNL     1     -14.052  -9.751   0.412  1.00  0.00     0.037 C 
BRANCH  71  72
ATOM     72  C   UNL     1     -15.123  -9.928   1.492  1.00  0.00     0.026 C 
BRANCH  72  73
ATOM     73  C   UNL     1     -15.792  -8.600   1.841  1.00  0.00     0.146 C 
BRANCH  73  74
ATOM     74  N   UNL     1     -15.464  -7.644   0.787  1.00  0.00    -0.254 NA
ATOM     75  C   UNL     1     -16.388  -6.851   0.390  1.00  0.00     0.185 C 
ATOM     76  N   UNL     1     -16.117  -5.959  -0.577  1.00  0.00    -0.370 N 
ATOM     77  N   UNL     1     -17.662  -6.760   0.809  1.00  0.00    -0.370 N 
ATOM     78  H   UNL     1     -15.180  -5.965  -0.955  1.00  0.00     0.159 HD
ATOM     79  H   UNL     1     -16.821  -5.409  -1.037  1.00  0.00     0.159 HD
ATOM     80  H   UNL     1     -18.008  -7.367   1.537  1.00  0.00     0.159 HD
ATOM     81  H   UNL     1     -18.268  -6.016   0.503  1.00  0.00     0.159 HD
ENDBRANCH  73  74
ENDBRANCH  72  73
ENDBRANCH  71  72
ENDBRANCH  45  71
ENDBRANCH   3  45
TORSDOF 20
ENDMDL
MODEL 13
REMARK VINA RESULT:    -5.485      4.158      9.637
REMARK INTER + INTRA:         -22.498
REMARK INTER:                 -16.113
REMARK INTRA:                  -6.384
REMARK UNBOUND:                -6.750
REMARK SMILES CCCCCC(=O)N[C@H](CC(=O)O)C(=O)N[C@H]1C(=O)N[C@H](CCCN=C(N)N)C(=O)N[C@@H]2CC[C@H](O)N(C2=O)[C@@H](CC(C)C)C(=O)N(C)[C@@H](Cc2ccccc2)C(=O)N[C@H](C(C)C)C(=O)O[C@@H]1C
REMARK SMILES IDX 30 1 31 2 29 3 32 5 35 6 37 7 34 8 38 9 33 10 39 11 36 12
REMARK SMILES IDX 40 14 41 15 42 16 43 17 44 18 45 19 46 20 47 21 48 22 49 23
REMARK SMILES IDX 50 24 51 25 52 26 56 27 53 28 55 29 54 30 57 31 58 32 59 33
REMARK SMILES IDX 60 35 61 36 62 37 63 38 64 39 65 40 66 41 67 42 68 43 21 45
REMARK SMILES IDX 20 46 18 47 19 48 17 50 16 52 14 53 15 54 9 56 8 57 6 58
REMARK SMILES IDX 7 59 5 61 4 62 3 63 2 64 1 65 10 66 11 67 12 68 13 69 22 71
REMARK SMILES IDX 23 72 24 73 25 74 26 75 27 76 28 77
REMARK H PARENT 31 4 36 13 59 34 20 49 16 55 8 60 13 70 27 78 27 79 28 80
REMARK H PARENT 28 81
REMARK Flexibility Score:  259.900
ROOT
ATOM      1  O   UNL     1     -12.209 -10.374   7.092  1.00  0.00    -0.273 OA
ATOM      2  N   UNL     1     -12.834 -10.616   4.905  1.00  0.00    -0.343 N 
ATOM      3  C   UNL     1     -12.029 -10.892   5.989  1.00  0.00     0.243 C 
ATOM      4  H   UNL     1     -12.665 -11.072   4.017  1.00  0.00     0.164 HD
ENDROOT
BRANCH   2   5
ATOM      5  C   UNL     1     -13.873  -9.596   4.993  1.00  0.00     0.171 C 
ATOM      6  C   UNL     1     -16.511  -9.373   3.811  1.00  0.00     0.214 C 
ATOM      7  N   UNL     1     -15.373  -8.816   3.118  1.00  0.00    -0.303 N 
ATOM      8  C   UNL     1     -16.356  -9.368   5.323  1.00  0.00     0.057 C 
ATOM      9  C   UNL     1     -14.079  -8.932   3.601  1.00  0.00     0.247 C 
ATOM     10  C   UNL     1     -15.109 -10.133   5.713  1.00  0.00     0.040 C 
ATOM     11  O   UNL     1     -13.101  -8.529   2.959  1.00  0.00    -0.272 OA
BRANCH   6  12
ATOM     12  O   UNL     1     -16.702 -10.687   3.339  1.00  0.00    -0.373 OA
ATOM     13  H   UNL     1     -16.847 -11.256   4.125  1.00  0.00     0.213 HD
ENDBRANCH   6  12
BRANCH   7  14
ATOM     14  C   UNL     1     -15.620  -8.236   1.781  1.00  0.00     0.177 C 
BRANCH  14  15
ATOM     15  C   UNL     1     -15.891  -6.720   1.763  1.00  0.00     0.038 C 
BRANCH  15  16
ATOM     16  C   UNL     1     -17.307  -6.204   1.424  1.00  0.00    -0.015 C 
ATOM     17  C   UNL     1     -17.522  -6.035  -0.083  1.00  0.00     0.007 C 
ATOM     18  C   UNL     1     -17.540  -4.845   2.097  1.00  0.00     0.007 C 
ENDBRANCH  15  16
ENDBRANCH  14  15
BRANCH  14  19
ATOM     19  C   UNL     1     -14.820  -9.027   0.689  1.00  0.00     0.245 C 
ATOM     20  O   UNL     1     -14.138  -8.354  -0.102  1.00  0.00    -0.272 OA
BRANCH  19  21
ATOM     21  N   UNL     1     -14.922 -10.393   0.496  1.00  0.00    -0.332 N 
ATOM     22  C   UNL     1     -16.158 -11.122   0.271  1.00  0.00     0.147 C 
BRANCH  21  23
ATOM     23  C   UNL     1     -13.669 -11.197   0.530  1.00  0.00     0.178 C 
BRANCH  23  24
ATOM     24  C   UNL     1     -12.404 -10.404   0.920  1.00  0.00     0.070 C 
BRANCH  24  25
ATOM     25  C   UNL     1     -11.074 -11.096   0.735  1.00  0.00    -0.045 A 
ATOM     26  C   UNL     1     -10.685 -11.580  -0.520  1.00  0.00     0.004 A 
ATOM     27  C   UNL     1     -10.209 -11.268   1.826  1.00  0.00     0.004 A 
ATOM     28  C   UNL     1      -9.461 -12.234  -0.679  1.00  0.00     0.000 A 
ATOM     29  C   UNL     1      -8.985 -11.921   1.666  1.00  0.00     0.000 A 
ATOM     30  C   UNL     1      -8.614 -12.406   0.413  1.00  0.00     0.000 A 
ENDBRANCH  24  25
ENDBRANCH  23  24
BRANCH  23  31
ATOM     31  C   UNL     1     -13.840 -12.551   1.258  1.00  0.00     0.243 C 
ATOM     32  O   UNL     1     -13.267 -13.586   0.927  1.00  0.00    -0.273 OA
ATOM     33  N   UNL     1     -14.843 -12.543   2.212  1.00  0.00    -0.341 N 
ATOM     34  H   UNL     1     -15.288 -11.651   2.441  1.00  0.00     0.164 HD
BRANCH  33  35
ATOM     35  C   UNL     1     -15.261 -13.743   2.942  1.00  0.00     0.194 C 
BRANCH  35  36
ATOM     36  C   UNL     1     -16.475 -14.480   2.311  1.00  0.00     0.017 C 
ATOM     37  C   UNL     1     -16.028 -15.440   1.194  1.00  0.00     0.010 C 
ATOM     38  C   UNL     1     -17.514 -13.527   1.708  1.00  0.00     0.010 C 
ENDBRANCH  35  36
BRANCH  35  39
ATOM     39  C   UNL     1     -15.468 -13.478   4.460  1.00  0.00     0.329 C 
ATOM     40  O   UNL     1     -16.490 -13.001   4.940  1.00  0.00    -0.250 OA
BRANCH  39  41
ATOM     41  O   UNL     1     -14.415 -13.918   5.213  1.00  0.00    -0.458 OA
BRANCH  41  42
ATOM     42  C   UNL     1     -13.973 -15.274   4.967  1.00  0.00     0.205 CG0
ATOM     43  C   UNL     1     -14.903 -16.203   5.745  1.00  0.00     0.056 C 
ATOM     44  G   UNL     1     -12.503 -15.401   5.415  1.00  0.00     0.000 G0
ENDBRANCH  41  42
ENDBRANCH  39  41
ENDBRANCH  35  39
ENDBRANCH  33  35
ENDBRANCH  23  31
ENDBRANCH  21  23
ENDBRANCH  19  21
ENDBRANCH  14  19
ENDBRANCH   7  14
ENDBRANCH   2   5
BRANCH   3  45
ATOM     45  C   UNL     1     -10.905 -11.905   5.732  1.00  0.00     0.171 C 
BRANCH  45  46
ATOM     46  N   UNL     1     -11.490 -13.215   5.985  1.00  0.00    -0.342 N 
ATOM     47  C   UNL     1     -11.746 -14.113   4.979  1.00  0.00     0.247 C 
ATOM     48  O   UNL     1     -11.434 -13.908   3.805  1.00  0.00    -0.273 OA
ATOM     49  H   UNL     1     -11.713 -13.447   6.951  1.00  0.00     0.164 HD
BRANCH  47  50
ATOM     50  C   UNL     1     -12.479 -15.388   5.418  1.00  0.00     0.212 CG0
ATOM     51  G   UNL     1     -13.947 -15.264   4.963  1.00  0.00     0.000 G0
BRANCH  50  52
ATOM     52  N   UNL     1     -11.766 -16.488   4.773  1.00  0.00    -0.339 N 
ATOM     53  C   UNL     1     -11.529 -17.696   5.383  1.00  0.00     0.243 C 
ATOM     54  O   UNL     1     -11.853 -17.925   6.545  1.00  0.00    -0.273 OA
ATOM     55  H   UNL     1     -11.374 -16.320   3.849  1.00  0.00     0.164 HD
BRANCH  53  56
ATOM     56  C   UNL     1     -10.683 -18.670   4.539  1.00  0.00     0.182 C 
BRANCH  56  57
ATOM     57  N   UNL     1      -9.270 -18.277   4.540  1.00  0.00    -0.344 N 
ATOM     58  C   UNL     1      -8.353 -18.828   5.402  1.00  0.00     0.220 C 
ATOM     59  O   UNL     1      -8.664 -19.629   6.277  1.00  0.00    -0.275 OA
ATOM     60  H   UNL     1      -8.953 -17.696   3.769  1.00  0.00     0.164 HD
BRANCH  58  61
ATOM     61  C   UNL     1      -6.941 -18.317   5.186  1.00  0.00     0.100 C 
BRANCH  61  62
ATOM     62  C   UNL     1      -6.594 -18.067   3.718  1.00  0.00     0.010 C 
BRANCH  62  63
ATOM     63  C   UNL     1      -5.880 -16.734   3.460  1.00  0.00     0.000 C 
BRANCH  63  64
ATOM     64  C   UNL     1      -6.705 -15.501   3.824  1.00  0.00    -0.003 C 
ATOM     65  C   UNL     1      -7.900 -15.339   2.896  1.00  0.00     0.004 C 
ENDBRANCH  63  64
ENDBRANCH  62  63
ENDBRANCH  61  62
ENDBRANCH  58  61
ENDBRANCH  56  57
BRANCH  56  66
ATOM     66  C   UNL     1     -11.240 -18.814   3.124  1.00  0.00     0.157 C 
BRANCH  66  67
ATOM     67  C   UNL     1     -10.458 -17.987   2.144  1.00  0.00     0.305 C 
ATOM     68  O   UNL     1      -9.579 -18.378   1.392  1.00  0.00    -0.252 OA
BRANCH  67  69
ATOM     69  O   UNL     1     -10.861 -16.702   2.123  1.00  0.00    -0.481 OA
ATOM     70  H   UNL     1     -11.841 -16.747   2.147  1.00  0.00     0.296 HD
ENDBRANCH  67  69
ENDBRANCH  66  67
ENDBRANCH  56  66
ENDBRANCH  53  56
ENDBRANCH  50  52
ENDBRANCH  47  50
ENDBRANCH  45  46
BRANCH  45  71
ATOM     71  C   UNL     1      -9.716 -11.629   6.659  1.00  0.00     0.037 C 
BRANCH  71  72
ATOM     72  C   UNL     1      -8.879 -12.886   6.912  1.00  0.00     0.026 C 
BRANCH  72  73
ATOM     73  C   UNL     1      -9.229 -13.532   8.251  1.00  0.00     0.146 C 
BRANCH  73  74
ATOM     74  N   UNL     1      -8.817 -14.931   8.194  1.00  0.00    -0.254 NA
ATOM     75  C   UNL     1      -9.729 -15.828   8.281  1.00  0.00     0.185 C 
ATOM     76  N   UNL     1      -9.381 -17.124   8.230  1.00  0.00    -0.370 N 
ATOM     77  N   UNL     1     -11.057 -15.672   8.423  1.00  0.00    -0.370 N 
ATOM     78  H   UNL     1      -8.397 -17.330   8.132  1.00  0.00     0.159 HD
ATOM     79  H   UNL     1     -10.015 -17.876   8.436  1.00  0.00     0.159 HD
ATOM     80  H   UNL     1     -11.463 -14.750   8.472  1.00  0.00     0.159 HD
ATOM     81  H   UNL     1     -11.689 -16.453   8.364  1.00  0.00     0.159 HD
ENDBRANCH  73  74
ENDBRANCH  72  73
ENDBRANCH  71  72
ENDBRANCH  45  71
ENDBRANCH   3  45
TORSDOF 20
ENDMDL
MODEL 14
REMARK VINA RESULT:    -5.476      1.771      2.372
REMARK INTER + INTRA:         -22.470
REMARK INTER:                 -17.907
REMARK INTRA:                  -4.562
REMARK UNBOUND:                -6.750
REMARK SMILES CCCCCC(=O)N[C@H](CC(=O)O)C(=O)N[C@H]1C(=O)N[C@H](CCCN=C(N)N)C(=O)N[C@@H]2CC[C@H](O)N(C2=O)[C@@H](CC(C)C)C(=O)N(C)[C@@H](Cc2ccccc2)C(=O)N[C@H](C(C)C)C(=O)O[C@@H]1C
REMARK SMILES IDX 30 1 31 2 29 3 32 5 35 6 37 7 34 8 38 9 33 10 39 11 36 12
REMARK SMILES IDX 40 14 41 15 42 16 43 17 44 18 45 19 46 20 47 21 48 22 49 23
REMARK SMILES IDX 50 24 51 25 52 26 56 27 53 28 55 29 54 30 57 31 58 32 59 33
REMARK SMILES IDX 60 35 61 36 62 37 63 38 64 39 65 40 66 41 67 42 68 43 21 45
REMARK SMILES IDX 20 46 18 47 19 48 17 50 16 52 14 53 15 54 9 56 8 57 6 58
REMARK SMILES IDX 7 59 5 61 4 62 3 63 2 64 1 65 10 66 11 67 12 68 13 69 22 71
REMARK SMILES IDX 23 72 24 73 25 74 26 75 27 76 28 77
REMARK H PARENT 31 4 36 13 59 34 20 49 16 55 8 60 13 70 27 78 27 79 28 80
REMARK H PARENT 28 81
REMARK Flexibility Score:  259.900
ROOT
ATOM      1  O   UNL     1     -14.428 -11.868   3.016  1.00  0.00    -0.273 OA
ATOM      2  N   UNL     1     -14.891 -13.603   1.600  1.00  0.00    -0.343 N 
ATOM      3  C   UNL     1     -14.686 -12.269   1.881  1.00  0.00     0.243 C 
ATOM      4  H   UNL     1     -15.087 -13.899   0.652  1.00  0.00     0.164 HD
ENDROOT
BRANCH   2   5
ATOM      5  C   UNL     1     -14.928 -14.591   2.673  1.00  0.00     0.171 C 
ATOM      6  C   UNL     1     -14.244 -14.460   5.487  1.00  0.00     0.214 C 
ATOM      7  N   UNL     1     -13.237 -14.855   4.529  1.00  0.00    -0.303 N 
ATOM      8  C   UNL     1     -15.655 -14.838   5.068  1.00  0.00     0.057 C 
ATOM      9  C   UNL     1     -13.483 -14.889   3.166  1.00  0.00     0.247 C 
ATOM     10  C   UNL     1     -15.973 -14.220   3.724  1.00  0.00     0.040 C 
ATOM     11  O   UNL     1     -12.592 -15.144   2.345  1.00  0.00    -0.272 OA
BRANCH   6  12
ATOM     12  O   UNL     1     -14.141 -13.067   5.671  1.00  0.00    -0.373 OA
ATOM     13  H   UNL     1     -14.646 -12.846   6.482  1.00  0.00     0.213 HD
ENDBRANCH   6  12
BRANCH   7  14
ATOM     14  C   UNL     1     -11.872 -15.084   5.047  1.00  0.00     0.177 C 
BRANCH  14  15
ATOM     15  C   UNL     1     -11.600 -14.518   6.454  1.00  0.00     0.038 C 
BRANCH  15  16
ATOM     16  C   UNL     1     -10.633 -13.324   6.620  1.00  0.00    -0.015 C 
ATOM     17  C   UNL     1      -9.291 -13.740   7.230  1.00  0.00     0.007 C 
ATOM     18  C   UNL     1     -11.268 -12.266   7.531  1.00  0.00     0.007 C 
ENDBRANCH  15  16
ENDBRANCH  14  15
BRANCH  14  19
ATOM     19  C   UNL     1     -11.296 -16.429   4.484  1.00  0.00     0.245 C 
ATOM     20  O   UNL     1     -11.863 -17.475   4.844  1.00  0.00    -0.272 OA
BRANCH  19  21
ATOM     21  N   UNL     1     -10.148 -16.515   3.717  1.00  0.00    -0.332 N 
ATOM     22  C   UNL     1     -10.066 -17.086   2.384  1.00  0.00     0.147 C 
BRANCH  21  23
ATOM     23  C   UNL     1      -8.881 -15.993   4.299  1.00  0.00     0.178 C 
BRANCH  23  24
ATOM     24  C   UNL     1      -8.021 -17.048   5.025  1.00  0.00     0.070 C 
BRANCH  24  25
ATOM     25  C   UNL     1      -7.973 -16.977   6.534  1.00  0.00    -0.045 A 
ATOM     26  C   UNL     1      -9.107 -17.270   7.302  1.00  0.00     0.004 A 
ATOM     27  C   UNL     1      -6.787 -16.611   7.187  1.00  0.00     0.004 A 
ATOM     28  C   UNL     1      -9.059 -17.185   8.695  1.00  0.00     0.000 A 
ATOM     29  C   UNL     1      -6.740 -16.528   8.580  1.00  0.00     0.000 A 
ATOM     30  C   UNL     1      -7.878 -16.813   9.333  1.00  0.00     0.000 A 
ENDBRANCH  24  25
ENDBRANCH  23  24
BRANCH  23  31
ATOM     31  C   UNL     1      -8.103 -15.075   3.327  1.00  0.00     0.243 C 
ATOM     32  O   UNL     1      -7.139 -15.442   2.659  1.00  0.00    -0.273 OA
ATOM     33  N   UNL     1      -8.471 -13.743   3.409  1.00  0.00    -0.341 N 
ATOM     34  H   UNL     1      -9.279 -13.498   3.987  1.00  0.00     0.164 HD
BRANCH  33  35
ATOM     35  C   UNL     1      -7.788 -12.678   2.669  1.00  0.00     0.194 C 
BRANCH  35  36
ATOM     36  C   UNL     1      -7.954 -11.264   3.293  1.00  0.00     0.017 C 
ATOM     37  C   UNL     1      -6.615 -10.506   3.323  1.00  0.00     0.010 C 
ATOM     38  C   UNL     1      -8.494 -11.297   4.728  1.00  0.00     0.010 C 
ENDBRANCH  35  36
BRANCH  35  39
ATOM     39  C   UNL     1      -8.134 -12.687   1.154  1.00  0.00     0.329 C 
ATOM     40  O   UNL     1      -7.297 -12.700   0.259  1.00  0.00    -0.250 OA
BRANCH  39  41
ATOM     41  O   UNL     1      -9.481 -12.768   0.928  1.00  0.00    -0.458 OA
BRANCH  41  42
ATOM     42  C   UNL     1     -10.241 -11.556   1.151  1.00  0.00     0.205 CG0
ATOM     43  C   UNL     1     -11.156 -11.808   2.348  1.00  0.00     0.056 C 
ATOM     44  G   UNL     1     -11.027 -11.226  -0.133  1.00  0.00     0.000 G0
ENDBRANCH  41  42
ENDBRANCH  39  41
ENDBRANCH  35  39
ENDBRANCH  33  35
ENDBRANCH  23  31
ENDBRANCH  21  23
ENDBRANCH  19  21
ENDBRANCH  14  19
ENDBRANCH   7  14
ENDBRANCH   2   5
BRANCH   3  45
ATOM     45  C   UNL     1     -14.779 -11.322   0.677  1.00  0.00     0.171 C 
BRANCH  45  46
ATOM     46  N   UNL     1     -13.411 -10.909   0.394  1.00  0.00    -0.342 N 
ATOM     47  C   UNL     1     -12.449 -11.790  -0.030  1.00  0.00     0.247 C 
ATOM     48  O   UNL     1     -12.686 -12.974  -0.271  1.00  0.00    -0.273 OA
ATOM     49  H   UNL     1     -13.185  -9.925   0.526  1.00  0.00     0.164 HD
BRANCH  47  50
ATOM     50  C   UNL     1     -11.037 -11.199  -0.157  1.00  0.00     0.212 CG0
ATOM     51  G   UNL     1     -10.266 -11.549   1.131  1.00  0.00     0.000 G0
BRANCH  50  52
ATOM     52  N   UNL     1     -10.466 -11.809  -1.355  1.00  0.00    -0.339 N 
ATOM     53  C   UNL     1      -9.390 -11.286  -2.029  1.00  0.00     0.243 C 
ATOM     54  O   UNL     1      -8.855 -10.229  -1.705  1.00  0.00    -0.273 OA
ATOM     55  H   UNL     1     -10.935 -12.627  -1.738  1.00  0.00     0.164 HD
BRANCH  53  56
ATOM     56  C   UNL     1      -9.020 -12.055  -3.314  1.00  0.00     0.182 C 
BRANCH  56  57
ATOM     57  N   UNL     1     -10.149 -12.090  -4.250  1.00  0.00    -0.344 N 
ATOM     58  C   UNL     1     -10.055 -11.612  -5.534  1.00  0.00     0.220 C 
ATOM     59  O   UNL     1      -9.050 -11.058  -5.964  1.00  0.00    -0.275 OA
ATOM     60  H   UNL     1     -10.963 -12.630  -3.968  1.00  0.00     0.164 HD
BRANCH  58  61
ATOM     61  C   UNL     1     -11.326 -11.804  -6.341  1.00  0.00     0.100 C 
BRANCH  61  62
ATOM     62  C   UNL     1     -11.082 -12.308  -7.764  1.00  0.00     0.010 C 
BRANCH  62  63
ATOM     63  C   UNL     1     -11.416 -11.285  -8.857  1.00  0.00     0.000 C 
BRANCH  63  64
ATOM     64  C   UNL     1     -10.650 -11.491 -10.163  1.00  0.00    -0.003 C 
ATOM     65  C   UNL     1     -10.666 -10.234 -11.020  1.00  0.00     0.004 C 
ENDBRANCH  63  64
ENDBRANCH  62  63
ENDBRANCH  61  62
ENDBRANCH  58  61
ENDBRANCH  56  57
BRANCH  56  66
ATOM     66  C   UNL     1      -8.490 -13.452  -2.997  1.00  0.00     0.157 C 
BRANCH  66  67
ATOM     67  C   UNL     1      -9.476 -14.512  -3.397  1.00  0.00     0.305 C 
ATOM     68  O   UNL     1      -9.416 -15.236  -4.379  1.00  0.00    -0.252 OA
BRANCH  67  69
ATOM     69  O   UNL     1     -10.475 -14.645  -2.504  1.00  0.00    -0.481 OA
ATOM     70  H   UNL     1     -10.783 -13.730  -2.334  1.00  0.00     0.296 HD
ENDBRANCH  67  69
ENDBRANCH  66  67
ENDBRANCH  56  66
ENDBRANCH  53  56
ENDBRANCH  50  52
ENDBRANCH  47  50
ENDBRANCH  45  46
BRANCH  45  71
ATOM     71  C   UNL     1     -15.675 -10.124   1.010  1.00  0.00     0.037 C 
BRANCH  71  72
ATOM     72  C   UNL     1     -14.875  -8.826   1.141  1.00  0.00     0.026 C 
BRANCH  72  73
ATOM     73  C   UNL     1     -15.523  -7.866   2.137  1.00  0.00     0.146 C 
BRANCH  73  74
ATOM     74  N   UNL     1     -16.716  -7.308   1.508  1.00  0.00    -0.254 NA
ATOM     75  C   UNL     1     -16.826  -6.031   1.460  1.00  0.00     0.185 C 
ATOM     76  N   UNL     1     -17.912  -5.488   0.886  1.00  0.00    -0.370 N 
ATOM     77  N   UNL     1     -15.980  -5.092   1.918  1.00  0.00    -0.370 N 
ATOM     78  H   UNL     1     -18.604  -6.126   0.521  1.00  0.00     0.159 HD
ATOM     79  H   UNL     1     -18.135  -4.509   0.941  1.00  0.00     0.159 HD
ATOM     80  H   UNL     1     -15.117  -5.355   2.371  1.00  0.00     0.159 HD
ATOM     81  H   UNL     1     -16.118  -4.115   1.721  1.00  0.00     0.159 HD
ENDBRANCH  73  74
ENDBRANCH  72  73
ENDBRANCH  71  72
ENDBRANCH  45  71
ENDBRANCH   3  45
TORSDOF 20
ENDMDL
MODEL 15
REMARK VINA RESULT:    -5.416      2.680      4.425
REMARK INTER + INTRA:         -22.299
REMARK INTER:                 -19.121
REMARK INTRA:                  -3.178
REMARK UNBOUND:                -6.750
REMARK SMILES CCCCCC(=O)N[C@H](CC(=O)O)C(=O)N[C@H]1C(=O)N[C@H](CCCN=C(N)N)C(=O)N[C@@H]2CC[C@H](O)N(C2=O)[C@@H](CC(C)C)C(=O)N(C)[C@@H](Cc2ccccc2)C(=O)N[C@H](C(C)C)C(=O)O[C@@H]1C
REMARK SMILES IDX 30 1 31 2 29 3 32 5 35 6 37 7 34 8 38 9 33 10 39 11 36 12
REMARK SMILES IDX 40 14 41 15 42 16 43 17 44 18 45 19 46 20 47 21 48 22 49 23
REMARK SMILES IDX 50 24 51 25 52 26 56 27 53 28 55 29 54 30 57 31 58 32 59 33
REMARK SMILES IDX 60 35 61 36 62 37 63 38 64 39 65 40 66 41 67 42 68 43 21 45
REMARK SMILES IDX 20 46 18 47 19 48 17 50 16 52 14 53 15 54 9 56 8 57 6 58
REMARK SMILES IDX 7 59 5 61 4 62 3 63 2 64 1 65 10 66 11 67 12 68 13 69 22 71
REMARK SMILES IDX 23 72 24 73 25 74 26 75 27 76 28 77
REMARK H PARENT 31 4 36 13 59 34 20 49 16 55 8 60 13 70 27 78 27 79 28 80
REMARK H PARENT 28 81
REMARK Flexibility Score:  259.900
ROOT
ATOM      1  O   UNL     1     -14.704 -12.202   0.713  1.00  0.00    -0.273 OA
ATOM      2  N   UNL     1     -14.259 -10.574   2.256  1.00  0.00    -0.343 N 
ATOM      3  C   UNL     1     -14.208 -11.109   0.987  1.00  0.00     0.243 C 
ATOM      4  H   UNL     1     -13.852  -9.665   2.441  1.00  0.00     0.164 HD
ENDROOT
BRANCH   2   5
ATOM      5  C   UNL     1     -14.806 -11.346   3.366  1.00  0.00     0.171 C 
ATOM      6  C   UNL     1     -15.980 -10.578   5.903  1.00  0.00     0.214 C 
ATOM      7  N   UNL     1     -14.559 -10.825   5.823  1.00  0.00    -0.303 N 
ATOM      8  C   UNL     1     -16.790 -11.398   4.911  1.00  0.00     0.057 C 
ATOM      9  C   UNL     1     -13.927 -11.145   4.633  1.00  0.00     0.247 C 
ATOM     10  C   UNL     1     -16.311 -11.118   3.503  1.00  0.00     0.040 C 
ATOM     11  O   UNL     1     -12.697 -11.270   4.556  1.00  0.00    -0.272 OA
BRANCH   6  12
ATOM     12  O   UNL     1     -16.191  -9.201   5.691  1.00  0.00    -0.373 OA
ATOM     13  H   UNL     1     -16.509  -8.826   6.540  1.00  0.00     0.213 HD
ENDBRANCH   6  12
BRANCH   7  14
ATOM     14  C   UNL     1     -13.766 -10.577   7.046  1.00  0.00     0.177 C 
BRANCH  14  15
ATOM     15  C   UNL     1     -14.528  -9.884   8.193  1.00  0.00     0.038 C 
BRANCH  15  16
ATOM     16  C   UNL     1     -14.436  -8.350   8.350  1.00  0.00    -0.015 C 
ATOM     17  C   UNL     1     -12.990  -7.862   8.479  1.00  0.00     0.007 C 
ATOM     18  C   UNL     1     -15.205  -7.910   9.602  1.00  0.00     0.007 C 
ENDBRANCH  15  16
ENDBRANCH  14  15
BRANCH  14  19
ATOM     19  C   UNL     1     -12.678 -11.692   7.223  1.00  0.00     0.245 C 
ATOM     20  O   UNL     1     -11.521 -11.310   7.465  1.00  0.00    -0.272 OA
BRANCH  19  21
ATOM     21  N   UNL     1     -12.913 -13.039   7.016  1.00  0.00    -0.332 N 
ATOM     22  C   UNL     1     -14.214 -13.683   7.057  1.00  0.00     0.147 C 
BRANCH  21  23
ATOM     23  C   UNL     1     -11.742 -13.915   6.739  1.00  0.00     0.178 C 
BRANCH  23  24
ATOM     24  C   UNL     1     -11.718 -15.234   7.538  1.00  0.00     0.070 C 
BRANCH  24  25
ATOM     25  C   UNL     1     -10.387 -15.938   7.666  1.00  0.00    -0.045 A 
ATOM     26  C   UNL     1      -9.210 -15.212   7.889  1.00  0.00     0.004 A 
ATOM     27  C   UNL     1     -10.312 -17.335   7.558  1.00  0.00     0.004 A 
ATOM     28  C   UNL     1      -7.982 -15.868   7.989  1.00  0.00     0.000 A 
ATOM     29  C   UNL     1      -9.083 -17.989   7.659  1.00  0.00     0.000 A 
ATOM     30  C   UNL     1      -7.919 -17.255   7.872  1.00  0.00     0.000 A 
ENDBRANCH  24  25
ENDBRANCH  23  24
BRANCH  23  31
ATOM     31  C   UNL     1     -11.444 -14.064   5.227  1.00  0.00     0.243 C 
ATOM     32  O   UNL     1     -10.345 -13.857   4.720  1.00  0.00    -0.273 OA
ATOM     33  N   UNL     1     -12.576 -14.274   4.459  1.00  0.00    -0.341 N 
ATOM     34  H   UNL     1     -13.466 -14.434   4.938  1.00  0.00     0.164 HD
BRANCH  33  35
ATOM     35  C   UNL     1     -12.549 -14.327   2.994  1.00  0.00     0.194 C 
BRANCH  35  36
ATOM     36  C   UNL     1     -13.039 -15.676   2.398  1.00  0.00     0.017 C 
ATOM     37  C   UNL     1     -14.547 -15.638   2.092  1.00  0.00     0.010 C 
ATOM     38  C   UNL     1     -12.790 -16.873   3.325  1.00  0.00     0.010 C 
ENDBRANCH  35  36
BRANCH  35  39
ATOM     39  C   UNL     1     -11.176 -13.897   2.406  1.00  0.00     0.329 C 
ATOM     40  O   UNL     1     -10.232 -14.661   2.240  1.00  0.00    -0.250 OA
BRANCH  39  41
ATOM     41  O   UNL     1     -11.166 -12.588   2.013  1.00  0.00    -0.458 OA
BRANCH  41  42
ATOM     42  C   UNL     1      -9.884 -12.051   1.606  1.00  0.00     0.205 CG0
ATOM     43  C   UNL     1      -9.570 -10.876   2.531  1.00  0.00     0.056 C 
ATOM     44  G   UNL     1      -9.975 -11.628   0.126  1.00  0.00     0.000 G0
ENDBRANCH  41  42
ENDBRANCH  39  41
ENDBRANCH  35  39
ENDBRANCH  33  35
ENDBRANCH  23  31
ENDBRANCH  21  23
ENDBRANCH  19  21
ENDBRANCH  14  19
ENDBRANCH   7  14
ENDBRANCH   2   5
BRANCH   3  45
ATOM     45  C   UNL     1     -13.509 -10.238  -0.066  1.00  0.00     0.171 C 
BRANCH  45  46
ATOM     46  N   UNL     1     -12.081 -10.437   0.144  1.00  0.00    -0.342 N 
ATOM     47  C   UNL     1     -11.409 -11.526  -0.350  1.00  0.00     0.247 C 
ATOM     48  O   UNL     1     -11.944 -12.375  -1.064  1.00  0.00    -0.273 OA
ATOM     49  H   UNL     1     -11.587  -9.728   0.683  1.00  0.00     0.164 HD
BRANCH  47  50
ATOM     50  C   UNL     1      -9.937 -11.631   0.077  1.00  0.00     0.212 CG0
ATOM     51  G   UNL     1      -9.909 -12.017   1.569  1.00  0.00     0.000 G0
BRANCH  50  52
ATOM     52  N   UNL     1      -9.351 -12.646  -0.794  1.00  0.00    -0.339 N 
ATOM     53  C   UNL     1      -8.915 -12.387  -2.071  1.00  0.00     0.243 C 
ATOM     54  O   UNL     1      -9.036 -11.286  -2.600  1.00  0.00    -0.273 OA
ATOM     55  H   UNL     1      -9.325 -13.605  -0.452  1.00  0.00     0.164 HD
BRANCH  53  56
ATOM     56  C   UNL     1      -8.413 -13.633  -2.827  1.00  0.00     0.182 C 
BRANCH  56  57
ATOM     57  N   UNL     1      -7.846 -13.266  -4.129  1.00  0.00    -0.344 N 
ATOM     58  C   UNL     1      -6.495 -13.285  -4.375  1.00  0.00     0.220 C 
ATOM     59  O   UNL     1      -5.666 -13.539  -3.508  1.00  0.00    -0.275 OA
ATOM     60  H   UNL     1      -8.500 -13.149  -4.899  1.00  0.00     0.164 HD
BRANCH  58  61
ATOM     61  C   UNL     1      -6.139 -12.925  -5.806  1.00  0.00     0.100 C 
BRANCH  61  62
ATOM     62  C   UNL     1      -7.237 -13.260  -6.817  1.00  0.00     0.010 C 
BRANCH  62  63
ATOM     63  C   UNL     1      -7.695 -12.065  -7.663  1.00  0.00     0.000 C 
BRANCH  63  64
ATOM     64  C   UNL     1      -8.282 -10.911  -6.852  1.00  0.00    -0.003 C 
ATOM     65  C   UNL     1      -9.709 -11.208  -6.414  1.00  0.00     0.004 C 
ENDBRANCH  63  64
ENDBRANCH  62  63
ENDBRANCH  61  62
ENDBRANCH  58  61
ENDBRANCH  56  57
BRANCH  56  66
ATOM     66  C   UNL     1      -9.509 -14.691  -2.953  1.00  0.00     0.157 C 
BRANCH  66  67
ATOM     67  C   UNL     1      -9.628 -15.184  -4.367  1.00  0.00     0.305 C 
ATOM     68  O   UNL     1      -8.949 -16.046  -4.902  1.00  0.00    -0.252 OA
BRANCH  67  69
ATOM     69  O   UNL     1     -10.643 -14.598  -5.029  1.00  0.00    -0.481 OA
ATOM     70  H   UNL     1     -10.956 -13.887  -4.430  1.00  0.00     0.296 HD
ENDBRANCH  67  69
ENDBRANCH  66  67
ENDBRANCH  56  66
ENDBRANCH  53  56
ENDBRANCH  50  52
ENDBRANCH  47  50
ENDBRANCH  45  46
BRANCH  45  71
ATOM     71  C   UNL     1     -13.907  -8.768   0.108  1.00  0.00     0.037 C 
BRANCH  71  72
ATOM     72  C   UNL     1     -15.426  -8.586   0.167  1.00  0.00     0.026 C 
BRANCH  72  73
ATOM     73  C   UNL     1     -15.826  -7.561   1.226  1.00  0.00     0.146 C 
BRANCH  73  74
ATOM     74  N   UNL     1     -14.976  -7.771   2.395  1.00  0.00    -0.254 NA
ATOM     75  C   UNL     1     -15.248  -7.109   3.459  1.00  0.00     0.185 C 
ATOM     76  N   UNL     1     -14.485  -7.281   4.550  1.00  0.00    -0.370 N 
ATOM     77  N   UNL     1     -16.232  -6.218   3.672  1.00  0.00    -0.370 N 
ATOM     78  H   UNL     1     -13.716  -7.931   4.473  1.00  0.00     0.159 HD
ATOM     79  H   UNL     1     -14.546  -6.698   5.366  1.00  0.00     0.159 HD
ATOM     80  H   UNL     1     -16.887  -5.991   2.939  1.00  0.00     0.159 HD
ATOM     81  H   UNL     1     -16.418  -5.846   4.589  1.00  0.00     0.159 HD
ENDBRANCH  73  74
ENDBRANCH  72  73
ENDBRANCH  71  72
ENDBRANCH  45  71
ENDBRANCH   3  45
TORSDOF 20
ENDMDL
MODEL 16
REMARK VINA RESULT:    -5.402      3.176      4.963
REMARK INTER + INTRA:         -22.258
REMARK INTER:                 -20.436
REMARK INTRA:                  -1.822
REMARK UNBOUND:                -6.750
REMARK SMILES CCCCCC(=O)N[C@H](CC(=O)O)C(=O)N[C@H]1C(=O)N[C@H](CCCN=C(N)N)C(=O)N[C@@H]2CC[C@H](O)N(C2=O)[C@@H](CC(C)C)C(=O)N(C)[C@@H](Cc2ccccc2)C(=O)N[C@H](C(C)C)C(=O)O[C@@H]1C
REMARK SMILES IDX 30 1 31 2 29 3 32 5 35 6 37 7 34 8 38 9 33 10 39 11 36 12
REMARK SMILES IDX 40 14 41 15 42 16 43 17 44 18 45 19 46 20 47 21 48 22 49 23
REMARK SMILES IDX 50 24 51 25 52 26 56 27 53 28 55 29 54 30 57 31 58 32 59 33
REMARK SMILES IDX 60 35 61 36 62 37 63 38 64 39 65 40 66 41 67 42 68 43 21 45
REMARK SMILES IDX 20 46 18 47 19 48 17 50 16 52 14 53 15 54 9 56 8 57 6 58
REMARK SMILES IDX 7 59 5 61 4 62 3 63 2 64 1 65 10 66 11 67 12 68 13 69 22 71
REMARK SMILES IDX 23 72 24 73 25 74 26 75 27 76 28 77
REMARK H PARENT 31 4 36 13 59 34 20 49 16 55 8 60 13 70 27 78 27 79 28 80
REMARK H PARENT 28 81
REMARK Flexibility Score:  259.900
ROOT
ATOM      1  O   UNL     1     -14.487 -12.268   1.418  1.00  0.00    -0.273 OA
ATOM      2  N   UNL     1     -13.859 -10.443   2.645  1.00  0.00    -0.343 N 
ATOM      3  C   UNL     1     -14.058 -11.115   1.457  1.00  0.00     0.243 C 
ATOM      4  H   UNL     1     -13.519  -9.490   2.638  1.00  0.00     0.164 HD
ENDROOT
BRANCH   2   5
ATOM      5  C   UNL     1     -14.040 -11.124   3.922  1.00  0.00     0.171 C 
ATOM      6  C   UNL     1     -15.228 -10.302   6.436  1.00  0.00     0.214 C 
ATOM      7  N   UNL     1     -13.815 -10.095   6.216  1.00  0.00    -0.303 N 
ATOM      8  C   UNL     1     -15.781 -11.509   5.695  1.00  0.00     0.057 C 
ATOM      9  C   UNL     1     -13.194 -10.418   5.020  1.00  0.00     0.247 C 
ATOM     10  C   UNL     1     -15.521 -11.364   4.211  1.00  0.00     0.040 C 
ATOM     11  O   UNL     1     -12.003 -10.158   4.809  1.00  0.00    -0.272 OA
BRANCH   6  12
ATOM     12  O   UNL     1     -15.901  -9.130   6.040  1.00  0.00    -0.373 OA
ATOM     13  H   UNL     1     -16.461  -8.851   6.795  1.00  0.00     0.213 HD
ENDBRANCH   6  12
BRANCH   7  14
ATOM     14  C   UNL     1     -13.070  -9.382   7.275  1.00  0.00     0.177 C 
BRANCH  14  15
ATOM     15  C   UNL     1     -13.943  -8.646   8.310  1.00  0.00     0.038 C 
BRANCH  15  16
ATOM     16  C   UNL     1     -13.496  -7.266   8.839  1.00  0.00    -0.015 C 
ATOM     17  C   UNL     1     -13.744  -7.107  10.342  1.00  0.00     0.007 C 
ATOM     18  C   UNL     1     -14.262  -6.157   8.106  1.00  0.00     0.007 C 
ENDBRANCH  15  16
ENDBRANCH  14  15
BRANCH  14  19
ATOM     19  C   UNL     1     -11.724 -10.123   7.586  1.00  0.00     0.245 C 
ATOM     20  O   UNL     1     -10.735  -9.410   7.825  1.00  0.00    -0.272 OA
BRANCH  19  21
ATOM     21  N   UNL     1     -11.561 -11.494   7.498  1.00  0.00    -0.332 N 
ATOM     22  C   UNL     1     -12.575 -12.485   7.811  1.00  0.00     0.147 C 
BRANCH  21  23
ATOM     23  C   UNL     1     -10.235 -12.010   7.058  1.00  0.00     0.178 C 
BRANCH  23  24
ATOM     24  C   UNL     1      -9.753 -13.270   7.806  1.00  0.00     0.070 C 
BRANCH  24  25
ATOM     25  C   UNL     1      -8.522 -13.128   8.671  1.00  0.00    -0.045 A 
ATOM     26  C   UNL     1      -8.133 -11.877   9.165  1.00  0.00     0.004 A 
ATOM     27  C   UNL     1      -7.747 -14.254   8.989  1.00  0.00     0.004 A 
ATOM     28  C   UNL     1      -6.985 -11.751   9.950  1.00  0.00     0.000 A 
ATOM     29  C   UNL     1      -6.601 -14.127   9.775  1.00  0.00     0.000 A 
ATOM     30  C   UNL     1      -6.219 -12.875  10.253  1.00  0.00     0.000 A 
ENDBRANCH  24  25
ENDBRANCH  23  24
BRANCH  23  31
ATOM     31  C   UNL     1     -10.091 -12.071   5.519  1.00  0.00     0.243 C 
ATOM     32  O   UNL     1      -9.525 -11.212   4.848  1.00  0.00    -0.273 OA
ATOM     33  N   UNL     1     -10.822 -13.092   4.935  1.00  0.00    -0.341 N 
ATOM     34  H   UNL     1     -11.277 -13.774   5.547  1.00  0.00     0.164 HD
BRANCH  33  35
ATOM     35  C   UNL     1     -10.930 -13.268   3.484  1.00  0.00     0.194 C 
BRANCH  35  36
ATOM     36  C   UNL     1     -11.487 -14.654   3.053  1.00  0.00     0.017 C 
ATOM     37  C   UNL     1     -10.355 -15.599   2.611  1.00  0.00     0.010 C 
ATOM     38  C   UNL     1     -12.491 -14.569   1.897  1.00  0.00     0.010 C 
ENDBRANCH  35  36
BRANCH  35  39
ATOM     39  C   UNL     1      -9.612 -12.915   2.739  1.00  0.00     0.329 C 
ATOM     40  O   UNL     1      -8.510 -13.351   3.049  1.00  0.00    -0.250 OA
BRANCH  39  41
ATOM     41  O   UNL     1      -9.831 -12.128   1.642  1.00  0.00    -0.458 OA
BRANCH  41  42
ATOM     42  C   UNL     1      -9.856 -12.805   0.363  1.00  0.00     0.205 CG0
ATOM     43  C   UNL     1      -8.463 -13.387   0.129  1.00  0.00     0.056 C 
ATOM     44  G   UNL     1     -10.260 -11.789  -0.724  1.00  0.00     0.000 G0
ENDBRANCH  41  42
ENDBRANCH  39  41
ENDBRANCH  35  39
ENDBRANCH  33  35
ENDBRANCH  23  31
ENDBRANCH  21  23
ENDBRANCH  19  21
ENDBRANCH  14  19
ENDBRANCH   7  14
ENDBRANCH   2   5
BRANCH   3  45
ATOM     45  C   UNL     1     -13.729 -10.318   0.188  1.00  0.00     0.171 C 
BRANCH  45  46
ATOM     46  N   UNL     1     -12.308 -10.532  -0.053  1.00  0.00    -0.342 N 
ATOM     47  C   UNL     1     -11.828 -11.660  -0.670  1.00  0.00     0.247 C 
ATOM     48  O   UNL     1     -12.563 -12.535  -1.128  1.00  0.00    -0.273 OA
ATOM     49  H   UNL     1     -11.668  -9.805   0.260  1.00  0.00     0.164 HD
BRANCH  47  50
ATOM     50  C   UNL     1     -10.298 -11.769  -0.726  1.00  0.00     0.212 CG0
ATOM     51  G   UNL     1      -9.861 -12.779   0.353  1.00  0.00     0.000 G0
BRANCH  50  52
ATOM     52  N   UNL     1      -9.988 -12.205  -2.085  1.00  0.00    -0.339 N 
ATOM     53  C   UNL     1      -9.210 -11.478  -2.953  1.00  0.00     0.243 C 
ATOM     54  O   UNL     1      -8.757 -10.373  -2.670  1.00  0.00    -0.273 OA
ATOM     55  H   UNL     1     -10.426 -13.062  -2.418  1.00  0.00     0.164 HD
BRANCH  53  56
ATOM     56  C   UNL     1      -9.094 -12.098  -4.361  1.00  0.00     0.182 C 
BRANCH  56  57
ATOM     57  N   UNL     1      -9.104 -13.563  -4.293  1.00  0.00    -0.344 N 
ATOM     58  C   UNL     1      -9.926 -14.331  -5.081  1.00  0.00     0.220 C 
ATOM     59  O   UNL     1     -10.759 -13.846  -5.840  1.00  0.00    -0.275 OA
ATOM     60  H   UNL     1      -8.363 -14.004  -3.755  1.00  0.00     0.164 HD
BRANCH  58  61
ATOM     61  C   UNL     1      -9.726 -15.822  -4.885  1.00  0.00     0.100 C 
BRANCH  61  62
ATOM     62  C   UNL     1      -8.430 -16.355  -5.497  1.00  0.00     0.010 C 
BRANCH  62  63
ATOM     63  C   UNL     1      -7.318 -16.624  -4.475  1.00  0.00     0.000 C 
BRANCH  63  64
ATOM     64  C   UNL     1      -6.601 -17.960  -4.665  1.00  0.00    -0.003 C 
ATOM     65  C   UNL     1      -5.174 -17.903  -4.141  1.00  0.00     0.004 C 
ENDBRANCH  63  64
ENDBRANCH  62  63
ENDBRANCH  61  62
ENDBRANCH  58  61
ENDBRANCH  56  57
BRANCH  56  66
ATOM     66  C   UNL     1      -7.874 -11.564  -5.109  1.00  0.00     0.157 C 
BRANCH  66  67
ATOM     67  C   UNL     1      -8.198 -11.282  -6.547  1.00  0.00     0.305 C 
ATOM     68  O   UNL     1      -7.598 -10.531  -7.301  1.00  0.00    -0.252 OA
BRANCH  67  69
ATOM     69  O   UNL     1      -9.244 -12.007  -6.987  1.00  0.00    -0.481 OA
ATOM     70  H   UNL     1     -10.036 -11.504  -6.701  1.00  0.00     0.296 HD
ENDBRANCH  67  69
ENDBRANCH  66  67
ENDBRANCH  56  66
ENDBRANCH  53  56
ENDBRANCH  50  52
ENDBRANCH  47  50
ENDBRANCH  45  46
BRANCH  45  71
ATOM     71  C   UNL     1     -14.050  -8.833   0.392  1.00  0.00     0.037 C 
BRANCH  71  72
ATOM     72  C   UNL     1     -15.556  -8.561   0.370  1.00  0.00     0.026 C 
BRANCH  72  73
ATOM     73  C   UNL     1     -15.974  -7.625   1.502  1.00  0.00     0.146 C 
BRANCH  73  74
ATOM     74  N   UNL     1     -14.921  -7.649   2.513  1.00  0.00    -0.254 NA
ATOM     75  C   UNL     1     -15.191  -7.167   3.670  1.00  0.00     0.185 C 
ATOM     76  N   UNL     1     -14.243  -7.176   4.622  1.00  0.00    -0.370 N 
ATOM     77  N   UNL     1     -16.337  -6.621   4.112  1.00  0.00    -0.370 N 
ATOM     78  H   UNL     1     -13.345  -7.564   4.370  1.00  0.00     0.159 HD
ATOM     79  H   UNL     1     -14.332  -6.690   5.496  1.00  0.00     0.159 HD
ATOM     80  H   UNL     1     -17.140  -6.550   3.505  1.00  0.00     0.159 HD
ATOM     81  H   UNL     1     -16.468  -6.380   5.080  1.00  0.00     0.159 HD
ENDBRANCH  73  74
ENDBRANCH  72  73
ENDBRANCH  71  72
ENDBRANCH  45  71
ENDBRANCH   3  45
TORSDOF 20
ENDMDL
MODEL 17
REMARK VINA RESULT:    -5.399      2.252      5.099
REMARK INTER + INTRA:         -22.248
REMARK INTER:                 -16.804
REMARK INTRA:                  -5.445
REMARK UNBOUND:                -6.750
REMARK SMILES CCCCCC(=O)N[C@H](CC(=O)O)C(=O)N[C@H]1C(=O)N[C@H](CCCN=C(N)N)C(=O)N[C@@H]2CC[C@H](O)N(C2=O)[C@@H](CC(C)C)C(=O)N(C)[C@@H](Cc2ccccc2)C(=O)N[C@H](C(C)C)C(=O)O[C@@H]1C
REMARK SMILES IDX 30 1 31 2 29 3 32 5 35 6 37 7 34 8 38 9 33 10 39 11 36 12
REMARK SMILES IDX 40 14 41 15 42 16 43 17 44 18 45 19 46 20 47 21 48 22 49 23
REMARK SMILES IDX 50 24 51 25 52 26 56 27 53 28 55 29 54 30 57 31 58 32 59 33
REMARK SMILES IDX 60 35 61 36 62 37 63 38 64 39 65 40 66 41 67 42 68 43 21 45
REMARK SMILES IDX 20 46 18 47 19 48 17 50 16 52 14 53 15 54 9 56 8 57 6 58
REMARK SMILES IDX 7 59 5 61 4 62 3 63 2 64 1 65 10 66 11 67 12 68 13 69 22 71
REMARK SMILES IDX 23 72 24 73 25 74 26 75 27 76 28 77
REMARK H PARENT 31 4 36 13 59 34 20 49 16 55 8 60 13 70 27 78 27 79 28 80
REMARK H PARENT 28 81
REMARK Flexibility Score:  259.900
ROOT
ATOM      1  O   UNL     1     -12.784 -10.807   6.553  1.00  0.00    -0.273 OA
ATOM      2  N   UNL     1     -11.744 -12.608   5.601  1.00  0.00    -0.343 N 
ATOM      3  C   UNL     1     -12.473 -11.439   5.543  1.00  0.00     0.243 C 
ATOM      4  H   UNL     1     -11.493 -13.094   4.749  1.00  0.00     0.164 HD
ENDROOT
BRANCH   2   5
ATOM      5  C   UNL     1     -11.410 -13.212   6.887  1.00  0.00     0.171 C 
ATOM      6  C   UNL     1      -9.942 -15.605   7.611  1.00  0.00     0.214 C 
ATOM      7  N   UNL     1     -11.372 -15.678   7.422  1.00  0.00    -0.303 N 
ATOM      8  C   UNL     1      -9.470 -14.247   8.107  1.00  0.00     0.057 C 
ATOM      9  C   UNL     1     -12.126 -14.585   7.026  1.00  0.00     0.247 C 
ATOM     10  C   UNL     1      -9.904 -13.168   7.138  1.00  0.00     0.040 C 
ATOM     11  O   UNL     1     -13.337 -14.677   6.782  1.00  0.00    -0.272 OA
BRANCH   6  12
ATOM     12  O   UNL     1      -9.329 -15.921   6.383  1.00  0.00    -0.373 OA
ATOM     13  H   UNL     1     -10.011 -16.349   5.823  1.00  0.00     0.213 HD
ENDBRANCH   6  12
BRANCH   7  14
ATOM     14  C   UNL     1     -11.994 -17.016   7.524  1.00  0.00     0.177 C 
BRANCH  14  15
ATOM     15  C   UNL     1     -12.605 -17.352   8.899  1.00  0.00     0.038 C 
BRANCH  15  16
ATOM     16  C   UNL     1     -12.183 -18.650   9.622  1.00  0.00    -0.015 C 
ATOM     17  C   UNL     1     -10.666 -18.863   9.602  1.00  0.00     0.007 C 
ATOM     18  C   UNL     1     -12.847 -19.858   8.950  1.00  0.00     0.007 C 
ENDBRANCH  15  16
ENDBRANCH  14  15
BRANCH  14  19
ATOM     19  C   UNL     1     -12.586 -17.448   6.139  1.00  0.00     0.245 C 
ATOM     20  O   UNL     1     -13.819 -17.584   6.076  1.00  0.00    -0.272 OA
BRANCH  19  21
ATOM     21  N   UNL     1     -11.814 -17.785   5.042  1.00  0.00    -0.332 N 
ATOM     22  C   UNL     1     -10.871 -18.888   4.982  1.00  0.00     0.147 C 
BRANCH  21  23
ATOM     23  C   UNL     1     -11.942 -16.950   3.816  1.00  0.00     0.178 C 
BRANCH  23  24
ATOM     24  C   UNL     1     -12.683 -15.612   4.022  1.00  0.00     0.070 C 
BRANCH  24  25
ATOM     25  C   UNL     1     -13.974 -15.416   3.261  1.00  0.00    -0.045 A 
ATOM     26  C   UNL     1     -14.392 -16.350   2.305  1.00  0.00     0.004 A 
ATOM     27  C   UNL     1     -14.771 -14.287   3.500  1.00  0.00     0.004 A 
ATOM     28  C   UNL     1     -15.578 -16.153   1.594  1.00  0.00     0.000 A 
ATOM     29  C   UNL     1     -15.957 -14.092   2.790  1.00  0.00     0.000 A 
ATOM     30  C   UNL     1     -16.357 -15.024   1.835  1.00  0.00     0.000 A 
ENDBRANCH  24  25
ENDBRANCH  23  24
BRANCH  23  31
ATOM     31  C   UNL     1     -10.623 -16.847   3.014  1.00  0.00     0.243 C 
ATOM     32  O   UNL     1     -10.311 -17.613   2.105  1.00  0.00    -0.273 OA
ATOM     33  N   UNL     1      -9.731 -15.925   3.532  1.00  0.00    -0.341 N 
ATOM     34  H   UNL     1     -10.047 -15.319   4.293  1.00  0.00     0.164 HD
BRANCH  33  35
ATOM     35  C   UNL     1      -8.375 -15.743   3.007  1.00  0.00     0.194 C 
BRANCH  35  36
ATOM     36  C   UNL     1      -7.254 -16.278   3.943  1.00  0.00     0.017 C 
ATOM     37  C   UNL     1      -5.873 -16.185   3.272  1.00  0.00     0.010 C 
ATOM     38  C   UNL     1      -7.463 -17.738   4.362  1.00  0.00     0.010 C 
ENDBRANCH  35  36
BRANCH  35  39
ATOM     39  C   UNL     1      -8.101 -14.283   2.550  1.00  0.00     0.329 C 
ATOM     40  O   UNL     1      -7.327 -13.979   1.650  1.00  0.00    -0.250 OA
BRANCH  39  41
ATOM     41  O   UNL     1      -8.887 -13.377   3.206  1.00  0.00    -0.458 OA
BRANCH  41  42
ATOM     42  C   UNL     1      -8.580 -11.980   2.982  1.00  0.00     0.205 CG0
ATOM     43  C   UNL     1      -8.513 -11.304   4.350  1.00  0.00     0.056 C 
ATOM     44  G   UNL     1      -9.673 -11.375   2.078  1.00  0.00     0.000 G0
ENDBRANCH  41  42
ENDBRANCH  39  41
ENDBRANCH  35  39
ENDBRANCH  33  35
ENDBRANCH  23  31
ENDBRANCH  21  23
ENDBRANCH  19  21
ENDBRANCH  14  19
ENDBRANCH   7  14
ENDBRANCH   2   5
BRANCH   3  45
ATOM     45  C   UNL     1     -12.850 -10.970   4.132  1.00  0.00     0.171 C 
BRANCH  45  46
ATOM     46  N   UNL     1     -11.588 -10.770   3.433  1.00  0.00    -0.342 N 
ATOM     47  C   UNL     1     -11.056 -11.713   2.590  1.00  0.00     0.247 C 
ATOM     48  O   UNL     1     -11.637 -12.761   2.307  1.00  0.00    -0.273 OA
ATOM     49  H   UNL     1     -11.100  -9.891   3.595  1.00  0.00     0.164 HD
BRANCH  47  50
ATOM     50  C   UNL     1      -9.661 -11.380   2.041  1.00  0.00     0.212 CG0
ATOM     51  G   UNL     1      -8.622 -11.977   3.011  1.00  0.00     0.000 G0
BRANCH  50  52
ATOM     52  N   UNL     1      -9.615 -11.976   0.708  1.00  0.00    -0.339 N 
ATOM     53  C   UNL     1      -9.275 -11.273  -0.422  1.00  0.00     0.243 C 
ATOM     54  O   UNL     1      -9.033 -10.070  -0.406  1.00  0.00    -0.273 OA
ATOM     55  H   UNL     1      -9.913 -12.945   0.613  1.00  0.00     0.164 HD
BRANCH  53  56
ATOM     56  C   UNL     1      -9.380 -12.092  -1.725  1.00  0.00     0.182 C 
BRANCH  56  57
ATOM     57  N   UNL     1      -9.116 -11.252  -2.897  1.00  0.00    -0.344 N 
ATOM     58  C   UNL     1      -8.912 -11.778  -4.150  1.00  0.00     0.220 C 
ATOM     59  O   UNL     1      -8.865 -12.985  -4.362  1.00  0.00    -0.275 OA
ATOM     60  H   UNL     1      -9.247 -10.250  -2.785  1.00  0.00     0.164 HD
BRANCH  58  61
ATOM     61  C   UNL     1      -8.716 -10.722  -5.222  1.00  0.00     0.100 C 
BRANCH  61  62
ATOM     62  C   UNL     1      -8.439 -11.298  -6.611  1.00  0.00     0.010 C 
BRANCH  62  63
ATOM     63  C   UNL     1      -9.654 -11.287  -7.548  1.00  0.00     0.000 C 
BRANCH  63  64
ATOM     64  C   UNL     1      -9.429 -12.013  -8.873  1.00  0.00    -0.003 C 
ATOM     65  C   UNL     1     -10.637 -12.856  -9.256  1.00  0.00     0.004 C 
ENDBRANCH  63  64
ENDBRANCH  62  63
ENDBRANCH  61  62
ENDBRANCH  58  61
ENDBRANCH  56  57
BRANCH  56  66
ATOM     66  C   UNL     1     -10.722 -12.816  -1.825  1.00  0.00     0.157 C 
BRANCH  66  67
ATOM     67  C   UNL     1     -10.564 -14.289  -1.581  1.00  0.00     0.305 C 
ATOM     68  O   UNL     1     -10.392 -14.839  -0.504  1.00  0.00    -0.252 OA
BRANCH  67  69
ATOM     69  O   UNL     1     -10.684 -15.010  -2.712  1.00  0.00    -0.481 OA
ATOM     70  H   UNL     1      -9.775 -15.323  -2.907  1.00  0.00     0.296 HD
ENDBRANCH  67  69
ENDBRANCH  66  67
ENDBRANCH  56  66
ENDBRANCH  53  56
ENDBRANCH  50  52
ENDBRANCH  47  50
ENDBRANCH  45  46
BRANCH  45  71
ATOM     71  C   UNL     1     -13.670  -9.677   4.201  1.00  0.00     0.037 C 
BRANCH  71  72
ATOM     72  C   UNL     1     -15.080  -9.858   3.633  1.00  0.00     0.026 C 
BRANCH  72  73
ATOM     73  C   UNL     1     -15.102  -9.670   2.118  1.00  0.00     0.146 C 
BRANCH  73  74
ATOM     74  N   UNL     1     -13.843  -9.043   1.727  1.00  0.00    -0.254 NA
ATOM     75  C   UNL     1     -13.167  -9.593   0.786  1.00  0.00     0.185 C 
ATOM     76  N   UNL     1     -12.005  -9.039   0.404  1.00  0.00    -0.370 N 
ATOM     77  N   UNL     1     -13.450 -10.700   0.078  1.00  0.00    -0.370 N 
ATOM     78  H   UNL     1     -11.713  -8.205   0.892  1.00  0.00     0.159 HD
ATOM     79  H   UNL     1     -11.356  -9.488  -0.219  1.00  0.00     0.159 HD
ATOM     80  H   UNL     1     -14.297 -11.220   0.254  1.00  0.00     0.159 HD
ATOM     81  H   UNL     1     -12.899 -10.973  -0.719  1.00  0.00     0.159 HD
ENDBRANCH  73  74
ENDBRANCH  72  73
ENDBRANCH  71  72
ENDBRANCH  45  71
ENDBRANCH   3  45
TORSDOF 20
ENDMDL
MODEL 18
REMARK VINA RESULT:    -5.362      4.334     11.224
REMARK INTER + INTRA:         -22.143
REMARK INTER:                 -16.388
REMARK INTRA:                  -5.755
REMARK UNBOUND:                -6.750
REMARK SMILES CCCCCC(=O)N[C@H](CC(=O)O)C(=O)N[C@H]1C(=O)N[C@H](CCCN=C(N)N)C(=O)N[C@@H]2CC[C@H](O)N(C2=O)[C@@H](CC(C)C)C(=O)N(C)[C@@H](Cc2ccccc2)C(=O)N[C@H](C(C)C)C(=O)O[C@@H]1C
REMARK SMILES IDX 30 1 31 2 29 3 32 5 35 6 37 7 34 8 38 9 33 10 39 11 36 12
REMARK SMILES IDX 40 14 41 15 42 16 43 17 44 18 45 19 46 20 47 21 48 22 49 23
REMARK SMILES IDX 50 24 51 25 52 26 56 27 53 28 55 29 54 30 57 31 58 32 59 33
REMARK SMILES IDX 60 35 61 36 62 37 63 38 64 39 65 40 66 41 67 42 68 43 21 45
REMARK SMILES IDX 20 46 18 47 19 48 17 50 16 52 14 53 15 54 9 56 8 57 6 58
REMARK SMILES IDX 7 59 5 61 4 62 3 63 2 64 1 65 10 66 11 67 12 68 13 69 22 71
REMARK SMILES IDX 23 72 24 73 25 74 26 75 27 76 28 77
REMARK H PARENT 31 4 36 13 59 34 20 49 16 55 8 60 13 70 27 78 27 79 28 80
REMARK H PARENT 28 81
REMARK Flexibility Score:  259.900
ROOT
ATOM      1  O   UNL     1     -12.904 -15.195   4.549  1.00  0.00    -0.273 OA
ATOM      2  N   UNL     1     -14.668 -16.482   5.229  1.00  0.00    -0.343 N 
ATOM      3  C   UNL     1     -13.342 -16.106   5.252  1.00  0.00     0.243 C 
ATOM      4  H   UNL     1     -14.996 -17.226   5.832  1.00  0.00     0.164 HD
ENDROOT
BRANCH   2   5
ATOM      5  C   UNL     1     -15.592 -15.886   4.270  1.00  0.00     0.171 C 
ATOM      6  C   UNL     1     -15.257 -13.875   2.209  1.00  0.00     0.214 C 
ATOM      7  N   UNL     1     -15.646 -13.470   3.540  1.00  0.00    -0.303 N 
ATOM      8  C   UNL     1     -15.742 -15.267   1.837  1.00  0.00     0.057 C 
ATOM      9  C   UNL     1     -15.774 -14.373   4.583  1.00  0.00     0.247 C 
ATOM     10  C   UNL     1     -15.223 -16.275   2.839  1.00  0.00     0.040 C 
ATOM     11  O   UNL     1     -16.023 -14.009   5.739  1.00  0.00    -0.272 OA
BRANCH   6  12
ATOM     12  O   UNL     1     -13.852 -13.806   2.132  1.00  0.00    -0.373 OA
ATOM     13  H   UNL     1     -13.519 -14.729   2.139  1.00  0.00     0.213 HD
ENDBRANCH   6  12
BRANCH   7  14
ATOM     14  C   UNL     1     -15.764 -12.018   3.792  1.00  0.00     0.177 C 
BRANCH  14  15
ATOM     15  C   UNL     1     -15.039 -11.511   5.053  1.00  0.00     0.038 C 
BRANCH  15  16
ATOM     16  C   UNL     1     -15.728 -10.465   5.958  1.00  0.00    -0.015 C 
ATOM     17  C   UNL     1     -15.648  -9.049   5.380  1.00  0.00     0.007 C 
ATOM     18  C   UNL     1     -15.064 -10.457   7.341  1.00  0.00     0.007 C 
ENDBRANCH  15  16
ENDBRANCH  14  15
BRANCH  14  19
ATOM     19  C   UNL     1     -15.879 -11.239   2.436  1.00  0.00     0.245 C 
ATOM     20  O   UNL     1     -16.883 -11.470   1.742  1.00  0.00    -0.272 OA
BRANCH  19  21
ATOM     21  N   UNL     1     -14.888 -10.414   1.935  1.00  0.00    -0.332 N 
ATOM     22  C   UNL     1     -15.037  -8.999   1.645  1.00  0.00     0.147 C 
BRANCH  21  23
ATOM     23  C   UNL     1     -13.556 -11.017   1.654  1.00  0.00     0.178 C 
BRANCH  23  24
ATOM     24  C   UNL     1     -13.134 -10.987   0.170  1.00  0.00     0.070 C 
BRANCH  24  25
ATOM     25  C   UNL     1     -11.880 -11.742  -0.203  1.00  0.00    -0.045 A 
ATOM     26  C   UNL     1     -11.895 -13.136  -0.337  1.00  0.00     0.004 A 
ATOM     27  C   UNL     1     -10.676 -11.053  -0.418  1.00  0.00     0.004 A 
ATOM     28  C   UNL     1     -10.727 -13.829  -0.666  1.00  0.00     0.000 A 
ATOM     29  C   UNL     1      -9.511 -11.746  -0.748  1.00  0.00     0.000 A 
ATOM     30  C   UNL     1      -9.537 -13.134  -0.869  1.00  0.00     0.000 A 
ENDBRANCH  24  25
ENDBRANCH  23  24
BRANCH  23  31
ATOM     31  C   UNL     1     -12.465 -10.561   2.651  1.00  0.00     0.243 C 
ATOM     32  O   UNL     1     -12.099  -9.396   2.785  1.00  0.00    -0.273 OA
ATOM     33  N   UNL     1     -11.796 -11.612   3.257  1.00  0.00    -0.341 N 
ATOM     34  H   UNL     1     -12.143 -12.561   3.103  1.00  0.00     0.164 HD
BRANCH  33  35
ATOM     35  C   UNL     1     -10.647 -11.420   4.147  1.00  0.00     0.194 C 
BRANCH  35  36
ATOM     36  C   UNL     1      -9.304 -11.956   3.574  1.00  0.00     0.017 C 
ATOM     37  C   UNL     1      -8.623 -10.910   2.675  1.00  0.00     0.010 C 
ATOM     38  C   UNL     1      -9.469 -13.236   2.746  1.00  0.00     0.010 C 
ENDBRANCH  35  36
BRANCH  35  39
ATOM     39  C   UNL     1     -10.913 -11.941   5.587  1.00  0.00     0.329 C 
ATOM     40  O   UNL     1     -12.003 -11.892   6.144  1.00  0.00    -0.250 OA
BRANCH  39  41
ATOM     41  O   UNL     1      -9.813 -12.541   6.134  1.00  0.00    -0.458 OA
BRANCH  41  42
ATOM     42  C   UNL     1      -9.992 -13.142   7.439  1.00  0.00     0.205 CG0
ATOM     43  C   UNL     1      -9.159 -12.332   8.430  1.00  0.00     0.056 C 
ATOM     44  G   UNL     1      -9.552 -14.617   7.366  1.00  0.00     0.000 G0
ENDBRANCH  41  42
ENDBRANCH  39  41
ENDBRANCH  35  39
ENDBRANCH  33  35
ENDBRANCH  23  31
ENDBRANCH  21  23
ENDBRANCH  19  21
ENDBRANCH  14  19
ENDBRANCH   7  14
ENDBRANCH   2   5
BRANCH   3  45
ATOM     45  C   UNL     1     -12.455 -16.886   6.232  1.00  0.00     0.171 C 
BRANCH  45  46
ATOM     46  N   UNL     1     -11.218 -16.123   6.336  1.00  0.00    -0.342 N 
ATOM     47  C   UNL     1     -10.832 -15.503   7.498  1.00  0.00     0.247 C 
ATOM     48  O   UNL     1     -11.461 -15.607   8.552  1.00  0.00    -0.273 OA
ATOM     49  H   UNL     1     -10.639 -16.059   5.502  1.00  0.00     0.164 HD
BRANCH  47  50
ATOM     50  C   UNL     1      -9.565 -14.643   7.386  1.00  0.00     0.212 CG0
ATOM     51  G   UNL     1      -9.995 -13.165   7.475  1.00  0.00     0.000 G0
BRANCH  50  52
ATOM     52  N   UNL     1      -8.709 -15.063   8.491  1.00  0.00    -0.339 N 
ATOM     53  C   UNL     1      -7.685 -15.968   8.352  1.00  0.00     0.243 C 
ATOM     54  O   UNL     1      -7.443 -16.536   7.291  1.00  0.00    -0.273 OA
ATOM     55  H   UNL     1      -8.930 -14.712   9.421  1.00  0.00     0.164 HD
BRANCH  53  56
ATOM     56  C   UNL     1      -6.976 -16.322   9.676  1.00  0.00     0.182 C 
BRANCH  56  57
ATOM     57  N   UNL     1      -6.522 -15.112  10.369  1.00  0.00    -0.344 N 
ATOM     58  C   UNL     1      -6.572 -14.985  11.736  1.00  0.00     0.220 C 
ATOM     59  O   UNL     1      -7.066 -15.839  12.464  1.00  0.00    -0.275 OA
ATOM     60  H   UNL     1      -6.015 -14.427   9.815  1.00  0.00     0.164 HD
BRANCH  58  61
ATOM     61  C   UNL     1      -5.996 -13.674  12.239  1.00  0.00     0.100 C 
BRANCH  61  62
ATOM     62  C   UNL     1      -6.909 -12.934  13.217  1.00  0.00     0.010 C 
BRANCH  62  63
ATOM     63  C   UNL     1      -6.244 -12.585  14.554  1.00  0.00     0.000 C 
BRANCH  63  64
ATOM     64  C   UNL     1      -6.609 -13.527  15.701  1.00  0.00    -0.003 C 
ATOM     65  C   UNL     1      -5.388 -14.275  16.215  1.00  0.00     0.004 C 
ENDBRANCH  63  64
ENDBRANCH  62  63
ENDBRANCH  61  62
ENDBRANCH  58  61
ENDBRANCH  56  57
BRANCH  56  66
ATOM     66  C   UNL     1      -5.841 -17.320   9.454  1.00  0.00     0.157 C 
BRANCH  66  67
ATOM     67  C   UNL     1      -6.031 -18.554  10.289  1.00  0.00     0.305 C 
ATOM     68  O   UNL     1      -6.224 -19.690   9.885  1.00  0.00    -0.252 OA
BRANCH  67  69
ATOM     69  O   UNL     1      -5.916 -18.302  11.607  1.00  0.00    -0.481 OA
ATOM     70  H   UNL     1      -6.028 -17.331  11.687  1.00  0.00     0.296 HD
ENDBRANCH  67  69
ENDBRANCH  66  67
ENDBRANCH  56  66
ENDBRANCH  53  56
ENDBRANCH  50  52
ENDBRANCH  47  50
ENDBRANCH  45  46
BRANCH  45  71
ATOM     71  C   UNL     1     -12.202 -18.304   5.709  1.00  0.00     0.037 C 
BRANCH  71  72
ATOM     72  C   UNL     1     -11.853 -18.315   4.218  1.00  0.00     0.026 C 
BRANCH  72  73
ATOM     73  C   UNL     1     -10.416 -18.776   3.983  1.00  0.00     0.146 C 
BRANCH  73  74
ATOM     74  N   UNL     1      -9.525 -17.781   4.570  1.00  0.00    -0.254 NA
ATOM     75  C   UNL     1      -8.434 -17.515   3.952  1.00  0.00     0.185 C 
ATOM     76  N   UNL     1      -7.594 -16.602   4.467  1.00  0.00    -0.370 N 
ATOM     77  N   UNL     1      -7.967 -18.031   2.802  1.00  0.00    -0.370 N 
ATOM     78  H   UNL     1      -7.867 -16.169   5.338  1.00  0.00     0.159 HD
ATOM     79  H   UNL     1      -6.663 -16.448   4.120  1.00  0.00     0.159 HD
ATOM     80  H   UNL     1      -8.496 -18.727   2.299  1.00  0.00     0.159 HD
ATOM     81  H   UNL     1      -7.147 -17.659   2.350  1.00  0.00     0.159 HD
ENDBRANCH  73  74
ENDBRANCH  72  73
ENDBRANCH  71  72
ENDBRANCH  45  71
ENDBRANCH   3  45
TORSDOF 20
ENDMDL
MODEL 19
REMARK VINA RESULT:    -5.327      2.714      3.961
REMARK INTER + INTRA:         -22.042
REMARK INTER:                 -18.909
REMARK INTRA:                  -3.133
REMARK UNBOUND:                -6.750
REMARK SMILES CCCCCC(=O)N[C@H](CC(=O)O)C(=O)N[C@H]1C(=O)N[C@H](CCCN=C(N)N)C(=O)N[C@@H]2CC[C@H](O)N(C2=O)[C@@H](CC(C)C)C(=O)N(C)[C@@H](Cc2ccccc2)C(=O)N[C@H](C(C)C)C(=O)O[C@@H]1C
REMARK SMILES IDX 30 1 31 2 29 3 32 5 35 6 37 7 34 8 38 9 33 10 39 11 36 12
REMARK SMILES IDX 40 14 41 15 42 16 43 17 44 18 45 19 46 20 47 21 48 22 49 23
REMARK SMILES IDX 50 24 51 25 52 26 56 27 53 28 55 29 54 30 57 31 58 32 59 33
REMARK SMILES IDX 60 35 61 36 62 37 63 38 64 39 65 40 66 41 67 42 68 43 21 45
REMARK SMILES IDX 20 46 18 47 19 48 17 50 16 52 14 53 15 54 9 56 8 57 6 58
REMARK SMILES IDX 7 59 5 61 4 62 3 63 2 64 1 65 10 66 11 67 12 68 13 69 22 71
REMARK SMILES IDX 23 72 24 73 25 74 26 75 27 76 28 77
REMARK H PARENT 31 4 36 13 59 34 20 49 16 55 8 60 13 70 27 78 27 79 28 80
REMARK H PARENT 28 81
REMARK Flexibility Score:  259.900
ROOT
ATOM      1  O   UNL     1     -13.958 -13.018   1.057  1.00  0.00    -0.273 OA
ATOM      2  N   UNL     1     -14.163 -11.118   2.314  1.00  0.00    -0.343 N 
ATOM      3  C   UNL     1     -13.960 -11.789   1.127  1.00  0.00     0.243 C 
ATOM      4  H   UNL     1     -14.172 -10.106   2.331  1.00  0.00     0.164 HD
ENDROOT
BRANCH   2   5
ATOM      5  C   UNL     1     -14.267 -11.850   3.572  1.00  0.00     0.171 C 
ATOM      6  C   UNL     1     -15.352 -11.151   6.168  1.00  0.00     0.214 C 
ATOM      7  N   UNL     1     -13.956 -10.902   5.891  1.00  0.00    -0.303 N 
ATOM      8  C   UNL     1     -15.913 -12.342   5.408  1.00  0.00     0.057 C 
ATOM      9  C   UNL     1     -13.386 -11.165   4.656  1.00  0.00     0.247 C 
ATOM     10  C   UNL     1     -15.727 -12.136   3.920  1.00  0.00     0.040 C 
ATOM     11  O   UNL     1     -12.212 -10.870   4.399  1.00  0.00    -0.272 OA
BRANCH   6  12
ATOM     12  O   UNL     1     -16.069  -9.981   5.848  1.00  0.00    -0.373 OA
ATOM     13  H   UNL     1     -16.368 -10.072   4.918  1.00  0.00     0.213 HD
ENDBRANCH   6  12
BRANCH   7  14
ATOM     14  C   UNL     1     -13.178 -10.211   6.940  1.00  0.00     0.177 C 
BRANCH  14  15
ATOM     15  C   UNL     1     -14.010  -9.625   8.096  1.00  0.00     0.038 C 
BRANCH  15  16
ATOM     16  C   UNL     1     -14.281  -8.105   8.145  1.00  0.00    -0.015 C 
ATOM     17  C   UNL     1     -12.990  -7.282   8.172  1.00  0.00     0.007 C 
ATOM     18  C   UNL     1     -15.095  -7.763   9.400  1.00  0.00     0.007 C 
ENDBRANCH  15  16
ENDBRANCH  14  15
BRANCH  14  19
ATOM     19  C   UNL     1     -11.759 -10.864   7.083  1.00  0.00     0.245 C 
ATOM     20  O   UNL     1     -10.785 -10.094   7.061  1.00  0.00    -0.272 OA
BRANCH  19  21
ATOM     21  N   UNL     1     -11.539 -12.229   7.117  1.00  0.00    -0.332 N 
ATOM     22  C   UNL     1     -12.476 -13.222   7.612  1.00  0.00     0.147 C 
BRANCH  21  23
ATOM     23  C   UNL     1     -10.231 -12.735   6.617  1.00  0.00     0.178 C 
BRANCH  23  24
ATOM     24  C   UNL     1      -9.656 -13.928   7.407  1.00  0.00     0.070 C 
BRANCH  24  25
ATOM     25  C   UNL     1      -8.574 -13.627   8.419  1.00  0.00    -0.045 A 
ATOM     26  C   UNL     1      -7.703 -14.632   8.858  1.00  0.00     0.004 A 
ATOM     27  C   UNL     1      -8.431 -12.331   8.937  1.00  0.00     0.004 A 
ATOM     28  C   UNL     1      -6.717 -14.349   9.806  1.00  0.00     0.000 A 
ATOM     29  C   UNL     1      -7.445 -12.050   9.883  1.00  0.00     0.000 A 
ATOM     30  C   UNL     1      -6.590 -13.060  10.319  1.00  0.00     0.000 A 
ENDBRANCH  24  25
ENDBRANCH  23  24
BRANCH  23  31
ATOM     31  C   UNL     1     -10.193 -12.894   5.078  1.00  0.00     0.243 C 
ATOM     32  O   UNL     1      -9.533 -12.178   4.330  1.00  0.00    -0.273 OA
ATOM     33  N   UNL     1     -11.119 -13.803   4.593  1.00  0.00    -0.341 N 
ATOM     34  H   UNL     1     -11.644 -14.366   5.266  1.00  0.00     0.164 HD
BRANCH  33  35
ATOM     35  C   UNL     1     -11.343 -14.028   3.163  1.00  0.00     0.194 C 
BRANCH  35  36
ATOM     36  C   UNL     1     -11.836 -15.461   2.815  1.00  0.00     0.017 C 
ATOM     37  C   UNL     1     -13.342 -15.615   3.089  1.00  0.00     0.010 C 
ATOM     38  C   UNL     1     -11.111 -16.557   3.605  1.00  0.00     0.010 C 
ENDBRANCH  35  36
BRANCH  35  39
ATOM     39  C   UNL     1     -10.126 -13.606   2.293  1.00  0.00     0.329 C 
ATOM     40  O   UNL     1      -9.036 -14.166   2.321  1.00  0.00    -0.250 OA
BRANCH  39  41
ATOM     41  O   UNL     1     -10.431 -12.593   1.427  1.00  0.00    -0.458 OA
BRANCH  41  42
ATOM     42  C   UNL     1      -9.409 -12.242   0.465  1.00  0.00     0.205 CG0
ATOM     43  C   UNL     1      -8.478 -11.235   1.137  1.00  0.00     0.056 C 
ATOM     44  G   UNL     1     -10.092 -11.665  -0.791  1.00  0.00     0.000 G0
ENDBRANCH  41  42
ENDBRANCH  39  41
ENDBRANCH  35  39
ENDBRANCH  33  35
ENDBRANCH  23  31
ENDBRANCH  21  23
ENDBRANCH  19  21
ENDBRANCH  14  19
ENDBRANCH   7  14
ENDBRANCH   2   5
BRANCH   3  45
ATOM     45  C   UNL     1     -13.757 -10.897  -0.105  1.00  0.00     0.171 C 
BRANCH  45  46
ATOM     46  N   UNL     1     -12.315 -10.812  -0.297  1.00  0.00    -0.342 N 
ATOM     47  C   UNL     1     -11.578 -11.851  -0.806  1.00  0.00     0.247 C 
ATOM     48  O   UNL     1     -12.087 -12.899  -1.204  1.00  0.00    -0.273 OA
ATOM     49  H   UNL     1     -11.861  -9.939  -0.032  1.00  0.00     0.164 HD
BRANCH  47  50
ATOM     50  C   UNL     1     -10.059 -11.625  -0.819  1.00  0.00     0.212 CG0
ATOM     51  G   UNL     1      -9.481 -12.261   0.461  1.00  0.00     0.000 G0
BRANCH  50  52
ATOM     52  N   UNL     1      -9.582 -12.259  -2.045  1.00  0.00    -0.339 N 
ATOM     53  C   UNL     1      -8.798 -11.616  -2.973  1.00  0.00     0.243 C 
ATOM     54  O   UNL     1      -8.481 -10.435  -2.867  1.00  0.00    -0.273 OA
ATOM     55  H   UNL     1      -9.903 -13.204  -2.245  1.00  0.00     0.164 HD
BRANCH  53  56
ATOM     56  C   UNL     1      -8.491 -12.460  -4.226  1.00  0.00     0.182 C 
BRANCH  56  57
ATOM     57  N   UNL     1      -9.502 -12.245  -5.267  1.00  0.00    -0.344 N 
ATOM     58  C   UNL     1      -9.349 -11.307  -6.259  1.00  0.00     0.220 C 
ATOM     59  O   UNL     1      -8.396 -10.537  -6.303  1.00  0.00    -0.275 OA
ATOM     60  H   UNL     1     -10.254 -12.926  -5.326  1.00  0.00     0.164 HD
BRANCH  58  61
ATOM     61  C   UNL     1     -10.490 -11.299  -7.259  1.00  0.00     0.100 C 
BRANCH  61  62
ATOM     62  C   UNL     1     -10.677 -12.628  -7.992  1.00  0.00     0.010 C 
BRANCH  62  63
ATOM     63  C   UNL     1     -11.824 -13.489  -7.447  1.00  0.00     0.000 C 
BRANCH  63  64
ATOM     64  C   UNL     1     -13.124 -12.723  -7.208  1.00  0.00    -0.003 C 
ATOM     65  C   UNL     1     -14.333 -13.526  -7.666  1.00  0.00     0.004 C 
ENDBRANCH  63  64
ENDBRANCH  62  63
ENDBRANCH  61  62
ENDBRANCH  58  61
ENDBRANCH  56  57
BRANCH  56  66
ATOM     66  C   UNL     1      -8.325 -13.939  -3.880  1.00  0.00     0.157 C 
BRANCH  66  67
ATOM     67  C   UNL     1      -9.516 -14.738  -4.325  1.00  0.00     0.305 C 
ATOM     68  O   UNL     1     -10.677 -14.578  -3.979  1.00  0.00    -0.252 OA
BRANCH  67  69
ATOM     69  O   UNL     1      -9.191 -15.677  -5.234  1.00  0.00    -0.481 OA
ATOM     70  H   UNL     1      -8.326 -16.027  -4.934  1.00  0.00     0.296 HD
ENDBRANCH  67  69
ENDBRANCH  66  67
ENDBRANCH  56  66
ENDBRANCH  53  56
ENDBRANCH  50  52
ENDBRANCH  47  50
ENDBRANCH  45  46
BRANCH  45  71
ATOM     71  C   UNL     1     -14.379  -9.515   0.128  1.00  0.00     0.037 C 
BRANCH  71  72
ATOM     72  C   UNL     1     -15.856  -9.607   0.521  1.00  0.00     0.026 C 
BRANCH  72  73
ATOM     73  C   UNL     1     -16.260  -8.466   1.451  1.00  0.00     0.146 C 
BRANCH  73  74
ATOM     74  N   UNL     1     -15.401  -8.524   2.630  1.00  0.00    -0.254 NA
ATOM     75  C   UNL     1     -15.418  -7.525   3.433  1.00  0.00     0.185 C 
ATOM     76  N   UNL     1     -14.639  -7.549   4.527  1.00  0.00    -0.370 N 
ATOM     77  N   UNL     1     -16.132  -6.388   3.353  1.00  0.00    -0.370 N 
ATOM     78  H   UNL     1     -14.062  -8.368   4.659  1.00  0.00     0.159 HD
ATOM     79  H   UNL     1     -14.491  -6.751   5.119  1.00  0.00     0.159 HD
ATOM     80  H   UNL     1     -16.765  -6.233   2.584  1.00  0.00     0.159 HD
ATOM     81  H   UNL     1     -16.149  -5.721   4.107  1.00  0.00     0.159 HD
ENDBRANCH  73  74
ENDBRANCH  72  73
ENDBRANCH  71  72
ENDBRANCH  45  71
ENDBRANCH   3  45
TORSDOF 20
ENDMDL
MODEL 20
REMARK VINA RESULT:    -5.268      4.261     10.029
REMARK INTER + INTRA:         -21.872
REMARK INTER:                 -15.631
REMARK INTRA:                  -6.242
REMARK UNBOUND:                -6.750
REMARK SMILES CCCCCC(=O)N[C@H](CC(=O)O)C(=O)N[C@H]1C(=O)N[C@H](CCCN=C(N)N)C(=O)N[C@@H]2CC[C@H](O)N(C2=O)[C@@H](CC(C)C)C(=O)N(C)[C@@H](Cc2ccccc2)C(=O)N[C@H](C(C)C)C(=O)O[C@@H]1C
REMARK SMILES IDX 30 1 31 2 29 3 32 5 35 6 37 7 34 8 38 9 33 10 39 11 36 12
REMARK SMILES IDX 40 14 41 15 42 16 43 17 44 18 45 19 46 20 47 21 48 22 49 23
REMARK SMILES IDX 50 24 51 25 52 26 56 27 53 28 55 29 54 30 57 31 58 32 59 33
REMARK SMILES IDX 60 35 61 36 62 37 63 38 64 39 65 40 66 41 67 42 68 43 21 45
REMARK SMILES IDX 20 46 18 47 19 48 17 50 16 52 14 53 15 54 9 56 8 57 6 58
REMARK SMILES IDX 7 59 5 61 4 62 3 63 2 64 1 65 10 66 11 67 12 68 13 69 22 71
REMARK SMILES IDX 23 72 24 73 25 74 26 75 27 76 28 77
REMARK H PARENT 31 4 36 13 59 34 20 49 16 55 8 60 13 70 27 78 27 79 28 80
REMARK H PARENT 28 81
REMARK Flexibility Score:  259.900
ROOT
ATOM      1  O   UNL     1     -12.477  -9.953   7.629  1.00  0.00    -0.273 OA
ATOM      2  N   UNL     1     -12.672 -10.468   5.409  1.00  0.00    -0.343 N 
ATOM      3  C   UNL     1     -12.033 -10.518   6.629  1.00  0.00     0.243 C 
ATOM      4  H   UNL     1     -12.285 -10.957   4.611  1.00  0.00     0.164 HD
ENDROOT
BRANCH   2   5
ATOM      5  C   UNL     1     -13.854  -9.633   5.224  1.00  0.00     0.171 C 
ATOM      6  C   UNL     1     -16.264  -9.962   3.647  1.00  0.00     0.214 C 
ATOM      7  N   UNL     1     -15.125  -9.286   3.071  1.00  0.00    -0.303 N 
ATOM      8  C   UNL     1     -16.363  -9.797   5.155  1.00  0.00     0.057 C 
ATOM      9  C   UNL     1     -13.927  -9.140   3.751  1.00  0.00     0.247 C 
ATOM     10  C   UNL     1     -15.096 -10.304   5.810  1.00  0.00     0.040 C 
ATOM     11  O   UNL     1     -12.928  -8.636   3.219  1.00  0.00    -0.272 OA
BRANCH   6  12
ATOM     12  O   UNL     1     -16.173 -11.326   3.306  1.00  0.00    -0.373 OA
ATOM     13  H   UNL     1     -16.093 -11.373   2.329  1.00  0.00     0.213 HD
ENDBRANCH   6  12
BRANCH   7  14
ATOM     14  C   UNL     1     -15.234  -8.877   1.655  1.00  0.00     0.177 C 
BRANCH  14  15
ATOM     15  C   UNL     1     -15.616  -7.401   1.426  1.00  0.00     0.038 C 
BRANCH  15  16
ATOM     16  C   UNL     1     -16.669  -6.737   2.340  1.00  0.00    -0.015 C 
ATOM     17  C   UNL     1     -17.681  -5.899   1.553  1.00  0.00     0.007 C 
ATOM     18  C   UNL     1     -15.971  -5.821   3.353  1.00  0.00     0.007 C 
ENDBRANCH  15  16
ENDBRANCH  14  15
BRANCH  14  19
ATOM     19  C   UNL     1     -14.236  -9.703   0.772  1.00  0.00     0.245 C 
ATOM     20  O   UNL     1     -13.485  -9.056   0.023  1.00  0.00    -0.272 OA
BRANCH  19  21
ATOM     21  N   UNL     1     -14.230 -11.085   0.703  1.00  0.00    -0.332 N 
ATOM     22  C   UNL     1     -15.374 -11.918   0.377  1.00  0.00     0.147 C 
BRANCH  21  23
ATOM     23  C   UNL     1     -12.951 -11.790   0.996  1.00  0.00     0.178 C 
BRANCH  23  24
ATOM     24  C   UNL     1     -11.681 -10.943   0.773  1.00  0.00     0.070 C 
BRANCH  24  25
ATOM     25  C   UNL     1     -10.382 -11.690   0.578  1.00  0.00    -0.045 A 
ATOM     26  C   UNL     1      -9.311 -11.510   1.463  1.00  0.00     0.004 A 
ATOM     27  C   UNL     1     -10.229 -12.574  -0.500  1.00  0.00     0.004 A 
ATOM     28  C   UNL     1      -8.108 -12.190   1.266  1.00  0.00     0.000 A 
ATOM     29  C   UNL     1      -9.027 -13.255  -0.695  1.00  0.00     0.000 A 
ATOM     30  C   UNL     1      -7.966 -13.060   0.187  1.00  0.00     0.000 A 
ENDBRANCH  24  25
ENDBRANCH  23  24
BRANCH  23  31
ATOM     31  C   UNL     1     -12.986 -12.574   2.329  1.00  0.00     0.243 C 
ATOM     32  O   UNL     1     -12.332 -12.268   3.323  1.00  0.00    -0.273 OA
ATOM     33  N   UNL     1     -13.682 -13.768   2.250  1.00  0.00    -0.341 N 
ATOM     34  H   UNL     1     -14.203 -13.971   1.394  1.00  0.00     0.164 HD
BRANCH  33  35
ATOM     35  C   UNL     1     -13.747 -14.730   3.355  1.00  0.00     0.194 C 
BRANCH  35  36
ATOM     36  C   UNL     1     -14.329 -16.115   2.958  1.00  0.00     0.017 C 
ATOM     37  C   UNL     1     -13.212 -17.111   2.604  1.00  0.00     0.010 C 
ATOM     38  C   UNL     1     -15.282 -16.049   1.758  1.00  0.00     0.010 C 
ENDBRANCH  35  36
BRANCH  35  39
ATOM     39  C   UNL     1     -14.445 -14.146   4.615  1.00  0.00     0.329 C 
ATOM     40  O   UNL     1     -15.612 -13.772   4.642  1.00  0.00    -0.250 OA
BRANCH  39  41
ATOM     41  O   UNL     1     -13.638 -14.177   5.718  1.00  0.00    -0.458 OA
BRANCH  41  42
ATOM     42  C   UNL     1     -12.907 -15.406   5.943  1.00  0.00     0.205 CG0
ATOM     43  C   UNL     1     -13.851 -16.372   6.657  1.00  0.00     0.056 C 
ATOM     44  G   UNL     1     -11.650 -15.086   6.777  1.00  0.00     0.000 G0
ENDBRANCH  41  42
ENDBRANCH  39  41
ENDBRANCH  35  39
ENDBRANCH  33  35
ENDBRANCH  23  31
ENDBRANCH  21  23
ENDBRANCH  19  21
ENDBRANCH  14  19
ENDBRANCH   7  14
ENDBRANCH   2   5
BRANCH   3  45
ATOM     45  C   UNL     1     -10.740 -11.345   6.660  1.00  0.00     0.171 C 
BRANCH  45  46
ATOM     46  N   UNL     1     -11.141 -12.686   7.064  1.00  0.00    -0.342 N 
ATOM     47  C   UNL     1     -11.065 -13.764   6.218  1.00  0.00     0.247 C 
ATOM     48  O   UNL     1     -10.587 -13.692   5.085  1.00  0.00    -0.273 OA
ATOM     49  H   UNL     1     -11.490 -12.802   8.014  1.00  0.00     0.164 HD
BRANCH  47  50
ATOM     50  C   UNL     1     -11.646 -15.071   6.776  1.00  0.00     0.212 CG0
ATOM     51  G   UNL     1     -12.893 -15.422   5.940  1.00  0.00     0.000 G0
BRANCH  50  52
ATOM     52  N   UNL     1     -10.575 -16.056   6.656  1.00  0.00    -0.339 N 
ATOM     53  C   UNL     1     -10.186 -16.879   7.685  1.00  0.00     0.243 C 
ATOM     54  O   UNL     1     -10.678 -16.811   8.809  1.00  0.00    -0.273 OA
ATOM     55  H   UNL     1     -10.054 -16.084   5.782  1.00  0.00     0.164 HD
BRANCH  53  56
ATOM     56  C   UNL     1      -8.978 -17.776   7.350  1.00  0.00     0.182 C 
BRANCH  56  57
ATOM     57  N   UNL     1      -9.013 -18.204   5.948  1.00  0.00    -0.344 N 
ATOM     58  C   UNL     1      -7.882 -18.575   5.262  1.00  0.00     0.220 C 
ATOM     59  O   UNL     1      -6.759 -18.504   5.749  1.00  0.00    -0.275 OA
ATOM     60  H   UNL     1      -9.930 -18.373   5.541  1.00  0.00     0.164 HD
BRANCH  58  61
ATOM     61  C   UNL     1      -8.162 -19.037   3.844  1.00  0.00     0.100 C 
BRANCH  61  62
ATOM     62  C   UNL     1      -8.687 -17.931   2.928  1.00  0.00     0.010 C 
BRANCH  62  63
ATOM     63  C   UNL     1      -7.810 -16.673   2.897  1.00  0.00     0.000 C 
BRANCH  63  64
ATOM     64  C   UNL     1      -8.588 -15.363   3.009  1.00  0.00    -0.003 C 
ATOM     65  C   UNL     1      -9.923 -15.447   2.284  1.00  0.00     0.004 C 
ENDBRANCH  63  64
ENDBRANCH  62  63
ENDBRANCH  61  62
ENDBRANCH  58  61
ENDBRANCH  56  57
BRANCH  56  66
ATOM     66  C   UNL     1      -8.874 -18.958   8.311  1.00  0.00     0.157 C 
BRANCH  66  67
ATOM     67  C   UNL     1      -7.711 -18.797   9.248  1.00  0.00     0.305 C 
ATOM     68  O   UNL     1      -7.724 -18.269  10.349  1.00  0.00    -0.252 OA
BRANCH  67  69
ATOM     69  O   UNL     1      -6.586 -19.361   8.768  1.00  0.00    -0.481 OA
ATOM     70  H   UNL     1      -6.825 -20.298   8.608  1.00  0.00     0.296 HD
ENDBRANCH  67  69
ENDBRANCH  66  67
ENDBRANCH  56  66
ENDBRANCH  53  56
ENDBRANCH  50  52
ENDBRANCH  47  50
ENDBRANCH  45  46
BRANCH  45  71
ATOM     71  C   UNL     1      -9.738 -10.733   7.644  1.00  0.00     0.037 C 
BRANCH  71  72
ATOM     72  C   UNL     1      -8.531 -11.644   7.878  1.00  0.00     0.026 C 
BRANCH  72  73
ATOM     73  C   UNL     1      -8.103 -11.642   9.344  1.00  0.00     0.146 C 
BRANCH  73  74
ATOM     74  N   UNL     1      -7.716 -13.005   9.699  1.00  0.00    -0.254 NA
ATOM     75  C   UNL     1      -6.487 -13.221   9.993  1.00  0.00     0.185 C 
ATOM     76  N   UNL     1      -6.101 -14.464  10.324  1.00  0.00    -0.370 N 
ATOM     77  N   UNL     1      -5.461 -12.353  10.026  1.00  0.00    -0.370 N 
ATOM     78  H   UNL     1      -6.812 -15.181  10.317  1.00  0.00     0.159 HD
ATOM     79  H   UNL     1      -5.139 -14.736  10.424  1.00  0.00     0.159 HD
ATOM     80  H   UNL     1      -5.604 -11.380   9.803  1.00  0.00     0.159 HD
ATOM     81  H   UNL     1      -4.558 -12.616  10.385  1.00  0.00     0.159 HD
ENDBRANCH  73  74
ENDBRANCH  72  73
ENDBRANCH  71  72
ENDBRANCH  45  71
ENDBRANCH   3  45
TORSDOF 20
ENDMDL
MODEL 21
REMARK VINA RESULT:    -5.202      4.383      9.004
REMARK INTER + INTRA:         -21.683
REMARK INTER:                 -18.802
REMARK INTRA:                  -2.881
REMARK UNBOUND:                -6.750
REMARK SMILES CCCCCC(=O)N[C@H](CC(=O)O)C(=O)N[C@H]1C(=O)N[C@H](CCCN=C(N)N)C(=O)N[C@@H]2CC[C@H](O)N(C2=O)[C@@H](CC(C)C)C(=O)N(C)[C@@H](Cc2ccccc2)C(=O)N[C@H](C(C)C)C(=O)O[C@@H]1C
REMARK SMILES IDX 30 1 31 2 29 3 32 5 35 6 37 7 34 8 38 9 33 10 39 11 36 12
REMARK SMILES IDX 40 14 41 15 42 16 43 17 44 18 45 19 46 20 47 21 48 22 49 23
REMARK SMILES IDX 50 24 51 25 52 26 56 27 53 28 55 29 54 30 57 31 58 32 59 33
REMARK SMILES IDX 60 35 61 36 62 37 63 38 64 39 65 40 66 41 67 42 68 43 21 45
REMARK SMILES IDX 20 46 18 47 19 48 17 50 16 52 14 53 15 54 9 56 8 57 6 58
REMARK SMILES IDX 7 59 5 61 4 62 3 63 2 64 1 65 10 66 11 67 12 68 13 69 22 71
REMARK SMILES IDX 23 72 24 73 25 74 26 75 27 76 28 77
REMARK H PARENT 31 4 36 13 59 34 20 49 16 55 8 60 13 70 27 78 27 79 28 80
REMARK H PARENT 28 81
REMARK Flexibility Score:  259.900
ROOT
ATOM      1  O   UNL     1     -11.158 -12.250   1.297  1.00  0.00    -0.273 OA
ATOM      2  N   UNL     1     -10.078 -10.598   2.452  1.00  0.00    -0.343 N 
ATOM      3  C   UNL     1     -11.169 -11.123   1.793  1.00  0.00     0.243 C 
ATOM      4  H   UNL     1     -10.128  -9.672   2.860  1.00  0.00     0.164 HD
ENDROOT
BRANCH   2   5
ATOM      5  C   UNL     1      -8.812 -11.321   2.486  1.00  0.00     0.171 C 
ATOM      6  C   UNL     1      -8.020 -13.941   1.530  1.00  0.00     0.214 C 
ATOM      7  N   UNL     1      -8.507 -13.795   2.882  1.00  0.00    -0.303 N 
ATOM      8  C   UNL     1      -7.316 -12.698   1.007  1.00  0.00     0.057 C 
ATOM      9  C   UNL     1      -8.949 -12.583   3.385  1.00  0.00     0.247 C 
ATOM     10  C   UNL     1      -8.251 -11.511   1.078  1.00  0.00     0.040 C 
ATOM     11  O   UNL     1      -9.445 -12.484   4.515  1.00  0.00    -0.272 OA
BRANCH   6  12
ATOM     12  O   UNL     1      -9.118 -14.266   0.709  1.00  0.00    -0.373 OA
ATOM     13  H   UNL     1      -9.595 -15.003   1.147  1.00  0.00     0.213 HD
ENDBRANCH   6  12
BRANCH   7  14
ATOM     14  C   UNL     1      -8.657 -15.033   3.677  1.00  0.00     0.177 C 
BRANCH  14  15
ATOM     15  C   UNL     1      -7.434 -15.415   4.533  1.00  0.00     0.038 C 
BRANCH  15  16
ATOM     16  C   UNL     1      -6.716 -16.759   4.278  1.00  0.00    -0.015 C 
ATOM     17  C   UNL     1      -5.348 -16.574   3.614  1.00  0.00     0.007 C 
ATOM     18  C   UNL     1      -7.577 -17.641   3.366  1.00  0.00     0.007 C 
ENDBRANCH  15  16
ENDBRANCH  14  15
BRANCH  14  19
ATOM     19  C   UNL     1     -10.154 -15.232   4.095  1.00  0.00     0.245 C 
ATOM     20  O   UNL     1     -11.014 -14.980   3.234  1.00  0.00    -0.272 OA
BRANCH  19  21
ATOM     21  N   UNL     1     -10.560 -15.557   5.377  1.00  0.00    -0.332 N 
ATOM     22  C   UNL     1      -9.833 -15.246   6.595  1.00  0.00     0.147 C 
BRANCH  21  23
ATOM     23  C   UNL     1     -11.843 -16.296   5.534  1.00  0.00     0.178 C 
BRANCH  23  24
ATOM     24  C   UNL     1     -11.692 -17.761   5.993  1.00  0.00     0.070 C 
BRANCH  24  25
ATOM     25  C   UNL     1     -12.939 -18.614   5.995  1.00  0.00    -0.045 A 
ATOM     26  C   UNL     1     -13.397 -19.213   7.175  1.00  0.00     0.004 A 
ATOM     27  C   UNL     1     -13.655 -18.822   4.807  1.00  0.00     0.004 A 
ATOM     28  C   UNL     1     -14.541 -20.014   7.165  1.00  0.00     0.000 A 
ATOM     29  C   UNL     1     -14.799 -19.622   4.798  1.00  0.00     0.000 A 
ATOM     30  C   UNL     1     -15.239 -20.220   5.977  1.00  0.00     0.000 A 
ENDBRANCH  24  25
ENDBRANCH  23  24
BRANCH  23  31
ATOM     31  C   UNL     1     -12.919 -15.483   6.294  1.00  0.00     0.243 C 
ATOM     32  O   UNL     1     -13.319 -15.759   7.422  1.00  0.00    -0.273 OA
ATOM     33  N   UNL     1     -13.534 -14.517   5.515  1.00  0.00    -0.341 N 
ATOM     34  H   UNL     1     -13.159 -14.336   4.581  1.00  0.00     0.164 HD
BRANCH  33  35
ATOM     35  C   UNL     1     -14.661 -13.709   5.988  1.00  0.00     0.194 C 
BRANCH  35  36
ATOM     36  C   UNL     1     -15.861 -13.654   5.001  1.00  0.00     0.017 C 
ATOM     37  C   UNL     1     -16.551 -12.279   5.035  1.00  0.00     0.010 C 
ATOM     38  C   UNL     1     -16.932 -14.712   5.292  1.00  0.00     0.010 C 
ENDBRANCH  35  36
BRANCH  35  39
ATOM     39  C   UNL     1     -14.227 -12.291   6.453  1.00  0.00     0.329 C 
ATOM     40  O   UNL     1     -14.679 -11.724   7.441  1.00  0.00    -0.250 OA
BRANCH  39  41
ATOM     41  O   UNL     1     -13.217 -11.779   5.686  1.00  0.00    -0.458 OA
BRANCH  41  42
ATOM     42  C   UNL     1     -12.894 -10.384   5.900  1.00  0.00     0.205 CG0
ATOM     43  C   UNL     1     -12.843 -10.155   7.409  1.00  0.00     0.056 C 
ATOM     44  G   UNL     1     -13.968  -9.519   5.209  1.00  0.00     0.000 G0
ENDBRANCH  41  42
ENDBRANCH  39  41
ENDBRANCH  35  39
ENDBRANCH  33  35
ENDBRANCH  23  31
ENDBRANCH  21  23
ENDBRANCH  19  21
ENDBRANCH  14  19
ENDBRANCH   7  14
ENDBRANCH   2   5
BRANCH   3  45
ATOM     45  C   UNL     1     -12.404 -10.214   1.738  1.00  0.00     0.171 C 
BRANCH  45  46
ATOM     46  N   UNL     1     -13.026 -10.315   3.052  1.00  0.00    -0.342 N 
ATOM     47  C   UNL     1     -13.450  -9.213   3.752  1.00  0.00     0.247 C 
ATOM     48  O   UNL     1     -13.404  -8.071   3.293  1.00  0.00    -0.273 OA
ATOM     49  H   UNL     1     -13.135 -11.248   3.446  1.00  0.00     0.164 HD
BRANCH  47  50
ATOM     50  C   UNL     1     -13.964  -9.502   5.169  1.00  0.00     0.212 CG0
ATOM     51  G   UNL     1     -12.905 -10.365   5.884  1.00  0.00     0.000 G0
BRANCH  50  52
ATOM     52  N   UNL     1     -14.156  -8.193   5.788  1.00  0.00    -0.339 N 
ATOM     53  C   UNL     1     -15.351  -7.515   5.767  1.00  0.00     0.243 C 
ATOM     54  O   UNL     1     -16.341  -7.937   5.175  1.00  0.00    -0.273 OA
ATOM     55  H   UNL     1     -13.342  -7.740   6.199  1.00  0.00     0.164 HD
BRANCH  53  56
ATOM     56  C   UNL     1     -15.289  -6.115   6.410  1.00  0.00     0.182 C 
BRANCH  56  57
ATOM     57  N   UNL     1     -15.842  -5.098   5.510  1.00  0.00    -0.344 N 
ATOM     58  C   UNL     1     -16.054  -3.800   5.907  1.00  0.00     0.220 C 
ATOM     59  O   UNL     1     -15.865  -3.419   7.058  1.00  0.00    -0.275 OA
ATOM     60  H   UNL     1     -15.916  -5.344   4.526  1.00  0.00     0.164 HD
BRANCH  58  61
ATOM     61  C   UNL     1     -16.577  -2.908   4.796  1.00  0.00     0.100 C 
BRANCH  61  62
ATOM     62  C   UNL     1     -16.732  -3.623   3.454  1.00  0.00     0.010 C 
BRANCH  62  63
ATOM     63  C   UNL     1     -17.479  -2.807   2.391  1.00  0.00     0.000 C 
BRANCH  63  64
ATOM     64  C   UNL     1     -18.662  -3.538   1.757  1.00  0.00    -0.003 C 
ATOM     65  C   UNL     1     -18.195  -4.574   0.744  1.00  0.00     0.004 C 
ENDBRANCH  63  64
ENDBRANCH  62  63
ENDBRANCH  61  62
ENDBRANCH  58  61
ENDBRANCH  56  57
BRANCH  56  66
ATOM     66  C   UNL     1     -13.873  -5.771   6.868  1.00  0.00     0.157 C 
BRANCH  66  67
ATOM     67  C   UNL     1     -13.715  -5.977   8.347  1.00  0.00     0.305 C 
ATOM     68  O   UNL     1     -12.984  -6.785   8.900  1.00  0.00    -0.252 OA
BRANCH  67  69
ATOM     69  O   UNL     1     -14.453  -5.111   9.066  1.00  0.00    -0.481 OA
ATOM     70  H   UNL     1     -13.957  -4.995   9.904  1.00  0.00     0.296 HD
ENDBRANCH  67  69
ENDBRANCH  66  67
ENDBRANCH  56  66
ENDBRANCH  53  56
ENDBRANCH  50  52
ENDBRANCH  47  50
ENDBRANCH  45  46
BRANCH  45  71
ATOM     71  C   UNL     1     -13.355 -10.672   0.627  1.00  0.00     0.037 C 
BRANCH  71  72
ATOM     72  C   UNL     1     -14.523 -11.498   1.172  1.00  0.00     0.026 C 
BRANCH  72  73
ATOM     73  C   UNL     1     -15.837 -10.723   1.104  1.00  0.00     0.146 C 
BRANCH  73  74
ATOM     74  N   UNL     1     -15.593  -9.495   0.353  1.00  0.00    -0.254 NA
ATOM     75  C   UNL     1     -15.812  -8.378   0.944  1.00  0.00     0.185 C 
ATOM     76  N   UNL     1     -15.596  -7.231   0.280  1.00  0.00    -0.370 N 
ATOM     77  N   UNL     1     -16.249  -8.156   2.195  1.00  0.00    -0.370 N 
ATOM     78  H   UNL     1     -15.272  -7.309  -0.674  1.00  0.00     0.159 HD
ATOM     79  H   UNL     1     -15.880  -6.331   0.623  1.00  0.00     0.159 HD
ATOM     80  H   UNL     1     -16.450  -8.927   2.814  1.00  0.00     0.159 HD
ATOM     81  H   UNL     1     -16.273  -7.230   2.590  1.00  0.00     0.159 HD
ENDBRANCH  73  74
ENDBRANCH  72  73
ENDBRANCH  71  72
ENDBRANCH  45  71
ENDBRANCH   3  45
TORSDOF 20
ENDMDL
MODEL 22
REMARK VINA RESULT:    -5.153      2.859      4.361
REMARK INTER + INTRA:         -21.543
REMARK INTER:                 -19.404
REMARK INTRA:                  -2.139
REMARK UNBOUND:                -6.750
REMARK SMILES CCCCCC(=O)N[C@H](CC(=O)O)C(=O)N[C@H]1C(=O)N[C@H](CCCN=C(N)N)C(=O)N[C@@H]2CC[C@H](O)N(C2=O)[C@@H](CC(C)C)C(=O)N(C)[C@@H](Cc2ccccc2)C(=O)N[C@H](C(C)C)C(=O)O[C@@H]1C
REMARK SMILES IDX 30 1 31 2 29 3 32 5 35 6 37 7 34 8 38 9 33 10 39 11 36 12
REMARK SMILES IDX 40 14 41 15 42 16 43 17 44 18 45 19 46 20 47 21 48 22 49 23
REMARK SMILES IDX 50 24 51 25 52 26 56 27 53 28 55 29 54 30 57 31 58 32 59 33
REMARK SMILES IDX 60 35 61 36 62 37 63 38 64 39 65 40 66 41 67 42 68 43 21 45
REMARK SMILES IDX 20 46 18 47 19 48 17 50 16 52 14 53 15 54 9 56 8 57 6 58
REMARK SMILES IDX 7 59 5 61 4 62 3 63 2 64 1 65 10 66 11 67 12 68 13 69 22 71
REMARK SMILES IDX 23 72 24 73 25 74 26 75 27 76 28 77
REMARK H PARENT 31 4 36 13 59 34 20 49 16 55 8 60 13 70 27 78 27 79 28 80
REMARK H PARENT 28 81
REMARK Flexibility Score:  259.900
ROOT
ATOM      1  O   UNL     1     -13.603 -14.476   1.855  1.00  0.00    -0.273 OA
ATOM      2  N   UNL     1     -14.363 -12.418   2.502  1.00  0.00    -0.343 N 
ATOM      3  C   UNL     1     -13.867 -13.307   1.573  1.00  0.00     0.243 C 
ATOM      4  H   UNL     1     -14.583 -11.468   2.230  1.00  0.00     0.164 HD
ENDROOT
BRANCH   2   5
ATOM      5  C   UNL     1     -14.484 -12.801   3.905  1.00  0.00     0.171 C 
ATOM      6  C   UNL     1     -15.364 -11.365   6.264  1.00  0.00     0.214 C 
ATOM      7  N   UNL     1     -13.965 -11.353   5.906  1.00  0.00    -0.303 N 
ATOM      8  C   UNL     1     -16.083 -12.635   5.838  1.00  0.00     0.057 C 
ATOM      9  C   UNL     1     -13.485 -11.975   4.765  1.00  0.00     0.247 C 
ATOM     10  C   UNL     1     -15.947 -12.824   4.343  1.00  0.00     0.040 C 
ATOM     11  O   UNL     1     -12.300 -11.887   4.419  1.00  0.00    -0.272 OA
BRANCH   6  12
ATOM     12  O   UNL     1     -15.969 -10.236   5.677  1.00  0.00    -0.373 OA
ATOM     13  H   UNL     1     -16.639 -10.567   5.042  1.00  0.00     0.213 HD
ENDBRANCH   6  12
BRANCH   7  14
ATOM     14  C   UNL     1     -13.068 -10.518   6.733  1.00  0.00     0.177 C 
BRANCH  14  15
ATOM     15  C   UNL     1     -13.741  -9.822   7.932  1.00  0.00     0.038 C 
BRANCH  15  16
ATOM     16  C   UNL     1     -13.584  -8.296   8.113  1.00  0.00    -0.015 C 
ATOM     17  C   UNL     1     -13.962  -7.832   9.523  1.00  0.00     0.007 C 
ATOM     18  C   UNL     1     -14.479  -7.559   7.109  1.00  0.00     0.007 C 
ENDBRANCH  15  16
ENDBRANCH  14  15
BRANCH  14  19
ATOM     19  C   UNL     1     -11.616 -11.106   6.725  1.00  0.00     0.245 C 
ATOM     20  O   UNL     1     -10.725 -10.389   6.239  1.00  0.00    -0.272 OA
BRANCH  19  21
ATOM     21  N   UNL     1     -11.304 -12.396   7.116  1.00  0.00    -0.332 N 
ATOM     22  C   UNL     1     -12.212 -13.321   7.771  1.00  0.00     0.147 C 
BRANCH  21  23
ATOM     23  C   UNL     1      -9.920 -12.885   6.862  1.00  0.00     0.178 C 
BRANCH  23  24
ATOM     24  C   UNL     1      -9.303 -13.704   8.014  1.00  0.00     0.070 C 
BRANCH  24  25
ATOM     25  C   UNL     1      -8.333 -12.987   8.925  1.00  0.00    -0.045 A 
ATOM     26  C   UNL     1      -8.369 -11.593   9.057  1.00  0.00     0.004 A 
ATOM     27  C   UNL     1      -7.376 -13.712   9.650  1.00  0.00     0.004 A 
ATOM     28  C   UNL     1      -7.458 -10.936   9.887  1.00  0.00     0.000 A 
ATOM     29  C   UNL     1      -6.467 -13.054  10.480  1.00  0.00     0.000 A 
ATOM     30  C   UNL     1      -6.507 -11.666  10.596  1.00  0.00     0.000 A 
ENDBRANCH  24  25
ENDBRANCH  23  24
BRANCH  23  31
ATOM     31  C   UNL     1      -9.750 -13.509   5.456  1.00  0.00     0.243 C 
ATOM     32  O   UNL     1      -8.913 -13.138   4.637  1.00  0.00    -0.273 OA
ATOM     33  N   UNL     1     -10.751 -14.406   5.123  1.00  0.00    -0.341 N 
ATOM     34  H   UNL     1     -11.424 -14.672   5.846  1.00  0.00     0.164 HD
BRANCH  33  35
ATOM     35  C   UNL     1     -10.859 -15.028   3.801  1.00  0.00     0.194 C 
BRANCH  35  36
ATOM     36  C   UNL     1     -10.942 -16.580   3.834  1.00  0.00     0.017 C 
ATOM     37  C   UNL     1     -11.158 -17.159   2.425  1.00  0.00     0.010 C 
ATOM     38  C   UNL     1     -12.075 -17.105   4.724  1.00  0.00     0.010 C 
ENDBRANCH  35  36
BRANCH  35  39
ATOM     39  C   UNL     1      -9.768 -14.526   2.813  1.00  0.00     0.329 C 
ATOM     40  O   UNL     1      -8.580 -14.813   2.900  1.00  0.00    -0.250 OA
BRANCH  39  41
ATOM     41  O   UNL     1     -10.295 -13.797   1.783  1.00  0.00    -0.458 OA
BRANCH  41  42
ATOM     42  C   UNL     1      -9.392 -12.881   1.118  1.00  0.00     0.205 CG0
ATOM     43  C   UNL     1      -9.379 -11.587   1.929  1.00  0.00     0.056 C 
ATOM     44  G   UNL     1      -9.885 -12.667  -0.327  1.00  0.00     0.000 G0
ENDBRANCH  41  42
ENDBRANCH  39  41
ENDBRANCH  35  39
ENDBRANCH  33  35
ENDBRANCH  23  31
ENDBRANCH  21  23
ENDBRANCH  19  21
ENDBRANCH  14  19
ENDBRANCH   7  14
ENDBRANCH   2   5
BRANCH   3  45
ATOM     45  C   UNL     1     -13.688 -12.744   0.156  1.00  0.00     0.171 C 
BRANCH  45  46
ATOM     46  N   UNL     1     -12.288 -12.351   0.063  1.00  0.00    -0.342 N 
ATOM     47  C   UNL     1     -11.322 -13.182  -0.447  1.00  0.00     0.247 C 
ATOM     48  O   UNL     1     -11.577 -14.286  -0.929  1.00  0.00    -0.273 OA
ATOM     49  H   UNL     1     -12.042 -11.422   0.399  1.00  0.00     0.164 HD
BRANCH  47  50
ATOM     50  C   UNL     1      -9.887 -12.646  -0.351  1.00  0.00     0.212 CG0
ATOM     51  G   UNL     1      -9.395 -12.884   1.091  1.00  0.00     0.000 G0
BRANCH  50  52
ATOM     52  N   UNL     1      -9.125 -13.390  -1.350  1.00  0.00    -0.339 N 
ATOM     53  C   UNL     1      -8.834 -12.899  -2.599  1.00  0.00     0.243 C 
ATOM     54  O   UNL     1      -9.241 -11.809  -2.993  1.00  0.00    -0.273 OA
ATOM     55  H   UNL     1      -8.855 -14.345  -1.123  1.00  0.00     0.164 HD
BRANCH  53  56
ATOM     56  C   UNL     1      -8.094 -13.899  -3.511  1.00  0.00     0.182 C 
BRANCH  56  57
ATOM     57  N   UNL     1      -7.763 -13.288  -4.802  1.00  0.00    -0.344 N 
ATOM     58  C   UNL     1      -6.471 -13.177  -5.254  1.00  0.00     0.220 C 
ATOM     59  O   UNL     1      -5.502 -13.511  -4.581  1.00  0.00    -0.275 OA
ATOM     60  H   UNL     1      -8.538 -13.092  -5.431  1.00  0.00     0.164 HD
BRANCH  58  61
ATOM     61  C   UNL     1      -6.369 -12.567  -6.640  1.00  0.00     0.100 C 
BRANCH  61  62
ATOM     62  C   UNL     1      -7.683 -12.585  -7.420  1.00  0.00     0.010 C 
BRANCH  62  63
ATOM     63  C   UNL     1      -8.357 -11.213  -7.546  1.00  0.00     0.000 C 
BRANCH  63  64
ATOM     64  C   UNL     1      -9.884 -11.259  -7.526  1.00  0.00    -0.003 C 
ATOM     65  C   UNL     1     -10.461 -11.158  -8.931  1.00  0.00     0.004 C 
ENDBRANCH  63  64
ENDBRANCH  62  63
ENDBRANCH  61  62
ENDBRANCH  58  61
ENDBRANCH  56  57
BRANCH  56  66
ATOM     66  C   UNL     1      -8.881 -15.198  -3.672  1.00  0.00     0.157 C 
BRANCH  66  67
ATOM     67  C   UNL     1      -8.095 -16.218  -4.445  1.00  0.00     0.305 C 
ATOM     68  O   UNL     1      -7.958 -16.272  -5.657  1.00  0.00    -0.252 OA
BRANCH  67  69
ATOM     69  O   UNL     1      -7.470 -17.098  -3.641  1.00  0.00    -0.481 OA
ATOM     70  H   UNL     1      -7.163 -16.566  -2.876  1.00  0.00     0.296 HD
ENDBRANCH  67  69
ENDBRANCH  66  67
ENDBRANCH  56  66
ENDBRANCH  53  56
ENDBRANCH  50  52
ENDBRANCH  47  50
ENDBRANCH  45  46
BRANCH  45  71
ATOM     71  C   UNL     1     -14.626 -11.553  -0.068  1.00  0.00     0.037 C 
BRANCH  71  72
ATOM     72  C   UNL     1     -13.863 -10.286  -0.465  1.00  0.00     0.026 C 
BRANCH  72  73
ATOM     73  C   UNL     1     -14.289  -9.088   0.380  1.00  0.00     0.146 C 
BRANCH  73  74
ATOM     74  N   UNL     1     -13.783  -9.293   1.734  1.00  0.00    -0.254 NA
ATOM     75  C   UNL     1     -12.515  -9.245   1.913  1.00  0.00     0.185 C 
ATOM     76  N   UNL     1     -12.019  -9.429   3.147  1.00  0.00    -0.370 N 
ATOM     77  N   UNL     1     -11.542  -9.028   1.011  1.00  0.00    -0.370 N 
ATOM     78  H   UNL     1     -12.685  -9.607   3.886  1.00  0.00     0.159 HD
ATOM     79  H   UNL     1     -11.040  -9.550   3.338  1.00  0.00     0.159 HD
ATOM     80  H   UNL     1     -11.767  -8.869   0.040  1.00  0.00     0.159 HD
ATOM     81  H   UNL     1     -10.583  -8.898   1.289  1.00  0.00     0.159 HD
ENDBRANCH  73  74
ENDBRANCH  72  73
ENDBRANCH  71  72
ENDBRANCH  45  71
ENDBRANCH   3  45
TORSDOF 20
ENDMDL
MODEL 23
REMARK VINA RESULT:    -5.039      2.880      4.224
REMARK INTER + INTRA:         -21.216
REMARK INTER:                 -19.296
REMARK INTRA:                  -1.920
REMARK UNBOUND:                -6.750
REMARK SMILES CCCCCC(=O)N[C@H](CC(=O)O)C(=O)N[C@H]1C(=O)N[C@H](CCCN=C(N)N)C(=O)N[C@@H]2CC[C@H](O)N(C2=O)[C@@H](CC(C)C)C(=O)N(C)[C@@H](Cc2ccccc2)C(=O)N[C@H](C(C)C)C(=O)O[C@@H]1C
REMARK SMILES IDX 30 1 31 2 29 3 32 5 35 6 37 7 34 8 38 9 33 10 39 11 36 12
REMARK SMILES IDX 40 14 41 15 42 16 43 17 44 18 45 19 46 20 47 21 48 22 49 23
REMARK SMILES IDX 50 24 51 25 52 26 56 27 53 28 55 29 54 30 57 31 58 32 59 33
REMARK SMILES IDX 60 35 61 36 62 37 63 38 64 39 65 40 66 41 67 42 68 43 21 45
REMARK SMILES IDX 20 46 18 47 19 48 17 50 16 52 14 53 15 54 9 56 8 57 6 58
REMARK SMILES IDX 7 59 5 61 4 62 3 63 2 64 1 65 10 66 11 67 12 68 13 69 22 71
REMARK SMILES IDX 23 72 24 73 25 74 26 75 27 76 28 77
REMARK H PARENT 31 4 36 13 59 34 20 49 16 55 8 60 13 70 27 78 27 79 28 80
REMARK H PARENT 28 81
REMARK Flexibility Score:  259.900
ROOT
ATOM      1  O   UNL     1     -13.527 -13.046   1.224  1.00  0.00    -0.273 OA
ATOM      2  N   UNL     1     -13.752 -11.103   2.409  1.00  0.00    -0.343 N 
ATOM      3  C   UNL     1     -13.585 -11.816   1.242  1.00  0.00     0.243 C 
ATOM      4  H   UNL     1     -13.810 -10.093   2.384  1.00  0.00     0.164 HD
ENDROOT
BRANCH   2   5
ATOM      5  C   UNL     1     -13.747 -11.782   3.701  1.00  0.00     0.171 C 
ATOM      6  C   UNL     1     -15.053 -11.209   6.225  1.00  0.00     0.214 C 
ATOM      7  N   UNL     1     -13.731 -10.683   5.973  1.00  0.00    -0.303 N 
ATOM      8  C   UNL     1     -15.322 -12.526   5.515  1.00  0.00     0.057 C 
ATOM      9  C   UNL     1     -13.072 -10.876   4.770  1.00  0.00     0.247 C 
ATOM     10  C   UNL     1     -15.127 -12.354   4.024  1.00  0.00     0.040 C 
ATOM     11  O   UNL     1     -11.977 -10.350   4.530  1.00  0.00    -0.272 OA
BRANCH   6  12
ATOM     12  O   UNL     1     -15.987 -10.234   5.824  1.00  0.00    -0.373 OA
ATOM     13  H   UNL     1     -16.556 -10.044   6.601  1.00  0.00     0.213 HD
ENDBRANCH   6  12
BRANCH   7  14
ATOM     14  C   UNL     1     -13.156  -9.794   7.005  1.00  0.00     0.177 C 
BRANCH  14  15
ATOM     15  C   UNL     1     -14.178  -9.151   7.962  1.00  0.00     0.038 C 
BRANCH  15  16
ATOM     16  C   UNL     1     -14.453  -7.634   7.874  1.00  0.00    -0.015 C 
ATOM     17  C   UNL     1     -14.474  -7.126   6.429  1.00  0.00     0.007 C 
ATOM     18  C   UNL     1     -13.367  -6.865   8.637  1.00  0.00     0.007 C 
ENDBRANCH  15  16
ENDBRANCH  14  15
BRANCH  14  19
ATOM     19  C   UNL     1     -11.722 -10.285   7.406  1.00  0.00     0.245 C 
ATOM     20  O   UNL     1     -10.870  -9.406   7.621  1.00  0.00    -0.272 OA
BRANCH  19  21
ATOM     21  N   UNL     1     -11.337 -11.614   7.422  1.00  0.00    -0.332 N 
ATOM     22  C   UNL     1     -12.143 -12.718   7.911  1.00  0.00     0.147 C 
BRANCH  21  23
ATOM     23  C   UNL     1      -9.982 -11.952   6.906  1.00  0.00     0.178 C 
BRANCH  23  24
ATOM     24  C   UNL     1      -9.244 -13.049   7.701  1.00  0.00     0.070 C 
BRANCH  24  25
ATOM     25  C   UNL     1      -8.377 -12.598   8.853  1.00  0.00    -0.045 A 
ATOM     26  C   UNL     1      -8.183 -11.236   9.115  1.00  0.00     0.004 A 
ATOM     27  C   UNL     1      -7.746 -13.543   9.676  1.00  0.00     0.004 A 
ATOM     28  C   UNL     1      -7.366 -10.827  10.171  1.00  0.00     0.000 A 
ATOM     29  C   UNL     1      -6.931 -13.133  10.732  1.00  0.00     0.000 A 
ATOM     30  C   UNL     1      -6.739 -11.775  10.977  1.00  0.00     0.000 A 
ENDBRANCH  24  25
ENDBRANCH  23  24
BRANCH  23  31
ATOM     31  C   UNL     1      -9.948 -12.127   5.369  1.00  0.00     0.243 C 
ATOM     32  O   UNL     1      -9.562 -11.261   4.587  1.00  0.00    -0.273 OA
ATOM     33  N   UNL     1     -10.567 -13.285   4.930  1.00  0.00    -0.341 N 
ATOM     34  H   UNL     1     -10.873 -13.967   5.628  1.00  0.00     0.164 HD
BRANCH  33  35
ATOM     35  C   UNL     1     -10.758 -13.600   3.511  1.00  0.00     0.194 C 
BRANCH  35  36
ATOM     36  C   UNL     1     -11.077 -15.096   3.230  1.00  0.00     0.017 C 
ATOM     37  C   UNL     1     -10.864 -15.444   1.747  1.00  0.00     0.010 C 
ATOM     38  C   UNL     1     -12.516 -15.484   3.591  1.00  0.00     0.010 C 
ENDBRANCH  35  36
BRANCH  35  39
ATOM     39  C   UNL     1      -9.595 -13.078   2.621  1.00  0.00     0.329 C 
ATOM     40  O   UNL     1      -8.416 -13.361   2.797  1.00  0.00    -0.250 OA
BRANCH  39  41
ATOM     41  O   UNL     1     -10.043 -12.336   1.564  1.00  0.00    -0.458 OA
BRANCH  41  42
ATOM     42  C   UNL     1      -9.041 -11.908   0.610  1.00  0.00     0.205 CG0
ATOM     43  C   UNL     1      -8.322 -10.705   1.217  1.00  0.00     0.056 C 
ATOM     44  G   UNL     1      -9.741 -11.567  -0.720  1.00  0.00     0.000 G0
ENDBRANCH  41  42
ENDBRANCH  39  41
ENDBRANCH  35  39
ENDBRANCH  33  35
ENDBRANCH  23  31
ENDBRANCH  21  23
ENDBRANCH  19  21
ENDBRANCH  14  19
ENDBRANCH   7  14
ENDBRANCH   2   5
BRANCH   3  45
ATOM     45  C   UNL     1     -13.497 -10.972  -0.037  1.00  0.00     0.171 C 
BRANCH  45  46
ATOM     46  N   UNL     1     -12.075 -10.815  -0.309  1.00  0.00    -0.342 N 
ATOM     47  C   UNL     1     -11.261 -11.878  -0.612  1.00  0.00     0.247 C 
ATOM     48  O   UNL     1     -11.685 -13.026  -0.749  1.00  0.00    -0.273 OA
ATOM     49  H   UNL     1     -11.693  -9.872  -0.262  1.00  0.00     0.164 HD
BRANCH  47  50
ATOM     50  C   UNL     1      -9.770 -11.537  -0.744  1.00  0.00     0.212 CG0
ATOM     51  G   UNL     1      -9.081 -11.935   0.576  1.00  0.00     0.000 G0
BRANCH  50  52
ATOM     52  N   UNL     1      -9.296 -12.302  -1.895  1.00  0.00    -0.339 N 
ATOM     53  C   UNL     1      -8.818 -11.720  -3.044  1.00  0.00     0.243 C 
ATOM     54  O   UNL     1      -8.801 -10.503  -3.212  1.00  0.00    -0.273 OA
ATOM     55  H   UNL     1      -9.389 -13.315  -1.860  1.00  0.00     0.164 HD
BRANCH  53  56
ATOM     56  C   UNL     1      -8.458 -12.727  -4.155  1.00  0.00     0.182 C 
BRANCH  56  57
ATOM     57  N   UNL     1      -9.665 -13.273  -4.782  1.00  0.00    -0.344 N 
ATOM     58  C   UNL     1     -10.210 -12.734  -5.922  1.00  0.00     0.220 C 
ATOM     59  O   UNL     1      -9.771 -11.719  -6.451  1.00  0.00    -0.275 OA
ATOM     60  H   UNL     1      -9.999 -14.169  -4.436  1.00  0.00     0.164 HD
BRANCH  58  61
ATOM     61  C   UNL     1     -11.422 -13.495  -6.427  1.00  0.00     0.100 C 
BRANCH  61  62
ATOM     62  C   UNL     1     -12.303 -12.689  -7.382  1.00  0.00     0.010 C 
BRANCH  62  63
ATOM     63  C   UNL     1     -13.738 -13.216  -7.509  1.00  0.00     0.000 C 
BRANCH  63  64
ATOM     64  C   UNL     1     -14.769 -12.146  -7.863  1.00  0.00    -0.003 C 
ATOM     65  C   UNL     1     -14.103 -10.890  -8.406  1.00  0.00     0.004 C 
ENDBRANCH  63  64
ENDBRANCH  62  63
ENDBRANCH  61  62
ENDBRANCH  58  61
ENDBRANCH  56  57
BRANCH  56  66
ATOM     66  C   UNL     1      -7.531 -13.825  -3.636  1.00  0.00     0.157 C 
BRANCH  66  67
ATOM     67  C   UNL     1      -8.150 -15.183  -3.800  1.00  0.00     0.305 C 
ATOM     68  O   UNL     1      -7.823 -16.046  -4.600  1.00  0.00    -0.252 OA
BRANCH  67  69
ATOM     69  O   UNL     1      -9.130 -15.410  -2.904  1.00  0.00    -0.481 OA
ATOM     70  H   UNL     1      -8.881 -16.253  -2.470  1.00  0.00     0.296 HD
ENDBRANCH  67  69
ENDBRANCH  66  67
ENDBRANCH  56  66
ENDBRANCH  53  56
ENDBRANCH  50  52
ENDBRANCH  47  50
ENDBRANCH  45  46
BRANCH  45  71
ATOM     71  C   UNL     1     -14.187  -9.619   0.169  1.00  0.00     0.037 C 
BRANCH  71  72
ATOM     72  C   UNL     1     -15.640  -9.776   0.623  1.00  0.00     0.026 C 
BRANCH  72  73
ATOM     73  C   UNL     1     -16.340 -10.912  -0.120  1.00  0.00     0.146 C 
BRANCH  73  74
ATOM     74  N   UNL     1     -17.071 -11.707   0.863  1.00  0.00    -0.254 NA
ATOM     75  C   UNL     1     -16.986 -12.983   0.784  1.00  0.00     0.185 C 
ATOM     76  N   UNL     1     -17.646 -13.741   1.675  1.00  0.00    -0.370 N 
ATOM     77  N   UNL     1     -16.302 -13.732  -0.099  1.00  0.00    -0.370 N 
ATOM     78  H   UNL     1     -18.193 -13.256   2.371  1.00  0.00     0.159 HD
ATOM     79  H   UNL     1     -17.744 -14.737   1.589  1.00  0.00     0.159 HD
ATOM     80  H   UNL     1     -15.754 -13.296  -0.826  1.00  0.00     0.159 HD
ATOM     81  H   UNL     1     -16.216 -14.729   0.008  1.00  0.00     0.159 HD
ENDBRANCH  73  74
ENDBRANCH  72  73
ENDBRANCH  71  72
ENDBRANCH  45  71
ENDBRANCH   3  45
TORSDOF 20
ENDMDL
MODEL 24
REMARK VINA RESULT:    -4.888      3.305      9.140
REMARK INTER + INTRA:         -20.783
REMARK INTER:                 -15.719
REMARK INTRA:                  -5.064
REMARK UNBOUND:                -6.750
REMARK SMILES CCCCCC(=O)N[C@H](CC(=O)O)C(=O)N[C@H]1C(=O)N[C@H](CCCN=C(N)N)C(=O)N[C@@H]2CC[C@H](O)N(C2=O)[C@@H](CC(C)C)C(=O)N(C)[C@@H](Cc2ccccc2)C(=O)N[C@H](C(C)C)C(=O)O[C@@H]1C
REMARK SMILES IDX 30 1 31 2 29 3 32 5 35 6 37 7 34 8 38 9 33 10 39 11 36 12
REMARK SMILES IDX 40 14 41 15 42 16 43 17 44 18 45 19 46 20 47 21 48 22 49 23
REMARK SMILES IDX 50 24 51 25 52 26 56 27 53 28 55 29 54 30 57 31 58 32 59 33
REMARK SMILES IDX 60 35 61 36 62 37 63 38 64 39 65 40 66 41 67 42 68 43 21 45
REMARK SMILES IDX 20 46 18 47 19 48 17 50 16 52 14 53 15 54 9 56 8 57 6 58
REMARK SMILES IDX 7 59 5 61 4 62 3 63 2 64 1 65 10 66 11 67 12 68 13 69 22 71
REMARK SMILES IDX 23 72 24 73 25 74 26 75 27 76 28 77
REMARK H PARENT 31 4 36 13 59 34 20 49 16 55 8 60 13 70 27 78 27 79 28 80
REMARK H PARENT 28 81
REMARK Flexibility Score:  259.900
ROOT
ATOM      1  O   UNL     1     -12.662 -13.121   1.003  1.00  0.00    -0.273 OA
ATOM      2  N   UNL     1     -12.789 -15.100   2.143  1.00  0.00    -0.343 N 
ATOM      3  C   UNL     1     -12.165 -14.209   1.296  1.00  0.00     0.243 C 
ATOM      4  H   UNL     1     -12.343 -15.979   2.373  1.00  0.00     0.164 HD
ENDROOT
BRANCH   2   5
ATOM      5  C   UNL     1     -14.136 -14.836   2.637  1.00  0.00     0.171 C 
ATOM      6  C   UNL     1     -16.047 -12.723   2.098  1.00  0.00     0.214 C 
ATOM      7  N   UNL     1     -15.115 -12.576   3.192  1.00  0.00    -0.303 N 
ATOM      8  C   UNL     1     -16.417 -14.170   1.814  1.00  0.00     0.057 C 
ATOM      9  C   UNL     1     -14.143 -13.523   3.472  1.00  0.00     0.247 C 
ATOM     10  C   UNL     1     -15.167 -14.970   1.518  1.00  0.00     0.040 C 
ATOM     11  O   UNL     1     -13.293 -13.349   4.355  1.00  0.00    -0.272 OA
BRANCH   6  12
ATOM     12  O   UNL     1     -15.470 -12.129   0.958  1.00  0.00    -0.373 OA
ATOM     13  H   UNL     1     -15.012 -12.842   0.464  1.00  0.00     0.213 HD
ENDBRANCH   6  12
BRANCH   7  14
ATOM     14  C   UNL     1     -15.137 -11.292   3.923  1.00  0.00     0.177 C 
BRANCH  14  15
ATOM     15  C   UNL     1     -15.611 -10.077   3.102  1.00  0.00     0.038 C 
BRANCH  15  16
ATOM     16  C   UNL     1     -14.607  -8.958   2.749  1.00  0.00    -0.015 C 
ATOM     17  C   UNL     1     -15.230  -7.562   2.841  1.00  0.00     0.007 C 
ATOM     18  C   UNL     1     -14.088  -9.159   1.319  1.00  0.00     0.007 C 
ENDBRANCH  15  16
ENDBRANCH  14  15
BRANCH  14  19
ATOM     19  C   UNL     1     -15.444 -11.536   5.441  1.00  0.00     0.245 C 
ATOM     20  O   UNL     1     -16.642 -11.590   5.768  1.00  0.00    -0.272 OA
BRANCH  19  21
ATOM     21  N   UNL     1     -14.474 -11.580   6.427  1.00  0.00    -0.332 N 
ATOM     22  C   UNL     1     -14.209 -12.711   7.299  1.00  0.00     0.147 C 
BRANCH  21  23
ATOM     23  C   UNL     1     -13.632 -10.369   6.628  1.00  0.00     0.178 C 
BRANCH  23  24
ATOM     24  C   UNL     1     -14.027  -9.502   7.841  1.00  0.00     0.070 C 
BRANCH  24  25
ATOM     25  C   UNL     1     -14.173  -8.017   7.607  1.00  0.00    -0.045 A 
ATOM     26  C   UNL     1     -14.991  -7.529   6.580  1.00  0.00     0.004 A 
ATOM     27  C   UNL     1     -13.483  -7.102   8.416  1.00  0.00     0.004 A 
ATOM     28  C   UNL     1     -15.107  -6.155   6.359  1.00  0.00     0.000 A 
ATOM     29  C   UNL     1     -13.601  -5.728   8.195  1.00  0.00     0.000 A 
ATOM     30  C   UNL     1     -14.411  -5.256   7.165  1.00  0.00     0.000 A 
ENDBRANCH  24  25
ENDBRANCH  23  24
BRANCH  23  31
ATOM     31  C   UNL     1     -12.117 -10.660   6.501  1.00  0.00     0.243 C 
ATOM     32  O   UNL     1     -11.263 -10.194   7.251  1.00  0.00    -0.273 OA
ATOM     33  N   UNL     1     -11.781 -11.347   5.347  1.00  0.00    -0.341 N 
ATOM     34  H   UNL     1     -12.537 -11.706   4.758  1.00  0.00     0.164 HD
BRANCH  33  35
ATOM     35  C   UNL     1     -10.396 -11.628   4.960  1.00  0.00     0.194 C 
BRANCH  35  36
ATOM     36  C   UNL     1     -10.080 -11.325   3.468  1.00  0.00     0.017 C 
ATOM     37  C   UNL     1      -8.744 -10.577   3.320  1.00  0.00     0.010 C 
ATOM     38  C   UNL     1     -11.159 -10.477   2.782  1.00  0.00     0.010 C 
ENDBRANCH  35  36
BRANCH  35  39
ATOM     39  C   UNL     1      -9.937 -13.055   5.371  1.00  0.00     0.329 C 
ATOM     40  O   UNL     1      -9.781 -13.418   6.531  1.00  0.00    -0.250 OA
BRANCH  39  41
ATOM     41  O   UNL     1      -9.810 -13.890   4.296  1.00  0.00    -0.458 OA
BRANCH  41  42
ATOM     42  C   UNL     1      -8.544 -14.580   4.166  1.00  0.00     0.205 CG0
ATOM     43  C   UNL     1      -7.695 -13.788   3.173  1.00  0.00     0.056 C 
ATOM     44  G   UNL     1      -8.815 -16.021   3.692  1.00  0.00     0.000 G0
ENDBRANCH  41  42
ENDBRANCH  39  41
ENDBRANCH  35  39
ENDBRANCH  33  35
ENDBRANCH  23  31
ENDBRANCH  21  23
ENDBRANCH  19  21
ENDBRANCH  14  19
ENDBRANCH   7  14
ENDBRANCH   2   5
BRANCH   3  45
ATOM     45  C   UNL     1     -10.798 -14.657   0.762  1.00  0.00     0.171 C 
BRANCH  45  46
ATOM     46  N   UNL     1      -9.953 -14.829   1.936  1.00  0.00    -0.342 N 
ATOM     47  C   UNL     1      -9.556 -16.064   2.383  1.00  0.00     0.247 C 
ATOM     48  O   UNL     1      -9.821 -17.108   1.786  1.00  0.00    -0.273 OA
ATOM     49  H   UNL     1      -9.664 -13.986   2.429  1.00  0.00     0.164 HD
BRANCH  47  50
ATOM     50  C   UNL     1      -8.774 -16.057   3.704  1.00  0.00     0.212 CG0
ATOM     51  G   UNL     1      -8.571 -14.586   4.119  1.00  0.00     0.000 G0
BRANCH  50  52
ATOM     52  N   UNL     1      -9.594 -16.814   4.646  1.00  0.00    -0.339 N 
ATOM     53  C   UNL     1      -9.173 -17.973   5.252  1.00  0.00     0.243 C 
ATOM     54  O   UNL     1      -8.088 -18.493   5.006  1.00  0.00    -0.273 OA
ATOM     55  H   UNL     1     -10.547 -16.495   4.807  1.00  0.00     0.164 HD
BRANCH  53  56
ATOM     56  C   UNL     1     -10.243 -18.641   6.139  1.00  0.00     0.182 C 
BRANCH  56  57
ATOM     57  N   UNL     1     -11.591 -18.389   5.619  1.00  0.00    -0.344 N 
ATOM     58  C   UNL     1     -12.193 -19.217   4.703  1.00  0.00     0.220 C 
ATOM     59  O   UNL     1     -11.622 -20.180   4.203  1.00  0.00    -0.275 OA
ATOM     60  H   UNL     1     -12.134 -17.665   6.081  1.00  0.00     0.164 HD
BRANCH  58  61
ATOM     61  C   UNL     1     -13.608 -18.796   4.351  1.00  0.00     0.100 C 
BRANCH  61  62
ATOM     62  C   UNL     1     -14.338 -18.080   5.488  1.00  0.00     0.010 C 
BRANCH  62  63
ATOM     63  C   UNL     1     -15.439 -17.120   5.019  1.00  0.00     0.000 C 
BRANCH  63  64
ATOM     64  C   UNL     1     -15.611 -15.885   5.902  1.00  0.00    -0.003 C 
ATOM     65  C   UNL     1     -16.727 -14.986   5.389  1.00  0.00     0.004 C 
ENDBRANCH  63  64
ENDBRANCH  62  63
ENDBRANCH  61  62
ENDBRANCH  58  61
ENDBRANCH  56  57
BRANCH  56  66
ATOM     66  C   UNL     1     -10.101 -18.221   7.601  1.00  0.00     0.157 C 
BRANCH  66  67
ATOM     67  C   UNL     1     -11.063 -17.121   7.946  1.00  0.00     0.305 C 
ATOM     68  O   UNL     1     -11.811 -17.078   8.911  1.00  0.00    -0.252 OA
BRANCH  67  69
ATOM     69  O   UNL     1     -10.999 -16.094   7.078  1.00  0.00    -0.481 OA
ATOM     70  H   UNL     1     -10.101 -16.151   6.689  1.00  0.00     0.296 HD
ENDBRANCH  67  69
ENDBRANCH  66  67
ENDBRANCH  56  66
ENDBRANCH  53  56
ENDBRANCH  50  52
ENDBRANCH  47  50
ENDBRANCH  45  46
BRANCH  45  71
ATOM     71  C   UNL     1     -10.228 -13.605  -0.196  1.00  0.00     0.037 C 
BRANCH  71  72
ATOM     72  C   UNL     1     -10.657 -13.852  -1.644  1.00  0.00     0.026 C 
BRANCH  72  73
ATOM     73  C   UNL     1      -9.471 -13.765  -2.602  1.00  0.00     0.146 C 
BRANCH  73  74
ATOM     74  N   UNL     1      -9.962 -14.050  -3.947  1.00  0.00    -0.254 NA
ATOM     75  C   UNL     1      -9.752 -13.175  -4.860  1.00  0.00     0.185 C 
ATOM     76  N   UNL     1     -10.190 -13.409  -6.107  1.00  0.00    -0.370 N 
ATOM     77  N   UNL     1      -9.125 -11.989  -4.764  1.00  0.00    -0.370 N 
ATOM     78  H   UNL     1     -10.680 -14.278  -6.264  1.00  0.00     0.159 HD
ATOM     79  H   UNL     1     -10.191 -12.714  -6.833  1.00  0.00     0.159 HD
ATOM     80  H   UNL     1      -8.739 -11.681  -3.885  1.00  0.00     0.159 HD
ATOM     81  H   UNL     1      -8.918 -11.434  -5.579  1.00  0.00     0.159 HD
ENDBRANCH  73  74
ENDBRANCH  72  73
ENDBRANCH  71  72
ENDBRANCH  45  71
ENDBRANCH   3  45
TORSDOF 20
ENDMDL
MODEL 25
REMARK VINA RESULT:    -4.868      3.719      9.794
REMARK INTER + INTRA:         -20.726
REMARK INTER:                 -16.783
REMARK INTRA:                  -3.943
REMARK UNBOUND:                -6.750
REMARK SMILES CCCCCC(=O)N[C@H](CC(=O)O)C(=O)N[C@H]1C(=O)N[C@H](CCCN=C(N)N)C(=O)N[C@@H]2CC[C@H](O)N(C2=O)[C@@H](CC(C)C)C(=O)N(C)[C@@H](Cc2ccccc2)C(=O)N[C@H](C(C)C)C(=O)O[C@@H]1C
REMARK SMILES IDX 30 1 31 2 29 3 32 5 35 6 37 7 34 8 38 9 33 10 39 11 36 12
REMARK SMILES IDX 40 14 41 15 42 16 43 17 44 18 45 19 46 20 47 21 48 22 49 23
REMARK SMILES IDX 50 24 51 25 52 26 56 27 53 28 55 29 54 30 57 31 58 32 59 33
REMARK SMILES IDX 60 35 61 36 62 37 63 38 64 39 65 40 66 41 67 42 68 43 21 45
REMARK SMILES IDX 20 46 18 47 19 48 17 50 16 52 14 53 15 54 9 56 8 57 6 58
REMARK SMILES IDX 7 59 5 61 4 62 3 63 2 64 1 65 10 66 11 67 12 68 13 69 22 71
REMARK SMILES IDX 23 72 24 73 25 74 26 75 27 76 28 77
REMARK H PARENT 31 4 36 13 59 34 20 49 16 55 8 60 13 70 27 78 27 79 28 80
REMARK H PARENT 28 81
REMARK Flexibility Score:  259.900
ROOT
ATOM      1  O   UNL     1     -12.762 -12.621   0.613  1.00  0.00    -0.273 OA
ATOM      2  N   UNL     1     -13.010 -14.744   1.426  1.00  0.00    -0.343 N 
ATOM      3  C   UNL     1     -12.298 -13.748   0.794  1.00  0.00     0.243 C 
ATOM      4  H   UNL     1     -12.591 -15.655   1.571  1.00  0.00     0.164 HD
ENDROOT
BRANCH   2   5
ATOM      5  C   UNL     1     -14.404 -14.536   1.805  1.00  0.00     0.171 C 
ATOM      6  C   UNL     1     -16.249 -12.342   1.374  1.00  0.00     0.214 C 
ATOM      7  N   UNL     1     -15.442 -12.366   2.572  1.00  0.00    -0.303 N 
ATOM      8  C   UNL     1     -16.582 -13.727   0.844  1.00  0.00     0.057 C 
ATOM      9  C   UNL     1     -14.505 -13.358   2.815  1.00  0.00     0.247 C 
ATOM     10  C   UNL     1     -15.306 -14.493   0.573  1.00  0.00     0.040 C 
ATOM     11  O   UNL     1     -13.757 -13.325   3.801  1.00  0.00    -0.272 OA
BRANCH   6  12
ATOM     12  O   UNL     1     -15.553 -11.597   0.401  1.00  0.00    -0.373 OA
ATOM     13  H   UNL     1     -15.416 -12.189  -0.369  1.00  0.00     0.213 HD
ENDBRANCH   6  12
BRANCH   7  14
ATOM     14  C   UNL     1     -15.547 -11.201   3.475  1.00  0.00     0.177 C 
BRANCH  14  15
ATOM     15  C   UNL     1     -16.029  -9.897   2.811  1.00  0.00     0.038 C 
BRANCH  15  16
ATOM     16  C   UNL     1     -15.041  -8.722   2.636  1.00  0.00    -0.015 C 
ATOM     17  C   UNL     1     -15.626  -7.391   3.119  1.00  0.00     0.007 C 
ATOM     18  C   UNL     1     -14.668  -8.574   1.155  1.00  0.00     0.007 C 
ENDBRANCH  15  16
ENDBRANCH  14  15
BRANCH  14  19
ATOM     19  C   UNL     1     -15.914 -11.669   4.926  1.00  0.00     0.245 C 
ATOM     20  O   UNL     1     -17.117 -11.875   5.159  1.00  0.00    -0.272 OA
BRANCH  19  21
ATOM     21  N   UNL     1     -15.002 -11.753   5.963  1.00  0.00    -0.332 N 
ATOM     22  C   UNL     1     -14.722 -12.945   6.744  1.00  0.00     0.147 C 
BRANCH  21  23
ATOM     23  C   UNL     1     -14.246 -10.523   6.326  1.00  0.00     0.178 C 
BRANCH  23  24
ATOM     24  C   UNL     1     -14.697  -9.852   7.639  1.00  0.00     0.070 C 
BRANCH  24  25
ATOM     25  C   UNL     1     -14.406  -8.377   7.794  1.00  0.00    -0.045 A 
ATOM     26  C   UNL     1     -13.904  -7.867   8.998  1.00  0.00     0.004 A 
ATOM     27  C   UNL     1     -14.641  -7.495   6.729  1.00  0.00     0.004 A 
ATOM     28  C   UNL     1     -13.654  -6.500   9.138  1.00  0.00     0.000 A 
ATOM     29  C   UNL     1     -14.389  -6.129   6.870  1.00  0.00     0.000 A 
ATOM     30  C   UNL     1     -13.899  -5.633   8.076  1.00  0.00     0.000 A 
ENDBRANCH  24  25
ENDBRANCH  23  24
BRANCH  23  31
ATOM     31  C   UNL     1     -12.715 -10.688   6.170  1.00  0.00     0.243 C 
ATOM     32  O   UNL     1     -11.895 -10.309   7.003  1.00  0.00    -0.273 OA
ATOM     33  N   UNL     1     -12.331 -11.137   4.918  1.00  0.00    -0.341 N 
ATOM     34  H   UNL     1     -13.060 -11.433   4.264  1.00  0.00     0.164 HD
BRANCH  33  35
ATOM     35  C   UNL     1     -10.930 -11.254   4.506  1.00  0.00     0.194 C 
BRANCH  35  36
ATOM     36  C   UNL     1     -10.683 -10.954   3.001  1.00  0.00     0.017 C 
ATOM     37  C   UNL     1      -9.240 -10.482   2.754  1.00  0.00     0.010 C 
ATOM     38  C   UNL     1     -11.620  -9.878   2.437  1.00  0.00     0.010 C 
ENDBRANCH  35  36
BRANCH  35  39
ATOM     39  C   UNL     1     -10.289 -12.601   4.942  1.00  0.00     0.329 C 
ATOM     40  O   UNL     1     -10.036 -12.897   6.104  1.00  0.00    -0.250 OA
BRANCH  39  41
ATOM     41  O   UNL     1     -10.118 -13.459   3.891  1.00  0.00    -0.458 OA
BRANCH  41  42
ATOM     42  C   UNL     1      -8.935 -14.293   3.929  1.00  0.00     0.205 CG0
ATOM     43  C   UNL     1      -7.892 -13.642   3.022  1.00  0.00     0.056 C 
ATOM     44  G   UNL     1      -9.318 -15.712   3.465  1.00  0.00     0.000 G0
ENDBRANCH  41  42
ENDBRANCH  39  41
ENDBRANCH  35  39
ENDBRANCH  33  35
ENDBRANCH  23  31
ENDBRANCH  21  23
ENDBRANCH  19  21
ENDBRANCH  14  19
ENDBRANCH   7  14
ENDBRANCH   2   5
BRANCH   3  45
ATOM     45  C   UNL     1     -10.881 -14.133   0.351  1.00  0.00     0.171 C 
BRANCH  45  46
ATOM     46  N   UNL     1     -10.143 -14.399   1.579  1.00  0.00    -0.342 N 
ATOM     47  C   UNL     1     -10.050 -15.655   2.124  1.00  0.00     0.247 C 
ATOM     48  O   UNL     1     -10.517 -16.656   1.580  1.00  0.00    -0.273 OA
ATOM     49  H   UNL     1      -9.692 -13.607   2.033  1.00  0.00     0.164 HD
BRANCH  47  50
ATOM     50  C   UNL     1      -9.340 -15.722   3.484  1.00  0.00     0.212 CG0
ATOM     51  G   UNL     1      -8.942 -14.285   3.875  1.00  0.00     0.000 G0
BRANCH  50  52
ATOM     52  N   UNL     1     -10.306 -16.323   4.399  1.00  0.00    -0.339 N 
ATOM     53  C   UNL     1     -10.255 -17.637   4.796  1.00  0.00     0.243 C 
ATOM     54  O   UNL     1      -9.416 -18.426   4.368  1.00  0.00    -0.273 OA
ATOM     55  H   UNL     1     -11.091 -15.750   4.702  1.00  0.00     0.164 HD
BRANCH  53  56
ATOM     56  C   UNL     1     -11.431 -18.067   5.696  1.00  0.00     0.182 C 
BRANCH  56  57
ATOM     57  N   UNL     1     -10.948 -18.611   6.970  1.00  0.00    -0.344 N 
ATOM     58  C   UNL     1     -10.838 -17.842   8.103  1.00  0.00     0.220 C 
ATOM     59  O   UNL     1     -11.064 -16.637   8.112  1.00  0.00    -0.275 OA
ATOM     60  H   UNL     1     -10.848 -19.620   7.031  1.00  0.00     0.164 HD
BRANCH  58  61
ATOM     61  C   UNL     1     -10.374 -18.625   9.317  1.00  0.00     0.100 C 
BRANCH  61  62
ATOM     62  C   UNL     1      -9.310 -19.678   9.003  1.00  0.00     0.010 C 
BRANCH  62  63
ATOM     63  C   UNL     1      -7.883 -19.259   9.376  1.00  0.00     0.000 C 
BRANCH  63  64
ATOM     64  C   UNL     1      -7.745 -18.692  10.789  1.00  0.00    -0.003 C 
ATOM     65  C   UNL     1      -7.308 -17.235  10.762  1.00  0.00     0.004 C 
ENDBRANCH  63  64
ENDBRANCH  62  63
ENDBRANCH  61  62
ENDBRANCH  58  61
ENDBRANCH  56  57
BRANCH  56  66
ATOM     66  C   UNL     1     -12.364 -19.036   4.973  1.00  0.00     0.157 C 
BRANCH  66  67
ATOM     67  C   UNL     1     -12.580 -18.621   3.546  1.00  0.00     0.305 C 
ATOM     68  O   UNL     1     -12.424 -19.311   2.550  1.00  0.00    -0.252 OA
BRANCH  67  69
ATOM     69  O   UNL     1     -13.036 -17.358   3.444  1.00  0.00    -0.481 OA
ATOM     70  H   UNL     1     -14.012 -17.442   3.463  1.00  0.00     0.296 HD
ENDBRANCH  67  69
ENDBRANCH  66  67
ENDBRANCH  56  66
ENDBRANCH  53  56
ENDBRANCH  50  52
ENDBRANCH  47  50
ENDBRANCH  45  46
BRANCH  45  71
ATOM     71  C   UNL     1     -10.245 -12.994  -0.454  1.00  0.00     0.037 C 
BRANCH  71  72
ATOM     72  C   UNL     1      -8.729 -13.158  -0.585  1.00  0.00     0.026 C 
BRANCH  72  73
ATOM     73  C   UNL     1      -8.343 -13.737  -1.944  1.00  0.00     0.146 C 
BRANCH  73  74
ATOM     74  N   UNL     1      -6.889 -13.671  -2.062  1.00  0.00    -0.254 NA
ATOM     75  C   UNL     1      -6.328 -14.390  -2.963  1.00  0.00     0.185 C 
ATOM     76  N   UNL     1      -4.993 -14.350  -3.097  1.00  0.00    -0.370 N 
ATOM     77  N   UNL     1      -6.894 -15.227  -3.850  1.00  0.00    -0.370 N 
ATOM     78  H   UNL     1      -4.487 -13.749  -2.462  1.00  0.00     0.159 HD
ATOM     79  H   UNL     1      -4.475 -14.987  -3.676  1.00  0.00     0.159 HD
ATOM     80  H   UNL     1      -7.895 -15.355  -3.870  1.00  0.00     0.159 HD
ATOM     81  H   UNL     1      -6.360 -15.652  -4.590  1.00  0.00     0.159 HD
ENDBRANCH  73  74
ENDBRANCH  72  73
ENDBRANCH  71  72
ENDBRANCH  45  71
ENDBRANCH   3  45
TORSDOF 20
ENDMDL
MODEL 26
REMARK VINA RESULT:    -4.736     10.793     16.232
REMARK INTER + INTRA:         -20.347
REMARK INTER:                 -15.047
REMARK INTRA:                  -5.300
REMARK UNBOUND:                -6.750
REMARK SMILES CCCCCC(=O)N[C@H](CC(=O)O)C(=O)N[C@H]1C(=O)N[C@H](CCCN=C(N)N)C(=O)N[C@@H]2CC[C@H](O)N(C2=O)[C@@H](CC(C)C)C(=O)N(C)[C@@H](Cc2ccccc2)C(=O)N[C@H](C(C)C)C(=O)O[C@@H]1C
REMARK SMILES IDX 30 1 31 2 29 3 32 5 35 6 37 7 34 8 38 9 33 10 39 11 36 12
REMARK SMILES IDX 40 14 41 15 42 16 43 17 44 18 45 19 46 20 47 21 48 22 49 23
REMARK SMILES IDX 50 24 51 25 52 26 56 27 53 28 55 29 54 30 57 31 58 32 59 33
REMARK SMILES IDX 60 35 61 36 62 37 63 38 64 39 65 40 66 41 67 42 68 43 21 45
REMARK SMILES IDX 20 46 18 47 19 48 17 50 16 52 14 53 15 54 9 56 8 57 6 58
REMARK SMILES IDX 7 59 5 61 4 62 3 63 2 64 1 65 10 66 11 67 12 68 13 69 22 71
REMARK SMILES IDX 23 72 24 73 25 74 26 75 27 76 28 77
REMARK H PARENT 31 4 36 13 59 34 20 49 16 55 8 60 13 70 27 78 27 79 28 80
REMARK H PARENT 28 81
REMARK Flexibility Score:  259.900
ROOT
ATOM      1  O   UNL     1      -4.320  -7.501  10.369  1.00  0.00    -0.273 OA
ATOM      2  N   UNL     1      -3.435  -9.392  11.304  1.00  0.00    -0.343 N 
ATOM      3  C   UNL     1      -4.381  -8.394  11.216  1.00  0.00     0.243 C 
ATOM      4  H   UNL     1      -3.526 -10.118  12.004  1.00  0.00     0.164 HD
ENDROOT
BRANCH   2   5
ATOM      5  C   UNL     1      -2.244  -9.363  10.462  1.00  0.00     0.171 C 
ATOM      6  C   UNL     1      -0.885 -11.399   8.909  1.00  0.00     0.214 C 
ATOM      7  N   UNL     1      -0.490 -11.169  10.279  1.00  0.00    -0.303 N 
ATOM      8  C   UNL     1      -1.423 -10.154   8.221  1.00  0.00     0.057 C 
ATOM      9  C   UNL     1      -1.131 -10.248  11.092  1.00  0.00     0.247 C 
ATOM     10  C   UNL     1      -2.602  -9.608   8.997  1.00  0.00     0.040 C 
ATOM     11  O   UNL     1      -0.844 -10.119  12.289  1.00  0.00    -0.272 OA
BRANCH   6  12
ATOM     12  O   UNL     1      -1.855 -12.421   8.906  1.00  0.00    -0.373 OA
ATOM     13  H   UNL     1      -2.585 -12.126   9.492  1.00  0.00     0.213 HD
ENDBRANCH   6  12
BRANCH   7  14
ATOM     14  C   UNL     1       0.542 -12.067  10.838  1.00  0.00     0.177 C 
BRANCH  14  15
ATOM     15  C   UNL     1       1.740 -11.359  11.500  1.00  0.00     0.038 C 
BRANCH  15  16
ATOM     16  C   UNL     1       3.168 -11.899  11.266  1.00  0.00    -0.015 C 
ATOM     17  C   UNL     1       3.383 -12.377   9.827  1.00  0.00     0.007 C 
ATOM     18  C   UNL     1       3.437 -13.079  12.209  1.00  0.00     0.007 C 
ENDBRANCH  15  16
ENDBRANCH  14  15
BRANCH  14  19
ATOM     19  C   UNL     1      -0.112 -13.402  11.338  1.00  0.00     0.245 C 
ATOM     20  O   UNL     1      -0.314 -14.280  10.484  1.00  0.00    -0.272 OA
BRANCH  19  21
ATOM     21  N   UNL     1      -0.567 -13.600  12.630  1.00  0.00    -0.332 N 
ATOM     22  C   UNL     1       0.266 -13.657  13.818  1.00  0.00     0.147 C 
BRANCH  21  23
ATOM     23  C   UNL     1      -2.031 -13.785  12.831  1.00  0.00     0.178 C 
BRANCH  23  24
ATOM     24  C   UNL     1      -2.496 -15.254  12.881  1.00  0.00     0.070 C 
BRANCH  24  25
ATOM     25  C   UNL     1      -3.637 -15.647  11.972  1.00  0.00    -0.045 A 
ATOM     26  C   UNL     1      -3.946 -14.885  10.838  1.00  0.00     0.004 A 
ATOM     27  C   UNL     1      -4.409 -16.783  12.256  1.00  0.00     0.004 A 
ATOM     28  C   UNL     1      -5.013 -15.245  10.012  1.00  0.00     0.000 A 
ATOM     29  C   UNL     1      -5.475 -17.143  11.429  1.00  0.00     0.000 A 
ATOM     30  C   UNL     1      -5.778 -16.371  10.309  1.00  0.00     0.000 A 
ENDBRANCH  24  25
ENDBRANCH  23  24
BRANCH  23  31
ATOM     31  C   UNL     1      -2.606 -12.881  13.948  1.00  0.00     0.243 C 
ATOM     32  O   UNL     1      -2.047 -11.871  14.370  1.00  0.00    -0.273 OA
ATOM     33  N   UNL     1      -3.724 -13.411  14.568  1.00  0.00    -0.341 N 
ATOM     34  H   UNL     1      -4.141 -14.258  14.174  1.00  0.00     0.164 HD
BRANCH  33  35
ATOM     35  C   UNL     1      -4.365 -12.787  15.728  1.00  0.00     0.194 C 
BRANCH  35  36
ATOM     36  C   UNL     1      -4.927 -13.801  16.764  1.00  0.00     0.017 C 
ATOM     37  C   UNL     1      -4.697 -15.252  16.309  1.00  0.00     0.010 C 
ATOM     38  C   UNL     1      -6.430 -13.633  17.020  1.00  0.00     0.010 C 
ENDBRANCH  35  36
BRANCH  35  39
ATOM     39  C   UNL     1      -5.423 -11.722  15.326  1.00  0.00     0.329 C 
ATOM     40  O   UNL     1      -6.236 -11.870  14.421  1.00  0.00    -0.250 OA
BRANCH  39  41
ATOM     41  O   UNL     1      -5.405 -10.633  16.153  1.00  0.00    -0.458 OA
BRANCH  41  42
ATOM     42  C   UNL     1      -4.197  -9.834  16.133  1.00  0.00     0.205 CG0
ATOM     43  C   UNL     1      -3.472 -10.076  17.455  1.00  0.00     0.056 C 
ATOM     44  G   UNL     1      -4.589  -8.356  15.937  1.00  0.00     0.000 G0
ENDBRANCH  41  42
ENDBRANCH  39  41
ENDBRANCH  35  39
ENDBRANCH  33  35
ENDBRANCH  23  31
ENDBRANCH  21  23
ENDBRANCH  19  21
ENDBRANCH  14  19
ENDBRANCH   7  14
ENDBRANCH   2   5
BRANCH   3  45
ATOM     45  C   UNL     1      -5.528  -8.484  12.231  1.00  0.00     0.171 C 
BRANCH  45  46
ATOM     46  N   UNL     1      -4.890  -8.637  13.533  1.00  0.00    -0.342 N 
ATOM     47  C   UNL     1      -5.477  -8.204  14.695  1.00  0.00     0.247 C 
ATOM     48  O   UNL     1      -6.610  -7.723  14.733  1.00  0.00    -0.273 OA
ATOM     49  H   UNL     1      -3.974  -9.081  13.553  1.00  0.00     0.164 HD
BRANCH  47  50
ATOM     50  C   UNL     1      -4.604  -8.335  15.952  1.00  0.00     0.212 CG0
ATOM     51  G   UNL     1      -4.223  -9.821  16.103  1.00  0.00     0.000 G0
BRANCH  50  52
ATOM     52  N   UNL     1      -3.454  -7.465  15.720  1.00  0.00    -0.339 N 
ATOM     53  C   UNL     1      -3.190  -6.346  16.472  1.00  0.00     0.243 C 
ATOM     54  O   UNL     1      -3.935  -5.959  17.368  1.00  0.00    -0.273 OA
ATOM     55  H   UNL     1      -2.860  -7.670  14.920  1.00  0.00     0.164 HD
BRANCH  53  56
ATOM     56  C   UNL     1      -1.970  -5.538  15.986  1.00  0.00     0.182 C 
BRANCH  56  57
ATOM     57  N   UNL     1      -2.012  -5.343  14.533  1.00  0.00    -0.344 N 
ATOM     58  C   UNL     1      -2.621  -4.256  13.954  1.00  0.00     0.220 C 
ATOM     59  O   UNL     1      -3.233  -3.415  14.602  1.00  0.00    -0.275 OA
ATOM     60  H   UNL     1      -1.433  -5.959  13.969  1.00  0.00     0.164 HD
BRANCH  58  61
ATOM     61  C   UNL     1      -2.492  -4.230  12.442  1.00  0.00     0.100 C 
BRANCH  61  62
ATOM     62  C   UNL     1      -1.185  -3.611  11.946  1.00  0.00     0.010 C 
BRANCH  62  63
ATOM     63  C   UNL     1      -0.545  -4.356  10.767  1.00  0.00     0.000 C 
BRANCH  63  64
ATOM     64  C   UNL     1      -1.396  -5.497  10.211  1.00  0.00    -0.003 C 
ATOM     65  C   UNL     1      -2.044  -5.111   8.889  1.00  0.00     0.004 C 
ENDBRANCH  63  64
ENDBRANCH  62  63
ENDBRANCH  61  62
ENDBRANCH  58  61
ENDBRANCH  56  57
BRANCH  56  66
ATOM     66  C   UNL     1      -0.658  -6.173  16.444  1.00  0.00     0.157 C 
BRANCH  66  67
ATOM     67  C   UNL     1      -0.054  -7.017  15.359  1.00  0.00     0.305 C 
ATOM     68  O   UNL     1      -0.496  -8.066  14.914  1.00  0.00    -0.252 OA
BRANCH  67  69
ATOM     69  O   UNL     1       1.062  -6.467  14.845  1.00  0.00    -0.481 OA
ATOM     70  H   UNL     1       1.680  -6.400  15.603  1.00  0.00     0.296 HD
ENDBRANCH  67  69
ENDBRANCH  66  67
ENDBRANCH  56  66
ENDBRANCH  53  56
ENDBRANCH  50  52
ENDBRANCH  47  50
ENDBRANCH  45  46
BRANCH  45  71
ATOM     71  C   UNL     1      -6.438  -9.673  11.905  1.00  0.00     0.037 C 
BRANCH  71  72
ATOM     72  C   UNL     1      -5.868 -10.543  10.781  1.00  0.00     0.026 C 
BRANCH  72  73
ATOM     73  C   UNL     1      -6.760 -11.751  10.501  1.00  0.00     0.146 C 
BRANCH  73  74
ATOM     74  N   UNL     1      -7.668 -11.394   9.415  1.00  0.00    -0.254 NA
ATOM     75  C   UNL     1      -8.242 -12.346   8.778  1.00  0.00     0.185 C 
ATOM     76  N   UNL     1      -9.084 -12.050   7.774  1.00  0.00    -0.370 N 
ATOM     77  N   UNL     1      -8.132 -13.674   8.962  1.00  0.00    -0.370 N 
ATOM     78  H   UNL     1      -9.218 -11.071   7.564  1.00  0.00     0.159 HD
ATOM     79  H   UNL     1      -9.454 -12.736   7.141  1.00  0.00     0.159 HD
ATOM     80  H   UNL     1      -7.536 -14.044   9.686  1.00  0.00     0.159 HD
ATOM     81  H   UNL     1      -8.724 -14.325   8.473  1.00  0.00     0.159 HD
ENDBRANCH  73  74
ENDBRANCH  72  73
ENDBRANCH  71  72
ENDBRANCH  45  71
ENDBRANCH   3  45
TORSDOF 20
ENDMDL
MODEL 27
REMARK VINA RESULT:    -4.659      3.918     10.258
REMARK INTER + INTRA:         -20.126
REMARK INTER:                 -16.802
REMARK INTRA:                  -3.324
REMARK UNBOUND:                -6.750
REMARK SMILES CCCCCC(=O)N[C@H](CC(=O)O)C(=O)N[C@H]1C(=O)N[C@H](CCCN=C(N)N)C(=O)N[C@@H]2CC[C@H](O)N(C2=O)[C@@H](CC(C)C)C(=O)N(C)[C@@H](Cc2ccccc2)C(=O)N[C@H](C(C)C)C(=O)O[C@@H]1C
REMARK SMILES IDX 30 1 31 2 29 3 32 5 35 6 37 7 34 8 38 9 33 10 39 11 36 12
REMARK SMILES IDX 40 14 41 15 42 16 43 17 44 18 45 19 46 20 47 21 48 22 49 23
REMARK SMILES IDX 50 24 51 25 52 26 56 27 53 28 55 29 54 30 57 31 58 32 59 33
REMARK SMILES IDX 60 35 61 36 62 37 63 38 64 39 65 40 66 41 67 42 68 43 21 45
REMARK SMILES IDX 20 46 18 47 19 48 17 50 16 52 14 53 15 54 9 56 8 57 6 58
REMARK SMILES IDX 7 59 5 61 4 62 3 63 2 64 1 65 10 66 11 67 12 68 13 69 22 71
REMARK SMILES IDX 23 72 24 73 25 74 26 75 27 76 28 77
REMARK H PARENT 31 4 36 13 59 34 20 49 16 55 8 60 13 70 27 78 27 79 28 80
REMARK H PARENT 28 81
REMARK Flexibility Score:  259.900
ROOT
ATOM      1  O   UNL     1     -13.341 -11.830   6.586  1.00  0.00    -0.273 OA
ATOM      2  N   UNL     1     -12.432 -10.270   5.182  1.00  0.00    -0.343 N 
ATOM      3  C   UNL     1     -12.355 -11.369   6.010  1.00  0.00     0.243 C 
ATOM      4  H   UNL     1     -11.602  -9.928   4.713  1.00  0.00     0.164 HD
ENDROOT
BRANCH   2   5
ATOM      5  C   UNL     1     -13.680  -9.528   5.048  1.00  0.00     0.171 C 
ATOM      6  C   UNL     1     -16.143 -10.069   3.617  1.00  0.00     0.214 C 
ATOM      7  N   UNL     1     -15.090  -9.327   2.963  1.00  0.00    -0.303 N 
ATOM      8  C   UNL     1     -16.170  -9.874   5.124  1.00  0.00     0.057 C 
ATOM      9  C   UNL     1     -13.870  -9.078   3.571  1.00  0.00     0.247 C 
ATOM     10  C   UNL     1     -14.835 -10.272   5.716  1.00  0.00     0.040 C 
ATOM     11  O   UNL     1     -12.942  -8.517   2.973  1.00  0.00    -0.272 OA
BRANCH   6  12
ATOM     12  O   UNL     1     -15.971 -11.431   3.299  1.00  0.00    -0.373 OA
ATOM     13  H   UNL     1     -16.174 -11.943   4.111  1.00  0.00     0.213 HD
ENDBRANCH   6  12
BRANCH   7  14
ATOM     14  C   UNL     1     -15.306  -8.962   1.547  1.00  0.00     0.177 C 
BRANCH  14  15
ATOM     15  C   UNL     1     -15.659  -7.483   1.297  1.00  0.00     0.038 C 
BRANCH  15  16
ATOM     16  C   UNL     1     -16.758  -6.808   2.149  1.00  0.00    -0.015 C 
ATOM     17  C   UNL     1     -17.536  -5.748   1.365  1.00  0.00     0.007 C 
ATOM     18  C   UNL     1     -16.124  -6.132   3.372  1.00  0.00     0.007 C 
ENDBRANCH  15  16
ENDBRANCH  14  15
BRANCH  14  19
ATOM     19  C   UNL     1     -14.414  -9.851   0.614  1.00  0.00     0.245 C 
ATOM     20  O   UNL     1     -13.620  -9.256  -0.134  1.00  0.00    -0.272 OA
BRANCH  19  21
ATOM     21  N   UNL     1     -14.544 -11.224   0.503  1.00  0.00    -0.332 N 
ATOM     22  C   UNL     1     -15.748 -11.927   0.097  1.00  0.00     0.147 C 
BRANCH  21  23
ATOM     23  C   UNL     1     -13.360 -12.064   0.836  1.00  0.00     0.178 C 
BRANCH  23  24
ATOM     24  C   UNL     1     -12.008 -11.322   0.789  1.00  0.00     0.070 C 
BRANCH  24  25
ATOM     25  C   UNL     1     -10.893 -11.973   0.004  1.00  0.00    -0.045 A 
ATOM     26  C   UNL     1     -11.061 -12.292  -1.350  1.00  0.00     0.004 A 
ATOM     27  C   UNL     1      -9.671 -12.271   0.625  1.00  0.00     0.004 A 
ATOM     28  C   UNL     1     -10.031 -12.909  -2.064  1.00  0.00     0.000 A 
ATOM     29  C   UNL     1      -8.643 -12.886  -0.091  1.00  0.00     0.000 A 
ATOM     30  C   UNL     1      -8.825 -13.207  -1.434  1.00  0.00     0.000 A 
ENDBRANCH  24  25
ENDBRANCH  23  24
BRANCH  23  31
ATOM     31  C   UNL     1     -13.577 -12.944   2.090  1.00  0.00     0.243 C 
ATOM     32  O   UNL     1     -13.230 -12.622   3.223  1.00  0.00    -0.273 OA
ATOM     33  N   UNL     1     -14.034 -14.218   1.799  1.00  0.00    -0.341 N 
ATOM     34  H   UNL     1     -14.302 -14.430   0.835  1.00  0.00     0.164 HD
BRANCH  33  35
ATOM     35  C   UNL     1     -14.198 -15.260   2.817  1.00  0.00     0.194 C 
BRANCH  35  36
ATOM     36  C   UNL     1     -15.171 -16.401   2.407  1.00  0.00     0.017 C 
ATOM     37  C   UNL     1     -14.418 -17.724   2.184  1.00  0.00     0.010 C 
ATOM     38  C   UNL     1     -15.954 -16.096   1.124  1.00  0.00     0.010 C 
ENDBRANCH  35  36
BRANCH  35  39
ATOM     39  C   UNL     1     -14.542 -14.678   4.217  1.00  0.00     0.329 C 
ATOM     40  O   UNL     1     -15.653 -14.270   4.536  1.00  0.00    -0.250 OA
BRANCH  39  41
ATOM     41  O   UNL     1     -13.488 -14.753   5.085  1.00  0.00    -0.458 OA
BRANCH  41  42
ATOM     42  C   UNL     1     -12.772 -16.011   5.117  1.00  0.00     0.205 CG0
ATOM     43  C   UNL     1     -13.581 -16.971   5.987  1.00  0.00     0.056 C 
ATOM     44  G   UNL     1     -11.358 -15.757   5.676  1.00  0.00     0.000 G0
ENDBRANCH  41  42
ENDBRANCH  39  41
ENDBRANCH  35  39
ENDBRANCH  33  35
ENDBRANCH  23  31
ENDBRANCH  21  23
ENDBRANCH  19  21
ENDBRANCH  14  19
ENDBRANCH   7  14
ENDBRANCH   2   5
BRANCH   3  45
ATOM     45  C   UNL     1     -10.959 -11.992   6.148  1.00  0.00     0.171 C 
BRANCH  45  46
ATOM     46  N   UNL     1     -11.182 -13.420   6.332  1.00  0.00    -0.342 N 
ATOM     47  C   UNL     1     -10.928 -14.338   5.344  1.00  0.00     0.247 C 
ATOM     48  O   UNL     1     -10.428 -14.033   4.260  1.00  0.00    -0.273 OA
ATOM     49  H   UNL     1     -11.543 -13.723   7.235  1.00  0.00     0.164 HD
BRANCH  47  50
ATOM     50  C   UNL     1     -11.340 -15.780   5.674  1.00  0.00     0.212 CG0
ATOM     51  G   UNL     1     -12.767 -15.995   5.131  1.00  0.00     0.000 G0
BRANCH  50  52
ATOM     52  N   UNL     1     -10.343 -16.628   5.028  1.00  0.00    -0.339 N 
ATOM     53  C   UNL     1      -9.956 -17.850   5.521  1.00  0.00     0.243 C 
ATOM     54  O   UNL     1     -10.384 -18.302   6.580  1.00  0.00    -0.273 OA
ATOM     55  H   UNL     1      -9.869 -16.259   4.206  1.00  0.00     0.164 HD
BRANCH  53  56
ATOM     56  C   UNL     1      -8.826 -18.523   4.716  1.00  0.00     0.182 C 
BRANCH  56  57
ATOM     57  N   UNL     1      -7.631 -18.714   5.544  1.00  0.00    -0.344 N 
ATOM     58  C   UNL     1      -7.015 -17.675   6.197  1.00  0.00     0.220 C 
ATOM     59  O   UNL     1      -7.375 -16.509   6.077  1.00  0.00    -0.275 OA
ATOM     60  H   UNL     1      -7.362 -19.672   5.751  1.00  0.00     0.164 HD
BRANCH  58  61
ATOM     61  C   UNL     1      -5.832 -18.112   7.042  1.00  0.00     0.100 C 
BRANCH  61  62
ATOM     62  C   UNL     1      -5.868 -17.581   8.475  1.00  0.00     0.010 C 
BRANCH  62  63
ATOM     63  C   UNL     1      -7.113 -17.999   9.267  1.00  0.00     0.000 C 
BRANCH  63  64
ATOM     64  C   UNL     1      -7.192 -17.403  10.672  1.00  0.00    -0.003 C 
ATOM     65  C   UNL     1      -6.608 -18.350  11.710  1.00  0.00     0.004 C 
ENDBRANCH  63  64
ENDBRANCH  62  63
ENDBRANCH  61  62
ENDBRANCH  58  61
ENDBRANCH  56  57
BRANCH  56  66
ATOM     66  C   UNL     1      -8.521 -17.756   3.430  1.00  0.00     0.157 C 
BRANCH  66  67
ATOM     67  C   UNL     1      -9.265 -18.336   2.262  1.00  0.00     0.305 C 
ATOM     68  O   UNL     1     -10.459 -18.232   2.028  1.00  0.00    -0.252 OA
BRANCH  67  69
ATOM     69  O   UNL     1      -8.450 -18.983   1.407  1.00  0.00    -0.481 OA
ATOM     70  H   UNL     1      -8.054 -18.276   0.855  1.00  0.00     0.296 HD
ENDBRANCH  67  69
ENDBRANCH  66  67
ENDBRANCH  56  66
ENDBRANCH  53  56
ENDBRANCH  50  52
ENDBRANCH  47  50
ENDBRANCH  45  46
BRANCH  45  71
ATOM     71  C   UNL     1     -10.215 -11.378   7.338  1.00  0.00     0.037 C 
BRANCH  71  72
ATOM     72  C   UNL     1      -8.872 -12.066   7.596  1.00  0.00     0.026 C 
BRANCH  72  73
ATOM     73  C   UNL     1      -8.611 -12.245   9.090  1.00  0.00     0.146 C 
BRANCH  73  74
ATOM     74  N   UNL     1      -7.746 -13.408   9.256  1.00  0.00    -0.254 NA
ATOM     75  C   UNL     1      -6.542 -13.208   9.648  1.00  0.00     0.185 C 
ATOM     76  N   UNL     1      -5.722 -14.259   9.812  1.00  0.00    -0.370 N 
ATOM     77  N   UNL     1      -5.930 -12.047   9.940  1.00  0.00    -0.370 N 
ATOM     78  H   UNL     1      -6.102 -15.172   9.606  1.00  0.00     0.159 HD
ATOM     79  H   UNL     1      -4.734 -14.171   9.974  1.00  0.00     0.159 HD
ATOM     80  H   UNL     1      -6.427 -11.172   9.865  1.00  0.00     0.159 HD
ATOM     81  H   UNL     1      -5.011 -12.023  10.350  1.00  0.00     0.159 HD
ENDBRANCH  73  74
ENDBRANCH  72  73
ENDBRANCH  71  72
ENDBRANCH  45  71
ENDBRANCH   3  45
TORSDOF 20
ENDMDL
MODEL 28
REMARK VINA RESULT:    -4.654      2.666      5.610
REMARK INTER + INTRA:         -20.110
REMARK INTER:                 -16.751
REMARK INTRA:                  -3.359
REMARK UNBOUND:                -6.750
REMARK SMILES CCCCCC(=O)N[C@H](CC(=O)O)C(=O)N[C@H]1C(=O)N[C@H](CCCN=C(N)N)C(=O)N[C@@H]2CC[C@H](O)N(C2=O)[C@@H](CC(C)C)C(=O)N(C)[C@@H](Cc2ccccc2)C(=O)N[C@H](C(C)C)C(=O)O[C@@H]1C
REMARK SMILES IDX 30 1 31 2 29 3 32 5 35 6 37 7 34 8 38 9 33 10 39 11 36 12
REMARK SMILES IDX 40 14 41 15 42 16 43 17 44 18 45 19 46 20 47 21 48 22 49 23
REMARK SMILES IDX 50 24 51 25 52 26 56 27 53 28 55 29 54 30 57 31 58 32 59 33
REMARK SMILES IDX 60 35 61 36 62 37 63 38 64 39 65 40 66 41 67 42 68 43 21 45
REMARK SMILES IDX 20 46 18 47 19 48 17 50 16 52 14 53 15 54 9 56 8 57 6 58
REMARK SMILES IDX 7 59 5 61 4 62 3 63 2 64 1 65 10 66 11 67 12 68 13 69 22 71
REMARK SMILES IDX 23 72 24 73 25 74 26 75 27 76 28 77
REMARK H PARENT 31 4 36 13 59 34 20 49 16 55 8 60 13 70 27 78 27 79 28 80
REMARK H PARENT 28 81
REMARK Flexibility Score:  259.900
ROOT
ATOM      1  O   UNL     1     -12.948 -10.702   5.677  1.00  0.00    -0.273 OA
ATOM      2  N   UNL     1     -12.685 -12.929   5.230  1.00  0.00    -0.343 N 
ATOM      3  C   UNL     1     -13.000 -11.635   4.875  1.00  0.00     0.243 C 
ATOM      4  H   UNL     1     -12.725 -13.670   4.541  1.00  0.00     0.164 HD
ENDROOT
BRANCH   2   5
ATOM      5  C   UNL     1     -12.386 -13.267   6.618  1.00  0.00     0.171 C 
ATOM      6  C   UNL     1     -10.650 -15.248   7.828  1.00  0.00     0.214 C 
ATOM      7  N   UNL     1     -12.028 -15.583   7.556  1.00  0.00    -0.303 N 
ATOM      8  C   UNL     1     -10.436 -13.772   8.123  1.00  0.00     0.057 C 
ATOM      9  C   UNL     1     -12.897 -14.702   6.934  1.00  0.00     0.247 C 
ATOM     10  C   UNL     1     -10.934 -12.940   6.961  1.00  0.00     0.040 C 
ATOM     11  O   UNL     1     -14.052 -15.026   6.626  1.00  0.00    -0.272 OA
BRANCH   6  12
ATOM     12  O   UNL     1      -9.883 -15.644   6.714  1.00  0.00    -0.373 OA
ATOM     13  H   UNL     1     -10.513 -15.902   6.008  1.00  0.00     0.213 HD
ENDBRANCH   6  12
BRANCH   7  14
ATOM     14  C   UNL     1     -12.448 -16.972   7.835  1.00  0.00     0.177 C 
BRANCH  14  15
ATOM     15  C   UNL     1     -12.878 -17.248   9.290  1.00  0.00     0.038 C 
BRANCH  15  16
ATOM     16  C   UNL     1     -12.642 -18.646   9.901  1.00  0.00    -0.015 C 
ATOM     17  C   UNL     1     -11.469 -19.381   9.244  1.00  0.00     0.007 C 
ATOM     18  C   UNL     1     -13.901 -19.505   9.734  1.00  0.00     0.007 C 
ENDBRANCH  15  16
ENDBRANCH  14  15
BRANCH  14  19
ATOM     19  C   UNL     1     -13.101 -17.610   6.561  1.00  0.00     0.245 C 
ATOM     20  O   UNL     1     -14.288 -17.963   6.657  1.00  0.00    -0.272 OA
BRANCH  19  21
ATOM     21  N   UNL     1     -12.405 -17.896   5.399  1.00  0.00    -0.332 N 
ATOM     22  C   UNL     1     -11.178 -18.669   5.321  1.00  0.00     0.147 C 
BRANCH  21  23
ATOM     23  C   UNL     1     -12.943 -17.363   4.117  1.00  0.00     0.178 C 
BRANCH  23  24
ATOM     24  C   UNL     1     -14.474 -17.179   4.086  1.00  0.00     0.070 C 
BRANCH  24  25
ATOM     25  C   UNL     1     -15.105 -16.893   2.743  1.00  0.00    -0.045 A 
ATOM     26  C   UNL     1     -15.571 -15.610   2.428  1.00  0.00     0.004 A 
ATOM     27  C   UNL     1     -15.239 -17.916   1.792  1.00  0.00     0.004 A 
ATOM     28  C   UNL     1     -16.169 -15.358   1.191  1.00  0.00     0.000 A 
ATOM     29  C   UNL     1     -15.835 -17.662   0.556  1.00  0.00     0.000 A 
ATOM     30  C   UNL     1     -16.303 -16.384   0.258  1.00  0.00     0.000 A 
ENDBRANCH  24  25
ENDBRANCH  23  24
BRANCH  23  31
ATOM     31  C   UNL     1     -12.131 -16.163   3.575  1.00  0.00     0.243 C 
ATOM     32  O   UNL     1     -12.638 -15.136   3.131  1.00  0.00    -0.273 OA
ATOM     33  N   UNL     1     -10.775 -16.419   3.459  1.00  0.00    -0.341 N 
ATOM     34  H   UNL     1     -10.413 -17.295   3.842  1.00  0.00     0.164 HD
BRANCH  33  35
ATOM     35  C   UNL     1      -9.832 -15.471   2.859  1.00  0.00     0.194 C 
BRANCH  35  36
ATOM     36  C   UNL     1      -8.444 -16.085   2.522  1.00  0.00     0.017 C 
ATOM     37  C   UNL     1      -8.349 -17.546   2.993  1.00  0.00     0.010 C 
ATOM     38  C   UNL     1      -7.275 -15.321   3.158  1.00  0.00     0.010 C 
ENDBRANCH  35  36
BRANCH  35  39
ATOM     39  C   UNL     1      -9.702 -14.157   3.679  1.00  0.00     0.329 C 
ATOM     40  O   UNL     1      -9.103 -14.069   4.745  1.00  0.00    -0.250 OA
BRANCH  39  41
ATOM     41  O   UNL     1     -10.257 -13.086   3.036  1.00  0.00    -0.458 OA
BRANCH  41  42
ATOM     42  C   UNL     1      -9.512 -12.555   1.913  1.00  0.00     0.205 CG0
ATOM     43  C   UNL     1      -8.454 -11.610   2.477  1.00  0.00     0.056 C 
ATOM     44  G   UNL     1     -10.495 -11.841   0.964  1.00  0.00     0.000 G0
ENDBRANCH  41  42
ENDBRANCH  39  41
ENDBRANCH  35  39
ENDBRANCH  33  35
ENDBRANCH  23  31
ENDBRANCH  21  23
ENDBRANCH  19  21
ENDBRANCH  14  19
ENDBRANCH   7  14
ENDBRANCH   2   5
BRANCH   3  45
ATOM     45  C   UNL     1     -13.401 -11.436   3.408  1.00  0.00     0.171 C 
BRANCH  45  46
ATOM     46  N   UNL     1     -12.150 -11.313   2.671  1.00  0.00    -0.342 N 
ATOM     47  C   UNL     1     -11.917 -11.985   1.498  1.00  0.00     0.247 C 
ATOM     48  O   UNL     1     -12.771 -12.680   0.945  1.00  0.00    -0.273 OA
ATOM     49  H   UNL     1     -11.436 -10.702   3.065  1.00  0.00     0.164 HD
BRANCH  47  50
ATOM     50  C   UNL     1     -10.499 -11.831   0.931  1.00  0.00     0.212 CG0
ATOM     51  G   UNL     1      -9.528 -12.530   1.903  1.00  0.00     0.000 G0
BRANCH  50  52
ATOM     52  N   UNL     1     -10.538 -12.451  -0.391  1.00  0.00    -0.339 N 
ATOM     53  C   UNL     1      -9.741 -12.053  -1.437  1.00  0.00     0.243 C 
ATOM     54  O   UNL     1      -8.966 -11.104  -1.354  1.00  0.00    -0.273 OA
ATOM     55  H   UNL     1     -11.240 -13.171  -0.555  1.00  0.00     0.164 HD
BRANCH  53  56
ATOM     56  C   UNL     1     -10.022 -12.797  -2.758  1.00  0.00     0.182 C 
BRANCH  56  57
ATOM     57  N   UNL     1      -9.191 -14.000  -2.872  1.00  0.00    -0.344 N 
ATOM     58  C   UNL     1      -9.473 -15.007  -3.763  1.00  0.00     0.220 C 
ATOM     59  O   UNL     1     -10.473 -15.005  -4.471  1.00  0.00    -0.275 OA
ATOM     60  H   UNL     1      -8.302 -13.994  -2.379  1.00  0.00     0.164 HD
BRANCH  58  61
ATOM     61  C   UNL     1      -8.447 -16.126  -3.749  1.00  0.00     0.100 C 
BRANCH  61  62
ATOM     62  C   UNL     1      -7.330 -15.951  -4.778  1.00  0.00     0.010 C 
BRANCH  62  63
ATOM     63  C   UNL     1      -6.334 -17.117  -4.827  1.00  0.00     0.000 C 
BRANCH  63  64
ATOM     64  C   UNL     1      -6.984 -18.498  -4.771  1.00  0.00    -0.003 C 
ATOM     65  C   UNL     1      -6.056 -19.522  -4.132  1.00  0.00     0.004 C 
ENDBRANCH  63  64
ENDBRANCH  62  63
ENDBRANCH  61  62
ENDBRANCH  58  61
ENDBRANCH  56  57
BRANCH  56  66
ATOM     66  C   UNL     1      -9.866 -11.873  -3.965  1.00  0.00     0.157 C 
BRANCH  66  67
ATOM     67  C   UNL     1      -8.543 -12.082  -4.643  1.00  0.00     0.305 C 
ATOM     68  O   UNL     1      -7.440 -11.800  -4.201  1.00  0.00    -0.252 OA
BRANCH  67  69
ATOM     69  O   UNL     1      -8.671 -12.692  -5.837  1.00  0.00    -0.481 OA
ATOM     70  H   UNL     1      -8.678 -11.962  -6.491  1.00  0.00     0.296 HD
ENDBRANCH  67  69
ENDBRANCH  66  67
ENDBRANCH  56  66
ENDBRANCH  53  56
ENDBRANCH  50  52
ENDBRANCH  47  50
ENDBRANCH  45  46
BRANCH  45  71
ATOM     71  C   UNL     1     -14.271 -10.183   3.257  1.00  0.00     0.037 C 
BRANCH  71  72
ATOM     72  C   UNL     1     -15.760 -10.491   3.439  1.00  0.00     0.026 C 
BRANCH  72  73
ATOM     73  C   UNL     1     -16.318  -9.831   4.698  1.00  0.00     0.146 C 
BRANCH  73  74
ATOM     74  N   UNL     1     -15.737  -8.496   4.799  1.00  0.00    -0.254 NA
ATOM     75  C   UNL     1     -15.177  -8.168   5.904  1.00  0.00     0.185 C 
ATOM     76  N   UNL     1     -14.632  -6.947   6.027  1.00  0.00    -0.370 N 
ATOM     77  N   UNL     1     -15.038  -8.893   7.029  1.00  0.00    -0.370 N 
ATOM     78  H   UNL     1     -14.699  -6.334   5.228  1.00  0.00     0.159 HD
ATOM     79  H   UNL     1     -14.309  -6.570   6.901  1.00  0.00     0.159 HD
ATOM     80  H   UNL     1     -15.397  -9.834   7.081  1.00  0.00     0.159 HD
ATOM     81  H   UNL     1     -14.476  -8.570   7.799  1.00  0.00     0.159 HD
ENDBRANCH  73  74
ENDBRANCH  72  73
ENDBRANCH  71  72
ENDBRANCH  45  71
ENDBRANCH   3  45
TORSDOF 20
ENDMDL
MODEL 29
REMARK VINA RESULT:    -4.569      4.127     11.480
REMARK INTER + INTRA:         -19.866
REMARK INTER:                 -14.475
REMARK INTRA:                  -5.391
REMARK UNBOUND:                -6.750
REMARK SMILES CCCCCC(=O)N[C@H](CC(=O)O)C(=O)N[C@H]1C(=O)N[C@H](CCCN=C(N)N)C(=O)N[C@@H]2CC[C@H](O)N(C2=O)[C@@H](CC(C)C)C(=O)N(C)[C@@H](Cc2ccccc2)C(=O)N[C@H](C(C)C)C(=O)O[C@@H]1C
REMARK SMILES IDX 30 1 31 2 29 3 32 5 35 6 37 7 34 8 38 9 33 10 39 11 36 12
REMARK SMILES IDX 40 14 41 15 42 16 43 17 44 18 45 19 46 20 47 21 48 22 49 23
REMARK SMILES IDX 50 24 51 25 52 26 56 27 53 28 55 29 54 30 57 31 58 32 59 33
REMARK SMILES IDX 60 35 61 36 62 37 63 38 64 39 65 40 66 41 67 42 68 43 21 45
REMARK SMILES IDX 20 46 18 47 19 48 17 50 16 52 14 53 15 54 9 56 8 57 6 58
REMARK SMILES IDX 7 59 5 61 4 62 3 63 2 64 1 65 10 66 11 67 12 68 13 69 22 71
REMARK SMILES IDX 23 72 24 73 25 74 26 75 27 76 28 77
REMARK H PARENT 31 4 36 13 59 34 20 49 16 55 8 60 13 70 27 78 27 79 28 80
REMARK H PARENT 28 81
REMARK Flexibility Score:  259.900
ROOT
ATOM      1  O   UNL     1     -11.945  -9.917   7.857  1.00  0.00    -0.273 OA
ATOM      2  N   UNL     1     -12.619 -11.449   6.299  1.00  0.00    -0.343 N 
ATOM      3  C   UNL     1     -11.714 -10.934   7.202  1.00  0.00     0.243 C 
ATOM      4  H   UNL     1     -12.401 -12.296   5.788  1.00  0.00     0.164 HD
ENDROOT
BRANCH   2   5
ATOM      5  C   UNL     1     -13.853 -10.733   5.993  1.00  0.00     0.171 C 
ATOM      6  C   UNL     1     -15.785 -10.978   3.847  1.00  0.00     0.214 C 
ATOM      7  N   UNL     1     -14.674 -10.068   3.701  1.00  0.00    -0.303 N 
ATOM      8  C   UNL     1     -16.229 -11.161   5.290  1.00  0.00     0.057 C 
ATOM      9  C   UNL     1     -13.687  -9.940   4.665  1.00  0.00     0.247 C 
ATOM     10  C   UNL     1     -15.066 -11.652   6.124  1.00  0.00     0.040 C 
ATOM     11  O   UNL     1     -12.693  -9.223   4.496  1.00  0.00    -0.272 OA
BRANCH   6  12
ATOM     12  O   UNL     1     -15.406 -12.215   3.288  1.00  0.00    -0.373 OA
ATOM     13  H   UNL     1     -14.528 -12.084   2.870  1.00  0.00     0.213 HD
ENDBRANCH   6  12
BRANCH   7  14
ATOM     14  C   UNL     1     -14.542  -9.373   2.403  1.00  0.00     0.177 C 
BRANCH  14  15
ATOM     15  C   UNL     1     -14.903  -7.875   2.421  1.00  0.00     0.038 C 
BRANCH  15  16
ATOM     16  C   UNL     1     -16.356  -7.439   2.129  1.00  0.00    -0.015 C 
ATOM     17  C   UNL     1     -16.652  -7.361   0.628  1.00  0.00     0.007 C 
ATOM     18  C   UNL     1     -16.616  -6.057   2.742  1.00  0.00     0.007 C 
ENDBRANCH  15  16
ENDBRANCH  14  15
BRANCH  14  19
ATOM     19  C   UNL     1     -13.393 -10.018   1.555  1.00  0.00     0.245 C 
ATOM     20  O   UNL     1     -12.376  -9.328   1.374  1.00  0.00    -0.272 OA
BRANCH  19  21
ATOM     21  N   UNL     1     -13.498 -11.242   0.918  1.00  0.00    -0.332 N 
ATOM     22  C   UNL     1     -14.660 -11.714   0.186  1.00  0.00     0.147 C 
BRANCH  21  23
ATOM     23  C   UNL     1     -12.333 -12.167   0.991  1.00  0.00     0.178 C 
BRANCH  23  24
ATOM     24  C   UNL     1     -11.059 -11.658   0.287  1.00  0.00     0.070 C 
BRANCH  24  25
ATOM     25  C   UNL     1     -10.482 -12.528  -0.806  1.00  0.00    -0.045 A 
ATOM     26  C   UNL     1      -9.394 -12.091  -1.572  1.00  0.00     0.004 A 
ATOM     27  C   UNL     1     -11.035 -13.790  -1.071  1.00  0.00     0.004 A 
ATOM     28  C   UNL     1      -8.877 -12.894  -2.591  1.00  0.00     0.000 A 
ATOM     29  C   UNL     1     -10.517 -14.592  -2.089  1.00  0.00     0.000 A 
ATOM     30  C   UNL     1      -9.440 -14.141  -2.850  1.00  0.00     0.000 A 
ENDBRANCH  24  25
ENDBRANCH  23  24
BRANCH  23  31
ATOM     31  C   UNL     1     -12.107 -12.742   2.410  1.00  0.00     0.243 C 
ATOM     32  O   UNL     1     -11.647 -12.096   3.348  1.00  0.00    -0.273 OA
ATOM     33  N   UNL     1     -12.296 -14.112   2.488  1.00  0.00    -0.341 N 
ATOM     34  H   UNL     1     -12.675 -14.597   1.671  1.00  0.00     0.164 HD
BRANCH  33  35
ATOM     35  C   UNL     1     -12.024 -14.888   3.701  1.00  0.00     0.194 C 
BRANCH  35  36
ATOM     36  C   UNL     1     -11.583 -16.354   3.431  1.00  0.00     0.017 C 
ATOM     37  C   UNL     1     -10.836 -16.476   2.092  1.00  0.00     0.010 C 
ATOM     38  C   UNL     1     -12.757 -17.340   3.393  1.00  0.00     0.010 C 
ENDBRANCH  35  36
BRANCH  35  39
ATOM     39  C   UNL     1     -13.184 -14.811   4.732  1.00  0.00     0.329 C 
ATOM     40  O   UNL     1     -14.371 -14.877   4.436  1.00  0.00    -0.250 OA
BRANCH  39  41
ATOM     41  O   UNL     1     -12.730 -14.748   6.021  1.00  0.00    -0.458 OA
BRANCH  41  42
ATOM     42  C   UNL     1     -12.068 -15.932   6.526  1.00  0.00     0.205 CG0
ATOM     43  C   UNL     1     -13.148 -16.843   7.107  1.00  0.00     0.056 C 
ATOM     44  G   UNL     1     -11.029 -15.503   7.581  1.00  0.00     0.000 G0
ENDBRANCH  41  42
ENDBRANCH  39  41
ENDBRANCH  35  39
ENDBRANCH  33  35
ENDBRANCH  23  31
ENDBRANCH  21  23
ENDBRANCH  19  21
ENDBRANCH  14  19
ENDBRANCH   7  14
ENDBRANCH   2   5
BRANCH   3  45
ATOM     45  C   UNL     1     -10.409 -11.727   7.350  1.00  0.00     0.171 C 
BRANCH  45  46
ATOM     46  N   UNL     1     -10.807 -13.069   7.753  1.00  0.00    -0.342 N 
ATOM     47  C   UNL     1     -10.385 -14.193   7.088  1.00  0.00     0.247 C 
ATOM     48  O   UNL     1      -9.585 -14.155   6.152  1.00  0.00    -0.273 OA
ATOM     49  H   UNL     1     -11.425 -13.150   8.558  1.00  0.00     0.164 HD
BRANCH  47  50
ATOM     50  C   UNL     1     -11.006 -15.509   7.577  1.00  0.00     0.212 CG0
ATOM     51  G   UNL     1     -12.060 -15.943   6.538  1.00  0.00     0.000 G0
BRANCH  50  52
ATOM     52  N   UNL     1      -9.892 -16.446   7.694  1.00  0.00    -0.339 N 
ATOM     53  C   UNL     1      -9.843 -17.448   8.632  1.00  0.00     0.243 C 
ATOM     54  O   UNL     1     -10.714 -17.602   9.483  1.00  0.00    -0.273 OA
ATOM     55  H   UNL     1      -9.087 -16.301   7.088  1.00  0.00     0.164 HD
BRANCH  53  56
ATOM     56  C   UNL     1      -8.528 -18.255   8.620  1.00  0.00     0.182 C 
BRANCH  56  57
ATOM     57  N   UNL     1      -7.483 -17.570   9.386  1.00  0.00    -0.344 N 
ATOM     58  C   UNL     1      -7.013 -18.052  10.584  1.00  0.00     0.220 C 
ATOM     59  O   UNL     1      -7.483 -19.044  11.130  1.00  0.00    -0.275 OA
ATOM     60  H   UNL     1      -6.998 -16.806   8.923  1.00  0.00     0.164 HD
BRANCH  58  61
ATOM     61  C   UNL     1      -5.892 -17.214  11.170  1.00  0.00     0.100 C 
BRANCH  61  62
ATOM     62  C   UNL     1      -4.917 -18.010  12.039  1.00  0.00     0.010 C 
BRANCH  62  63
ATOM     63  C   UNL     1      -4.132 -17.158  13.044  1.00  0.00     0.000 C 
BRANCH  63  64
ATOM     64  C   UNL     1      -2.633 -17.077  12.761  1.00  0.00    -0.003 C 
ATOM     65  C   UNL     1      -2.228 -15.684  12.301  1.00  0.00     0.004 C 
ENDBRANCH  63  64
ENDBRANCH  62  63
ENDBRANCH  61  62
ENDBRANCH  58  61
ENDBRANCH  56  57
BRANCH  56  66
ATOM     66  C   UNL     1      -8.082 -18.577   7.195  1.00  0.00     0.157 C 
BRANCH  66  67
ATOM     67  C   UNL     1      -6.814 -17.851   6.845  1.00  0.00     0.305 C 
ATOM     68  O   UNL     1      -5.679 -18.301   6.880  1.00  0.00    -0.252 OA
BRANCH  67  69
ATOM     69  O   UNL     1      -7.045 -16.596   6.415  1.00  0.00    -0.481 OA
ATOM     70  H   UNL     1      -6.205 -16.318   5.993  1.00  0.00     0.296 HD
ENDBRANCH  67  69
ENDBRANCH  66  67
ENDBRANCH  56  66
ENDBRANCH  53  56
ENDBRANCH  50  52
ENDBRANCH  47  50
ENDBRANCH  45  46
BRANCH  45  71
ATOM     71  C   UNL     1      -9.500 -11.070   8.395  1.00  0.00     0.037 C 
BRANCH  71  72
ATOM     72  C   UNL     1      -8.112 -11.713   8.437  1.00  0.00     0.026 C 
BRANCH  72  73
ATOM     73  C   UNL     1      -7.501 -11.636   9.835  1.00  0.00     0.146 C 
BRANCH  73  74
ATOM     74  N   UNL     1      -6.920 -12.940  10.141  1.00  0.00    -0.254 NA
ATOM     75  C   UNL     1      -5.642 -13.030  10.187  1.00  0.00     0.185 C 
ATOM     76  N   UNL     1      -5.078 -14.216  10.467  1.00  0.00    -0.370 N 
ATOM     77  N   UNL     1      -4.719 -12.072   9.988  1.00  0.00    -0.370 N 
ATOM     78  H   UNL     1      -5.702 -14.994  10.624  1.00  0.00     0.159 HD
ATOM     79  H   UNL     1      -4.093 -14.395  10.379  1.00  0.00     0.159 HD
ATOM     80  H   UNL     1      -4.999 -11.127   9.772  1.00  0.00     0.159 HD
ATOM     81  H   UNL     1      -3.742 -12.235  10.165  1.00  0.00     0.159 HD
ENDBRANCH  73  74
ENDBRANCH  72  73
ENDBRANCH  71  72
ENDBRANCH  45  71
ENDBRANCH   3  45
TORSDOF 20
ENDMDL
MODEL 30
REMARK VINA RESULT:    -4.545     12.630     16.341
REMARK INTER + INTRA:         -19.799
REMARK INTER:                 -12.472
REMARK INTRA:                  -7.327
REMARK UNBOUND:                -6.750
REMARK SMILES CCCCCC(=O)N[C@H](CC(=O)O)C(=O)N[C@H]1C(=O)N[C@H](CCCN=C(N)N)C(=O)N[C@@H]2CC[C@H](O)N(C2=O)[C@@H](CC(C)C)C(=O)N(C)[C@@H](Cc2ccccc2)C(=O)N[C@H](C(C)C)C(=O)O[C@@H]1C
REMARK SMILES IDX 30 1 31 2 29 3 32 5 35 6 37 7 34 8 38 9 33 10 39 11 36 12
REMARK SMILES IDX 40 14 41 15 42 16 43 17 44 18 45 19 46 20 47 21 48 22 49 23
REMARK SMILES IDX 50 24 51 25 52 26 56 27 53 28 55 29 54 30 57 31 58 32 59 33
REMARK SMILES IDX 60 35 61 36 62 37 63 38 64 39 65 40 66 41 67 42 68 43 21 45
REMARK SMILES IDX 20 46 18 47 19 48 17 50 16 52 14 53 15 54 9 56 8 57 6 58
REMARK SMILES IDX 7 59 5 61 4 62 3 63 2 64 1 65 10 66 11 67 12 68 13 69 22 71
REMARK SMILES IDX 23 72 24 73 25 74 26 75 27 76 28 77
REMARK H PARENT 31 4 36 13 59 34 20 49 16 55 8 60 13 70 27 78 27 79 28 80
REMARK H PARENT 28 81
REMARK Flexibility Score:  259.900
ROOT
ATOM      1  O   UNL     1      -1.788  -8.140   9.538  1.00  0.00    -0.273 OA
ATOM      2  N   UNL     1      -2.667  -8.169  11.650  1.00  0.00    -0.343 N 
ATOM      3  C   UNL     1      -1.655  -7.931  10.744  1.00  0.00     0.243 C 
ATOM      4  H   UNL     1      -2.527  -7.972  12.633  1.00  0.00     0.164 HD
ENDROOT
BRANCH   2   5
ATOM      5  C   UNL     1      -3.912  -8.799  11.223  1.00  0.00     0.171 C 
ATOM      6  C   UNL     1      -6.212  -9.791  12.682  1.00  0.00     0.214 C 
ATOM      7  N   UNL     1      -5.116 -10.686  12.389  1.00  0.00    -0.303 N 
ATOM      8  C   UNL     1      -6.389  -8.697  11.642  1.00  0.00     0.057 C 
ATOM      9  C   UNL     1      -3.966 -10.265  11.741  1.00  0.00     0.247 C 
ATOM     10  C   UNL     1      -5.110  -7.898  11.515  1.00  0.00     0.040 C 
ATOM     11  O   UNL     1      -2.997 -11.015  11.571  1.00  0.00    -0.272 OA
BRANCH   6  12
ATOM     12  O   UNL     1      -5.981  -9.230  13.953  1.00  0.00    -0.373 OA
ATOM     13  H   UNL     1      -5.815  -8.272  13.819  1.00  0.00     0.213 HD
ENDBRANCH   6  12
BRANCH   7  14
ATOM     14  C   UNL     1      -5.202 -12.054  12.943  1.00  0.00     0.177 C 
BRANCH  14  15
ATOM     15  C   UNL     1      -5.641 -13.140  11.942  1.00  0.00     0.038 C 
BRANCH  15  16
ATOM     16  C   UNL     1      -6.893 -13.993  12.245  1.00  0.00    -0.015 C 
ATOM     17  C   UNL     1      -7.706 -13.440  13.419  1.00  0.00     0.007 C 
ATOM     18  C   UNL     1      -6.472 -15.429  12.585  1.00  0.00     0.007 C 
ENDBRANCH  15  16
ENDBRANCH  14  15
BRANCH  14  19
ATOM     19  C   UNL     1      -4.144 -12.246  14.083  1.00  0.00     0.245 C 
ATOM     20  O   UNL     1      -3.264 -13.103  13.892  1.00  0.00    -0.272 OA
BRANCH  19  21
ATOM     21  N   UNL     1      -4.206 -11.607  15.309  1.00  0.00    -0.332 N 
ATOM     22  C   UNL     1      -5.113 -11.946  16.391  1.00  0.00     0.147 C 
BRANCH  21  23
ATOM     23  C   UNL     1      -3.278 -10.467  15.547  1.00  0.00     0.178 C 
BRANCH  23  24
ATOM     24  C   UNL     1      -3.824  -9.376  16.491  1.00  0.00     0.070 C 
BRANCH  24  25
ATOM     25  C   UNL     1      -3.456  -7.945  16.174  1.00  0.00    -0.045 A 
ATOM     26  C   UNL     1      -2.130  -7.506  16.277  1.00  0.00     0.004 A 
ATOM     27  C   UNL     1      -4.445  -7.032  15.777  1.00  0.00     0.004 A 
ATOM     28  C   UNL     1      -1.801  -6.177  15.999  1.00  0.00     0.000 A 
ATOM     29  C   UNL     1      -4.114  -5.705  15.498  1.00  0.00     0.000 A 
ATOM     30  C   UNL     1      -2.793  -5.278  15.613  1.00  0.00     0.000 A 
ENDBRANCH  24  25
ENDBRANCH  23  24
BRANCH  23  31
ATOM     31  C   UNL     1      -1.829 -10.921  15.845  1.00  0.00     0.243 C 
ATOM     32  O   UNL     1      -1.371 -11.057  16.976  1.00  0.00    -0.273 OA
ATOM     33  N   UNL     1      -1.026 -10.983  14.718  1.00  0.00    -0.341 N 
ATOM     34  H   UNL     1      -1.464 -10.855  13.803  1.00  0.00     0.164 HD
BRANCH  33  35
ATOM     35  C   UNL     1       0.409 -11.274  14.775  1.00  0.00     0.194 C 
BRANCH  35  36
ATOM     36  C   UNL     1       0.777 -12.476  15.690  1.00  0.00     0.017 C 
ATOM     37  C   UNL     1       2.301 -12.594  15.873  1.00  0.00     0.010 C 
ATOM     38  C   UNL     1       0.274 -13.821  15.153  1.00  0.00     0.010 C 
ENDBRANCH  35  36
BRANCH  35  39
ATOM     39  C   UNL     1       1.262 -10.016  15.098  1.00  0.00     0.329 C 
ATOM     40  O   UNL     1       1.569  -9.668  16.232  1.00  0.00    -0.250 OA
BRANCH  39  41
ATOM     41  O   UNL     1       1.707  -9.385  13.969  1.00  0.00    -0.458 OA
BRANCH  41  42
ATOM     42  C   UNL     1       2.788 -10.033  13.257  1.00  0.00     0.205 CG0
ATOM     43  C   UNL     1       4.095  -9.441  13.780  1.00  0.00     0.056 C 
ATOM     44  G   UNL     1       2.595  -9.792  11.747  1.00  0.00     0.000 G0
ENDBRANCH  41  42
ENDBRANCH  39  41
ENDBRANCH  35  39
ENDBRANCH  33  35
ENDBRANCH  23  31
ENDBRANCH  21  23
ENDBRANCH  19  21
ENDBRANCH  14  19
ENDBRANCH   7  14
ENDBRANCH   2   5
BRANCH   3  45
ATOM     45  C   UNL     1      -0.359  -7.367  11.341  1.00  0.00     0.171 C 
BRANCH  45  46
ATOM     46  N   UNL     1       0.489  -8.522  11.604  1.00  0.00    -0.342 N 
ATOM     47  C   UNL     1       1.859  -8.454  11.563  1.00  0.00     0.247 C 
ATOM     48  O   UNL     1       2.471  -7.402  11.376  1.00  0.00    -0.273 OA
ATOM     49  H   UNL     1       0.024  -9.402  11.819  1.00  0.00     0.164 HD
BRANCH  47  50
ATOM     50  C   UNL     1       2.583  -9.796  11.742  1.00  0.00     0.212 CG0
ATOM     51  G   UNL     1       2.783 -10.021  13.254  1.00  0.00     0.000 G0
BRANCH  50  52
ATOM     52  N   UNL     1       1.714 -10.793  11.121  1.00  0.00    -0.339 N 
ATOM     53  C   UNL     1       1.771 -11.119   9.788  1.00  0.00     0.243 C 
ATOM     54  O   UNL     1       2.527 -10.556   9.000  1.00  0.00    -0.273 OA
ATOM     55  H   UNL     1       0.990 -11.215  11.699  1.00  0.00     0.164 HD
BRANCH  53  56
ATOM     56  C   UNL     1       0.699 -12.134   9.344  1.00  0.00     0.182 C 
BRANCH  56  57
ATOM     57  N   UNL     1       0.731 -13.336  10.183  1.00  0.00    -0.344 N 
ATOM     58  C   UNL     1      -0.347 -14.178  10.305  1.00  0.00     0.220 C 
ATOM     59  O   UNL     1      -1.432 -13.946   9.782  1.00  0.00    -0.275 OA
ATOM     60  H   UNL     1       1.637 -13.617  10.549  1.00  0.00     0.164 HD
BRANCH  58  61
ATOM     61  C   UNL     1      -0.070 -15.388  11.177  1.00  0.00     0.100 C 
BRANCH  61  62
ATOM     62  C   UNL     1      -0.999 -15.504  12.385  1.00  0.00     0.010 C 
BRANCH  62  63
ATOM     63  C   UNL     1      -2.258 -16.342  12.131  1.00  0.00     0.000 C 
BRANCH  63  64
ATOM     64  C   UNL     1      -3.052 -16.680  13.392  1.00  0.00    -0.003 C 
ATOM     65  C   UNL     1      -2.922 -18.153  13.752  1.00  0.00     0.004 C 
ENDBRANCH  63  64
ENDBRANCH  62  63
ENDBRANCH  61  62
ENDBRANCH  58  61
ENDBRANCH  56  57
BRANCH  56  66
ATOM     66  C   UNL     1       0.822 -12.465   7.857  1.00  0.00     0.157 C 
BRANCH  66  67
ATOM     67  C   UNL     1      -0.432 -12.106   7.114  1.00  0.00     0.305 C 
ATOM     68  O   UNL     1      -0.586 -12.085   5.902  1.00  0.00    -0.252 OA
BRANCH  67  69
ATOM     69  O   UNL     1      -1.460 -11.839   7.943  1.00  0.00    -0.481 OA
ATOM     70  H   UNL     1      -1.626 -10.879   7.833  1.00  0.00     0.296 HD
ENDBRANCH  67  69
ENDBRANCH  66  67
ENDBRANCH  56  66
ENDBRANCH  53  56
ENDBRANCH  50  52
ENDBRANCH  47  50
ENDBRANCH  45  46
BRANCH  45  71
ATOM     71  C   UNL     1      -0.659  -6.583  12.624  1.00  0.00     0.037 C 
BRANCH  71  72
ATOM     72  C   UNL     1      -0.676  -5.071  12.383  1.00  0.00     0.026 C 
BRANCH  72  73
ATOM     73  C   UNL     1      -0.150  -4.719  10.994  1.00  0.00     0.146 C 
BRANCH  73  74
ATOM     74  N   UNL     1      -1.116  -3.824  10.364  1.00  0.00    -0.254 NA
ATOM     75  C   UNL     1      -1.606  -4.173   9.232  1.00  0.00     0.185 C 
ATOM     76  N   UNL     1      -2.499  -3.371   8.628  1.00  0.00    -0.370 N 
ATOM     77  N   UNL     1      -1.358  -5.278   8.508  1.00  0.00    -0.370 N 
ATOM     78  H   UNL     1      -2.736  -2.512   9.103  1.00  0.00     0.159 HD
ATOM     79  H   UNL     1      -2.813  -3.505   7.684  1.00  0.00     0.159 HD
ATOM     80  H   UNL     1      -0.709  -5.975   8.841  1.00  0.00     0.159 HD
ATOM     81  H   UNL     1      -1.893  -5.501   7.685  1.00  0.00     0.159 HD
ENDBRANCH  73  74
ENDBRANCH  72  73
ENDBRANCH  71  72
ENDBRANCH  45  71
ENDBRANCH   3  45
TORSDOF 20
ENDMDL
MODEL 31
REMARK VINA RESULT:    -4.522      3.294     10.117
REMARK INTER + INTRA:         -19.732
REMARK INTER:                 -16.599
REMARK INTRA:                  -3.133
REMARK UNBOUND:                -6.750
REMARK SMILES CCCCCC(=O)N[C@H](CC(=O)O)C(=O)N[C@H]1C(=O)N[C@H](CCCN=C(N)N)C(=O)N[C@@H]2CC[C@H](O)N(C2=O)[C@@H](CC(C)C)C(=O)N(C)[C@@H](Cc2ccccc2)C(=O)N[C@H](C(C)C)C(=O)O[C@@H]1C
REMARK SMILES IDX 30 1 31 2 29 3 32 5 35 6 37 7 34 8 38 9 33 10 39 11 36 12
REMARK SMILES IDX 40 14 41 15 42 16 43 17 44 18 45 19 46 20 47 21 48 22 49 23
REMARK SMILES IDX 50 24 51 25 52 26 56 27 53 28 55 29 54 30 57 31 58 32 59 33
REMARK SMILES IDX 60 35 61 36 62 37 63 38 64 39 65 40 66 41 67 42 68 43 21 45
REMARK SMILES IDX 20 46 18 47 19 48 17 50 16 52 14 53 15 54 9 56 8 57 6 58
REMARK SMILES IDX 7 59 5 61 4 62 3 63 2 64 1 65 10 66 11 67 12 68 13 69 22 71
REMARK SMILES IDX 23 72 24 73 25 74 26 75 27 76 28 77
REMARK H PARENT 31 4 36 13 59 34 20 49 16 55 8 60 13 70 27 78 27 79 28 80
REMARK H PARENT 28 81
REMARK Flexibility Score:  259.900
ROOT
ATOM      1  O   UNL     1     -12.545 -10.105   5.612  1.00  0.00    -0.273 OA
ATOM      2  N   UNL     1     -13.679 -11.040   3.860  1.00  0.00    -0.343 N 
ATOM      3  C   UNL     1     -13.341 -10.946   5.193  1.00  0.00     0.243 C 
ATOM      4  H   UNL     1     -14.349 -11.735   3.553  1.00  0.00     0.164 HD
ENDROOT
BRANCH   2   5
ATOM      5  C   UNL     1     -13.007 -10.213   2.863  1.00  0.00     0.171 C 
ATOM      6  C   UNL     1     -12.876 -10.342  -0.030  1.00  0.00     0.214 C 
ATOM      7  N   UNL     1     -11.876 -11.023   0.757  1.00  0.00    -0.303 N 
ATOM      8  C   UNL     1     -13.433  -9.101   0.649  1.00  0.00     0.057 C 
ATOM      9  C   UNL     1     -11.908 -11.045   2.142  1.00  0.00     0.247 C 
ATOM     10  C   UNL     1     -14.021  -9.472   1.993  1.00  0.00     0.040 C 
ATOM     11  O   UNL     1     -11.097 -11.703   2.807  1.00  0.00    -0.272 OA
BRANCH   6  12
ATOM     12  O   UNL     1     -13.910 -11.260  -0.302  1.00  0.00    -0.373 OA
ATOM     13  H   UNL     1     -14.566 -11.176   0.422  1.00  0.00     0.213 HD
ENDBRANCH   6  12
BRANCH   7  14
ATOM     14  C   UNL     1     -10.881 -11.833   0.022  1.00  0.00     0.177 C 
BRANCH  14  15
ATOM     15  C   UNL     1     -11.160 -12.006  -1.484  1.00  0.00     0.038 C 
BRANCH  15  16
ATOM     16  C   UNL     1     -10.073 -12.621  -2.394  1.00  0.00    -0.015 C 
ATOM     17  C   UNL     1     -10.286 -12.280  -3.871  1.00  0.00     0.007 C 
ATOM     18  C   UNL     1     -10.078 -14.148  -2.248  1.00  0.00     0.007 C 
ENDBRANCH  15  16
ENDBRANCH  14  15
BRANCH  14  19
ATOM     19  C   UNL     1      -9.462 -11.670   0.668  1.00  0.00     0.245 C 
ATOM     20  O   UNL     1      -8.952 -10.538   0.619  1.00  0.00    -0.272 OA
BRANCH  19  21
ATOM     21  N   UNL     1      -8.721 -12.722   1.177  1.00  0.00    -0.332 N 
ATOM     22  C   UNL     1      -7.322 -12.983   0.892  1.00  0.00     0.147 C 
BRANCH  21  23
ATOM     23  C   UNL     1      -9.407 -13.680   2.087  1.00  0.00     0.178 C 
BRANCH  23  24
ATOM     24  C   UNL     1      -9.950 -14.949   1.398  1.00  0.00     0.070 C 
BRANCH  24  25
ATOM     25  C   UNL     1     -11.239 -15.526   1.935  1.00  0.00    -0.045 A 
ATOM     26  C   UNL     1     -11.250 -16.751   2.613  1.00  0.00     0.004 A 
ATOM     27  C   UNL     1     -12.450 -14.839   1.756  1.00  0.00     0.004 A 
ATOM     28  C   UNL     1     -12.448 -17.286   3.090  1.00  0.00     0.000 A 
ATOM     29  C   UNL     1     -13.647 -15.374   2.235  1.00  0.00     0.000 A 
ATOM     30  C   UNL     1     -13.645 -16.599   2.899  1.00  0.00     0.000 A 
ENDBRANCH  24  25
ENDBRANCH  23  24
BRANCH  23  31
ATOM     31  C   UNL     1      -8.625 -13.934   3.398  1.00  0.00     0.243 C 
ATOM     32  O   UNL     1      -7.944 -13.085   3.967  1.00  0.00    -0.273 OA
ATOM     33  N   UNL     1      -8.605 -15.264   3.781  1.00  0.00    -0.341 N 
ATOM     34  H   UNL     1      -9.188 -15.927   3.264  1.00  0.00     0.164 HD
BRANCH  33  35
ATOM     35  C   UNL     1      -7.828 -15.756   4.923  1.00  0.00     0.194 C 
BRANCH  35  36
ATOM     36  C   UNL     1      -6.759 -16.822   4.552  1.00  0.00     0.017 C 
ATOM     37  C   UNL     1      -5.599 -16.197   3.757  1.00  0.00     0.010 C 
ATOM     38  C   UNL     1      -7.322 -17.975   3.712  1.00  0.00     0.010 C 
ENDBRANCH  35  36
BRANCH  35  39
ATOM     39  C   UNL     1      -8.727 -16.221   6.102  1.00  0.00     0.329 C 
ATOM     40  O   UNL     1      -9.012 -17.392   6.327  1.00  0.00    -0.250 OA
BRANCH  39  41
ATOM     41  O   UNL     1      -9.097 -15.185   6.915  1.00  0.00    -0.458 OA
BRANCH  41  42
ATOM     42  C   UNL     1     -10.075 -14.265   6.375  1.00  0.00     0.205 CG0
ATOM     43  C   UNL     1      -9.720 -12.872   6.891  1.00  0.00     0.056 C 
ATOM     44  G   UNL     1     -11.478 -14.719   6.823  1.00  0.00     0.000 G0
ENDBRANCH  41  42
ENDBRANCH  39  41
ENDBRANCH  35  39
ENDBRANCH  33  35
ENDBRANCH  23  31
ENDBRANCH  21  23
ENDBRANCH  19  21
ENDBRANCH  14  19
ENDBRANCH   7  14
ENDBRANCH   2   5
BRANCH   3  45
ATOM     45  C   UNL     1     -14.042 -11.947   6.121  1.00  0.00     0.171 C 
BRANCH  45  46
ATOM     46  N   UNL     1     -13.230 -13.155   6.082  1.00  0.00    -0.342 N 
ATOM     47  C   UNL     1     -12.350 -13.484   7.083  1.00  0.00     0.247 C 
ATOM     48  O   UNL     1     -12.237 -12.824   8.116  1.00  0.00    -0.273 OA
ATOM     49  H   UNL     1     -13.334 -13.760   5.269  1.00  0.00     0.164 HD
BRANCH  47  50
ATOM     50  C   UNL     1     -11.491 -14.727   6.811  1.00  0.00     0.212 CG0
ATOM     51  G   UNL     1     -10.083 -14.243   6.411  1.00  0.00     0.000 G0
BRANCH  50  52
ATOM     52  N   UNL     1     -11.507 -15.491   8.055  1.00  0.00    -0.339 N 
ATOM     53  C   UNL     1     -11.915 -16.800   8.133  1.00  0.00     0.243 C 
ATOM     54  O   UNL     1     -12.351 -17.416   7.164  1.00  0.00    -0.273 OA
ATOM     55  H   UNL     1     -11.262 -15.002   8.914  1.00  0.00     0.164 HD
BRANCH  53  56
ATOM     56  C   UNL     1     -11.927 -17.370   9.566  1.00  0.00     0.182 C 
BRANCH  56  57
ATOM     57  N   UNL     1     -10.568 -17.685  10.018  1.00  0.00    -0.344 N 
ATOM     58  C   UNL     1      -9.793 -18.642   9.411  1.00  0.00     0.220 C 
ATOM     59  O   UNL     1     -10.206 -19.350   8.498  1.00  0.00    -0.275 OA
ATOM     60  H   UNL     1     -10.153 -17.056  10.701  1.00  0.00     0.164 HD
BRANCH  58  61
ATOM     61  C   UNL     1      -8.402 -18.758  10.007  1.00  0.00     0.100 C 
BRANCH  61  62
ATOM     62  C   UNL     1      -7.858 -17.441  10.562  1.00  0.00     0.010 C 
BRANCH  62  63
ATOM     63  C   UNL     1      -6.331 -17.402  10.703  1.00  0.00     0.000 C 
BRANCH  63  64
ATOM     64  C   UNL     1      -5.694 -16.086  10.260  1.00  0.00    -0.003 C 
ATOM     65  C   UNL     1      -6.201 -15.657   8.891  1.00  0.00     0.004 C 
ENDBRANCH  63  64
ENDBRANCH  62  63
ENDBRANCH  61  62
ENDBRANCH  58  61
ENDBRANCH  56  57
BRANCH  56  66
ATOM     66  C   UNL     1     -12.866 -18.569   9.684  1.00  0.00     0.157 C 
BRANCH  66  67
ATOM     67  C   UNL     1     -14.194 -18.165  10.255  1.00  0.00     0.305 C 
ATOM     68  O   UNL     1     -15.280 -18.673  10.015  1.00  0.00    -0.252 OA
BRANCH  67  69
ATOM     69  O   UNL     1     -14.084 -17.164  11.148  1.00  0.00    -0.481 OA
ATOM     70  H   UNL     1     -14.826 -17.305  11.774  1.00  0.00     0.296 HD
ENDBRANCH  67  69
ENDBRANCH  66  67
ENDBRANCH  56  66
ENDBRANCH  53  56
ENDBRANCH  50  52
ENDBRANCH  47  50
ENDBRANCH  45  46
BRANCH  45  71
ATOM     71  C   UNL     1     -15.473 -12.211   5.638  1.00  0.00     0.037 C 
BRANCH  71  72
ATOM     72  C   UNL     1     -15.795 -13.706   5.584  1.00  0.00     0.026 C 
BRANCH  72  73
ATOM     73  C   UNL     1     -16.774 -14.028   4.457  1.00  0.00     0.146 C 
BRANCH  73  74
ATOM     74  N   UNL     1     -16.131 -13.681   3.194  1.00  0.00    -0.254 NA
ATOM     75  C   UNL     1     -16.637 -12.724   2.507  1.00  0.00     0.185 C 
ATOM     76  N   UNL     1     -16.067 -12.380   1.341  1.00  0.00    -0.370 N 
ATOM     77  N   UNL     1     -17.711 -11.963   2.782  1.00  0.00    -0.370 N 
ATOM     78  H   UNL     1     -15.256 -12.909   1.055  1.00  0.00     0.159 HD
ATOM     79  H   UNL     1     -16.487 -11.746   0.685  1.00  0.00     0.159 HD
ATOM     80  H   UNL     1     -18.238 -12.106   3.630  1.00  0.00     0.159 HD
ATOM     81  H   UNL     1     -17.947 -11.161   2.221  1.00  0.00     0.159 HD
ENDBRANCH  73  74
ENDBRANCH  72  73
ENDBRANCH  71  72
ENDBRANCH  45  71
ENDBRANCH   3  45
TORSDOF 20
ENDMDL
MODEL 32
REMARK VINA RESULT:    -4.518      3.484      9.172
REMARK INTER + INTRA:         -19.721
REMARK INTER:                 -16.043
REMARK INTRA:                  -3.678
REMARK UNBOUND:                -6.750
REMARK SMILES CCCCCC(=O)N[C@H](CC(=O)O)C(=O)N[C@H]1C(=O)N[C@H](CCCN=C(N)N)C(=O)N[C@@H]2CC[C@H](O)N(C2=O)[C@@H](CC(C)C)C(=O)N(C)[C@@H](Cc2ccccc2)C(=O)N[C@H](C(C)C)C(=O)O[C@@H]1C
REMARK SMILES IDX 30 1 31 2 29 3 32 5 35 6 37 7 34 8 38 9 33 10 39 11 36 12
REMARK SMILES IDX 40 14 41 15 42 16 43 17 44 18 45 19 46 20 47 21 48 22 49 23
REMARK SMILES IDX 50 24 51 25 52 26 56 27 53 28 55 29 54 30 57 31 58 32 59 33
REMARK SMILES IDX 60 35 61 36 62 37 63 38 64 39 65 40 66 41 67 42 68 43 21 45
REMARK SMILES IDX 20 46 18 47 19 48 17 50 16 52 14 53 15 54 9 56 8 57 6 58
REMARK SMILES IDX 7 59 5 61 4 62 3 63 2 64 1 65 10 66 11 67 12 68 13 69 22 71
REMARK SMILES IDX 23 72 24 73 25 74 26 75 27 76 28 77
REMARK H PARENT 31 4 36 13 59 34 20 49 16 55 8 60 13 70 27 78 27 79 28 80
REMARK H PARENT 28 81
REMARK Flexibility Score:  259.900
ROOT
ATOM      1  O   UNL     1     -12.932 -13.257   1.107  1.00  0.00    -0.273 OA
ATOM      2  N   UNL     1     -12.602 -15.238   2.201  1.00  0.00    -0.343 N 
ATOM      3  C   UNL     1     -12.299 -14.306   1.232  1.00  0.00     0.243 C 
ATOM      4  H   UNL     1     -12.050 -16.084   2.283  1.00  0.00     0.164 HD
ENDROOT
BRANCH   2   5
ATOM      5  C   UNL     1     -13.774 -15.070   3.052  1.00  0.00     0.171 C 
ATOM      6  C   UNL     1     -15.738 -12.952   3.295  1.00  0.00     0.214 C 
ATOM      7  N   UNL     1     -14.555 -12.922   4.124  1.00  0.00    -0.303 N 
ATOM      8  C   UNL     1     -16.183 -14.359   2.931  1.00  0.00     0.057 C 
ATOM      9  C   UNL     1     -13.554 -13.875   4.023  1.00  0.00     0.247 C 
ATOM     10  C   UNL     1     -15.059 -15.086   2.225  1.00  0.00     0.040 C 
ATOM     11  O   UNL     1     -12.505 -13.795   4.675  1.00  0.00    -0.272 OA
BRANCH   6  12
ATOM     12  O   UNL     1     -15.467 -12.205   2.132  1.00  0.00    -0.373 OA
ATOM     13  H   UNL     1     -14.801 -11.526   2.374  1.00  0.00     0.213 HD
ENDBRANCH   6  12
BRANCH   7  14
ATOM     14  C   UNL     1     -14.377 -11.742   4.996  1.00  0.00     0.177 C 
BRANCH  14  15
ATOM     15  C   UNL     1     -15.340 -10.571   4.721  1.00  0.00     0.038 C 
BRANCH  15  16
ATOM     16  C   UNL     1     -14.853  -9.120   4.926  1.00  0.00    -0.015 C 
ATOM     17  C   UNL     1     -15.994  -8.166   5.288  1.00  0.00     0.007 C 
ATOM     18  C   UNL     1     -14.189  -8.610   3.641  1.00  0.00     0.007 C 
ENDBRANCH  15  16
ENDBRANCH  14  15
BRANCH  14  19
ATOM     19  C   UNL     1     -13.867 -12.184   6.411  1.00  0.00     0.245 C 
ATOM     20  O   UNL     1     -14.702 -12.706   7.169  1.00  0.00    -0.272 OA
BRANCH  19  21
ATOM     21  N   UNL     1     -12.594 -11.926   6.887  1.00  0.00    -0.332 N 
ATOM     22  C   UNL     1     -11.800 -12.828   7.703  1.00  0.00     0.147 C 
BRANCH  21  23
ATOM     23  C   UNL     1     -11.979 -10.612   6.552  1.00  0.00     0.178 C 
BRANCH  23  24
ATOM     24  C   UNL     1     -11.788  -9.663   7.753  1.00  0.00     0.070 C 
BRANCH  24  25
ATOM     25  C   UNL     1     -12.970  -8.811   8.152  1.00  0.00    -0.045 A 
ATOM     26  C   UNL     1     -12.879  -7.413   8.156  1.00  0.00     0.004 A 
ATOM     27  C   UNL     1     -14.180  -9.413   8.531  1.00  0.00     0.004 A 
ATOM     28  C   UNL     1     -13.971  -6.634   8.542  1.00  0.00     0.000 A 
ATOM     29  C   UNL     1     -15.271  -8.632   8.916  1.00  0.00     0.000 A 
ATOM     30  C   UNL     1     -15.165  -7.243   8.924  1.00  0.00     0.000 A 
ENDBRANCH  24  25
ENDBRANCH  23  24
BRANCH  23  31
ATOM     31  C   UNL     1     -10.749 -10.740   5.622  1.00  0.00     0.243 C 
ATOM     32  O   UNL     1      -9.586 -10.717   6.014  1.00  0.00    -0.273 OA
ATOM     33  N   UNL     1     -11.068 -10.699   4.275  1.00  0.00    -0.341 N 
ATOM     34  H   UNL     1     -12.056 -10.715   4.009  1.00  0.00     0.164 HD
BRANCH  33  35
ATOM     35  C   UNL     1     -10.056 -10.685   3.215  1.00  0.00     0.194 C 
BRANCH  35  36
ATOM     36  C   UNL     1     -10.629 -10.911   1.787  1.00  0.00     0.017 C 
ATOM     37  C   UNL     1      -9.600 -10.539   0.706  1.00  0.00     0.010 C 
ATOM     38  C   UNL     1     -11.900 -10.098   1.511  1.00  0.00     0.010 C 
ENDBRANCH  35  36
BRANCH  35  39
ATOM     39  C   UNL     1      -8.861 -11.632   3.517  1.00  0.00     0.329 C 
ATOM     40  O   UNL     1      -7.845 -11.288   4.109  1.00  0.00    -0.250 OA
BRANCH  39  41
ATOM     41  O   UNL     1      -9.106 -12.919   3.124  1.00  0.00    -0.458 OA
BRANCH  41  42
ATOM     42  C   UNL     1      -7.949 -13.707   2.754  1.00  0.00     0.205 CG0
ATOM     43  C   UNL     1      -7.563 -13.307   1.331  1.00  0.00     0.056 C 
ATOM     44  G   UNL     1      -8.314 -15.201   2.867  1.00  0.00     0.000 G0
ENDBRANCH  41  42
ENDBRANCH  39  41
ENDBRANCH  35  39
ENDBRANCH  33  35
ENDBRANCH  23  31
ENDBRANCH  21  23
ENDBRANCH  19  21
ENDBRANCH  14  19
ENDBRANCH   7  14
ENDBRANCH   2   5
BRANCH   3  45
ATOM     45  C   UNL     1     -11.106 -14.656   0.333  1.00  0.00     0.171 C 
BRANCH  45  46
ATOM     46  N   UNL     1      -9.926 -14.538   1.180  1.00  0.00    -0.342 N 
ATOM     47  C   UNL     1      -9.479 -15.569   1.967  1.00  0.00     0.247 C 
ATOM     48  O   UNL     1      -9.995 -16.688   1.960  1.00  0.00    -0.273 OA
ATOM     49  H   UNL     1      -9.436 -13.646   1.173  1.00  0.00     0.164 HD
BRANCH  47  50
ATOM     50  C   UNL     1      -8.298 -15.222   2.885  1.00  0.00     0.212 CG0
ATOM     51  G   UNL     1      -7.993 -13.721   2.706  1.00  0.00     0.000 G0
BRANCH  50  52
ATOM     52  N   UNL     1      -8.740 -15.564   4.234  1.00  0.00    -0.339 N 
ATOM     53  C   UNL     1      -8.281 -16.660   4.924  1.00  0.00     0.243 C 
ATOM     54  O   UNL     1      -7.500 -17.471   4.435  1.00  0.00    -0.273 OA
ATOM     55  H   UNL     1      -9.471 -14.992   4.652  1.00  0.00     0.164 HD
BRANCH  53  56
ATOM     56  C   UNL     1      -8.955 -16.865   6.296  1.00  0.00     0.182 C 
BRANCH  56  57
ATOM     57  N   UNL     1     -10.165 -17.684   6.171  1.00  0.00    -0.344 N 
ATOM     58  C   UNL     1     -10.133 -19.056   6.216  1.00  0.00     0.220 C 
ATOM     59  O   UNL     1      -9.088 -19.693   6.290  1.00  0.00    -0.275 OA
ATOM     60  H   UNL     1     -11.057 -17.197   6.211  1.00  0.00     0.164 HD
BRANCH  58  61
ATOM     61  C   UNL     1     -11.507 -19.693   6.126  1.00  0.00     0.100 C 
BRANCH  61  62
ATOM     62  C   UNL     1     -12.591 -18.933   6.892  1.00  0.00     0.010 C 
BRANCH  62  63
ATOM     63  C   UNL     1     -12.814 -19.432   8.325  1.00  0.00     0.000 C 
BRANCH  63  64
ATOM     64  C   UNL     1     -11.909 -18.775   9.366  1.00  0.00    -0.003 C 
ATOM     65  C   UNL     1     -12.201 -17.286   9.494  1.00  0.00     0.004 C 
ENDBRANCH  63  64
ENDBRANCH  62  63
ENDBRANCH  61  62
ENDBRANCH  58  61
ENDBRANCH  56  57
BRANCH  56  66
ATOM     66  C   UNL     1      -9.230 -15.531   6.990  1.00  0.00     0.157 C 
BRANCH  66  67
ATOM     67  C   UNL     1      -8.599 -15.486   8.351  1.00  0.00     0.305 C 
ATOM     68  O   UNL     1      -8.021 -14.538   8.860  1.00  0.00    -0.252 OA
BRANCH  67  69
ATOM     69  O   UNL     1      -8.775 -16.633   9.035  1.00  0.00    -0.481 OA
ATOM     70  H   UNL     1      -9.260 -17.221   8.417  1.00  0.00     0.296 HD
ENDBRANCH  67  69
ENDBRANCH  66  67
ENDBRANCH  56  66
ENDBRANCH  53  56
ENDBRANCH  50  52
ENDBRANCH  47  50
ENDBRANCH  45  46
BRANCH  45  71
ATOM     71  C   UNL     1     -11.040 -13.701  -0.864  1.00  0.00     0.037 C 
BRANCH  71  72
ATOM     72  C   UNL     1     -10.323 -14.328  -2.062  1.00  0.00     0.026 C 
BRANCH  72  73
ATOM     73  C   UNL     1      -9.578 -13.277  -2.882  1.00  0.00     0.146 C 
BRANCH  73  74
ATOM     74  N   UNL     1      -8.212 -13.199  -2.372  1.00  0.00    -0.254 NA
ATOM     75  C   UNL     1      -7.332 -13.969  -2.896  1.00  0.00     0.185 C 
ATOM     76  N   UNL     1      -6.067 -13.920  -2.449  1.00  0.00    -0.370 N 
ATOM     77  N   UNL     1      -7.479 -14.873  -3.881  1.00  0.00    -0.370 N 
ATOM     78  H   UNL     1      -5.871 -13.270  -1.702  1.00  0.00     0.159 HD
ATOM     79  H   UNL     1      -5.362 -14.588  -2.708  1.00  0.00     0.159 HD
ATOM     80  H   UNL     1      -8.378 -15.016  -4.317  1.00  0.00     0.159 HD
ATOM     81  H   UNL     1      -6.688 -15.341  -4.291  1.00  0.00     0.159 HD
ENDBRANCH  73  74
ENDBRANCH  72  73
ENDBRANCH  71  72
ENDBRANCH  45  71
ENDBRANCH   3  45
TORSDOF 20
ENDMDL
MODEL 33
REMARK VINA RESULT:    -4.512      4.633     11.169
REMARK INTER + INTRA:         -19.703
REMARK INTER:                 -16.994
REMARK INTRA:                  -2.710
REMARK UNBOUND:                -6.750
REMARK SMILES CCCCCC(=O)N[C@H](CC(=O)O)C(=O)N[C@H]1C(=O)N[C@H](CCCN=C(N)N)C(=O)N[C@@H]2CC[C@H](O)N(C2=O)[C@@H](CC(C)C)C(=O)N(C)[C@@H](Cc2ccccc2)C(=O)N[C@H](C(C)C)C(=O)O[C@@H]1C
REMARK SMILES IDX 30 1 31 2 29 3 32 5 35 6 37 7 34 8 38 9 33 10 39 11 36 12
REMARK SMILES IDX 40 14 41 15 42 16 43 17 44 18 45 19 46 20 47 21 48 22 49 23
REMARK SMILES IDX 50 24 51 25 52 26 56 27 53 28 55 29 54 30 57 31 58 32 59 33
REMARK SMILES IDX 60 35 61 36 62 37 63 38 64 39 65 40 66 41 67 42 68 43 21 45
REMARK SMILES IDX 20 46 18 47 19 48 17 50 16 52 14 53 15 54 9 56 8 57 6 58
REMARK SMILES IDX 7 59 5 61 4 62 3 63 2 64 1 65 10 66 11 67 12 68 13 69 22 71
REMARK SMILES IDX 23 72 24 73 25 74 26 75 27 76 28 77
REMARK H PARENT 31 4 36 13 59 34 20 49 16 55 8 60 13 70 27 78 27 79 28 80
REMARK H PARENT 28 81
REMARK Flexibility Score:  259.900
ROOT
ATOM      1  O   UNL     1     -12.542 -15.343   3.004  1.00  0.00    -0.273 OA
ATOM      2  N   UNL     1     -13.897 -16.601   4.350  1.00  0.00    -0.343 N 
ATOM      3  C   UNL     1     -12.667 -16.221   3.859  1.00  0.00     0.243 C 
ATOM      4  H   UNL     1     -13.960 -17.316   5.064  1.00  0.00     0.164 HD
ENDROOT
BRANCH   2   5
ATOM      5  C   UNL     1     -15.125 -16.055   3.782  1.00  0.00     0.171 C 
ATOM      6  C   UNL     1     -15.627 -14.003   1.797  1.00  0.00     0.214 C 
ATOM      7  N   UNL     1     -15.561 -13.640   3.194  1.00  0.00    -0.303 N 
ATOM      8  C   UNL     1     -16.130 -15.419   1.567  1.00  0.00     0.057 C 
ATOM      9  C   UNL     1     -15.275 -14.561   4.188  1.00  0.00     0.247 C 
ATOM     10  C   UNL     1     -15.244 -16.403   2.299  1.00  0.00     0.040 C 
ATOM     11  O   UNL     1     -15.135 -14.227   5.372  1.00  0.00    -0.272 OA
BRANCH   6  12
ATOM     12  O   UNL     1     -14.339 -13.843   1.250  1.00  0.00    -0.373 OA
ATOM     13  H   UNL     1     -14.083 -14.706   0.861  1.00  0.00     0.213 HD
ENDBRANCH   6  12
BRANCH   7  14
ATOM     14  C   UNL     1     -15.668 -12.201   3.518  1.00  0.00     0.177 C 
BRANCH  14  15
ATOM     15  C   UNL     1     -14.814 -11.733   4.712  1.00  0.00     0.038 C 
BRANCH  15  16
ATOM     16  C   UNL     1     -15.490 -10.994   5.888  1.00  0.00    -0.015 C 
ATOM     17  C   UNL     1     -15.356  -9.473   5.777  1.00  0.00     0.007 C 
ATOM     18  C   UNL     1     -14.856 -11.437   7.213  1.00  0.00     0.007 C 
ENDBRANCH  15  16
ENDBRANCH  14  15
BRANCH  14  19
ATOM     19  C   UNL     1     -15.942 -11.370   2.218  1.00  0.00     0.245 C 
ATOM     20  O   UNL     1     -17.088 -11.437   1.742  1.00  0.00    -0.272 OA
BRANCH  19  21
ATOM     21  N   UNL     1     -14.966 -10.673   1.528  1.00  0.00    -0.332 N 
ATOM     22  C   UNL     1     -14.257 -11.153   0.356  1.00  0.00     0.147 C 
BRANCH  21  23
ATOM     23  C   UNL     1     -14.595  -9.319   2.025  1.00  0.00     0.178 C 
BRANCH  23  24
ATOM     24  C   UNL     1     -15.732  -8.559   2.738  1.00  0.00     0.070 C 
BRANCH  24  25
ATOM     25  C   UNL     1     -16.194  -7.265   2.109  1.00  0.00    -0.045 A 
ATOM     26  C   UNL     1     -16.374  -7.165   0.723  1.00  0.00     0.004 A 
ATOM     27  C   UNL     1     -16.446  -6.140   2.908  1.00  0.00     0.004 A 
ATOM     28  C   UNL     1     -16.786  -5.961   0.148  1.00  0.00     0.000 A 
ATOM     29  C   UNL     1     -16.858  -4.937   2.331  1.00  0.00     0.000 A 
ATOM     30  C   UNL     1     -17.025  -4.848   0.951  1.00  0.00     0.000 A 
ENDBRANCH  24  25
ENDBRANCH  23  24
BRANCH  23  31
ATOM     31  C   UNL     1     -13.235  -9.300   2.764  1.00  0.00     0.243 C 
ATOM     32  O   UNL     1     -12.733  -8.290   3.251  1.00  0.00    -0.273 OA
ATOM     33  N   UNL     1     -12.537 -10.491   2.668  1.00  0.00    -0.341 N 
ATOM     34  H   UNL     1     -13.006 -11.296   2.246  1.00  0.00     0.164 HD
BRANCH  33  35
ATOM     35  C   UNL     1     -11.178 -10.665   3.189  1.00  0.00     0.194 C 
BRANCH  35  36
ATOM     36  C   UNL     1     -10.307 -11.660   2.372  1.00  0.00     0.017 C 
ATOM     37  C   UNL     1      -9.287 -10.918   1.491  1.00  0.00     0.010 C 
ATOM     38  C   UNL     1     -11.131 -12.571   1.453  1.00  0.00     0.010 C 
ENDBRANCH  35  36
BRANCH  35  39
ATOM     39  C   UNL     1     -11.157 -10.988   4.709  1.00  0.00     0.329 C 
ATOM     40  O   UNL     1     -11.912 -10.479   5.530  1.00  0.00    -0.250 OA
BRANCH  39  41
ATOM     41  O   UNL     1     -10.258 -11.971   5.019  1.00  0.00    -0.458 OA
BRANCH  41  42
ATOM     42  C   UNL     1     -10.486 -12.679   6.262  1.00  0.00     0.205 CG0
ATOM     43  C   UNL     1      -9.998 -11.777   7.394  1.00  0.00     0.056 C 
ATOM     44  G   UNL     1      -9.728 -14.020   6.209  1.00  0.00     0.000 G0
ENDBRANCH  41  42
ENDBRANCH  39  41
ENDBRANCH  35  39
ENDBRANCH  33  35
ENDBRANCH  23  31
ENDBRANCH  21  23
ENDBRANCH  19  21
ENDBRANCH  14  19
ENDBRANCH   7  14
ENDBRANCH   2   5
BRANCH   3  45
ATOM     45  C   UNL     1     -11.462 -16.950   4.468  1.00  0.00     0.171 C 
BRANCH  45  46
ATOM     46  N   UNL     1     -10.533 -15.904   4.876  1.00  0.00    -0.342 N 
ATOM     47  C   UNL     1     -10.716 -15.161   6.015  1.00  0.00     0.247 C 
ATOM     48  O   UNL     1     -11.633 -15.370   6.809  1.00  0.00    -0.273 OA
ATOM     49  H   UNL     1      -9.728 -15.736   4.275  1.00  0.00     0.164 HD
BRANCH  47  50
ATOM     50  C   UNL     1      -9.706 -14.022   6.217  1.00  0.00     0.212 CG0
ATOM     51  G   UNL     1     -10.497 -12.701   6.277  1.00  0.00     0.000 G0
BRANCH  50  52
ATOM     52  N   UNL     1      -9.010 -14.336   7.462  1.00  0.00    -0.339 N 
ATOM     53  C   UNL     1      -8.097 -15.356   7.581  1.00  0.00     0.243 C 
ATOM     54  O   UNL     1      -7.834 -16.121   6.657  1.00  0.00    -0.273 OA
ATOM     55  H   UNL     1      -9.267 -13.808   8.293  1.00  0.00     0.164 HD
BRANCH  53  56
ATOM     56  C   UNL     1      -7.558 -15.551   9.013  1.00  0.00     0.182 C 
BRANCH  56  57
ATOM     57  N   UNL     1      -6.464 -14.616   9.295  1.00  0.00    -0.344 N 
ATOM     58  C   UNL     1      -6.686 -13.335   9.739  1.00  0.00     0.220 C 
ATOM     59  O   UNL     1      -7.810 -12.861   9.860  1.00  0.00    -0.275 OA
ATOM     60  H   UNL     1      -5.522 -14.999   9.305  1.00  0.00     0.164 HD
BRANCH  58  61
ATOM     61  C   UNL     1      -5.408 -12.566  10.022  1.00  0.00     0.100 C 
BRANCH  61  62
ATOM     62  C   UNL     1      -4.176 -13.457  10.180  1.00  0.00     0.010 C 
BRANCH  62  63
ATOM     63  C   UNL     1      -3.691 -13.607  11.628  1.00  0.00     0.000 C 
BRANCH  63  64
ATOM     64  C   UNL     1      -2.827 -12.448  12.123  1.00  0.00    -0.003 C 
ATOM     65  C   UNL     1      -2.726 -12.440  13.641  1.00  0.00     0.004 C 
ENDBRANCH  63  64
ENDBRANCH  62  63
ENDBRANCH  61  62
ENDBRANCH  58  61
ENDBRANCH  56  57
BRANCH  56  66
ATOM     66  C   UNL     1      -7.156 -17.002   9.267  1.00  0.00     0.157 C 
BRANCH  66  67
ATOM     67  C   UNL     1      -8.065 -17.650  10.271  1.00  0.00     0.305 C 
ATOM     68  O   UNL     1      -8.836 -18.576  10.071  1.00  0.00    -0.252 OA
BRANCH  67  69
ATOM     69  O   UNL     1      -7.919 -17.130  11.504  1.00  0.00    -0.481 OA
ATOM     70  H   UNL     1      -8.498 -16.339  11.512  1.00  0.00     0.296 HD
ENDBRANCH  67  69
ENDBRANCH  66  67
ENDBRANCH  56  66
ENDBRANCH  53  56
ENDBRANCH  50  52
ENDBRANCH  47  50
ENDBRANCH  45  46
BRANCH  45  71
ATOM     71  C   UNL     1     -10.833 -17.894   3.437  1.00  0.00     0.037 C 
BRANCH  71  72
ATOM     72  C   UNL     1      -9.435 -18.355   3.856  1.00  0.00     0.026 C 
BRANCH  72  73
ATOM     73  C   UNL     1      -8.370 -17.885   2.868  1.00  0.00     0.146 C 
BRANCH  73  74
ATOM     74  N   UNL     1      -8.392 -16.425   2.849  1.00  0.00    -0.254 NA
ATOM     75  C   UNL     1      -7.398 -15.804   3.368  1.00  0.00     0.185 C 
ATOM     76  N   UNL     1      -7.389 -14.461   3.364  1.00  0.00    -0.370 N 
ATOM     77  N   UNL     1      -6.297 -16.309   3.951  1.00  0.00    -0.370 N 
ATOM     78  H   UNL     1      -8.187 -14.000   2.950  1.00  0.00     0.159 HD
ATOM     79  H   UNL     1      -6.723 -13.911   3.876  1.00  0.00     0.159 HD
ATOM     80  H   UNL     1      -6.165 -17.307   4.022  1.00  0.00     0.159 HD
ATOM     81  H   UNL     1      -5.526 -15.722   4.221  1.00  0.00     0.159 HD
ENDBRANCH  73  74
ENDBRANCH  72  73
ENDBRANCH  71  72
ENDBRANCH  45  71
ENDBRANCH   3  45
TORSDOF 20
ENDMDL
MODEL 34
REMARK VINA RESULT:    -4.511     10.898     16.108
REMARK INTER + INTRA:         -19.700
REMARK INTER:                 -14.382
REMARK INTRA:                  -5.319
REMARK UNBOUND:                -6.750
REMARK SMILES CCCCCC(=O)N[C@H](CC(=O)O)C(=O)N[C@H]1C(=O)N[C@H](CCCN=C(N)N)C(=O)N[C@@H]2CC[C@H](O)N(C2=O)[C@@H](CC(C)C)C(=O)N(C)[C@@H](Cc2ccccc2)C(=O)N[C@H](C(C)C)C(=O)O[C@@H]1C
REMARK SMILES IDX 30 1 31 2 29 3 32 5 35 6 37 7 34 8 38 9 33 10 39 11 36 12
REMARK SMILES IDX 40 14 41 15 42 16 43 17 44 18 45 19 46 20 47 21 48 22 49 23
REMARK SMILES IDX 50 24 51 25 52 26 56 27 53 28 55 29 54 30 57 31 58 32 59 33
REMARK SMILES IDX 60 35 61 36 62 37 63 38 64 39 65 40 66 41 67 42 68 43 21 45
REMARK SMILES IDX 20 46 18 47 19 48 17 50 16 52 14 53 15 54 9 56 8 57 6 58
REMARK SMILES IDX 7 59 5 61 4 62 3 63 2 64 1 65 10 66 11 67 12 68 13 69 22 71
REMARK SMILES IDX 23 72 24 73 25 74 26 75 27 76 28 77
REMARK H PARENT 31 4 36 13 59 34 20 49 16 55 8 60 13 70 27 78 27 79 28 80
REMARK H PARENT 28 81
REMARK Flexibility Score:  259.900
ROOT
ATOM      1  O   UNL     1       0.733  -9.959  13.856  1.00  0.00    -0.273 OA
ATOM      2  N   UNL     1      -1.368  -9.363  13.176  1.00  0.00    -0.343 N 
ATOM      3  C   UNL     1      -0.256  -9.235  13.980  1.00  0.00     0.243 C 
ATOM      4  H   UNL     1      -2.157  -8.740  13.296  1.00  0.00     0.164 HD
ENDROOT
BRANCH   2   5
ATOM      5  C   UNL     1      -1.466 -10.453  12.212  1.00  0.00     0.171 C 
ATOM      6  C   UNL     1      -3.566 -11.286  10.395  1.00  0.00     0.214 C 
ATOM      7  N   UNL     1      -3.514 -11.846  11.725  1.00  0.00    -0.303 N 
ATOM      8  C   UNL     1      -2.199 -10.904   9.849  1.00  0.00     0.057 C 
ATOM      9  C   UNL     1      -2.569 -11.455  12.659  1.00  0.00     0.247 C 
ATOM     10  C   UNL     1      -1.532  -9.918  10.782  1.00  0.00     0.040 C 
ATOM     11  O   UNL     1      -2.584 -11.875  13.824  1.00  0.00    -0.272 OA
BRANCH   6  12
ATOM     12  O   UNL     1      -4.412 -10.160  10.435  1.00  0.00    -0.373 OA
ATOM     13  H   UNL     1      -3.835  -9.368  10.472  1.00  0.00     0.213 HD
ENDBRANCH   6  12
BRANCH   7  14
ATOM     14  C   UNL     1      -4.611 -12.760  12.111  1.00  0.00     0.177 C 
BRANCH  14  15
ATOM     15  C   UNL     1      -5.778 -12.099  12.869  1.00  0.00     0.038 C 
BRANCH  15  16
ATOM     16  C   UNL     1      -6.425 -12.837  14.063  1.00  0.00    -0.015 C 
ATOM     17  C   UNL     1      -5.509 -13.915  14.649  1.00  0.00     0.007 C 
ATOM     18  C   UNL     1      -7.730 -13.506  13.614  1.00  0.00     0.007 C 
ENDBRANCH  15  16
ENDBRANCH  14  15
BRANCH  14  19
ATOM     19  C   UNL     1      -4.749 -13.917  11.063  1.00  0.00     0.245 C 
ATOM     20  O   UNL     1      -3.729 -14.588  10.832  1.00  0.00    -0.272 OA
BRANCH  19  21
ATOM     21  N   UNL     1      -5.891 -14.149  10.316  1.00  0.00    -0.332 N 
ATOM     22  C   UNL     1      -6.682 -13.131   9.648  1.00  0.00     0.147 C 
BRANCH  21  23
ATOM     23  C   UNL     1      -6.365 -15.554  10.190  1.00  0.00     0.178 C 
BRANCH  23  24
ATOM     24  C   UNL     1      -7.057 -16.118  11.448  1.00  0.00     0.070 C 
BRANCH  24  25
ATOM     25  C   UNL     1      -6.402 -17.301  12.122  1.00  0.00    -0.045 A 
ATOM     26  C   UNL     1      -6.980 -18.575  12.056  1.00  0.00     0.004 A 
ATOM     27  C   UNL     1      -5.202 -17.137  12.830  1.00  0.00     0.004 A 
ATOM     28  C   UNL     1      -6.377 -19.660  12.695  1.00  0.00     0.000 A 
ATOM     29  C   UNL     1      -4.600 -18.223  13.468  1.00  0.00     0.000 A 
ATOM     30  C   UNL     1      -5.189 -19.483  13.402  1.00  0.00     0.000 A 
ENDBRANCH  24  25
ENDBRANCH  23  24
BRANCH  23  31
ATOM     31  C   UNL     1      -7.112 -15.822   8.861  1.00  0.00     0.243 C 
ATOM     32  O   UNL     1      -6.558 -16.160   7.818  1.00  0.00    -0.273 OA
ATOM     33  N   UNL     1      -8.450 -15.467   8.897  1.00  0.00    -0.341 N 
ATOM     34  H   UNL     1      -8.854 -15.188   9.794  1.00  0.00     0.164 HD
BRANCH  33  35
ATOM     35  C   UNL     1      -9.322 -15.522   7.721  1.00  0.00     0.194 C 
BRANCH  35  36
ATOM     36  C   UNL     1     -10.043 -14.182   7.402  1.00  0.00     0.017 C 
ATOM     37  C   UNL     1      -9.980 -13.857   5.899  1.00  0.00     0.010 C 
ATOM     38  C   UNL     1      -9.452 -12.984   8.155  1.00  0.00     0.010 C 
ENDBRANCH  35  36
BRANCH  35  39
ATOM     39  C   UNL     1     -10.315 -16.717   7.768  1.00  0.00     0.329 C 
ATOM     40  O   UNL     1     -10.035 -17.856   7.413  1.00  0.00    -0.250 OA
BRANCH  39  41
ATOM     41  O   UNL     1     -11.513 -16.376   8.333  1.00  0.00    -0.458 OA
BRANCH  41  42
ATOM     42  C   UNL     1     -12.464 -17.452   8.518  1.00  0.00     0.205 CG0
ATOM     43  C   UNL     1     -12.629 -17.659  10.022  1.00  0.00     0.056 C 
ATOM     44  G   UNL     1     -11.928 -18.710   7.804  1.00  0.00     0.000 G0
ENDBRANCH  41  42
ENDBRANCH  39  41
ENDBRANCH  35  39
ENDBRANCH  33  35
ENDBRANCH  23  31
ENDBRANCH  21  23
ENDBRANCH  19  21
ENDBRANCH  14  19
ENDBRANCH   7  14
ENDBRANCH   2   5
BRANCH   3  45
ATOM     45  C   UNL     1      -0.326  -8.114  15.025  1.00  0.00     0.171 C 
BRANCH  45  46
ATOM     46  N   UNL     1       1.038  -7.619  15.164  1.00  0.00    -0.342 N 
ATOM     47  C   UNL     1       1.332  -6.444  15.809  1.00  0.00     0.247 C 
ATOM     48  O   UNL     1       0.480  -5.762  16.378  1.00  0.00    -0.273 OA
ATOM     49  H   UNL     1       1.781  -8.182  14.755  1.00  0.00     0.164 HD
BRANCH  47  50
ATOM     50  C   UNL     1       2.807  -6.021  15.747  1.00  0.00     0.212 CG0
ATOM     51  G   UNL     1       3.665  -7.286  15.951  1.00  0.00     0.000 G0
BRANCH  50  52
ATOM     52  N   UNL     1       2.983  -5.410  14.433  1.00  0.00    -0.339 N 
ATOM     53  C   UNL     1       3.356  -4.101  14.251  1.00  0.00     0.243 C 
ATOM     54  O   UNL     1       3.520  -3.323  15.188  1.00  0.00    -0.273 OA
ATOM     55  H   UNL     1       2.753  -5.973  13.616  1.00  0.00     0.164 HD
BRANCH  53  56
ATOM     56  C   UNL     1       3.393  -3.657  12.775  1.00  0.00     0.182 C 
BRANCH  56  57
ATOM     57  N   UNL     1       2.278  -4.241  12.022  1.00  0.00    -0.344 N 
ATOM     58  C   UNL     1       1.201  -3.497  11.606  1.00  0.00     0.220 C 
ATOM     59  O   UNL     1       1.060  -2.314  11.897  1.00  0.00    -0.275 OA
ATOM     60  H   UNL     1       2.403  -5.188  11.675  1.00  0.00     0.164 HD
BRANCH  58  61
ATOM     61  C   UNL     1       0.197  -4.294  10.794  1.00  0.00     0.100 C 
BRANCH  61  62
ATOM     62  C   UNL     1      -1.258  -3.917  11.071  1.00  0.00     0.010 C 
BRANCH  62  63
ATOM     63  C   UNL     1      -2.101  -5.057  11.658  1.00  0.00     0.000 C 
BRANCH  63  64
ATOM     64  C   UNL     1      -2.318  -6.231  10.704  1.00  0.00    -0.003 C 
ATOM     65  C   UNL     1      -3.736  -6.774  10.806  1.00  0.00     0.004 C 
ENDBRANCH  63  64
ENDBRANCH  62  63
ENDBRANCH  61  62
ENDBRANCH  58  61
ENDBRANCH  56  57
BRANCH  56  66
ATOM     66  C   UNL     1       4.745  -3.961  12.132  1.00  0.00     0.157 C 
BRANCH  66  67
ATOM     67  C   UNL     1       4.728  -5.290  11.433  1.00  0.00     0.305 C 
ATOM     68  O   UNL     1       4.736  -6.394  11.957  1.00  0.00    -0.252 OA
BRANCH  67  69
ATOM     69  O   UNL     1       4.648  -5.163  10.095  1.00  0.00    -0.481 OA
ATOM     70  H   UNL     1       5.230  -4.403   9.880  1.00  0.00     0.296 HD
ENDBRANCH  67  69
ENDBRANCH  66  67
ENDBRANCH  56  66
ENDBRANCH  53  56
ENDBRANCH  50  52
ENDBRANCH  47  50
ENDBRANCH  45  46
BRANCH  45  71
ATOM     71  C   UNL     1      -0.869  -8.654  16.352  1.00  0.00     0.037 C 
BRANCH  71  72
ATOM     72  C   UNL     1      -2.296  -8.175  16.628  1.00  0.00     0.026 C 
BRANCH  72  73
ATOM     73  C   UNL     1      -2.666  -6.982  15.749  1.00  0.00     0.146 C 
BRANCH  73  74
ATOM     74  N   UNL     1      -4.015  -6.559  16.115  1.00  0.00    -0.254 NA
ATOM     75  C   UNL     1      -4.978  -6.891  15.337  1.00  0.00     0.185 C 
ATOM     76  N   UNL     1      -6.230  -6.517  15.647  1.00  0.00    -0.370 N 
ATOM     77  N   UNL     1      -4.936  -7.595  14.192  1.00  0.00    -0.370 N 
ATOM     78  H   UNL     1      -6.350  -5.976  16.491  1.00  0.00     0.159 HD
ATOM     79  H   UNL     1      -7.008  -6.614  15.018  1.00  0.00     0.159 HD
ATOM     80  H   UNL     1      -4.059  -7.946  13.837  1.00  0.00     0.159 HD
ATOM     81  H   UNL     1      -5.775  -7.894  13.725  1.00  0.00     0.159 HD
ENDBRANCH  73  74
ENDBRANCH  72  73
ENDBRANCH  71  72
ENDBRANCH  45  71
ENDBRANCH   3  45
TORSDOF 20
ENDMDL
MODEL 35
REMARK VINA RESULT:    -4.510     10.867     15.666
REMARK INTER + INTRA:         -19.696
REMARK INTER:                 -14.099
REMARK INTRA:                  -5.597
REMARK UNBOUND:                -6.750
REMARK SMILES CCCCCC(=O)N[C@H](CC(=O)O)C(=O)N[C@H]1C(=O)N[C@H](CCCN=C(N)N)C(=O)N[C@@H]2CC[C@H](O)N(C2=O)[C@@H](CC(C)C)C(=O)N(C)[C@@H](Cc2ccccc2)C(=O)N[C@H](C(C)C)C(=O)O[C@@H]1C
REMARK SMILES IDX 30 1 31 2 29 3 32 5 35 6 37 7 34 8 38 9 33 10 39 11 36 12
REMARK SMILES IDX 40 14 41 15 42 16 43 17 44 18 45 19 46 20 47 21 48 22 49 23
REMARK SMILES IDX 50 24 51 25 52 26 56 27 53 28 55 29 54 30 57 31 58 32 59 33
REMARK SMILES IDX 60 35 61 36 62 37 63 38 64 39 65 40 66 41 67 42 68 43 21 45
REMARK SMILES IDX 20 46 18 47 19 48 17 50 16 52 14 53 15 54 9 56 8 57 6 58
REMARK SMILES IDX 7 59 5 61 4 62 3 63 2 64 1 65 10 66 11 67 12 68 13 69 22 71
REMARK SMILES IDX 23 72 24 73 25 74 26 75 27 76 28 77
REMARK H PARENT 31 4 36 13 59 34 20 49 16 55 8 60 13 70 27 78 27 79 28 80
REMARK H PARENT 28 81
REMARK Flexibility Score:  259.900
ROOT
ATOM      1  O   UNL     1      -4.594 -10.864  12.105  1.00  0.00    -0.273 OA
ATOM      2  N   UNL     1      -3.443 -12.669  12.908  1.00  0.00    -0.343 N 
ATOM      3  C   UNL     1      -4.111 -11.981  11.919  1.00  0.00     0.243 C 
ATOM      4  H   UNL     1      -3.045 -13.580  12.715  1.00  0.00     0.164 HD
ENDROOT
BRANCH   2   5
ATOM      5  C   UNL     1      -3.385 -12.144  14.268  1.00  0.00     0.171 C 
ATOM      6  C   UNL     1      -4.603  -9.840  15.538  1.00  0.00     0.214 C 
ATOM      7  N   UNL     1      -3.297  -9.711  14.935  1.00  0.00    -0.303 N 
ATOM      8  C   UNL     1      -4.884 -11.236  16.071  1.00  0.00     0.057 C 
ATOM      9  C   UNL     1      -2.680 -10.757  14.268  1.00  0.00     0.247 C 
ATOM     10  C   UNL     1      -4.745 -12.249  14.955  1.00  0.00     0.040 C 
ATOM     11  O   UNL     1      -1.600 -10.614  13.680  1.00  0.00    -0.272 OA
BRANCH   6  12
ATOM     12  O   UNL     1      -5.562  -9.481  14.570  1.00  0.00    -0.373 OA
ATOM     13  H   UNL     1      -5.473 -10.116  13.828  1.00  0.00     0.213 HD
ENDBRANCH   6  12
BRANCH   7  14
ATOM     14  C   UNL     1      -2.694  -8.361  14.927  1.00  0.00     0.177 C 
BRANCH  14  15
ATOM     15  C   UNL     1      -3.691  -7.198  14.762  1.00  0.00     0.038 C 
BRANCH  15  16
ATOM     16  C   UNL     1      -3.519  -5.922  15.616  1.00  0.00    -0.015 C 
ATOM     17  C   UNL     1      -4.397  -5.938  16.872  1.00  0.00     0.007 C 
ATOM     18  C   UNL     1      -3.892  -4.688  14.786  1.00  0.00     0.007 C 
ENDBRANCH  15  16
ENDBRANCH  14  15
BRANCH  14  19
ATOM     19  C   UNL     1      -1.409  -8.335  15.824  1.00  0.00     0.245 C 
ATOM     20  O   UNL     1      -1.467  -8.950  16.902  1.00  0.00    -0.272 OA
BRANCH  19  21
ATOM     21  N   UNL     1      -0.282  -7.586  15.536  1.00  0.00    -0.332 N 
ATOM     22  C   UNL     1       0.565  -6.927  16.514  1.00  0.00     0.147 C 
BRANCH  21  23
ATOM     23  C   UNL     1       0.099  -7.425  14.105  1.00  0.00     0.178 C 
BRANCH  23  24
ATOM     24  C   UNL     1       0.400  -5.974  13.676  1.00  0.00     0.070 C 
BRANCH  24  25
ATOM     25  C   UNL     1      -0.354  -5.440  12.481  1.00  0.00    -0.045 A 
ATOM     26  C   UNL     1      -1.586  -5.989  12.105  1.00  0.00     0.004 A 
ATOM     27  C   UNL     1       0.177  -4.384  11.724  1.00  0.00     0.004 A 
ATOM     28  C   UNL     1      -2.268  -5.501  10.989  1.00  0.00     0.000 A 
ATOM     29  C   UNL     1      -0.507  -3.897  10.609  1.00  0.00     0.000 A 
ATOM     30  C   UNL     1      -1.728  -4.458  10.241  1.00  0.00     0.000 A 
ENDBRANCH  24  25
ENDBRANCH  23  24
BRANCH  23  31
ATOM     31  C   UNL     1       1.138  -8.472  13.636  1.00  0.00     0.243 C 
ATOM     32  O   UNL     1       2.172  -8.734  14.246  1.00  0.00    -0.273 OA
ATOM     33  N   UNL     1       0.895  -8.961  12.364  1.00  0.00    -0.341 N 
ATOM     34  H   UNL     1       0.018  -8.702  11.904  1.00  0.00     0.164 HD
BRANCH  33  35
ATOM     35  C   UNL     1       1.809  -9.871  11.670  1.00  0.00     0.194 C 
BRANCH  35  36
ATOM     36  C   UNL     1       2.788  -9.163  10.691  1.00  0.00     0.017 C 
ATOM     37  C   UNL     1       4.232  -9.658  10.889  1.00  0.00     0.010 C 
ATOM     38  C   UNL     1       2.801  -7.638  10.847  1.00  0.00     0.010 C 
ENDBRANCH  35  36
BRANCH  35  39
ATOM     39  C   UNL     1       1.071 -11.060  10.993  1.00  0.00     0.329 C 
ATOM     40  O   UNL     1       1.597 -12.135  10.731  1.00  0.00    -0.250 OA
BRANCH  39  41
ATOM     41  O   UNL     1      -0.259 -10.804  10.801  1.00  0.00    -0.458 OA
BRANCH  41  42
ATOM     42  C   UNL     1      -0.630 -10.278   9.504  1.00  0.00     0.205 CG0
ATOM     43  C   UNL     1      -1.713  -9.226   9.734  1.00  0.00     0.056 C 
ATOM     44  G   UNL     1      -1.119 -11.445   8.623  1.00  0.00     0.000 G0
ENDBRANCH  41  42
ENDBRANCH  39  41
ENDBRANCH  35  39
ENDBRANCH  33  35
ENDBRANCH  23  31
ENDBRANCH  21  23
ENDBRANCH  19  21
ENDBRANCH  14  19
ENDBRANCH   7  14
ENDBRANCH   2   5
BRANCH   3  45
ATOM     45  C   UNL     1      -4.192 -12.694  10.562  1.00  0.00     0.171 C 
BRANCH  45  46
ATOM     46  N   UNL     1      -3.275 -11.977   9.686  1.00  0.00    -0.342 N 
ATOM     47  C   UNL     1      -1.991 -12.405   9.455  1.00  0.00     0.247 C 
ATOM     48  O   UNL     1      -1.546 -13.459   9.911  1.00  0.00    -0.273 OA
ATOM     49  H   UNL     1      -3.622 -11.129   9.242  1.00  0.00     0.164 HD
BRANCH  47  50
ATOM     50  C   UNL     1      -1.133 -11.457   8.605  1.00  0.00     0.212 CG0
ATOM     51  G   UNL     1      -0.675 -10.299   9.514  1.00  0.00     0.000 G0
BRANCH  50  52
ATOM     52  N   UNL     1      -0.028 -12.273   8.108  1.00  0.00    -0.339 N 
ATOM     53  C   UNL     1       0.128 -12.609   6.785  1.00  0.00     0.243 C 
ATOM     54  O   UNL     1      -0.685 -12.292   5.921  1.00  0.00    -0.273 OA
ATOM     55  H   UNL     1       0.619 -12.659   8.792  1.00  0.00     0.164 HD
BRANCH  53  56
ATOM     56  C   UNL     1       1.320 -13.548   6.513  1.00  0.00     0.182 C 
BRANCH  56  57
ATOM     57  N   UNL     1       2.415 -12.832   5.850  1.00  0.00    -0.344 N 
ATOM     58  C   UNL     1       3.291 -12.028   6.538  1.00  0.00     0.220 C 
ATOM     59  O   UNL     1       3.177 -11.795   7.736  1.00  0.00    -0.275 OA
ATOM     60  H   UNL     1       2.605 -13.076   4.882  1.00  0.00     0.164 HD
BRANCH  58  61
ATOM     61  C   UNL     1       4.377 -11.434   5.661  1.00  0.00     0.100 C 
BRANCH  61  62
ATOM     62  C   UNL     1       5.639 -11.036   6.427  1.00  0.00     0.010 C 
BRANCH  62  63
ATOM     63  C   UNL     1       6.944 -11.517   5.780  1.00  0.00     0.000 C 
BRANCH  63  64
ATOM     64  C   UNL     1       7.990 -12.016   6.776  1.00  0.00    -0.003 C 
ATOM     65  C   UNL     1       7.339 -12.697   7.970  1.00  0.00     0.004 C 
ENDBRANCH  63  64
ENDBRANCH  62  63
ENDBRANCH  61  62
ENDBRANCH  58  61
ENDBRANCH  56  57
BRANCH  56  66
ATOM     66  C   UNL     1       0.889 -14.790   5.734  1.00  0.00     0.157 C 
BRANCH  66  67
ATOM     67  C   UNL     1       1.296 -16.048   6.446  1.00  0.00     0.305 C 
ATOM     68  O   UNL     1       1.270 -16.248   7.651  1.00  0.00    -0.252 OA
BRANCH  67  69
ATOM     69  O   UNL     1       1.670 -17.020   5.593  1.00  0.00    -0.481 OA
ATOM     70  H   UNL     1       1.709 -16.583   4.717  1.00  0.00     0.296 HD
ENDBRANCH  67  69
ENDBRANCH  66  67
ENDBRANCH  56  66
ENDBRANCH  53  56
ENDBRANCH  50  52
ENDBRANCH  47  50
ENDBRANCH  45  46
BRANCH  45  71
ATOM     71  C   UNL     1      -5.627 -12.661  10.027  1.00  0.00     0.037 C 
BRANCH  71  72
ATOM     72  C   UNL     1      -6.580 -13.501  10.882  1.00  0.00     0.026 C 
BRANCH  72  73
ATOM     73  C   UNL     1      -6.294 -14.994  10.737  1.00  0.00     0.146 C 
BRANCH  73  74
ATOM     74  N   UNL     1      -6.127 -15.281   9.316  1.00  0.00    -0.254 NA
ATOM     75  C   UNL     1      -7.084 -15.884   8.710  1.00  0.00     0.185 C 
ATOM     76  N   UNL     1      -6.960 -16.161   7.402  1.00  0.00    -0.370 N 
ATOM     77  N   UNL     1      -8.261 -16.307   9.202  1.00  0.00    -0.370 N 
ATOM     78  H   UNL     1      -6.099 -15.882   6.955  1.00  0.00     0.159 HD
ATOM     79  H   UNL     1      -7.598 -16.752   6.899  1.00  0.00     0.159 HD
ATOM     80  H   UNL     1      -8.494 -16.163  10.173  1.00  0.00     0.159 HD
ATOM     81  H   UNL     1      -8.985 -16.667   8.602  1.00  0.00     0.159 HD
ENDBRANCH  73  74
ENDBRANCH  72  73
ENDBRANCH  71  72
ENDBRANCH  45  71
ENDBRANCH   3  45
TORSDOF 20
ENDMDL
MODEL 36
REMARK VINA RESULT:    -4.486      4.376      8.068
REMARK INTER + INTRA:         -19.629
REMARK INTER:                 -17.056
REMARK INTRA:                  -2.573
REMARK UNBOUND:                -6.750
REMARK SMILES CCCCCC(=O)N[C@H](CC(=O)O)C(=O)N[C@H]1C(=O)N[C@H](CCCN=C(N)N)C(=O)N[C@@H]2CC[C@H](O)N(C2=O)[C@@H](CC(C)C)C(=O)N(C)[C@@H](Cc2ccccc2)C(=O)N[C@H](C(C)C)C(=O)O[C@@H]1C
REMARK SMILES IDX 30 1 31 2 29 3 32 5 35 6 37 7 34 8 38 9 33 10 39 11 36 12
REMARK SMILES IDX 40 14 41 15 42 16 43 17 44 18 45 19 46 20 47 21 48 22 49 23
REMARK SMILES IDX 50 24 51 25 52 26 56 27 53 28 55 29 54 30 57 31 58 32 59 33
REMARK SMILES IDX 60 35 61 36 62 37 63 38 64 39 65 40 66 41 67 42 68 43 21 45
REMARK SMILES IDX 20 46 18 47 19 48 17 50 16 52 14 53 15 54 9 56 8 57 6 58
REMARK SMILES IDX 7 59 5 61 4 62 3 63 2 64 1 65 10 66 11 67 12 68 13 69 22 71
REMARK SMILES IDX 23 72 24 73 25 74 26 75 27 76 28 77
REMARK H PARENT 31 4 36 13 59 34 20 49 16 55 8 60 13 70 27 78 27 79 28 80
REMARK H PARENT 28 81
REMARK Flexibility Score:  259.900
ROOT
ATOM      1  O   UNL     1     -12.855 -15.597   3.946  1.00  0.00    -0.273 OA
ATOM      2  N   UNL     1     -13.549 -17.177   2.445  1.00  0.00    -0.343 N 
ATOM      3  C   UNL     1     -13.603 -15.928   3.026  1.00  0.00     0.243 C 
ATOM      4  H   UNL     1     -14.171 -17.409   1.680  1.00  0.00     0.164 HD
ENDROOT
BRANCH   2   5
ATOM      5  C   UNL     1     -12.671 -18.209   2.985  1.00  0.00     0.171 C 
ATOM      6  C   UNL     1     -10.868 -18.265   5.254  1.00  0.00     0.214 C 
ATOM      7  N   UNL     1     -10.369 -17.861   3.960  1.00  0.00    -0.303 N 
ATOM      8  C   UNL     1     -12.015 -19.259   5.173  1.00  0.00     0.057 C 
ATOM      9  C   UNL     1     -11.187 -17.764   2.846  1.00  0.00     0.247 C 
ATOM     10  C   UNL     1     -13.147 -18.670   4.361  1.00  0.00     0.040 C 
ATOM     11  O   UNL     1     -10.770 -17.335   1.762  1.00  0.00    -0.272 OA
BRANCH   6  12
ATOM     12  O   UNL     1     -11.271 -17.103   5.941  1.00  0.00    -0.373 OA
ATOM     13  H   UNL     1     -10.897 -17.160   6.847  1.00  0.00     0.213 HD
ENDBRANCH   6  12
BRANCH   7  14
ATOM     14  C   UNL     1      -8.963 -17.408   3.895  1.00  0.00     0.177 C 
BRANCH  14  15
ATOM     15  C   UNL     1      -8.105 -18.083   2.807  1.00  0.00     0.038 C 
BRANCH  15  16
ATOM     16  C   UNL     1      -7.482 -19.470   3.082  1.00  0.00    -0.015 C 
ATOM     17  C   UNL     1      -7.580 -19.874   4.556  1.00  0.00     0.007 C 
ATOM     18  C   UNL     1      -6.000 -19.459   2.684  1.00  0.00     0.007 C 
ENDBRANCH  15  16
ENDBRANCH  14  15
BRANCH  14  19
ATOM     19  C   UNL     1      -8.855 -15.907   4.333  1.00  0.00     0.245 C 
ATOM     20  O   UNL     1      -8.689 -15.688   5.545  1.00  0.00    -0.272 OA
BRANCH  19  21
ATOM     21  N   UNL     1      -9.045 -14.838   3.476  1.00  0.00    -0.332 N 
ATOM     22  C   UNL     1     -10.133 -14.704   2.524  1.00  0.00     0.147 C 
BRANCH  21  23
ATOM     23  C   UNL     1      -8.051 -13.730   3.514  1.00  0.00     0.178 C 
BRANCH  23  24
ATOM     24  C   UNL     1      -7.351 -13.444   2.169  1.00  0.00     0.070 C 
BRANCH  24  25
ATOM     25  C   UNL     1      -8.079 -12.550   1.191  1.00  0.00    -0.045 A 
ATOM     26  C   UNL     1      -8.069 -11.158   1.346  1.00  0.00     0.004 A 
ATOM     27  C   UNL     1      -8.783 -13.107   0.113  1.00  0.00     0.004 A 
ATOM     28  C   UNL     1      -8.758 -10.341   0.448  1.00  0.00     0.000 A 
ATOM     29  C   UNL     1      -9.470 -12.289  -0.785  1.00  0.00     0.000 A 
ATOM     30  C   UNL     1      -9.460 -10.906  -0.615  1.00  0.00     0.000 A 
ENDBRANCH  24  25
ENDBRANCH  23  24
BRANCH  23  31
ATOM     31  C   UNL     1      -8.571 -12.477   4.257  1.00  0.00     0.243 C 
ATOM     32  O   UNL     1      -7.924 -11.442   4.396  1.00  0.00    -0.273 OA
ATOM     33  N   UNL     1      -9.770 -12.685   4.919  1.00  0.00    -0.341 N 
ATOM     34  H   UNL     1     -10.260 -13.570   4.769  1.00  0.00     0.164 HD
BRANCH  33  35
ATOM     35  C   UNL     1     -10.390 -11.677   5.784  1.00  0.00     0.194 C 
BRANCH  35  36
ATOM     36  C   UNL     1     -10.300 -12.000   7.302  1.00  0.00     0.017 C 
ATOM     37  C   UNL     1      -9.085 -11.313   7.949  1.00  0.00     0.010 C 
ATOM     38  C   UNL     1     -10.187 -13.501   7.594  1.00  0.00     0.010 C 
ENDBRANCH  35  36
BRANCH  35  39
ATOM     39  C   UNL     1     -11.841 -11.328   5.350  1.00  0.00     0.329 C 
ATOM     40  O   UNL     1     -12.203 -10.211   4.999  1.00  0.00    -0.250 OA
BRANCH  39  41
ATOM     41  O   UNL     1     -12.653 -12.428   5.319  1.00  0.00    -0.458 OA
BRANCH  41  42
ATOM     42  C   UNL     1     -13.939 -12.294   5.971  1.00  0.00     0.205 CG0
ATOM     43  C   UNL     1     -14.176 -13.572   6.774  1.00  0.00     0.056 C 
ATOM     44  G   UNL     1     -15.016 -12.068   4.891  1.00  0.00     0.000 G0
ENDBRANCH  41  42
ENDBRANCH  39  41
ENDBRANCH  35  39
ENDBRANCH  33  35
ENDBRANCH  23  31
ENDBRANCH  21  23
ENDBRANCH  19  21
ENDBRANCH  14  19
ENDBRANCH   7  14
ENDBRANCH   2   5
BRANCH   3  45
ATOM     45  C   UNL     1     -14.646 -14.972   2.433  1.00  0.00     0.171 C 
BRANCH  45  46
ATOM     46  N   UNL     1     -15.048 -14.098   3.527  1.00  0.00    -0.342 N 
ATOM     47  C   UNL     1     -14.645 -12.789   3.611  1.00  0.00     0.247 C 
ATOM     48  O   UNL     1     -13.978 -12.238   2.734  1.00  0.00    -0.273 OA
ATOM     49  H   UNL     1     -15.647 -14.499   4.247  1.00  0.00     0.164 HD
BRANCH  47  50
ATOM     50  C   UNL     1     -15.063 -12.061   4.896  1.00  0.00     0.212 CG0
ATOM     51  G   UNL     1     -13.963 -12.301   5.948  1.00  0.00     0.000 G0
BRANCH  50  52
ATOM     52  N   UNL     1     -15.205 -10.657   4.520  1.00  0.00    -0.339 N 
ATOM     53  C   UNL     1     -15.576  -9.672   5.402  1.00  0.00     0.243 C 
ATOM     54  O   UNL     1     -15.871  -9.907   6.571  1.00  0.00    -0.273 OA
ATOM     55  H   UNL     1     -15.082 -10.416   3.538  1.00  0.00     0.164 HD
BRANCH  53  56
ATOM     56  C   UNL     1     -15.743  -8.281   4.756  1.00  0.00     0.182 C 
BRANCH  56  57
ATOM     57  N   UNL     1     -15.931  -8.393   3.306  1.00  0.00    -0.344 N 
ATOM     58  C   UNL     1     -16.244  -7.312   2.519  1.00  0.00     0.220 C 
ATOM     59  O   UNL     1     -16.461  -6.197   2.979  1.00  0.00    -0.275 OA
ATOM     60  H   UNL     1     -15.662  -9.273   2.874  1.00  0.00     0.164 HD
BRANCH  58  61
ATOM     61  C   UNL     1     -16.332  -7.649   1.042  1.00  0.00     0.100 C 
BRANCH  61  62
ATOM     62  C   UNL     1     -15.832  -9.053   0.699  1.00  0.00     0.010 C 
BRANCH  62  63
ATOM     63  C   UNL     1     -14.447  -9.082   0.040  1.00  0.00     0.000 C 
BRANCH  63  64
ATOM     64  C   UNL     1     -13.503 -10.139   0.611  1.00  0.00    -0.003 C 
ATOM     65  C   UNL     1     -12.168  -9.530   1.016  1.00  0.00     0.004 C 
ENDBRANCH  63  64
ENDBRANCH  62  63
ENDBRANCH  61  62
ENDBRANCH  58  61
ENDBRANCH  56  57
BRANCH  56  66
ATOM     66  C   UNL     1     -14.585  -7.353   5.118  1.00  0.00     0.157 C 
BRANCH  66  67
ATOM     67  C   UNL     1     -14.865  -6.605   6.390  1.00  0.00     0.305 C 
ATOM     68  O   UNL     1     -14.093  -6.424   7.319  1.00  0.00    -0.252 OA
BRANCH  67  69
ATOM     69  O   UNL     1     -16.101  -6.070   6.408  1.00  0.00    -0.481 OA
ATOM     70  H   UNL     1     -16.703  -6.836   6.516  1.00  0.00     0.296 HD
ENDBRANCH  67  69
ENDBRANCH  66  67
ENDBRANCH  56  66
ENDBRANCH  53  56
ENDBRANCH  50  52
ENDBRANCH  47  50
ENDBRANCH  45  46
BRANCH  45  71
ATOM     71  C   UNL     1     -15.835 -15.760   1.872  1.00  0.00     0.037 C 
BRANCH  71  72
ATOM     72  C   UNL     1     -16.584 -14.980   0.788  1.00  0.00     0.026 C 
BRANCH  72  73
ATOM     73  C   UNL     1     -17.384 -15.911  -0.120  1.00  0.00     0.146 C 
BRANCH  73  74
ATOM     74  N   UNL     1     -18.296 -15.090  -0.910  1.00  0.00    -0.254 NA
ATOM     75  C   UNL     1     -17.992 -14.867  -2.136  1.00  0.00     0.185 C 
ATOM     76  N   UNL     1     -18.812 -14.115  -2.888  1.00  0.00    -0.370 N 
ATOM     77  N   UNL     1     -16.922 -15.289  -2.831  1.00  0.00    -0.370 N 
ATOM     78  H   UNL     1     -19.640 -13.750  -2.439  1.00  0.00     0.159 HD
ATOM     79  H   UNL     1     -18.571 -13.780  -3.804  1.00  0.00     0.159 HD
ATOM     80  H   UNL     1     -16.221 -15.867  -2.394  1.00  0.00     0.159 HD
ATOM     81  H   UNL     1     -16.848 -15.146  -3.825  1.00  0.00     0.159 HD
ENDBRANCH  73  74
ENDBRANCH  72  73
ENDBRANCH  71  72
ENDBRANCH  45  71
ENDBRANCH   3  45
TORSDOF 20
ENDMDL
MODEL 37
REMARK VINA RESULT:    -4.449     12.700     15.702
REMARK INTER + INTRA:         -19.523
REMARK INTER:                 -13.312
REMARK INTRA:                  -6.212
REMARK UNBOUND:                -6.750
REMARK SMILES CCCCCC(=O)N[C@H](CC(=O)O)C(=O)N[C@H]1C(=O)N[C@H](CCCN=C(N)N)C(=O)N[C@@H]2CC[C@H](O)N(C2=O)[C@@H](CC(C)C)C(=O)N(C)[C@@H](Cc2ccccc2)C(=O)N[C@H](C(C)C)C(=O)O[C@@H]1C
REMARK SMILES IDX 30 1 31 2 29 3 32 5 35 6 37 7 34 8 38 9 33 10 39 11 36 12
REMARK SMILES IDX 40 14 41 15 42 16 43 17 44 18 45 19 46 20 47 21 48 22 49 23
REMARK SMILES IDX 50 24 51 25 52 26 56 27 53 28 55 29 54 30 57 31 58 32 59 33
REMARK SMILES IDX 60 35 61 36 62 37 63 38 64 39 65 40 66 41 67 42 68 43 21 45
REMARK SMILES IDX 20 46 18 47 19 48 17 50 16 52 14 53 15 54 9 56 8 57 6 58
REMARK SMILES IDX 7 59 5 61 4 62 3 63 2 64 1 65 10 66 11 67 12 68 13 69 22 71
REMARK SMILES IDX 23 72 24 73 25 74 26 75 27 76 28 77
REMARK H PARENT 31 4 36 13 59 34 20 49 16 55 8 60 13 70 27 78 27 79 28 80
REMARK H PARENT 28 81
REMARK Flexibility Score:  259.900
ROOT
ATOM      1  O   UNL     1      -3.677 -10.372  10.003  1.00  0.00    -0.273 OA
ATOM      2  N   UNL     1      -2.787  -8.859  11.469  1.00  0.00    -0.343 N 
ATOM      3  C   UNL     1      -2.855  -9.488  10.244  1.00  0.00     0.243 C 
ATOM      4  H   UNL     1      -2.108  -8.125  11.626  1.00  0.00     0.164 HD
ENDROOT
BRANCH   2   5
ATOM      5  C   UNL     1      -3.621  -9.305  12.580  1.00  0.00     0.171 C 
ATOM      6  C   UNL     1      -4.463  -8.026  15.041  1.00  0.00     0.214 C 
ATOM      7  N   UNL     1      -3.250  -8.810  15.027  1.00  0.00    -0.303 N 
ATOM      8  C   UNL     1      -5.504  -8.510  14.044  1.00  0.00     0.057 C 
ATOM      9  C   UNL     1      -2.764  -9.405  13.874  1.00  0.00     0.247 C 
ATOM     10  C   UNL     1      -4.919  -8.503  12.648  1.00  0.00     0.040 C 
ATOM     11  O   UNL     1      -1.680 -10.002  13.851  1.00  0.00    -0.272 OA
BRANCH   6  12
ATOM     12  O   UNL     1      -4.114  -6.687  14.777  1.00  0.00    -0.373 OA
ATOM     13  H   UNL     1      -4.374  -6.162  15.563  1.00  0.00     0.213 HD
ENDBRANCH   6  12
BRANCH   7  14
ATOM     14  C   UNL     1      -2.454  -8.836  16.272  1.00  0.00     0.177 C 
BRANCH  14  15
ATOM     15  C   UNL     1      -2.400 -10.199  16.989  1.00  0.00     0.038 C 
BRANCH  15  16
ATOM     16  C   UNL     1      -3.391 -11.312  16.582  1.00  0.00    -0.015 C 
ATOM     17  C   UNL     1      -4.661 -11.305  17.439  1.00  0.00     0.007 C 
ATOM     18  C   UNL     1      -2.720 -12.684  16.730  1.00  0.00     0.007 C 
ENDBRANCH  15  16
ENDBRANCH  14  15
BRANCH  14  19
ATOM     19  C   UNL     1      -1.272  -7.811  16.183  1.00  0.00     0.245 C 
ATOM     20  O   UNL     1      -1.549  -6.671  15.773  1.00  0.00    -0.272 OA
BRANCH  19  21
ATOM     21  N   UNL     1       0.051  -8.137  16.423  1.00  0.00    -0.332 N 
ATOM     22  C   UNL     1       0.681  -8.196  17.730  1.00  0.00     0.147 C 
BRANCH  21  23
ATOM     23  C   UNL     1       0.916  -8.444  15.250  1.00  0.00     0.178 C 
BRANCH  23  24
ATOM     24  C   UNL     1       2.132  -7.511  15.083  1.00  0.00     0.070 C 
BRANCH  24  25
ATOM     25  C   UNL     1       2.180  -6.660  13.835  1.00  0.00    -0.045 A 
ATOM     26  C   UNL     1       1.620  -5.376  13.820  1.00  0.00     0.004 A 
ATOM     27  C   UNL     1       2.784  -7.149  12.667  1.00  0.00     0.004 A 
ATOM     28  C   UNL     1       1.653  -4.603  12.658  1.00  0.00     0.000 A 
ATOM     29  C   UNL     1       2.818  -6.375  11.507  1.00  0.00     0.000 A 
ATOM     30  C   UNL     1       2.249  -5.103  11.502  1.00  0.00     0.000 A 
ENDBRANCH  24  25
ENDBRANCH  23  24
BRANCH  23  31
ATOM     31  C   UNL     1       1.229  -9.953  15.110  1.00  0.00     0.243 C 
ATOM     32  O   UNL     1       1.259 -10.739  16.054  1.00  0.00    -0.273 OA
ATOM     33  N   UNL     1       1.659 -10.314  13.844  1.00  0.00    -0.341 N 
ATOM     34  H   UNL     1       1.617  -9.613  13.100  1.00  0.00     0.164 HD
BRANCH  33  35
ATOM     35  C   UNL     1       2.122 -11.664  13.512  1.00  0.00     0.194 C 
BRANCH  35  36
ATOM     36  C   UNL     1       3.569 -11.717  12.945  1.00  0.00     0.017 C 
ATOM     37  C   UNL     1       4.289 -13.008  13.370  1.00  0.00     0.010 C 
ATOM     38  C   UNL     1       4.438 -10.537  13.395  1.00  0.00     0.010 C 
ENDBRANCH  35  36
BRANCH  35  39
ATOM     39  C   UNL     1       1.117 -12.437  12.613  1.00  0.00     0.329 C 
ATOM     40  O   UNL     1       0.076 -12.938  13.021  1.00  0.00    -0.250 OA
BRANCH  39  41
ATOM     41  O   UNL     1       1.481 -12.421  11.295  1.00  0.00    -0.458 OA
BRANCH  41  42
ATOM     42  C   UNL     1       0.413 -12.600  10.333  1.00  0.00     0.205 CG0
ATOM     43  C   UNL     1       0.287 -14.099  10.069  1.00  0.00     0.056 C 
ATOM     44  G   UNL     1       0.760 -11.803   9.060  1.00  0.00     0.000 G0
ENDBRANCH  41  42
ENDBRANCH  39  41
ENDBRANCH  35  39
ENDBRANCH  33  35
ENDBRANCH  23  31
ENDBRANCH  21  23
ENDBRANCH  19  21
ENDBRANCH  14  19
ENDBRANCH   7  14
ENDBRANCH   2   5
BRANCH   3  45
ATOM     45  C   UNL     1      -1.849  -8.994   9.195  1.00  0.00     0.171 C 
BRANCH  45  46
ATOM     46  N   UNL     1      -0.665  -9.827   9.362  1.00  0.00    -0.342 N 
ATOM     47  C   UNL     1      -0.475 -10.986   8.654  1.00  0.00     0.247 C 
ATOM     48  O   UNL     1      -1.251 -11.369   7.777  1.00  0.00    -0.273 OA
ATOM     49  H   UNL     1       0.030  -9.517  10.039  1.00  0.00     0.164 HD
BRANCH  47  50
ATOM     50  C   UNL     1       0.767 -11.795   9.053  1.00  0.00     0.212 CG0
ATOM     51  G   UNL     1       0.412 -12.607  10.314  1.00  0.00     0.000 G0
BRANCH  50  52
ATOM     52  N   UNL     1       1.076 -12.631   7.896  1.00  0.00    -0.339 N 
ATOM     53  C   UNL     1       2.218 -12.491   7.145  1.00  0.00     0.243 C 
ATOM     54  O   UNL     1       3.047 -11.611   7.359  1.00  0.00    -0.273 OA
ATOM     55  H   UNL     1       0.374 -13.307   7.600  1.00  0.00     0.164 HD
BRANCH  53  56
ATOM     56  C   UNL     1       2.283 -13.428   5.922  1.00  0.00     0.182 C 
BRANCH  56  57
ATOM     57  N   UNL     1       2.565 -12.675   4.696  1.00  0.00    -0.344 N 
ATOM     58  C   UNL     1       1.643 -11.835   4.120  1.00  0.00     0.220 C 
ATOM     59  O   UNL     1       0.500 -11.712   4.546  1.00  0.00    -0.275 OA
ATOM     60  H   UNL     1       3.527 -12.669   4.370  1.00  0.00     0.164 HD
BRANCH  58  61
ATOM     61  C   UNL     1       2.170 -11.115   2.893  1.00  0.00     0.100 C 
BRANCH  61  62
ATOM     62  C   UNL     1       1.264  -9.984   2.405  1.00  0.00     0.010 C 
BRANCH  62  63
ATOM     63  C   UNL     1       1.653  -9.414   1.035  1.00  0.00     0.000 C 
BRANCH  63  64
ATOM     64  C   UNL     1       0.818  -8.211   0.597  1.00  0.00    -0.003 C 
ATOM     65  C   UNL     1       1.674  -7.169  -0.109  1.00  0.00     0.004 C 
ENDBRANCH  63  64
ENDBRANCH  62  63
ENDBRANCH  61  62
ENDBRANCH  58  61
ENDBRANCH  56  57
BRANCH  56  66
ATOM     66  C   UNL     1       1.019 -14.278   5.799  1.00  0.00     0.157 C 
BRANCH  66  67
ATOM     67  C   UNL     1       1.325 -15.626   5.212  1.00  0.00     0.305 C 
ATOM     68  O   UNL     1       0.793 -16.688   5.498  1.00  0.00    -0.252 OA
BRANCH  67  69
ATOM     69  O   UNL     1       2.261 -15.563   4.246  1.00  0.00    -0.481 OA
ATOM     70  H   UNL     1       2.987 -15.031   4.635  1.00  0.00     0.296 HD
ENDBRANCH  67  69
ENDBRANCH  66  67
ENDBRANCH  56  66
ENDBRANCH  53  56
ENDBRANCH  50  52
ENDBRANCH  47  50
ENDBRANCH  45  46
BRANCH  45  71
ATOM     71  C   UNL     1      -1.533  -7.511   9.416  1.00  0.00     0.037 C 
BRANCH  71  72
ATOM     72  C   UNL     1      -2.565  -6.597   8.751  1.00  0.00     0.026 C 
BRANCH  72  73
ATOM     73  C   UNL     1      -2.997  -5.467   9.684  1.00  0.00     0.146 C 
BRANCH  73  74
ATOM     74  N   UNL     1      -2.814  -5.927  11.057  1.00  0.00    -0.254 NA
ATOM     75  C   UNL     1      -2.265  -5.122  11.890  1.00  0.00     0.185 C 
ATOM     76  N   UNL     1      -2.084  -5.516  13.161  1.00  0.00    -0.370 N 
ATOM     77  N   UNL     1      -1.814  -3.872  11.686  1.00  0.00    -0.370 N 
ATOM     78  H   UNL     1      -2.389  -6.449  13.399  1.00  0.00     0.159 HD
ATOM     79  H   UNL     1      -1.535  -5.002  13.828  1.00  0.00     0.159 HD
ATOM     80  H   UNL     1      -1.887  -3.442  10.776  1.00  0.00     0.159 HD
ATOM     81  H   UNL     1      -1.504  -3.291  12.447  1.00  0.00     0.159 HD
ENDBRANCH  73  74
ENDBRANCH  72  73
ENDBRANCH  71  72
ENDBRANCH  45  71
ENDBRANCH   3  45
TORSDOF 20
ENDMDL
MODEL 38
REMARK VINA RESULT:    -4.433      4.444      8.411
REMARK INTER + INTRA:         -19.476
REMARK INTER:                 -15.928
REMARK INTRA:                  -3.548
REMARK UNBOUND:                -6.750
REMARK SMILES CCCCCC(=O)N[C@H](CC(=O)O)C(=O)N[C@H]1C(=O)N[C@H](CCCN=C(N)N)C(=O)N[C@@H]2CC[C@H](O)N(C2=O)[C@@H](CC(C)C)C(=O)N(C)[C@@H](Cc2ccccc2)C(=O)N[C@H](C(C)C)C(=O)O[C@@H]1C
REMARK SMILES IDX 30 1 31 2 29 3 32 5 35 6 37 7 34 8 38 9 33 10 39 11 36 12
REMARK SMILES IDX 40 14 41 15 42 16 43 17 44 18 45 19 46 20 47 21 48 22 49 23
REMARK SMILES IDX 50 24 51 25 52 26 56 27 53 28 55 29 54 30 57 31 58 32 59 33
REMARK SMILES IDX 60 35 61 36 62 37 63 38 64 39 65 40 66 41 67 42 68 43 21 45
REMARK SMILES IDX 20 46 18 47 19 48 17 50 16 52 14 53 15 54 9 56 8 57 6 58
REMARK SMILES IDX 7 59 5 61 4 62 3 63 2 64 1 65 10 66 11 67 12 68 13 69 22 71
REMARK SMILES IDX 23 72 24 73 25 74 26 75 27 76 28 77
REMARK H PARENT 31 4 36 13 59 34 20 49 16 55 8 60 13 70 27 78 27 79 28 80
REMARK H PARENT 28 81
REMARK Flexibility Score:  259.900
ROOT
ATOM      1  O   UNL     1     -12.180 -16.602   5.036  1.00  0.00    -0.273 OA
ATOM      2  N   UNL     1     -12.580 -17.321   2.902  1.00  0.00    -0.343 N 
ATOM      3  C   UNL     1     -12.817 -16.504   3.987  1.00  0.00     0.243 C 
ATOM      4  H   UNL     1     -13.113 -17.202   2.050  1.00  0.00     0.164 HD
ENDROOT
BRANCH   2   5
ATOM      5  C   UNL     1     -11.634 -18.428   2.999  1.00  0.00     0.171 C 
ATOM      6  C   UNL     1      -9.624 -19.127   4.968  1.00  0.00     0.214 C 
ATOM      7  N   UNL     1      -9.258 -18.301   3.841  1.00  0.00    -0.303 N 
ATOM      8  C   UNL     1     -10.754 -20.097   4.661  1.00  0.00     0.057 C 
ATOM      9  C   UNL     1     -10.179 -17.888   2.892  1.00  0.00     0.247 C 
ATOM     10  C   UNL     1     -11.970 -19.334   4.183  1.00  0.00     0.040 C 
ATOM     11  O   UNL     1      -9.876 -17.110   1.978  1.00  0.00    -0.272 OA
BRANCH   6  12
ATOM     12  O   UNL     1      -9.984 -18.273   6.029  1.00  0.00    -0.373 OA
ATOM     13  H   UNL     1      -9.991 -18.816   6.845  1.00  0.00     0.213 HD
ENDBRANCH   6  12
BRANCH   7  14
ATOM     14  C   UNL     1      -7.874 -17.782   3.812  1.00  0.00     0.177 C 
BRANCH  14  15
ATOM     15  C   UNL     1      -7.083 -18.092   2.526  1.00  0.00     0.038 C 
BRANCH  15  16
ATOM     16  C   UNL     1      -5.930 -19.119   2.571  1.00  0.00    -0.015 C 
ATOM     17  C   UNL     1      -6.161 -20.212   3.618  1.00  0.00     0.007 C 
ATOM     18  C   UNL     1      -4.613 -18.406   2.903  1.00  0.00     0.007 C 
ENDBRANCH  15  16
ENDBRANCH  14  15
BRANCH  14  19
ATOM     19  C   UNL     1      -7.774 -16.455   4.640  1.00  0.00     0.245 C 
ATOM     20  O   UNL     1      -7.031 -16.471   5.636  1.00  0.00    -0.272 OA
BRANCH  19  21
ATOM     21  N   UNL     1      -8.540 -15.330   4.390  1.00  0.00    -0.332 N 
ATOM     22  C   UNL     1      -9.914 -15.135   4.816  1.00  0.00     0.147 C 
BRANCH  21  23
ATOM     23  C   UNL     1      -7.919 -14.224   3.610  1.00  0.00     0.178 C 
BRANCH  23  24
ATOM     24  C   UNL     1      -8.074 -14.347   2.080  1.00  0.00     0.070 C 
BRANCH  24  25
ATOM     25  C   UNL     1      -9.123 -13.481   1.423  1.00  0.00    -0.045 A 
ATOM     26  C   UNL     1      -8.756 -12.421   0.584  1.00  0.00     0.004 A 
ATOM     27  C   UNL     1     -10.486 -13.725   1.650  1.00  0.00     0.004 A 
ATOM     28  C   UNL     1      -9.732 -11.614  -0.005  1.00  0.00     0.000 A 
ATOM     29  C   UNL     1     -11.460 -12.918   1.059  1.00  0.00     0.000 A 
ATOM     30  C   UNL     1     -11.082 -11.861   0.234  1.00  0.00     0.000 A 
ENDBRANCH  24  25
ENDBRANCH  23  24
BRANCH  23  31
ATOM     31  C   UNL     1      -8.238 -12.825   4.187  1.00  0.00     0.243 C 
ATOM     32  O   UNL     1      -7.754 -11.779   3.761  1.00  0.00    -0.273 OA
ATOM     33  N   UNL     1      -8.981 -12.864   5.354  1.00  0.00    -0.341 N 
ATOM     34  H   UNL     1      -9.353 -13.766   5.663  1.00  0.00     0.164 HD
BRANCH  33  35
ATOM     35  C   UNL     1      -9.300 -11.668   6.139  1.00  0.00     0.194 C 
BRANCH  35  36
ATOM     36  C   UNL     1      -8.646 -11.641   7.549  1.00  0.00     0.017 C 
ATOM     37  C   UNL     1      -8.844 -12.978   8.284  1.00  0.00     0.010 C 
ATOM     38  C   UNL     1      -9.203 -10.534   8.452  1.00  0.00     0.010 C 
ENDBRANCH  35  36
BRANCH  35  39
ATOM     39  C   UNL     1     -10.827 -11.384   6.202  1.00  0.00     0.329 C 
ATOM     40  O   UNL     1     -11.313 -10.264   6.308  1.00  0.00    -0.250 OA
BRANCH  39  41
ATOM     41  O   UNL     1     -11.574 -12.518   6.040  1.00  0.00    -0.458 OA
BRANCH  41  42
ATOM     42  C   UNL     1     -12.447 -12.874   7.138  1.00  0.00     0.205 CG0
ATOM     43  C   UNL     1     -12.009 -14.249   7.640  1.00  0.00     0.056 C 
ATOM     44  G   UNL     1     -13.903 -12.868   6.631  1.00  0.00     0.000 G0
ENDBRANCH  41  42
ENDBRANCH  39  41
ENDBRANCH  35  39
ENDBRANCH  33  35
ENDBRANCH  23  31
ENDBRANCH  21  23
ENDBRANCH  19  21
ENDBRANCH  14  19
ENDBRANCH   7  14
ENDBRANCH   2   5
BRANCH   3  45
ATOM     45  C   UNL     1     -13.913 -15.449   3.787  1.00  0.00     0.171 C 
BRANCH  45  46
ATOM     46  N   UNL     1     -14.032 -14.759   5.065  1.00  0.00    -0.342 N 
ATOM     47  C   UNL     1     -13.906 -13.397   5.180  1.00  0.00     0.247 C 
ATOM     48  O   UNL     1     -13.756 -12.655   4.209  1.00  0.00    -0.273 OA
ATOM     49  H   UNL     1     -14.213 -15.330   5.888  1.00  0.00     0.164 HD
BRANCH  47  50
ATOM     50  C   UNL     1     -13.937 -12.861   6.619  1.00  0.00     0.212 CG0
ATOM     51  G   UNL     1     -12.488 -12.855   7.146  1.00  0.00     0.000 G0
BRANCH  50  52
ATOM     52  N   UNL     1     -14.522 -11.527   6.525  1.00  0.00    -0.339 N 
ATOM     53  C   UNL     1     -14.467 -10.604   7.540  1.00  0.00     0.243 C 
ATOM     54  O   UNL     1     -13.962 -10.851   8.632  1.00  0.00    -0.273 OA
ATOM     55  H   UNL     1     -15.052 -11.301   5.685  1.00  0.00     0.164 HD
BRANCH  53  56
ATOM     56  C   UNL     1     -15.230  -9.297   7.244  1.00  0.00     0.182 C 
BRANCH  56  57
ATOM     57  N   UNL     1     -14.937  -8.812   5.891  1.00  0.00    -0.344 N 
ATOM     58  C   UNL     1     -15.731  -9.116   4.812  1.00  0.00     0.220 C 
ATOM     59  O   UNL     1     -16.694  -9.871   4.889  1.00  0.00    -0.275 OA
ATOM     60  H   UNL     1     -14.212  -8.105   5.803  1.00  0.00     0.164 HD
BRANCH  58  61
ATOM     61  C   UNL     1     -15.272  -8.459   3.524  1.00  0.00     0.100 C 
BRANCH  61  62
ATOM     62  C   UNL     1     -13.787  -8.665   3.222  1.00  0.00     0.010 C 
BRANCH  62  63
ATOM     63  C   UNL     1     -13.513  -9.526   1.982  1.00  0.00     0.000 C 
BRANCH  63  64
ATOM     64  C   UNL     1     -14.431  -9.230   0.798  1.00  0.00    -0.003 C 
ATOM     65  C   UNL     1     -13.950  -9.930  -0.466  1.00  0.00     0.004 C 
ENDBRANCH  63  64
ENDBRANCH  62  63
ENDBRANCH  61  62
ENDBRANCH  58  61
ENDBRANCH  56  57
BRANCH  56  66
ATOM     66  C   UNL     1     -14.959  -8.236   8.308  1.00  0.00     0.157 C 
BRANCH  66  67
ATOM     67  C   UNL     1     -13.672  -7.511   8.038  1.00  0.00     0.305 C 
ATOM     68  O   UNL     1     -12.589  -7.719   8.565  1.00  0.00    -0.252 OA
BRANCH  67  69
ATOM     69  O   UNL     1     -13.800  -6.584   7.070  1.00  0.00    -0.481 OA
ATOM     70  H   UNL     1     -13.578  -5.734   7.507  1.00  0.00     0.296 HD
ENDBRANCH  67  69
ENDBRANCH  66  67
ENDBRANCH  56  66
ENDBRANCH  53  56
ENDBRANCH  50  52
ENDBRANCH  47  50
ENDBRANCH  45  46
BRANCH  45  71
ATOM     71  C   UNL     1     -15.231 -16.119   3.381  1.00  0.00     0.037 C 
BRANCH  71  72
ATOM     72  C   UNL     1     -15.547 -15.916   1.898  1.00  0.00     0.026 C 
BRANCH  72  73
ATOM     73  C   UNL     1     -14.626 -14.874   1.266  1.00  0.00     0.146 C 
BRANCH  73  74
ATOM     74  N   UNL     1     -15.445 -13.998   0.434  1.00  0.00    -0.254 NA
ATOM     75  C   UNL     1     -15.894 -12.919   0.962  1.00  0.00     0.185 C 
ATOM     76  N   UNL     1     -16.650 -12.092   0.221  1.00  0.00    -0.370 N 
ATOM     77  N   UNL     1     -15.720 -12.453   2.211  1.00  0.00    -0.370 N 
ATOM     78  H   UNL     1     -16.836 -12.372  -0.731  1.00  0.00     0.159 HD
ATOM     79  H   UNL     1     -17.152 -11.310   0.603  1.00  0.00     0.159 HD
ATOM     80  H   UNL     1     -15.169 -12.970   2.879  1.00  0.00     0.159 HD
ATOM     81  H   UNL     1     -16.026 -11.533   2.479  1.00  0.00     0.159 HD
ENDBRANCH  73  74
ENDBRANCH  72  73
ENDBRANCH  71  72
ENDBRANCH  45  71
ENDBRANCH   3  45
TORSDOF 20
ENDMDL
MODEL 39
REMARK VINA RESULT:    -4.418     11.965     16.113
REMARK INTER + INTRA:         -19.433
REMARK INTER:                 -13.561
REMARK INTRA:                  -5.872
REMARK UNBOUND:                -6.750
REMARK SMILES CCCCCC(=O)N[C@H](CC(=O)O)C(=O)N[C@H]1C(=O)N[C@H](CCCN=C(N)N)C(=O)N[C@@H]2CC[C@H](O)N(C2=O)[C@@H](CC(C)C)C(=O)N(C)[C@@H](Cc2ccccc2)C(=O)N[C@H](C(C)C)C(=O)O[C@@H]1C
REMARK SMILES IDX 30 1 31 2 29 3 32 5 35 6 37 7 34 8 38 9 33 10 39 11 36 12
REMARK SMILES IDX 40 14 41 15 42 16 43 17 44 18 45 19 46 20 47 21 48 22 49 23
REMARK SMILES IDX 50 24 51 25 52 26 56 27 53 28 55 29 54 30 57 31 58 32 59 33
REMARK SMILES IDX 60 35 61 36 62 37 63 38 64 39 65 40 66 41 67 42 68 43 21 45
REMARK SMILES IDX 20 46 18 47 19 48 17 50 16 52 14 53 15 54 9 56 8 57 6 58
REMARK SMILES IDX 7 59 5 61 4 62 3 63 2 64 1 65 10 66 11 67 12 68 13 69 22 71
REMARK SMILES IDX 23 72 24 73 25 74 26 75 27 76 28 77
REMARK H PARENT 31 4 36 13 59 34 20 49 16 55 8 60 13 70 27 78 27 79 28 80
REMARK H PARENT 28 81
REMARK Flexibility Score:  259.900
ROOT
ATOM      1  O   UNL     1      -3.466 -12.670  12.125  1.00  0.00    -0.273 OA
ATOM      2  N   UNL     1      -1.703 -12.872  13.567  1.00  0.00    -0.343 N 
ATOM      3  C   UNL     1      -2.337 -13.098  12.364  1.00  0.00     0.243 C 
ATOM      4  H   UNL     1      -0.767 -13.227  13.724  1.00  0.00     0.164 HD
ENDROOT
BRANCH   2   5
ATOM      5  C   UNL     1      -2.402 -12.208  14.662  1.00  0.00     0.171 C 
ATOM      6  C   UNL     1      -5.104 -11.194  14.939  1.00  0.00     0.214 C 
ATOM      7  N   UNL     1      -4.062 -10.318  14.455  1.00  0.00    -0.303 N 
ATOM      8  C   UNL     1      -4.595 -12.265  15.891  1.00  0.00     0.057 C 
ATOM      9  C   UNL     1      -2.762 -10.752  14.251  1.00  0.00     0.247 C 
ATOM     10  C   UNL     1      -3.524 -13.089  15.210  1.00  0.00     0.040 C 
ATOM     11  O   UNL     1      -1.897 -10.019  13.755  1.00  0.00    -0.272 OA
BRANCH   6  12
ATOM     12  O   UNL     1      -5.724 -11.784  13.820  1.00  0.00    -0.373 OA
ATOM     13  H   UNL     1      -6.564 -11.301  13.669  1.00  0.00     0.213 HD
ENDBRANCH   6  12
BRANCH   7  14
ATOM     14  C   UNL     1      -4.469  -8.959  14.039  1.00  0.00     0.177 C 
BRANCH  14  15
ATOM     15  C   UNL     1      -5.821  -8.875  13.305  1.00  0.00     0.038 C 
BRANCH  15  16
ATOM     16  C   UNL     1      -5.847  -8.830  11.761  1.00  0.00    -0.015 C 
ATOM     17  C   UNL     1      -6.969  -9.688  11.170  1.00  0.00     0.007 C 
ATOM     18  C   UNL     1      -4.510  -9.338  11.205  1.00  0.00     0.007 C 
ENDBRANCH  15  16
ENDBRANCH  14  15
BRANCH  14  19
ATOM     19  C   UNL     1      -3.918  -7.894  15.049  1.00  0.00     0.245 C 
ATOM     20  O   UNL     1      -3.858  -8.233  16.242  1.00  0.00    -0.272 OA
BRANCH  19  21
ATOM     21  N   UNL     1      -3.609  -6.590  14.702  1.00  0.00    -0.332 N 
ATOM     22  C   UNL     1      -4.162  -5.400  15.323  1.00  0.00     0.147 C 
BRANCH  21  23
ATOM     23  C   UNL     1      -2.638  -6.376  13.594  1.00  0.00     0.178 C 
BRANCH  23  24
ATOM     24  C   UNL     1      -2.840  -5.068  12.802  1.00  0.00     0.070 C 
BRANCH  24  25
ATOM     25  C   UNL     1      -2.570  -5.115  11.316  1.00  0.00    -0.045 A 
ATOM     26  C   UNL     1      -1.765  -4.147  10.702  1.00  0.00     0.004 A 
ATOM     27  C   UNL     1      -3.130  -6.131  10.527  1.00  0.00     0.004 A 
ATOM     28  C   UNL     1      -1.535  -4.187   9.325  1.00  0.00     0.000 A 
ATOM     29  C   UNL     1      -2.898  -6.170   9.151  1.00  0.00     0.000 A 
ATOM     30  C   UNL     1      -2.102  -5.196   8.551  1.00  0.00     0.000 A 
ENDBRANCH  24  25
ENDBRANCH  23  24
BRANCH  23  31
ATOM     31  C   UNL     1      -1.176  -6.667  14.008  1.00  0.00     0.243 C 
ATOM     32  O   UNL     1      -0.602  -6.112  14.942  1.00  0.00    -0.273 OA
ATOM     33  N   UNL     1      -0.499  -7.481  13.115  1.00  0.00    -0.341 N 
ATOM     34  H   UNL     1      -1.029  -7.911  12.353  1.00  0.00     0.164 HD
BRANCH  33  35
ATOM     35  C   UNL     1       0.927  -7.793  13.241  1.00  0.00     0.194 C 
BRANCH  35  36
ATOM     36  C   UNL     1       1.866  -6.763  12.552  1.00  0.00     0.017 C 
ATOM     37  C   UNL     1       2.506  -5.815  13.580  1.00  0.00     0.010 C 
ATOM     38  C   UNL     1       1.149  -5.895  11.510  1.00  0.00     0.010 C 
ENDBRANCH  35  36
BRANCH  35  39
ATOM     39  C   UNL     1       1.259  -9.253  12.821  1.00  0.00     0.329 C 
ATOM     40  O   UNL     1       1.675 -10.110  13.591  1.00  0.00    -0.250 OA
BRANCH  39  41
ATOM     41  O   UNL     1       0.951  -9.500  11.512  1.00  0.00    -0.458 OA
BRANCH  41  42
ATOM     42  C   UNL     1       1.826 -10.414  10.809  1.00  0.00     0.205 CG0
ATOM     43  C   UNL     1       2.832  -9.570  10.028  1.00  0.00     0.056 C 
ATOM     44  G   UNL     1       0.969 -11.308   9.892  1.00  0.00     0.000 G0
ENDBRANCH  41  42
ENDBRANCH  39  41
ENDBRANCH  35  39
ENDBRANCH  33  35
ENDBRANCH  23  31
ENDBRANCH  21  23
ENDBRANCH  19  21
ENDBRANCH  14  19
ENDBRANCH   7  14
ENDBRANCH   2   5
BRANCH   3  45
ATOM     45  C   UNL     1      -1.529 -13.902  11.337  1.00  0.00     0.171 C 
BRANCH  45  46
ATOM     46  N   UNL     1      -0.838 -12.914  10.519  1.00  0.00    -0.342 N 
ATOM     47  C   UNL     1       0.431 -12.478  10.807  1.00  0.00     0.247 C 
ATOM     48  O   UNL     1       1.103 -12.940  11.730  1.00  0.00    -0.273 OA
ATOM     49  H   UNL     1      -1.337 -12.547   9.711  1.00  0.00     0.164 HD
BRANCH  47  50
ATOM     50  C   UNL     1       0.948 -11.345   9.909  1.00  0.00     0.212 CG0
ATOM     51  G   UNL     1       1.830 -10.426  10.778  1.00  0.00     0.000 G0
BRANCH  50  52
ATOM     52  N   UNL     1       1.685 -12.005   8.835  1.00  0.00    -0.339 N 
ATOM     53  C   UNL     1       1.117 -12.361   7.636  1.00  0.00     0.243 C 
ATOM     54  O   UNL     1      -0.076 -12.197   7.395  1.00  0.00    -0.273 OA
ATOM     55  H   UNL     1       2.652 -12.269   9.017  1.00  0.00     0.164 HD
BRANCH  53  56
ATOM     56  C   UNL     1       2.068 -13.123   6.692  1.00  0.00     0.182 C 
BRANCH  56  57
ATOM     57  N   UNL     1       3.291 -12.354   6.443  1.00  0.00    -0.344 N 
ATOM     58  C   UNL     1       4.512 -12.728   6.948  1.00  0.00     0.220 C 
ATOM     59  O   UNL     1       4.653 -13.687   7.700  1.00  0.00    -0.275 OA
ATOM     60  H   UNL     1       3.237 -11.615   5.746  1.00  0.00     0.164 HD
BRANCH  58  61
ATOM     61  C   UNL     1       5.647 -11.819   6.515  1.00  0.00     0.100 C 
BRANCH  61  62
ATOM     62  C   UNL     1       6.798 -11.748   7.520  1.00  0.00     0.010 C 
BRANCH  62  63
ATOM     63  C   UNL     1       8.146 -12.226   6.964  1.00  0.00     0.000 C 
BRANCH  63  64
ATOM     64  C   UNL     1       9.309 -11.273   7.237  1.00  0.00    -0.003 C 
ATOM     65  C   UNL     1       9.315 -10.110   6.255  1.00  0.00     0.004 C 
ENDBRANCH  63  64
ENDBRANCH  62  63
ENDBRANCH  61  62
ENDBRANCH  58  61
ENDBRANCH  56  57
BRANCH  56  66
ATOM     66  C   UNL     1       1.367 -13.527   5.396  1.00  0.00     0.157 C 
BRANCH  66  67
ATOM     67  C   UNL     1       2.081 -14.663   4.722  1.00  0.00     0.305 C 
ATOM     68  O   UNL     1       3.235 -15.017   4.909  1.00  0.00    -0.252 OA
BRANCH  67  69
ATOM     69  O   UNL     1       1.282 -15.338   3.874  1.00  0.00    -0.481 OA
ATOM     70  H   UNL     1       0.372 -15.162   4.194  1.00  0.00     0.296 HD
ENDBRANCH  67  69
ENDBRANCH  66  67
ENDBRANCH  56  66
ENDBRANCH  53  56
ENDBRANCH  50  52
ENDBRANCH  47  50
ENDBRANCH  45  46
BRANCH  45  71
ATOM     71  C   UNL     1      -2.461 -14.781  10.495  1.00  0.00     0.037 C 
BRANCH  71  72
ATOM     72  C   UNL     1      -3.088 -15.909  11.318  1.00  0.00     0.026 C 
BRANCH  72  73
ATOM     73  C   UNL     1      -4.267 -16.548  10.587  1.00  0.00     0.146 C 
BRANCH  73  74
ATOM     74  N   UNL     1      -5.410 -16.545  11.494  1.00  0.00    -0.254 NA
ATOM     75  C   UNL     1      -6.503 -16.019  11.079  1.00  0.00     0.185 C 
ATOM     76  N   UNL     1      -7.573 -16.002  11.890  1.00  0.00    -0.370 N 
ATOM     77  N   UNL     1      -6.767 -15.447   9.891  1.00  0.00    -0.370 N 
ATOM     78  H   UNL     1      -7.457 -16.407  12.808  1.00  0.00     0.159 HD
ATOM     79  H   UNL     1      -8.410 -15.483  11.692  1.00  0.00     0.159 HD
ATOM     80  H   UNL     1      -6.056 -15.391   9.178  1.00  0.00     0.159 HD
ATOM     81  H   UNL     1      -7.701 -15.170   9.635  1.00  0.00     0.159 HD
ENDBRANCH  73  74
ENDBRANCH  72  73
ENDBRANCH  71  72
ENDBRANCH  45  71
ENDBRANCH   3  45
TORSDOF 20
ENDMDL
MODEL 40
REMARK VINA RESULT:    -4.390      2.210      3.388
REMARK INTER + INTRA:         -19.354
REMARK INTER:                 -18.085
REMARK INTRA:                  -1.269
REMARK UNBOUND:                -6.750
REMARK SMILES CCCCCC(=O)N[C@H](CC(=O)O)C(=O)N[C@H]1C(=O)N[C@H](CCCN=C(N)N)C(=O)N[C@@H]2CC[C@H](O)N(C2=O)[C@@H](CC(C)C)C(=O)N(C)[C@@H](Cc2ccccc2)C(=O)N[C@H](C(C)C)C(=O)O[C@@H]1C
REMARK SMILES IDX 30 1 31 2 29 3 32 5 35 6 37 7 34 8 38 9 33 10 39 11 36 12
REMARK SMILES IDX 40 14 41 15 42 16 43 17 44 18 45 19 46 20 47 21 48 22 49 23
REMARK SMILES IDX 50 24 51 25 52 26 56 27 53 28 55 29 54 30 57 31 58 32 59 33
REMARK SMILES IDX 60 35 61 36 62 37 63 38 64 39 65 40 66 41 67 42 68 43 21 45
REMARK SMILES IDX 20 46 18 47 19 48 17 50 16 52 14 53 15 54 9 56 8 57 6 58
REMARK SMILES IDX 7 59 5 61 4 62 3 63 2 64 1 65 10 66 11 67 12 68 13 69 22 71
REMARK SMILES IDX 23 72 24 73 25 74 26 75 27 76 28 77
REMARK H PARENT 31 4 36 13 59 34 20 49 16 55 8 60 13 70 27 78 27 79 28 80
REMARK H PARENT 28 81
REMARK Flexibility Score:  259.900
ROOT
ATOM      1  O   UNL     1     -14.776 -12.813   0.474  1.00  0.00    -0.273 OA
ATOM      2  N   UNL     1     -13.765 -11.552   2.092  1.00  0.00    -0.343 N 
ATOM      3  C   UNL     1     -13.983 -11.922   0.783  1.00  0.00     0.243 C 
ATOM      4  H   UNL     1     -13.117 -10.804   2.308  1.00  0.00     0.164 HD
ENDROOT
BRANCH   2   5
ATOM      5  C   UNL     1     -14.385 -12.291   3.186  1.00  0.00     0.171 C 
ATOM      6  C   UNL     1     -14.324 -11.957   6.065  1.00  0.00     0.214 C 
ATOM      7  N   UNL     1     -13.345 -12.806   5.428  1.00  0.00    -0.303 N 
ATOM      8  C   UNL     1     -15.651 -11.908   5.325  1.00  0.00     0.057 C 
ATOM      9  C   UNL     1     -13.286 -12.969   4.054  1.00  0.00     0.247 C 
ATOM     10  C   UNL     1     -15.428 -11.437   3.904  1.00  0.00     0.040 C 
ATOM     11  O   UNL     1     -12.390 -13.629   3.509  1.00  0.00    -0.272 OA
BRANCH   6  12
ATOM     12  O   UNL     1     -13.771 -10.666   6.171  1.00  0.00    -0.373 OA
ATOM     13  H   UNL     1     -13.584 -10.510   7.121  1.00  0.00     0.213 HD
ENDBRANCH   6  12
BRANCH   7  14
ATOM     14  C   UNL     1     -12.299 -13.390   6.294  1.00  0.00     0.177 C 
BRANCH  14  15
ATOM     15  C   UNL     1     -11.767 -12.458   7.400  1.00  0.00     0.038 C 
BRANCH  15  16
ATOM     16  C   UNL     1     -10.436 -11.704   7.184  1.00  0.00    -0.015 C 
ATOM     17  C   UNL     1      -9.342 -12.159   8.155  1.00  0.00     0.007 C 
ATOM     18  C   UNL     1     -10.656 -10.198   7.380  1.00  0.00     0.007 C 
ENDBRANCH  15  16
ENDBRANCH  14  15
BRANCH  14  19
ATOM     19  C   UNL     1     -12.512 -14.937   6.437  1.00  0.00     0.245 C 
ATOM     20  O   UNL     1     -13.396 -15.309   7.227  1.00  0.00    -0.272 OA
BRANCH  19  21
ATOM     21  N   UNL     1     -11.710 -15.885   5.828  1.00  0.00    -0.332 N 
ATOM     22  C   UNL     1     -12.166 -16.908   4.905  1.00  0.00     0.147 C 
BRANCH  21  23
ATOM     23  C   UNL     1     -10.255 -15.874   6.147  1.00  0.00     0.178 C 
BRANCH  23  24
ATOM     24  C   UNL     1      -9.726 -17.169   6.796  1.00  0.00     0.070 C 
BRANCH  24  25
ATOM     25  C   UNL     1      -8.360 -17.109   7.438  1.00  0.00    -0.045 A 
ATOM     26  C   UNL     1      -7.276 -17.803   6.884  1.00  0.00     0.004 A 
ATOM     27  C   UNL     1      -8.159 -16.358   8.606  1.00  0.00     0.004 A 
ATOM     28  C   UNL     1      -6.020 -17.756   7.493  1.00  0.00     0.000 A 
ATOM     29  C   UNL     1      -6.903 -16.312   9.213  1.00  0.00     0.000 A 
ATOM     30  C   UNL     1      -5.835 -17.013   8.657  1.00  0.00     0.000 A 
ENDBRANCH  24  25
ENDBRANCH  23  24
BRANCH  23  31
ATOM     31  C   UNL     1      -9.388 -15.323   4.990  1.00  0.00     0.243 C 
ATOM     32  O   UNL     1      -9.282 -14.130   4.718  1.00  0.00    -0.273 OA
ATOM     33  N   UNL     1      -8.881 -16.310   4.161  1.00  0.00    -0.341 N 
ATOM     34  H   UNL     1      -9.006 -17.287   4.437  1.00  0.00     0.164 HD
BRANCH  33  35
ATOM     35  C   UNL     1      -8.131 -16.017   2.936  1.00  0.00     0.194 C 
BRANCH  35  36
ATOM     36  C   UNL     1      -6.710 -16.645   2.896  1.00  0.00     0.017 C 
ATOM     37  C   UNL     1      -6.775 -18.181   2.968  1.00  0.00     0.010 C 
ATOM     38  C   UNL     1      -5.807 -16.170   4.041  1.00  0.00     0.010 C 
ENDBRANCH  35  36
BRANCH  35  39
ATOM     39  C   UNL     1      -8.105 -14.500   2.600  1.00  0.00     0.329 C 
ATOM     40  O   UNL     1      -7.738 -13.630   3.382  1.00  0.00    -0.250 OA
BRANCH  39  41
ATOM     41  O   UNL     1      -8.455 -14.249   1.302  1.00  0.00    -0.458 OA
BRANCH  41  42
ATOM     42  C   UNL     1      -9.755 -13.647   1.094  1.00  0.00     0.205 CG0
ATOM     43  C   UNL     1     -10.747 -14.783   0.850  1.00  0.00     0.056 C 
ATOM     44  G   UNL     1      -9.662 -12.678  -0.102  1.00  0.00     0.000 G0
ENDBRANCH  41  42
ENDBRANCH  39  41
ENDBRANCH  35  39
ENDBRANCH  33  35
ENDBRANCH  23  31
ENDBRANCH  21  23
ENDBRANCH  19  21
ENDBRANCH  14  19
ENDBRANCH   7  14
ENDBRANCH   2   5
BRANCH   3  45
ATOM     45  C   UNL     1     -13.187 -11.133  -0.265  1.00  0.00     0.171 C 
BRANCH  45  46
ATOM     46  N   UNL     1     -11.785 -11.416   0.011  1.00  0.00    -0.342 N 
ATOM     47  C   UNL     1     -11.098 -12.421  -0.622  1.00  0.00     0.247 C 
ATOM     48  O   UNL     1     -11.592 -13.106  -1.519  1.00  0.00    -0.273 OA
ATOM     49  H   UNL     1     -11.321 -10.835   0.707  1.00  0.00     0.164 HD
BRANCH  47  50
ATOM     50  C   UNL     1      -9.668 -12.652  -0.114  1.00  0.00     0.212 CG0
ATOM     51  G   UNL     1      -9.744 -13.653   1.056  1.00  0.00     0.000 G0
BRANCH  50  52
ATOM     52  N   UNL     1      -8.923 -13.162  -1.262  1.00  0.00    -0.339 N 
ATOM     53  C   UNL     1      -8.577 -12.387  -2.342  1.00  0.00     0.243 C 
ATOM     54  O   UNL     1      -8.915 -11.212  -2.450  1.00  0.00    -0.273 OA
ATOM     55  H   UNL     1      -8.710 -14.157  -1.283  1.00  0.00     0.164 HD
BRANCH  53  56
ATOM     56  C   UNL     1      -7.870 -13.165  -3.471  1.00  0.00     0.182 C 
BRANCH  56  57
ATOM     57  N   UNL     1      -8.837 -13.662  -4.454  1.00  0.00    -0.344 N 
ATOM     58  C   UNL     1      -9.702 -14.693  -4.179  1.00  0.00     0.220 C 
ATOM     59  O   UNL     1      -9.677 -15.317  -3.124  1.00  0.00    -0.275 OA
ATOM     60  H   UNL     1      -8.960 -13.111  -5.299  1.00  0.00     0.164 HD
BRANCH  58  61
ATOM     61  C   UNL     1     -10.653 -15.001  -5.321  1.00  0.00     0.100 C 
BRANCH  61  62
ATOM     62  C   UNL     1     -10.657 -13.941  -6.422  1.00  0.00     0.010 C 
BRANCH  62  63
ATOM     63  C   UNL     1     -12.030 -13.302  -6.674  1.00  0.00     0.000 C 
BRANCH  63  64
ATOM     64  C   UNL     1     -11.967 -11.900  -7.276  1.00  0.00    -0.003 C 
ATOM     65  C   UNL     1     -10.613 -11.251  -7.032  1.00  0.00     0.004 C 
ENDBRANCH  63  64
ENDBRANCH  62  63
ENDBRANCH  61  62
ENDBRANCH  58  61
ENDBRANCH  56  57
BRANCH  56  66
ATOM     66  C   UNL     1      -6.988 -14.282  -2.914  1.00  0.00     0.157 C 
BRANCH  66  67
ATOM     67  C   UNL     1      -5.788 -13.724  -2.204  1.00  0.00     0.305 C 
ATOM     68  O   UNL     1      -4.723 -13.402  -2.707  1.00  0.00    -0.252 OA
BRANCH  67  69
ATOM     69  O   UNL     1      -6.009 -13.548  -0.887  1.00  0.00    -0.481 OA
ATOM     70  H   UNL     1      -5.809 -12.602  -0.724  1.00  0.00     0.296 HD
ENDBRANCH  67  69
ENDBRANCH  66  67
ENDBRANCH  56  66
ENDBRANCH  53  56
ENDBRANCH  50  52
ENDBRANCH  47  50
ENDBRANCH  45  46
BRANCH  45  71
ATOM     71  C   UNL     1     -13.494  -9.636  -0.153  1.00  0.00     0.037 C 
BRANCH  71  72
ATOM     72  C   UNL     1     -14.987  -9.368   0.053  1.00  0.00     0.026 C 
BRANCH  72  73
ATOM     73  C   UNL     1     -15.224  -8.300   1.119  1.00  0.00     0.146 C 
BRANCH  73  74
ATOM     74  N   UNL     1     -16.613  -7.863   1.013  1.00  0.00    -0.254 NA
ATOM     75  C   UNL     1     -16.869  -6.857   0.262  1.00  0.00     0.185 C 
ATOM     76  N   UNL     1     -18.137  -6.432   0.143  1.00  0.00    -0.370 N 
ATOM     77  N   UNL     1     -16.022  -6.113  -0.472  1.00  0.00    -0.370 N 
ATOM     78  H   UNL     1     -18.838  -6.933   0.670  1.00  0.00     0.159 HD
ATOM     79  H   UNL     1     -18.393  -5.571  -0.307  1.00  0.00     0.159 HD
ATOM     80  H   UNL     1     -15.035  -6.320  -0.484  1.00  0.00     0.159 HD
ATOM     81  H   UNL     1     -16.355  -5.416  -1.117  1.00  0.00     0.159 HD
ENDBRANCH  73  74
ENDBRANCH  72  73
ENDBRANCH  71  72
ENDBRANCH  45  71
ENDBRANCH   3  45
TORSDOF 20
ENDMDL
MODEL 41
REMARK VINA RESULT:    -4.384      2.483      3.421
REMARK INTER + INTRA:         -19.335
REMARK INTER:                 -17.541
REMARK INTRA:                  -1.794
REMARK UNBOUND:                -6.750
REMARK SMILES CCCCCC(=O)N[C@H](CC(=O)O)C(=O)N[C@H]1C(=O)N[C@H](CCCN=C(N)N)C(=O)N[C@@H]2CC[C@H](O)N(C2=O)[C@@H](CC(C)C)C(=O)N(C)[C@@H](Cc2ccccc2)C(=O)N[C@H](C(C)C)C(=O)O[C@@H]1C
REMARK SMILES IDX 30 1 31 2 29 3 32 5 35 6 37 7 34 8 38 9 33 10 39 11 36 12
REMARK SMILES IDX 40 14 41 15 42 16 43 17 44 18 45 19 46 20 47 21 48 22 49 23
REMARK SMILES IDX 50 24 51 25 52 26 56 27 53 28 55 29 54 30 57 31 58 32 59 33
REMARK SMILES IDX 60 35 61 36 62 37 63 38 64 39 65 40 66 41 67 42 68 43 21 45
REMARK SMILES IDX 20 46 18 47 19 48 17 50 16 52 14 53 15 54 9 56 8 57 6 58
REMARK SMILES IDX 7 59 5 61 4 62 3 63 2 64 1 65 10 66 11 67 12 68 13 69 22 71
REMARK SMILES IDX 23 72 24 73 25 74 26 75 27 76 28 77
REMARK H PARENT 31 4 36 13 59 34 20 49 16 55 8 60 13 70 27 78 27 79 28 80
REMARK H PARENT 28 81
REMARK Flexibility Score:  259.900
ROOT
ATOM      1  O   UNL     1     -14.996 -10.476   2.270  1.00  0.00    -0.273 OA
ATOM      2  N   UNL     1     -15.113 -12.101   0.665  1.00  0.00    -0.343 N 
ATOM      3  C   UNL     1     -14.797 -10.835   1.109  1.00  0.00     0.243 C 
ATOM      4  H   UNL     1     -14.922 -12.367  -0.293  1.00  0.00     0.164 HD
ENDROOT
BRANCH   2   5
ATOM      5  C   UNL     1     -15.813 -13.040   1.535  1.00  0.00     0.171 C 
ATOM      6  C   UNL     1     -16.951 -12.784   4.189  1.00  0.00     0.214 C 
ATOM      7  N   UNL     1     -15.582 -13.221   4.042  1.00  0.00    -0.303 N 
ATOM      8  C   UNL     1     -17.838 -13.180   3.019  1.00  0.00     0.057 C 
ATOM      9  C   UNL     1     -14.961 -13.316   2.807  1.00  0.00     0.247 C 
ATOM     10  C   UNL     1     -17.269 -12.622   1.733  1.00  0.00     0.040 C 
ATOM     11  O   UNL     1     -13.763 -13.607   2.696  1.00  0.00    -0.272 OA
BRANCH   6  12
ATOM     12  O   UNL     1     -16.941 -11.384   4.347  1.00  0.00    -0.373 OA
ATOM     13  H   UNL     1     -16.172 -11.164   4.914  1.00  0.00     0.213 HD
ENDBRANCH   6  12
BRANCH   7  14
ATOM     14  C   UNL     1     -14.808 -13.427   5.284  1.00  0.00     0.177 C 
BRANCH  14  15
ATOM     15  C   UNL     1     -15.089 -12.412   6.409  1.00  0.00     0.038 C 
BRANCH  15  16
ATOM     16  C   UNL     1     -14.089 -11.263   6.664  1.00  0.00    -0.015 C 
ATOM     17  C   UNL     1     -13.475 -11.322   8.066  1.00  0.00     0.007 C 
ATOM     18  C   UNL     1     -14.799  -9.912   6.508  1.00  0.00     0.007 C 
ENDBRANCH  15  16
ENDBRANCH  14  15
BRANCH  14  19
ATOM     19  C   UNL     1     -14.510 -14.952   5.492  1.00  0.00     0.245 C 
ATOM     20  O   UNL     1     -15.326 -15.593   6.174  1.00  0.00    -0.272 OA
BRANCH  19  21
ATOM     21  N   UNL     1     -13.354 -15.578   5.060  1.00  0.00    -0.332 N 
ATOM     22  C   UNL     1     -13.202 -16.296   3.807  1.00  0.00     0.147 C 
BRANCH  21  23
ATOM     23  C   UNL     1     -12.162 -15.529   5.951  1.00  0.00     0.178 C 
BRANCH  23  24
ATOM     24  C   UNL     1     -11.300 -16.808   5.947  1.00  0.00     0.070 C 
BRANCH  24  25
ATOM     25  C   UNL     1     -11.221 -17.590   7.238  1.00  0.00    -0.045 A 
ATOM     26  C   UNL     1     -11.639 -17.020   8.447  1.00  0.00     0.004 A 
ATOM     27  C   UNL     1     -10.722 -18.901   7.242  1.00  0.00     0.004 A 
ATOM     28  C   UNL     1     -11.547 -17.743   9.639  1.00  0.00     0.000 A 
ATOM     29  C   UNL     1     -10.632 -19.622   8.433  1.00  0.00     0.000 A 
ATOM     30  C   UNL     1     -11.042 -19.041   9.631  1.00  0.00     0.000 A 
ENDBRANCH  24  25
ENDBRANCH  23  24
BRANCH  23  31
ATOM     31  C   UNL     1     -11.367 -14.208   5.824  1.00  0.00     0.243 C 
ATOM     32  O   UNL     1     -11.175 -13.429   6.754  1.00  0.00    -0.273 OA
ATOM     33  N   UNL     1     -11.044 -13.880   4.518  1.00  0.00    -0.341 N 
ATOM     34  H   UNL     1     -11.234 -14.567   3.784  1.00  0.00     0.164 HD
BRANCH  33  35
ATOM     35  C   UNL     1     -10.397 -12.618   4.147  1.00  0.00     0.194 C 
BRANCH  35  36
ATOM     36  C   UNL     1      -9.661 -11.913   5.321  1.00  0.00     0.017 C 
ATOM     37  C   UNL     1     -10.451 -10.691   5.822  1.00  0.00     0.010 C 
ATOM     38  C   UNL     1      -8.254 -11.430   4.949  1.00  0.00     0.010 C 
ENDBRANCH  35  36
BRANCH  35  39
ATOM     39  C   UNL     1     -11.358 -11.651   3.400  1.00  0.00     0.329 C 
ATOM     40  O   UNL     1     -12.472 -11.341   3.806  1.00  0.00    -0.250 OA
BRANCH  39  41
ATOM     41  O   UNL     1     -10.787 -11.115   2.279  1.00  0.00    -0.458 OA
BRANCH  41  42
ATOM     42  C   UNL     1     -10.440 -12.048   1.227  1.00  0.00     0.205 CG0
ATOM     43  C   UNL     1      -8.996 -12.483   1.465  1.00  0.00     0.056 C 
ATOM     44  G   UNL     1     -10.629 -11.347  -0.133  1.00  0.00     0.000 G0
ENDBRANCH  41  42
ENDBRANCH  39  41
ENDBRANCH  35  39
ENDBRANCH  33  35
ENDBRANCH  23  31
ENDBRANCH  21  23
ENDBRANCH  19  21
ENDBRANCH  14  19
ENDBRANCH   7  14
ENDBRANCH   2   5
BRANCH   3  45
ATOM     45  C   UNL     1     -14.162  -9.911   0.061  1.00  0.00     0.171 C 
BRANCH  45  46
ATOM     46  N   UNL     1     -12.725 -10.129   0.164  1.00  0.00    -0.342 N 
ATOM     47  C   UNL     1     -12.090 -11.169  -0.467  1.00  0.00     0.247 C 
ATOM     48  O   UNL     1     -12.673 -11.947  -1.223  1.00  0.00    -0.273 OA
ATOM     49  H   UNL     1     -12.194  -9.473   0.735  1.00  0.00     0.164 HD
BRANCH  47  50
ATOM     50  C   UNL     1     -10.596 -11.312  -0.143  1.00  0.00     0.212 CG0
ATOM     51  G   UNL     1     -10.480 -12.053   1.204  1.00  0.00     0.000 G0
BRANCH  50  52
ATOM     52  N   UNL     1     -10.024 -12.055  -1.262  1.00  0.00    -0.339 N 
ATOM     53  C   UNL     1      -9.164 -11.499  -2.178  1.00  0.00     0.243 C 
ATOM     54  O   UNL     1      -8.850 -10.312  -2.155  1.00  0.00    -0.273 OA
ATOM     55  H   UNL     1     -10.334 -13.015  -1.400  1.00  0.00     0.164 HD
BRANCH  53  56
ATOM     56  C   UNL     1      -8.760 -12.454  -3.319  1.00  0.00     0.182 C 
BRANCH  56  57
ATOM     57  N   UNL     1      -9.708 -12.370  -4.435  1.00  0.00    -0.344 N 
ATOM     58  C   UNL     1      -9.458 -11.620  -5.559  1.00  0.00     0.220 C 
ATOM     59  O   UNL     1      -8.464 -10.913  -5.676  1.00  0.00    -0.275 OA
ATOM     60  H   UNL     1     -10.491 -13.018  -4.423  1.00  0.00     0.164 HD
BRANCH  58  61
ATOM     61  C   UNL     1     -10.548 -11.728  -6.608  1.00  0.00     0.100 C 
BRANCH  61  62
ATOM     62  C   UNL     1     -10.200 -12.666  -7.764  1.00  0.00     0.010 C 
BRANCH  62  63
ATOM     63  C   UNL     1     -11.048 -12.450  -9.025  1.00  0.00     0.000 C 
BRANCH  63  64
ATOM     64  C   UNL     1     -10.264 -11.915 -10.222  1.00  0.00    -0.003 C 
ATOM     65  C   UNL     1     -10.724 -10.516 -10.605  1.00  0.00     0.004 C 
ENDBRANCH  63  64
ENDBRANCH  62  63
ENDBRANCH  61  62
ENDBRANCH  58  61
ENDBRANCH  56  57
BRANCH  56  66
ATOM     66  C   UNL     1      -8.585 -13.886  -2.817  1.00  0.00     0.157 C 
BRANCH  66  67
ATOM     67  C   UNL     1      -9.592 -14.808  -3.442  1.00  0.00     0.305 C 
ATOM     68  O   UNL     1      -9.443 -15.478  -4.453  1.00  0.00    -0.252 OA
BRANCH  67  69
ATOM     69  O   UNL     1     -10.730 -14.883  -2.727  1.00  0.00    -0.481 OA
ATOM     70  H   UNL     1     -10.797 -14.017  -2.271  1.00  0.00     0.296 HD
ENDBRANCH  67  69
ENDBRANCH  66  67
ENDBRANCH  56  66
ENDBRANCH  53  56
ENDBRANCH  50  52
ENDBRANCH  47  50
ENDBRANCH  45  46
BRANCH  45  71
ATOM     71  C   UNL     1     -14.534  -8.451   0.341  1.00  0.00     0.037 C 
BRANCH  71  72
ATOM     72  C   UNL     1     -15.779  -8.334   1.224  1.00  0.00     0.026 C 
BRANCH  72  73
ATOM     73  C   UNL     1     -16.374  -6.928   1.169  1.00  0.00     0.146 C 
BRANCH  73  74
ATOM     74  N   UNL     1     -16.659  -6.510   2.539  1.00  0.00    -0.254 NA
ATOM     75  C   UNL     1     -16.607  -5.257   2.805  1.00  0.00     0.185 C 
ATOM     76  N   UNL     1     -16.866  -4.841   4.056  1.00  0.00    -0.370 N 
ATOM     77  N   UNL     1     -16.319  -4.230   1.987  1.00  0.00    -0.370 N 
ATOM     78  H   UNL     1     -17.085  -5.553   4.738  1.00  0.00     0.159 HD
ATOM     79  H   UNL     1     -16.704  -3.901   4.371  1.00  0.00     0.159 HD
ATOM     80  H   UNL     1     -16.107  -4.393   1.014  1.00  0.00     0.159 HD
ATOM     81  H   UNL     1     -16.422  -3.274   2.283  1.00  0.00     0.159 HD
ENDBRANCH  73  74
ENDBRANCH  72  73
ENDBRANCH  71  72
ENDBRANCH  45  71
ENDBRANCH   3  45
TORSDOF 20
ENDMDL
MODEL 42
REMARK VINA RESULT:    -4.366      3.294      6.919
REMARK INTER + INTRA:         -19.283
REMARK INTER:                 -15.952
REMARK INTRA:                  -3.331
REMARK UNBOUND:                -6.750
REMARK SMILES CCCCCC(=O)N[C@H](CC(=O)O)C(=O)N[C@H]1C(=O)N[C@H](CCCN=C(N)N)C(=O)N[C@@H]2CC[C@H](O)N(C2=O)[C@@H](CC(C)C)C(=O)N(C)[C@@H](Cc2ccccc2)C(=O)N[C@H](C(C)C)C(=O)O[C@@H]1C
REMARK SMILES IDX 30 1 31 2 29 3 32 5 35 6 37 7 34 8 38 9 33 10 39 11 36 12
REMARK SMILES IDX 40 14 41 15 42 16 43 17 44 18 45 19 46 20 47 21 48 22 49 23
REMARK SMILES IDX 50 24 51 25 52 26 56 27 53 28 55 29 54 30 57 31 58 32 59 33
REMARK SMILES IDX 60 35 61 36 62 37 63 38 64 39 65 40 66 41 67 42 68 43 21 45
REMARK SMILES IDX 20 46 18 47 19 48 17 50 16 52 14 53 15 54 9 56 8 57 6 58
REMARK SMILES IDX 7 59 5 61 4 62 3 63 2 64 1 65 10 66 11 67 12 68 13 69 22 71
REMARK SMILES IDX 23 72 24 73 25 74 26 75 27 76 28 77
REMARK H PARENT 31 4 36 13 59 34 20 49 16 55 8 60 13 70 27 78 27 79 28 80
REMARK H PARENT 28 81
REMARK Flexibility Score:  259.900
ROOT
ATOM      1  O   UNL     1      -9.991 -13.452   8.339  1.00  0.00    -0.273 OA
ATOM      2  N   UNL     1     -11.325 -14.719   6.980  1.00  0.00    -0.343 N 
ATOM      3  C   UNL     1     -10.611 -13.579   7.283  1.00  0.00     0.243 C 
ATOM      4  H   UNL     1     -11.811 -14.794   6.095  1.00  0.00     0.164 HD
ENDROOT
BRANCH   2   5
ATOM      5  C   UNL     1     -11.473 -15.785   7.964  1.00  0.00     0.171 C 
ATOM      6  C   UNL     1     -11.321 -18.674   7.768  1.00  0.00     0.214 C 
ATOM      7  N   UNL     1     -12.596 -18.017   7.602  1.00  0.00    -0.303 N 
ATOM      8  C   UNL     1     -10.376 -17.926   8.696  1.00  0.00     0.057 C 
ATOM      9  C   UNL     1     -12.731 -16.638   7.633  1.00  0.00     0.247 C 
ATOM     10  C   UNL     1     -10.152 -16.523   8.177  1.00  0.00     0.040 C 
ATOM     11  O   UNL     1     -13.811 -16.079   7.403  1.00  0.00    -0.272 OA
BRANCH   6  12
ATOM     12  O   UNL     1     -10.743 -18.823   6.492  1.00  0.00    -0.373 OA
ATOM     13  H   UNL     1     -11.014 -19.703   6.155  1.00  0.00     0.213 HD
ENDBRANCH   6  12
BRANCH   7  14
ATOM     14  C   UNL     1     -13.749 -18.871   7.246  1.00  0.00     0.177 C 
BRANCH  14  15
ATOM     15  C   UNL     1     -14.731 -19.161   8.398  1.00  0.00     0.038 C 
BRANCH  15  16
ATOM     16  C   UNL     1     -14.182 -19.416   9.819  1.00  0.00    -0.015 C 
ATOM     17  C   UNL     1     -15.144 -20.245  10.676  1.00  0.00     0.007 C 
ATOM     18  C   UNL     1     -13.938 -18.078  10.529  1.00  0.00     0.007 C 
ENDBRANCH  15  16
ENDBRANCH  14  15
BRANCH  14  19
ATOM     19  C   UNL     1     -14.150 -18.646   5.747  1.00  0.00     0.245 C 
ATOM     20  O   UNL     1     -15.315 -18.271   5.530  1.00  0.00    -0.272 OA
BRANCH  19  21
ATOM     21  N   UNL     1     -13.328 -18.945   4.675  1.00  0.00    -0.332 N 
ATOM     22  C   UNL     1     -12.610 -20.193   4.487  1.00  0.00     0.147 C 
BRANCH  21  23
ATOM     23  C   UNL     1     -13.148 -17.905   3.625  1.00  0.00     0.178 C 
BRANCH  23  24
ATOM     24  C   UNL     1     -13.558 -16.480   4.050  1.00  0.00     0.070 C 
BRANCH  24  25
ATOM     25  C   UNL     1     -14.659 -15.815   3.257  1.00  0.00    -0.045 A 
ATOM     26  C   UNL     1     -15.731 -15.189   3.904  1.00  0.00     0.004 A 
ATOM     27  C   UNL     1     -14.623 -15.822   1.855  1.00  0.00     0.004 A 
ATOM     28  C   UNL     1     -16.754 -14.592   3.164  1.00  0.00     0.000 A 
ATOM     29  C   UNL     1     -15.645 -15.223   1.116  1.00  0.00     0.000 A 
ATOM     30  C   UNL     1     -16.711 -14.611   1.771  1.00  0.00     0.000 A 
ENDBRANCH  24  25
ENDBRANCH  23  24
BRANCH  23  31
ATOM     31  C   UNL     1     -11.780 -18.003   2.908  1.00  0.00     0.243 C 
ATOM     32  O   UNL     1     -11.627 -18.467   1.781  1.00  0.00    -0.273 OA
ATOM     33  N   UNL     1     -10.705 -17.690   3.722  1.00  0.00    -0.341 N 
ATOM     34  H   UNL     1     -10.895 -17.313   4.654  1.00  0.00     0.164 HD
BRANCH  33  35
ATOM     35  C   UNL     1      -9.311 -17.827   3.292  1.00  0.00     0.194 C 
BRANCH  35  36
ATOM     36  C   UNL     1      -8.578 -19.059   3.894  1.00  0.00     0.017 C 
ATOM     37  C   UNL     1      -7.436 -19.533   2.979  1.00  0.00     0.010 C 
ATOM     38  C   UNL     1      -9.505 -20.258   4.129  1.00  0.00     0.010 C 
ENDBRANCH  35  36
BRANCH  35  39
ATOM     39  C   UNL     1      -8.495 -16.517   3.481  1.00  0.00     0.329 C 
ATOM     40  O   UNL     1      -7.661 -16.350   4.363  1.00  0.00    -0.250 OA
BRANCH  39  41
ATOM     41  O   UNL     1      -8.750 -15.600   2.499  1.00  0.00    -0.458 OA
BRANCH  41  42
ATOM     42  C   UNL     1      -9.770 -14.615   2.791  1.00  0.00     0.205 CG0
ATOM     43  C   UNL     1     -10.888 -14.803   1.769  1.00  0.00     0.056 C 
ATOM     44  G   UNL     1      -9.134 -13.212   2.719  1.00  0.00     0.000 G0
ENDBRANCH  41  42
ENDBRANCH  39  41
ENDBRANCH  35  39
ENDBRANCH  33  35
ENDBRANCH  23  31
ENDBRANCH  21  23
ENDBRANCH  19  21
ENDBRANCH  14  19
ENDBRANCH   7  14
ENDBRANCH   2   5
BRANCH   3  45
ATOM     45  C   UNL     1     -10.624 -12.489   6.203  1.00  0.00     0.171 C 
BRANCH  45  46
ATOM     46  N   UNL     1      -9.961 -13.074   5.045  1.00  0.00    -0.342 N 
ATOM     47  C   UNL     1      -9.759 -12.375   3.882  1.00  0.00     0.247 C 
ATOM     48  O   UNL     1     -10.056 -11.186   3.756  1.00  0.00    -0.273 OA
ATOM     49  H   UNL     1      -9.648 -14.039   5.126  1.00  0.00     0.164 HD
BRANCH  47  50
ATOM     50  C   UNL     1      -9.157 -13.191   2.729  1.00  0.00     0.212 CG0
ATOM     51  G   UNL     1      -9.759 -14.609   2.797  1.00  0.00     0.000 G0
BRANCH  50  52
ATOM     52  N   UNL     1      -9.517 -12.469   1.511  1.00  0.00    -0.339 N 
ATOM     53  C   UNL     1      -8.609 -11.776   0.748  1.00  0.00     0.243 C 
ATOM     54  O   UNL     1      -7.428 -11.666   1.062  1.00  0.00    -0.273 OA
ATOM     55  H   UNL     1     -10.502 -12.431   1.258  1.00  0.00     0.164 HD
BRANCH  53  56
ATOM     56  C   UNL     1      -9.237 -11.022  -0.442  1.00  0.00     0.182 C 
BRANCH  56  57
ATOM     57  N   UNL     1     -10.222 -10.038   0.018  1.00  0.00    -0.344 N 
ATOM     58  C   UNL     1     -11.479 -10.397   0.438  1.00  0.00     0.220 C 
ATOM     59  O   UNL     1     -11.891 -11.551   0.389  1.00  0.00    -0.275 OA
ATOM     60  H   UNL     1      -9.889  -9.090   0.170  1.00  0.00     0.164 HD
BRANCH  58  61
ATOM     61  C   UNL     1     -12.308  -9.223   0.925  1.00  0.00     0.100 C 
BRANCH  61  62
ATOM     62  C   UNL     1     -13.697  -9.616   1.429  1.00  0.00     0.010 C 
BRANCH  62  63
ATOM     63  C   UNL     1     -13.833  -9.618   2.957  1.00  0.00     0.000 C 
BRANCH  63  64
ATOM     64  C   UNL     1     -13.402 -10.925   3.622  1.00  0.00    -0.003 C 
ATOM     65  C   UNL     1     -14.129 -12.119   3.022  1.00  0.00     0.004 C 
ENDBRANCH  63  64
ENDBRANCH  62  63
ENDBRANCH  61  62
ENDBRANCH  58  61
ENDBRANCH  56  57
BRANCH  56  66
ATOM     66  C   UNL     1      -9.823 -11.988  -1.471  1.00  0.00     0.157 C 
BRANCH  66  67
ATOM     67  C   UNL     1      -8.756 -12.855  -2.074  1.00  0.00     0.305 C 
ATOM     68  O   UNL     1      -7.826 -12.490  -2.776  1.00  0.00    -0.252 OA
BRANCH  67  69
ATOM     69  O   UNL     1      -8.883 -14.147  -1.716  1.00  0.00    -0.481 OA
ATOM     70  H   UNL     1      -8.974 -14.633  -2.563  1.00  0.00     0.296 HD
ENDBRANCH  67  69
ENDBRANCH  66  67
ENDBRANCH  56  66
ENDBRANCH  53  56
ENDBRANCH  50  52
ENDBRANCH  47  50
ENDBRANCH  45  46
BRANCH  45  71
ATOM     71  C   UNL     1      -9.895 -11.236   6.700  1.00  0.00     0.037 C 
BRANCH  71  72
ATOM     72  C   UNL     1     -10.841 -10.261   7.405  1.00  0.00     0.026 C 
BRANCH  72  73
ATOM     73  C   UNL     1     -12.240 -10.295   6.793  1.00  0.00     0.146 C 
BRANCH  73  74
ATOM     74  N   UNL     1     -13.172  -9.755   7.778  1.00  0.00    -0.254 NA
ATOM     75  C   UNL     1     -14.426  -9.880   7.547  1.00  0.00     0.185 C 
ATOM     76  N   UNL     1     -15.309  -9.393   8.435  1.00  0.00    -0.370 N 
ATOM     77  N   UNL     1     -15.039 -10.453   6.497  1.00  0.00    -0.370 N 
ATOM     78  H   UNL     1     -14.930  -8.938   9.253  1.00  0.00     0.159 HD
ATOM     79  H   UNL     1     -16.295  -9.325   8.255  1.00  0.00     0.159 HD
ATOM     80  H   UNL     1     -14.500 -10.867   5.750  1.00  0.00     0.159 HD
ATOM     81  H   UNL     1     -16.035 -10.595   6.479  1.00  0.00     0.159 HD
ENDBRANCH  73  74
ENDBRANCH  72  73
ENDBRANCH  71  72
ENDBRANCH  45  71
ENDBRANCH   3  45
TORSDOF 20
ENDMDL
MODEL 43
REMARK VINA RESULT:    -4.355     11.727     15.719
REMARK INTER + INTRA:         -19.253
REMARK INTER:                 -13.524
REMARK INTRA:                  -5.728
REMARK UNBOUND:                -6.750
REMARK SMILES CCCCCC(=O)N[C@H](CC(=O)O)C(=O)N[C@H]1C(=O)N[C@H](CCCN=C(N)N)C(=O)N[C@@H]2CC[C@H](O)N(C2=O)[C@@H](CC(C)C)C(=O)N(C)[C@@H](Cc2ccccc2)C(=O)N[C@H](C(C)C)C(=O)O[C@@H]1C
REMARK SMILES IDX 30 1 31 2 29 3 32 5 35 6 37 7 34 8 38 9 33 10 39 11 36 12
REMARK SMILES IDX 40 14 41 15 42 16 43 17 44 18 45 19 46 20 47 21 48 22 49 23
REMARK SMILES IDX 50 24 51 25 52 26 56 27 53 28 55 29 54 30 57 31 58 32 59 33
REMARK SMILES IDX 60 35 61 36 62 37 63 38 64 39 65 40 66 41 67 42 68 43 21 45
REMARK SMILES IDX 20 46 18 47 19 48 17 50 16 52 14 53 15 54 9 56 8 57 6 58
REMARK SMILES IDX 7 59 5 61 4 62 3 63 2 64 1 65 10 66 11 67 12 68 13 69 22 71
REMARK SMILES IDX 23 72 24 73 25 74 26 75 27 76 28 77
REMARK H PARENT 31 4 36 13 59 34 20 49 16 55 8 60 13 70 27 78 27 79 28 80
REMARK H PARENT 28 81
REMARK Flexibility Score:  259.900
ROOT
ATOM      1  O   UNL     1      -4.173 -11.881  12.986  1.00  0.00    -0.273 OA
ATOM      2  N   UNL     1      -2.517 -13.037  14.059  1.00  0.00    -0.343 N 
ATOM      3  C   UNL     1      -3.343 -12.792  12.984  1.00  0.00     0.243 C 
ATOM      4  H   UNL     1      -1.836 -13.786  14.016  1.00  0.00     0.164 HD
ENDROOT
BRANCH   2   5
ATOM      5  C   UNL     1      -2.676 -12.293  15.303  1.00  0.00     0.171 C 
ATOM      6  C   UNL     1      -4.350 -10.046  16.048  1.00  0.00     0.214 C 
ATOM      7  N   UNL     1      -3.024  -9.803  15.529  1.00  0.00    -0.303 N 
ATOM      8  C   UNL     1      -4.470 -11.362  16.800  1.00  0.00     0.057 C 
ATOM      9  C   UNL     1      -2.192 -10.828  15.107  1.00  0.00     0.247 C 
ATOM     10  C   UNL     1      -4.068 -12.507  15.896  1.00  0.00     0.040 C 
ATOM     11  O   UNL     1      -1.092 -10.607  14.584  1.00  0.00    -0.272 OA
BRANCH   6  12
ATOM     12  O   UNL     1      -5.249 -10.015  14.963  1.00  0.00    -0.373 OA
ATOM     13  H   UNL     1      -4.775  -9.602  14.210  1.00  0.00     0.213 HD
ENDBRANCH   6  12
BRANCH   7  14
ATOM     14  C   UNL     1      -2.632  -8.392  15.323  1.00  0.00     0.177 C 
BRANCH  14  15
ATOM     15  C   UNL     1      -3.802  -7.408  15.131  1.00  0.00     0.038 C 
BRANCH  15  16
ATOM     16  C   UNL     1      -3.853  -6.113  15.972  1.00  0.00    -0.015 C 
ATOM     17  C   UNL     1      -3.893  -6.394  17.477  1.00  0.00     0.007 C 
ATOM     18  C   UNL     1      -5.101  -5.302  15.601  1.00  0.00     0.007 C 
ENDBRANCH  15  16
ENDBRANCH  14  15
BRANCH  14  19
ATOM     19  C   UNL     1      -1.301  -8.080  16.090  1.00  0.00     0.245 C 
ATOM     20  O   UNL     1      -1.209  -8.515  17.250  1.00  0.00    -0.272 OA
BRANCH  19  21
ATOM     21  N   UNL     1      -0.296  -7.270  15.593  1.00  0.00    -0.332 N 
ATOM     22  C   UNL     1       0.566  -6.413  16.387  1.00  0.00     0.147 C 
BRANCH  21  23
ATOM     23  C   UNL     1      -0.078  -7.257  14.120  1.00  0.00     0.178 C 
BRANCH  23  24
ATOM     24  C   UNL     1       0.059  -5.851  13.500  1.00  0.00     0.070 C 
BRANCH  24  25
ATOM     25  C   UNL     1      -0.810  -5.539  12.304  1.00  0.00    -0.045 A 
ATOM     26  C   UNL     1      -2.066  -6.140  12.152  1.00  0.00     0.004 A 
ATOM     27  C   UNL     1      -0.365  -4.642  11.321  1.00  0.00     0.004 A 
ATOM     28  C   UNL     1      -2.855  -5.859  11.035  1.00  0.00     0.000 A 
ATOM     29  C   UNL     1      -1.155  -4.361  10.205  1.00  0.00     0.000 A 
ATOM     30  C   UNL     1      -2.399  -4.973  10.062  1.00  0.00     0.000 A 
ENDBRANCH  24  25
ENDBRANCH  23  24
BRANCH  23  31
ATOM     31  C   UNL     1       0.988  -8.278  13.658  1.00  0.00     0.243 C 
ATOM     32  O   UNL     1       1.753  -8.865  14.421  1.00  0.00    -0.273 OA
ATOM     33  N   UNL     1       1.136  -8.341  12.283  1.00  0.00    -0.341 N 
ATOM     34  H   UNL     1       0.472  -7.826  11.700  1.00  0.00     0.164 HD
BRANCH  33  35
ATOM     35  C   UNL     1       2.166  -9.151  11.626  1.00  0.00     0.194 C 
BRANCH  35  36
ATOM     36  C   UNL     1       3.431  -8.350  11.208  1.00  0.00     0.017 C 
ATOM     37  C   UNL     1       4.693  -8.896  11.899  1.00  0.00     0.010 C 
ATOM     38  C   UNL     1       3.338  -6.855  11.538  1.00  0.00     0.010 C 
ENDBRANCH  35  36
BRANCH  35  39
ATOM     39  C   UNL     1       1.601  -9.999  10.453  1.00  0.00     0.329 C 
ATOM     40  O   UNL     1       2.175 -10.155   9.381  1.00  0.00    -0.250 OA
BRANCH  39  41
ATOM     41  O   UNL     1       0.431 -10.626  10.781  1.00  0.00    -0.458 OA
BRANCH  41  42
ATOM     42  C   UNL     1      -0.691 -10.391   9.897  1.00  0.00     0.205 CG0
ATOM     43  C   UNL     1      -1.825  -9.818  10.746  1.00  0.00     0.056 C 
ATOM     44  G   UNL     1      -1.075 -11.724   9.224  1.00  0.00     0.000 G0
ENDBRANCH  41  42
ENDBRANCH  39  41
ENDBRANCH  35  39
ENDBRANCH  33  35
ENDBRANCH  23  31
ENDBRANCH  21  23
ENDBRANCH  19  21
ENDBRANCH  14  19
ENDBRANCH   7  14
ENDBRANCH   2   5
BRANCH   3  45
ATOM     45  C   UNL     1      -3.144 -13.717  11.776  1.00  0.00     0.171 C 
BRANCH  45  46
ATOM     46  N   UNL     1      -2.708 -12.854  10.686  1.00  0.00    -0.342 N 
ATOM     47  C   UNL     1      -1.400 -12.787  10.278  1.00  0.00     0.247 C 
ATOM     48  O   UNL     1      -0.515 -13.502  10.750  1.00  0.00    -0.273 OA
ATOM     49  H   UNL     1      -3.420 -12.286  10.229  1.00  0.00     0.164 HD
BRANCH  47  50
ATOM     50  C   UNL     1      -1.108 -11.732   9.201  1.00  0.00     0.212 CG0
ATOM     51  G   UNL     1      -0.691 -10.434   9.920  1.00  0.00     0.000 G0
BRANCH  50  52
ATOM     52  N   UNL     1      -0.047 -12.302   8.375  1.00  0.00    -0.339 N 
ATOM     53  C   UNL     1      -0.054 -12.262   7.002  1.00  0.00     0.243 C 
ATOM     54  O   UNL     1      -0.986 -11.788   6.358  1.00  0.00    -0.273 OA
ATOM     55  H   UNL     1       0.700 -12.807   8.848  1.00  0.00     0.164 HD
BRANCH  53  56
ATOM     56  C   UNL     1       1.129 -13.004   6.347  1.00  0.00     0.182 C 
BRANCH  56  57
ATOM     57  N   UNL     1       0.788 -14.405   6.078  1.00  0.00    -0.344 N 
ATOM     58  C   UNL     1       1.271 -15.083   4.985  1.00  0.00     0.220 C 
ATOM     59  O   UNL     1       1.958 -14.547   4.123  1.00  0.00    -0.275 OA
ATOM     60  H   UNL     1       0.307 -14.911   6.816  1.00  0.00     0.164 HD
BRANCH  58  61
ATOM     61  C   UNL     1       0.835 -16.536   4.939  1.00  0.00     0.100 C 
BRANCH  61  62
ATOM     62  C   UNL     1       1.969 -17.509   4.616  1.00  0.00     0.010 C 
BRANCH  62  63
ATOM     63  C   UNL     1       3.188 -17.380   5.539  1.00  0.00     0.000 C 
BRANCH  63  64
ATOM     64  C   UNL     1       4.172 -18.545   5.443  1.00  0.00    -0.003 C 
ATOM     65  C   UNL     1       3.821 -19.651   6.428  1.00  0.00     0.004 C 
ENDBRANCH  63  64
ENDBRANCH  62  63
ENDBRANCH  61  62
ENDBRANCH  58  61
ENDBRANCH  56  57
BRANCH  56  66
ATOM     66  C   UNL     1       2.404 -12.871   7.178  1.00  0.00     0.157 C 
BRANCH  66  67
ATOM     67  C   UNL     1       3.484 -12.168   6.408  1.00  0.00     0.305 C 
ATOM     68  O   UNL     1       3.877 -11.023   6.576  1.00  0.00    -0.252 OA
BRANCH  67  69
ATOM     69  O   UNL     1       4.059 -12.966   5.489  1.00  0.00    -0.481 OA
ATOM     70  H   UNL     1       4.933 -12.557   5.313  1.00  0.00     0.296 HD
ENDBRANCH  67  69
ENDBRANCH  66  67
ENDBRANCH  56  66
ENDBRANCH  53  56
ENDBRANCH  50  52
ENDBRANCH  47  50
ENDBRANCH  45  46
BRANCH  45  71
ATOM     71  C   UNL     1      -4.451 -14.441  11.436  1.00  0.00     0.037 C 
BRANCH  71  72
ATOM     72  C   UNL     1      -5.234 -13.728  10.331  1.00  0.00     0.026 C 
BRANCH  72  73
ATOM     73  C   UNL     1      -6.637 -13.343  10.797  1.00  0.00     0.146 C 
BRANCH  73  74
ATOM     74  N   UNL     1      -6.952 -12.034  10.234  1.00  0.00    -0.254 NA
ATOM     75  C   UNL     1      -7.068 -11.046  11.042  1.00  0.00     0.185 C 
ATOM     76  N   UNL     1      -7.357  -9.829  10.554  1.00  0.00    -0.370 N 
ATOM     77  N   UNL     1      -6.941 -11.030  12.381  1.00  0.00    -0.370 N 
ATOM     78  H   UNL     1      -7.477  -9.754   9.554  1.00  0.00     0.159 HD
ATOM     79  H   UNL     1      -7.604  -9.045  11.132  1.00  0.00     0.159 HD
ATOM     80  H   UNL     1      -6.720 -11.875  12.886  1.00  0.00     0.159 HD
ATOM     81  H   UNL     1      -6.940 -10.168  12.901  1.00  0.00     0.159 HD
ENDBRANCH  73  74
ENDBRANCH  72  73
ENDBRANCH  71  72
ENDBRANCH  45  71
ENDBRANCH   3  45
TORSDOF 20
ENDMDL
MODEL 44
REMARK VINA RESULT:    -4.324     11.736     15.708
REMARK INTER + INTRA:         -19.165
REMARK INTER:                 -12.631
REMARK INTRA:                  -6.534
REMARK UNBOUND:                -6.750
REMARK SMILES CCCCCC(=O)N[C@H](CC(=O)O)C(=O)N[C@H]1C(=O)N[C@H](CCCN=C(N)N)C(=O)N[C@@H]2CC[C@H](O)N(C2=O)[C@@H](CC(C)C)C(=O)N(C)[C@@H](Cc2ccccc2)C(=O)N[C@H](C(C)C)C(=O)O[C@@H]1C
REMARK SMILES IDX 30 1 31 2 29 3 32 5 35 6 37 7 34 8 38 9 33 10 39 11 36 12
REMARK SMILES IDX 40 14 41 15 42 16 43 17 44 18 45 19 46 20 47 21 48 22 49 23
REMARK SMILES IDX 50 24 51 25 52 26 56 27 53 28 55 29 54 30 57 31 58 32 59 33
REMARK SMILES IDX 60 35 61 36 62 37 63 38 64 39 65 40 66 41 67 42 68 43 21 45
REMARK SMILES IDX 20 46 18 47 19 48 17 50 16 52 14 53 15 54 9 56 8 57 6 58
REMARK SMILES IDX 7 59 5 61 4 62 3 63 2 64 1 65 10 66 11 67 12 68 13 69 22 71
REMARK SMILES IDX 23 72 24 73 25 74 26 75 27 76 28 77
REMARK H PARENT 31 4 36 13 59 34 20 49 16 55 8 60 13 70 27 78 27 79 28 80
REMARK H PARENT 28 81
REMARK Flexibility Score:  259.900
ROOT
ATOM      1  O   UNL     1      -3.311  -8.233   9.744  1.00  0.00    -0.273 OA
ATOM      2  N   UNL     1      -3.674  -9.283  11.743  1.00  0.00    -0.343 N 
ATOM      3  C   UNL     1      -3.003  -8.400  10.925  1.00  0.00     0.243 C 
ATOM      4  H   UNL     1      -3.403  -9.384  12.714  1.00  0.00     0.164 HD
ENDROOT
BRANCH   2   5
ATOM      5  C   UNL     1      -4.713 -10.153  11.203  1.00  0.00     0.171 C 
ATOM      6  C   UNL     1      -6.672 -11.886  12.455  1.00  0.00     0.214 C 
ATOM      7  N   UNL     1      -5.382 -12.421  12.088  1.00  0.00    -0.303 N 
ATOM      8  C   UNL     1      -7.131 -10.750  11.554  1.00  0.00     0.057 C 
ATOM      9  C   UNL     1      -4.383 -11.637  11.534  1.00  0.00     0.247 C 
ATOM     10  C   UNL     1      -6.105  -9.638  11.568  1.00  0.00     0.040 C 
ATOM     11  O   UNL     1      -3.251 -12.083  11.302  1.00  0.00    -0.272 OA
BRANCH   6  12
ATOM     12  O   UNL     1      -6.593 -11.452  13.793  1.00  0.00    -0.373 OA
ATOM     13  H   UNL     1      -5.934 -10.725  13.821  1.00  0.00     0.213 HD
ENDBRANCH   6  12
BRANCH   7  14
ATOM     14  C   UNL     1      -5.106 -13.824  12.464  1.00  0.00     0.177 C 
BRANCH  14  15
ATOM     15  C   UNL     1      -5.258 -14.851  11.325  1.00  0.00     0.038 C 
BRANCH  15  16
ATOM     16  C   UNL     1      -6.661 -15.145  10.747  1.00  0.00    -0.015 C 
ATOM     17  C   UNL     1      -6.789 -16.580  10.228  1.00  0.00     0.007 C 
ATOM     18  C   UNL     1      -6.956 -14.185   9.587  1.00  0.00     0.007 C 
ENDBRANCH  15  16
ENDBRANCH  14  15
BRANCH  14  19
ATOM     19  C   UNL     1      -4.025 -13.881  13.598  1.00  0.00     0.245 C 
ATOM     20  O   UNL     1      -2.981 -14.504  13.344  1.00  0.00    -0.272 OA
BRANCH  19  21
ATOM     21  N   UNL     1      -4.218 -13.381  14.873  1.00  0.00    -0.332 N 
ATOM     22  C   UNL     1      -4.964 -14.039  15.932  1.00  0.00     0.147 C 
BRANCH  21  23
ATOM     23  C   UNL     1      -3.626 -12.054  15.198  1.00  0.00     0.178 C 
BRANCH  23  24
ATOM     24  C   UNL     1      -4.388 -11.253  16.274  1.00  0.00     0.070 C 
BRANCH  24  25
ATOM     25  C   UNL     1      -4.261  -9.748  16.230  1.00  0.00    -0.045 A 
ATOM     26  C   UNL     1      -5.077  -8.984  15.386  1.00  0.00     0.004 A 
ATOM     27  C   UNL     1      -3.316  -9.094  17.034  1.00  0.00     0.004 A 
ATOM     28  C   UNL     1      -4.942  -7.595  15.339  1.00  0.00     0.000 A 
ATOM     29  C   UNL     1      -3.183  -7.705  16.986  1.00  0.00     0.000 A 
ATOM     30  C   UNL     1      -3.995  -6.957  16.136  1.00  0.00     0.000 A 
ENDBRANCH  24  25
ENDBRANCH  23  24
BRANCH  23  31
ATOM     31  C   UNL     1      -2.092 -12.109  15.391  1.00  0.00     0.243 C 
ATOM     32  O   UNL     1      -1.542 -12.319  16.469  1.00  0.00    -0.273 OA
ATOM     33  N   UNL     1      -1.379 -11.714  14.271  1.00  0.00    -0.341 N 
ATOM     34  H   UNL     1      -1.894 -11.547  13.403  1.00  0.00     0.164 HD
BRANCH  33  35
ATOM     35  C   UNL     1       0.079 -11.574  14.261  1.00  0.00     0.194 C 
BRANCH  35  36
ATOM     36  C   UNL     1       0.839 -12.796  14.850  1.00  0.00     0.017 C 
ATOM     37  C   UNL     1       2.363 -12.608  14.752  1.00  0.00     0.010 C 
ATOM     38  C   UNL     1       0.494 -14.116  14.149  1.00  0.00     0.010 C 
ENDBRANCH  35  36
BRANCH  35  39
ATOM     39  C   UNL     1       0.556 -10.236  14.892  1.00  0.00     0.329 C 
ATOM     40  O   UNL     1       0.723 -10.065  16.094  1.00  0.00    -0.250 OA
BRANCH  39  41
ATOM     41  O   UNL     1       0.853  -9.292  13.948  1.00  0.00    -0.458 OA
BRANCH  41  42
ATOM     42  C   UNL     1       1.982  -9.578  13.089  1.00  0.00     0.205 CG0
ATOM     43  C   UNL     1       3.104  -8.618  13.479  1.00  0.00     0.056 C 
ATOM     44  G   UNL     1       1.541  -9.404  11.622  1.00  0.00     0.000 G0
ENDBRANCH  41  42
ENDBRANCH  39  41
ENDBRANCH  35  39
ENDBRANCH  33  35
ENDBRANCH  23  31
ENDBRANCH  21  23
ENDBRANCH  19  21
ENDBRANCH  14  19
ENDBRANCH   7  14
ENDBRANCH   2   5
BRANCH   3  45
ATOM     45  C   UNL     1      -1.861  -7.624  11.593  1.00  0.00     0.171 C 
BRANCH  45  46
ATOM     46  N   UNL     1      -0.769  -8.577  11.738  1.00  0.00    -0.342 N 
ATOM     47  C   UNL     1       0.544  -8.228  11.541  1.00  0.00     0.247 C 
ATOM     48  O   UNL     1       0.900  -7.074  11.302  1.00  0.00    -0.273 OA
ATOM     49  H   UNL     1      -1.015  -9.532  11.991  1.00  0.00     0.164 HD
BRANCH  47  50
ATOM     50  C   UNL     1       1.543  -9.391  11.615  1.00  0.00     0.212 CG0
ATOM     51  G   UNL     1       1.981  -9.539  13.085  1.00  0.00     0.000 G0
BRANCH  50  52
ATOM     52  N   UNL     1       0.824 -10.556  11.107  1.00  0.00    -0.339 N 
ATOM     53  C   UNL     1       1.052 -11.105   9.869  1.00  0.00     0.243 C 
ATOM     54  O   UNL     1       1.847 -10.622   9.067  1.00  0.00    -0.273 OA
ATOM     55  H   UNL     1       0.073 -10.935  11.681  1.00  0.00     0.164 HD
BRANCH  53  56
ATOM     56  C   UNL     1       0.112 -12.276   9.518  1.00  0.00     0.182 C 
BRANCH  56  57
ATOM     57  N   UNL     1       0.852 -13.376   8.892  1.00  0.00    -0.344 N 
ATOM     58  C   UNL     1       0.777 -14.668   9.353  1.00  0.00     0.220 C 
ATOM     59  O   UNL     1       0.148 -14.979  10.359  1.00  0.00    -0.275 OA
ATOM     60  H   UNL     1       1.301 -13.182   8.001  1.00  0.00     0.164 HD
BRANCH  58  61
ATOM     61  C   UNL     1       1.578 -15.651   8.519  1.00  0.00     0.100 C 
BRANCH  61  62
ATOM     62  C   UNL     1       2.723 -15.006   7.737  1.00  0.00     0.010 C 
BRANCH  62  63
ATOM     63  C   UNL     1       3.471 -15.972   6.809  1.00  0.00     0.000 C 
BRANCH  63  64
ATOM     64  C   UNL     1       4.987 -15.783   6.800  1.00  0.00    -0.003 C 
ATOM     65  C   UNL     1       5.641 -16.479   7.986  1.00  0.00     0.004 C 
ENDBRANCH  63  64
ENDBRANCH  62  63
ENDBRANCH  61  62
ENDBRANCH  58  61
ENDBRANCH  56  57
BRANCH  56  66
ATOM     66  C   UNL     1      -1.065 -11.811   8.661  1.00  0.00     0.157 C 
BRANCH  66  67
ATOM     67  C   UNL     1      -0.721 -11.848   7.199  1.00  0.00     0.305 C 
ATOM     68  O   UNL     1       0.263 -12.363   6.691  1.00  0.00    -0.252 OA
BRANCH  67  69
ATOM     69  O   UNL     1      -1.669 -11.273   6.436  1.00  0.00    -0.481 OA
ATOM     70  H   UNL     1      -1.173 -10.796   5.738  1.00  0.00     0.296 HD
ENDBRANCH  67  69
ENDBRANCH  66  67
ENDBRANCH  56  66
ENDBRANCH  53  56
ENDBRANCH  50  52
ENDBRANCH  47  50
ENDBRANCH  45  46
BRANCH  45  71
ATOM     71  C   UNL     1      -2.313  -7.071  12.950  1.00  0.00     0.037 C 
BRANCH  71  72
ATOM     72  C   UNL     1      -2.847  -5.641  12.840  1.00  0.00     0.026 C 
BRANCH  72  73
ATOM     73  C   UNL     1      -1.772  -4.678  12.342  1.00  0.00     0.146 C 
BRANCH  73  74
ATOM     74  N   UNL     1      -2.061  -4.369  10.945  1.00  0.00    -0.254 NA
ATOM     75  C   UNL     1      -1.069  -4.232  10.144  1.00  0.00     0.185 C 
ATOM     76  N   UNL     1      -1.303  -3.949   8.853  1.00  0.00    -0.370 N 
ATOM     77  N   UNL     1       0.246  -4.333  10.404  1.00  0.00    -0.370 N 
ATOM     78  H   UNL     1      -2.268  -3.848   8.574  1.00  0.00     0.159 HD
ATOM     79  H   UNL     1      -0.582  -3.687   8.204  1.00  0.00     0.159 HD
ATOM     80  H   UNL     1       0.571  -4.547  11.334  1.00  0.00     0.159 HD
ATOM     81  H   UNL     1       0.932  -4.320   9.667  1.00  0.00     0.159 HD
ENDBRANCH  73  74
ENDBRANCH  72  73
ENDBRANCH  71  72
ENDBRANCH  45  71
ENDBRANCH   3  45
TORSDOF 20
ENDMDL
MODEL 45
REMARK VINA RESULT:    -4.303     12.118     16.529
REMARK INTER + INTRA:         -19.104
REMARK INTER:                 -10.889
REMARK INTRA:                  -8.215
REMARK UNBOUND:                -6.750
REMARK SMILES CCCCCC(=O)N[C@H](CC(=O)O)C(=O)N[C@H]1C(=O)N[C@H](CCCN=C(N)N)C(=O)N[C@@H]2CC[C@H](O)N(C2=O)[C@@H](CC(C)C)C(=O)N(C)[C@@H](Cc2ccccc2)C(=O)N[C@H](C(C)C)C(=O)O[C@@H]1C
REMARK SMILES IDX 30 1 31 2 29 3 32 5 35 6 37 7 34 8 38 9 33 10 39 11 36 12
REMARK SMILES IDX 40 14 41 15 42 16 43 17 44 18 45 19 46 20 47 21 48 22 49 23
REMARK SMILES IDX 50 24 51 25 52 26 56 27 53 28 55 29 54 30 57 31 58 32 59 33
REMARK SMILES IDX 60 35 61 36 62 37 63 38 64 39 65 40 66 41 67 42 68 43 21 45
REMARK SMILES IDX 20 46 18 47 19 48 17 50 16 52 14 53 15 54 9 56 8 57 6 58
REMARK SMILES IDX 7 59 5 61 4 62 3 63 2 64 1 65 10 66 11 67 12 68 13 69 22 71
REMARK SMILES IDX 23 72 24 73 25 74 26 75 27 76 28 77
REMARK H PARENT 31 4 36 13 59 34 20 49 16 55 8 60 13 70 27 78 27 79 28 80
REMARK H PARENT 28 81
REMARK Flexibility Score:  259.900
ROOT
ATOM      1  O   UNL     1      -6.704  -9.735  10.748  1.00  0.00    -0.273 OA
ATOM      2  N   UNL     1      -5.902 -10.698  12.661  1.00  0.00    -0.343 N 
ATOM      3  C   UNL     1      -6.102  -9.627  11.817  1.00  0.00     0.243 C 
ATOM      4  H   UNL     1      -5.415 -10.569  13.539  1.00  0.00     0.164 HD
ENDROOT
BRANCH   2   5
ATOM      5  C   UNL     1      -6.297 -12.044  12.260  1.00  0.00     0.171 C 
ATOM      6  C   UNL     1      -5.779 -14.662  13.390  1.00  0.00     0.214 C 
ATOM      7  N   UNL     1      -4.879 -14.128  12.395  1.00  0.00    -0.303 N 
ATOM      8  C   UNL     1      -7.211 -14.176  13.230  1.00  0.00     0.057 C 
ATOM      9  C   UNL     1      -5.040 -12.863  11.852  1.00  0.00     0.247 C 
ATOM     10  C   UNL     1      -7.247 -12.664  13.283  1.00  0.00     0.040 C 
ATOM     11  O   UNL     1      -4.216 -12.378  11.064  1.00  0.00    -0.272 OA
BRANCH   6  12
ATOM     12  O   UNL     1      -5.278 -14.309  14.658  1.00  0.00    -0.373 OA
ATOM     13  H   UNL     1      -5.969 -13.771  15.101  1.00  0.00     0.213 HD
ENDBRANCH   6  12
BRANCH   7  14
ATOM     14  C   UNL     1      -3.679 -14.930  12.077  1.00  0.00     0.177 C 
BRANCH  14  15
ATOM     15  C   UNL     1      -3.657 -15.547  10.665  1.00  0.00     0.038 C 
BRANCH  15  16
ATOM     16  C   UNL     1      -4.503 -16.806  10.372  1.00  0.00    -0.015 C 
ATOM     17  C   UNL     1      -5.925 -16.462   9.919  1.00  0.00     0.007 C 
ATOM     18  C   UNL     1      -4.598 -17.673  11.634  1.00  0.00     0.007 C 
ENDBRANCH  15  16
ENDBRANCH  14  15
BRANCH  14  19
ATOM     19  C   UNL     1      -2.431 -14.365  12.839  1.00  0.00     0.245 C 
ATOM     20  O   UNL     1      -2.657 -13.629  13.814  1.00  0.00    -0.272 OA
BRANCH  19  21
ATOM     21  N   UNL     1      -1.124 -14.550  12.423  1.00  0.00    -0.332 N 
ATOM     22  C   UNL     1      -0.538 -15.817  12.023  1.00  0.00     0.147 C 
BRANCH  21  23
ATOM     23  C   UNL     1      -0.231 -13.360  12.387  1.00  0.00     0.178 C 
BRANCH  23  24
ATOM     24  C   UNL     1       1.052 -13.490  13.233  1.00  0.00     0.070 C 
BRANCH  24  25
ATOM     25  C   UNL     1       1.264 -12.465  14.324  1.00  0.00    -0.045 A 
ATOM     26  C   UNL     1       1.874 -12.821  15.534  1.00  0.00     0.004 A 
ATOM     27  C   UNL     1       0.846 -11.139  14.139  1.00  0.00     0.004 A 
ATOM     28  C   UNL     1       2.051 -11.872  16.543  1.00  0.00     0.000 A 
ATOM     29  C   UNL     1       1.025 -10.191  15.148  1.00  0.00     0.000 A 
ATOM     30  C   UNL     1       1.624 -10.560  16.351  1.00  0.00     0.000 A 
ENDBRANCH  24  25
ENDBRANCH  23  24
BRANCH  23  31
ATOM     31  C   UNL     1      -0.014 -12.810  10.957  1.00  0.00     0.243 C 
ATOM     32  O   UNL     1       1.036 -12.307  10.566  1.00  0.00    -0.273 OA
ATOM     33  N   UNL     1      -1.173 -12.763  10.201  1.00  0.00    -0.341 N 
ATOM     34  H   UNL     1      -2.019 -13.194  10.583  1.00  0.00     0.164 HD
BRANCH  33  35
ATOM     35  C   UNL     1      -1.230 -12.171   8.861  1.00  0.00     0.194 C 
BRANCH  35  36
ATOM     36  C   UNL     1      -0.047 -12.576   7.937  1.00  0.00     0.017 C 
ATOM     37  C   UNL     1      -0.245 -12.041   6.509  1.00  0.00     0.010 C 
ATOM     38  C   UNL     1       0.148 -14.094   7.836  1.00  0.00     0.010 C 
ENDBRANCH  35  36
BRANCH  35  39
ATOM     39  C   UNL     1      -1.438 -10.631   8.897  1.00  0.00     0.329 C 
ATOM     40  O   UNL     1      -2.155 -10.018   8.115  1.00  0.00    -0.250 OA
BRANCH  39  41
ATOM     41  O   UNL     1      -0.800 -10.045   9.954  1.00  0.00    -0.458 OA
BRANCH  41  42
ATOM     42  C   UNL     1      -1.095  -8.647  10.186  1.00  0.00     0.205 CG0
ATOM     43  C   UNL     1       0.227  -7.886  10.120  1.00  0.00     0.056 C 
ATOM     44  G   UNL     1      -1.786  -8.511  11.557  1.00  0.00     0.000 G0
ENDBRANCH  41  42
ENDBRANCH  39  41
ENDBRANCH  35  39
ENDBRANCH  33  35
ENDBRANCH  23  31
ENDBRANCH  21  23
ENDBRANCH  19  21
ENDBRANCH  14  19
ENDBRANCH   7  14
ENDBRANCH   2   5
BRANCH   3  45
ATOM     45  C   UNL     1      -5.542  -8.287  12.312  1.00  0.00     0.171 C 
BRANCH  45  46
ATOM     46  N   UNL     1      -4.098  -8.467  12.387  1.00  0.00    -0.342 N 
ATOM     47  C   UNL     1      -3.264  -8.172  11.338  1.00  0.00     0.247 C 
ATOM     48  O   UNL     1      -3.663  -7.667  10.288  1.00  0.00    -0.273 OA
ATOM     49  H   UNL     1      -3.719  -8.830  13.260  1.00  0.00     0.164 HD
BRANCH  47  50
ATOM     50  C   UNL     1      -1.790  -8.543  11.556  1.00  0.00     0.212 CG0
ATOM     51  G   UNL     1      -1.115  -8.609  10.172  1.00  0.00     0.000 G0
BRANCH  50  52
ATOM     52  N   UNL     1      -1.247  -7.494  12.414  1.00  0.00    -0.339 N 
ATOM     53  C   UNL     1      -1.257  -7.558  13.786  1.00  0.00     0.243 C 
ATOM     54  O   UNL     1      -1.777  -8.485  14.401  1.00  0.00    -0.273 OA
ATOM     55  H   UNL     1      -0.902  -6.648  11.965  1.00  0.00     0.164 HD
BRANCH  53  56
ATOM     56  C   UNL     1      -0.707  -6.294  14.478  1.00  0.00     0.182 C 
BRANCH  56  57
ATOM     57  N   UNL     1       0.597  -6.558  15.096  1.00  0.00    -0.344 N 
ATOM     58  C   UNL     1       1.750  -6.670  14.359  1.00  0.00     0.220 C 
ATOM     59  O   UNL     1       1.762  -6.632  13.133  1.00  0.00    -0.275 OA
ATOM     60  H   UNL     1       0.647  -6.495  16.109  1.00  0.00     0.164 HD
BRANCH  58  61
ATOM     61  C   UNL     1       2.989  -6.884  15.210  1.00  0.00     0.100 C 
BRANCH  61  62
ATOM     62  C   UNL     1       4.207  -7.360  14.418  1.00  0.00     0.010 C 
BRANCH  62  63
ATOM     63  C   UNL     1       4.069  -8.776  13.846  1.00  0.00     0.000 C 
BRANCH  63  64
ATOM     64  C   UNL     1       5.187  -9.731  14.262  1.00  0.00    -0.003 C 
ATOM     65  C   UNL     1       5.233  -9.907  15.773  1.00  0.00     0.004 C 
ENDBRANCH  63  64
ENDBRANCH  62  63
ENDBRANCH  61  62
ENDBRANCH  58  61
ENDBRANCH  56  57
BRANCH  56  66
ATOM     66  C   UNL     1      -1.712  -5.719  15.475  1.00  0.00     0.157 C 
BRANCH  66  67
ATOM     67  C   UNL     1      -1.418  -6.183  16.872  1.00  0.00     0.305 C 
ATOM     68  O   UNL     1      -1.728  -7.256  17.368  1.00  0.00    -0.252 OA
BRANCH  67  69
ATOM     69  O   UNL     1      -0.695  -5.286  17.569  1.00  0.00    -0.481 OA
ATOM     70  H   UNL     1      -0.291  -4.708  16.887  1.00  0.00     0.296 HD
ENDBRANCH  67  69
ENDBRANCH  66  67
ENDBRANCH  56  66
ENDBRANCH  53  56
ENDBRANCH  50  52
ENDBRANCH  47  50
ENDBRANCH  45  46
BRANCH  45  71
ATOM     71  C   UNL     1      -6.139  -7.930  13.677  1.00  0.00     0.037 C 
BRANCH  71  72
ATOM     72  C   UNL     1      -5.087  -7.370  14.638  1.00  0.00     0.026 C 
BRANCH  72  73
ATOM     73  C   UNL     1      -4.994  -8.203  15.914  1.00  0.00     0.146 C 
BRANCH  73  74
ATOM     74  N   UNL     1      -5.102  -9.610  15.539  1.00  0.00    -0.254 NA
ATOM     75  C   UNL     1      -4.122 -10.384  15.828  1.00  0.00     0.185 C 
ATOM     76  N   UNL     1      -4.193 -11.683  15.497  1.00  0.00    -0.370 N 
ATOM     77  N   UNL     1      -2.966 -10.088  16.448  1.00  0.00    -0.370 N 
ATOM     78  H   UNL     1      -5.029 -11.989  15.020  1.00  0.00     0.159 HD
ATOM     79  H   UNL     1      -3.413 -12.314  15.560  1.00  0.00     0.159 HD
ATOM     80  H   UNL     1      -2.776  -9.148  16.758  1.00  0.00     0.159 HD
ATOM     81  H   UNL     1      -2.317 -10.806  16.725  1.00  0.00     0.159 HD
ENDBRANCH  73  74
ENDBRANCH  72  73
ENDBRANCH  71  72
ENDBRANCH  45  71
ENDBRANCH   3  45
TORSDOF 20
ENDMDL
MODEL 46
REMARK VINA RESULT:    -4.273     12.169     15.700
REMARK INTER + INTRA:         -19.016
REMARK INTER:                 -11.439
REMARK INTRA:                  -7.577
REMARK UNBOUND:                -6.750
REMARK SMILES CCCCCC(=O)N[C@H](CC(=O)O)C(=O)N[C@H]1C(=O)N[C@H](CCCN=C(N)N)C(=O)N[C@@H]2CC[C@H](O)N(C2=O)[C@@H](CC(C)C)C(=O)N(C)[C@@H](Cc2ccccc2)C(=O)N[C@H](C(C)C)C(=O)O[C@@H]1C
REMARK SMILES IDX 30 1 31 2 29 3 32 5 35 6 37 7 34 8 38 9 33 10 39 11 36 12
REMARK SMILES IDX 40 14 41 15 42 16 43 17 44 18 45 19 46 20 47 21 48 22 49 23
REMARK SMILES IDX 50 24 51 25 52 26 56 27 53 28 55 29 54 30 57 31 58 32 59 33
REMARK SMILES IDX 60 35 61 36 62 37 63 38 64 39 65 40 66 41 67 42 68 43 21 45
REMARK SMILES IDX 20 46 18 47 19 48 17 50 16 52 14 53 15 54 9 56 8 57 6 58
REMARK SMILES IDX 7 59 5 61 4 62 3 63 2 64 1 65 10 66 11 67 12 68 13 69 22 71
REMARK SMILES IDX 23 72 24 73 25 74 26 75 27 76 28 77
REMARK H PARENT 31 4 36 13 59 34 20 49 16 55 8 60 13 70 27 78 27 79 28 80
REMARK H PARENT 28 81
REMARK Flexibility Score:  259.900
ROOT
ATOM      1  O   UNL     1      -6.953 -10.066  10.653  1.00  0.00    -0.273 OA
ATOM      2  N   UNL     1      -5.698 -10.840  12.401  1.00  0.00    -0.343 N 
ATOM      3  C   UNL     1      -6.100  -9.862  11.517  1.00  0.00     0.243 C 
ATOM      4  H   UNL     1      -5.004 -10.632  13.109  1.00  0.00     0.164 HD
ENDROOT
BRANCH   2   5
ATOM      5  C   UNL     1      -6.190 -12.207  12.270  1.00  0.00     0.171 C 
ATOM      6  C   UNL     1      -5.715 -14.621  13.803  1.00  0.00     0.214 C 
ATOM      7  N   UNL     1      -4.870 -14.322  12.671  1.00  0.00    -0.303 N 
ATOM      8  C   UNL     1      -7.129 -14.081  13.659  1.00  0.00     0.057 C 
ATOM      9  C   UNL     1      -5.010 -13.161  11.927  1.00  0.00     0.247 C 
ATOM     10  C   UNL     1      -7.086 -12.584  13.448  1.00  0.00     0.040 C 
ATOM     11  O   UNL     1      -4.227 -12.870  11.013  1.00  0.00    -0.272 OA
BRANCH   6  12
ATOM     12  O   UNL     1      -5.099 -14.088  14.953  1.00  0.00    -0.373 OA
ATOM     13  H   UNL     1      -4.712 -14.842  15.448  1.00  0.00     0.213 HD
ENDBRANCH   6  12
BRANCH   7  14
ATOM     14  C   UNL     1      -3.739 -15.239  12.417  1.00  0.00     0.177 C 
BRANCH  14  15
ATOM     15  C   UNL     1      -3.777 -15.967  11.059  1.00  0.00     0.038 C 
BRANCH  15  16
ATOM     16  C   UNL     1      -5.010 -16.819  10.686  1.00  0.00    -0.015 C 
ATOM     17  C   UNL     1      -4.760 -18.319  10.865  1.00  0.00     0.007 C 
ATOM     18  C   UNL     1      -5.391 -16.567   9.222  1.00  0.00     0.007 C 
ENDBRANCH  15  16
ENDBRANCH  14  15
BRANCH  14  19
ATOM     19  C   UNL     1      -2.445 -14.716  13.130  1.00  0.00     0.245 C 
ATOM     20  O   UNL     1      -2.490 -13.567  13.600  1.00  0.00    -0.272 OA
BRANCH  19  21
ATOM     21  N   UNL     1      -1.248 -15.410  13.162  1.00  0.00    -0.332 N 
ATOM     22  C   UNL     1      -1.012 -16.651  13.880  1.00  0.00     0.147 C 
BRANCH  21  23
ATOM     23  C   UNL     1      -0.094 -14.843  12.411  1.00  0.00     0.178 C 
BRANCH  23  24
ATOM     24  C   UNL     1       1.272 -15.469  12.757  1.00  0.00     0.070 C 
BRANCH  24  25
ATOM     25  C   UNL     1       2.506 -14.700  12.345  1.00  0.00    -0.045 A 
ATOM     26  C   UNL     1       3.207 -15.037  11.180  1.00  0.00     0.004 A 
ATOM     27  C   UNL     1       2.970 -13.635  13.131  1.00  0.00     0.004 A 
ATOM     28  C   UNL     1       4.356 -14.332  10.816  1.00  0.00     0.000 A 
ATOM     29  C   UNL     1       4.118 -12.930  12.765  1.00  0.00     0.000 A 
ATOM     30  C   UNL     1       4.812 -13.281  11.609  1.00  0.00     0.000 A 
ENDBRANCH  24  25
ENDBRANCH  23  24
BRANCH  23  31
ATOM     31  C   UNL     1      -0.376 -14.690  10.897  1.00  0.00     0.243 C 
ATOM     32  O   UNL     1      -0.559 -15.635  10.133  1.00  0.00    -0.273 OA
ATOM     33  N   UNL     1      -0.222 -13.394  10.434  1.00  0.00    -0.341 N 
ATOM     34  H   UNL     1      -0.065 -12.650  11.118  1.00  0.00     0.164 HD
BRANCH  33  35
ATOM     35  C   UNL     1      -0.322 -13.035   9.017  1.00  0.00     0.194 C 
BRANCH  35  36
ATOM     36  C   UNL     1       0.847 -13.569   8.142  1.00  0.00     0.017 C 
ATOM     37  C   UNL     1       2.037 -12.594   8.143  1.00  0.00     0.010 C 
ATOM     38  C   UNL     1       0.449 -13.807   6.680  1.00  0.00     0.010 C 
ENDBRANCH  35  36
BRANCH  35  39
ATOM     39  C   UNL     1      -0.561 -11.515   8.800  1.00  0.00     0.329 C 
ATOM     40  O   UNL     1      -1.084 -11.038   7.800  1.00  0.00    -0.250 OA
BRANCH  39  41
ATOM     41  O   UNL     1      -0.200 -10.772   9.891  1.00  0.00    -0.458 OA
BRANCH  41  42
ATOM     42  C   UNL     1      -0.853  -9.488  10.035  1.00  0.00     0.205 CG0
ATOM     43  C   UNL     1       0.244  -8.431  10.143  1.00  0.00     0.056 C 
ATOM     44  G   UNL     1      -1.754  -9.532  11.285  1.00  0.00     0.000 G0
ENDBRANCH  41  42
ENDBRANCH  39  41
ENDBRANCH  35  39
ENDBRANCH  33  35
ENDBRANCH  23  31
ENDBRANCH  21  23
ENDBRANCH  19  21
ENDBRANCH  14  19
ENDBRANCH   7  14
ENDBRANCH   2   5
BRANCH   3  45
ATOM     45  C   UNL     1      -5.425  -8.496  11.698  1.00  0.00     0.171 C 
BRANCH  45  46
ATOM     46  N   UNL     1      -4.011  -8.779  11.901  1.00  0.00    -0.342 N 
ATOM     47  C   UNL     1      -3.183  -9.165  10.877  1.00  0.00     0.247 C 
ATOM     48  O   UNL     1      -3.555  -9.230   9.705  1.00  0.00    -0.273 OA
ATOM     49  H   UNL     1      -3.648  -8.682  12.847  1.00  0.00     0.164 HD
BRANCH  47  50
ATOM     50  C   UNL     1      -1.756  -9.540  11.301  1.00  0.00     0.212 CG0
ATOM     51  G   UNL     1      -0.865  -9.488  10.044  1.00  0.00     0.000 G0
BRANCH  50  52
ATOM     52  N   UNL     1      -1.380  -8.559  12.316  1.00  0.00    -0.339 N 
ATOM     53  C   UNL     1      -1.064  -8.893  13.610  1.00  0.00     0.243 C 
ATOM     54  O   UNL     1      -1.125 -10.046  14.030  1.00  0.00    -0.273 OA
ATOM     55  H   UNL     1      -1.419  -7.575  12.059  1.00  0.00     0.164 HD
BRANCH  53  56
ATOM     56  C   UNL     1      -0.785  -7.681  14.521  1.00  0.00     0.182 C 
BRANCH  56  57
ATOM     57  N   UNL     1      -1.262  -6.438  13.905  1.00  0.00    -0.344 N 
ATOM     58  C   UNL     1      -1.994  -5.506  14.599  1.00  0.00     0.220 C 
ATOM     59  O   UNL     1      -2.361  -5.679  15.756  1.00  0.00    -0.275 OA
ATOM     60  H   UNL     1      -0.895  -6.211  12.984  1.00  0.00     0.164 HD
BRANCH  58  61
ATOM     61  C   UNL     1      -2.329  -4.273  13.780  1.00  0.00     0.100 C 
BRANCH  61  62
ATOM     62  C   UNL     1      -2.168  -4.472  12.273  1.00  0.00     0.010 C 
BRANCH  62  63
ATOM     63  C   UNL     1      -1.127  -3.550  11.626  1.00  0.00     0.000 C 
BRANCH  63  64
ATOM     64  C   UNL     1      -0.601  -4.046  10.280  1.00  0.00    -0.003 C 
ATOM     65  C   UNL     1      -1.719  -4.153   9.253  1.00  0.00     0.004 C 
ENDBRANCH  63  64
ENDBRANCH  62  63
ENDBRANCH  61  62
ENDBRANCH  58  61
ENDBRANCH  56  57
BRANCH  56  66
ATOM     66  C   UNL     1       0.690  -7.601  14.911  1.00  0.00     0.157 C 
BRANCH  66  67
ATOM     67  C   UNL     1       1.531  -7.121  13.764  1.00  0.00     0.305 C 
ATOM     68  O   UNL     1       2.012  -7.803  12.872  1.00  0.00    -0.252 OA
BRANCH  67  69
ATOM     69  O   UNL     1       1.685  -5.783  13.767  1.00  0.00    -0.481 OA
ATOM     70  H   UNL     1       1.788  -5.541  12.822  1.00  0.00     0.296 HD
ENDBRANCH  67  69
ENDBRANCH  66  67
ENDBRANCH  56  66
ENDBRANCH  53  56
ENDBRANCH  50  52
ENDBRANCH  47  50
ENDBRANCH  45  46
BRANCH  45  71
ATOM     71  C   UNL     1      -6.032  -7.756  12.895  1.00  0.00     0.037 C 
BRANCH  71  72
ATOM     72  C   UNL     1      -5.000  -7.500  13.996  1.00  0.00     0.026 C 
BRANCH  72  73
ATOM     73  C   UNL     1      -5.339  -8.268  15.272  1.00  0.00     0.146 C 
BRANCH  73  74
ATOM     74  N   UNL     1      -5.094  -9.685  15.018  1.00  0.00    -0.254 NA
ATOM     75  C   UNL     1      -4.068 -10.223  15.567  1.00  0.00     0.185 C 
ATOM     76  N   UNL     1      -3.816 -11.524  15.354  1.00  0.00    -0.370 N 
ATOM     77  N   UNL     1      -3.148  -9.661  16.371  1.00  0.00    -0.370 N 
ATOM     78  H   UNL     1      -4.458 -12.022  14.753  1.00  0.00     0.159 HD
ATOM     79  H   UNL     1      -2.962 -11.975  15.629  1.00  0.00     0.159 HD
ATOM     80  H   UNL     1      -3.211  -8.686  16.622  1.00  0.00     0.159 HD
ATOM     81  H   UNL     1      -2.447 -10.213  16.838  1.00  0.00     0.159 HD
ENDBRANCH  73  74
ENDBRANCH  72  73
ENDBRANCH  71  72
ENDBRANCH  45  71
ENDBRANCH   3  45
TORSDOF 20
ENDMDL
MODEL 47
REMARK VINA RESULT:    -4.201     11.746     14.924
REMARK INTER + INTRA:         -18.810
REMARK INTER:                 -11.825
REMARK INTRA:                  -6.985
REMARK UNBOUND:                -6.750
REMARK SMILES CCCCCC(=O)N[C@H](CC(=O)O)C(=O)N[C@H]1C(=O)N[C@H](CCCN=C(N)N)C(=O)N[C@@H]2CC[C@H](O)N(C2=O)[C@@H](CC(C)C)C(=O)N(C)[C@@H](Cc2ccccc2)C(=O)N[C@H](C(C)C)C(=O)O[C@@H]1C
REMARK SMILES IDX 30 1 31 2 29 3 32 5 35 6 37 7 34 8 38 9 33 10 39 11 36 12
REMARK SMILES IDX 40 14 41 15 42 16 43 17 44 18 45 19 46 20 47 21 48 22 49 23
REMARK SMILES IDX 50 24 51 25 52 26 56 27 53 28 55 29 54 30 57 31 58 32 59 33
REMARK SMILES IDX 60 35 61 36 62 37 63 38 64 39 65 40 66 41 67 42 68 43 21 45
REMARK SMILES IDX 20 46 18 47 19 48 17 50 16 52 14 53 15 54 9 56 8 57 6 58
REMARK SMILES IDX 7 59 5 61 4 62 3 63 2 64 1 65 10 66 11 67 12 68 13 69 22 71
REMARK SMILES IDX 23 72 24 73 25 74 26 75 27 76 28 77
REMARK H PARENT 31 4 36 13 59 34 20 49 16 55 8 60 13 70 27 78 27 79 28 80
REMARK H PARENT 28 81
REMARK Flexibility Score:  259.900
ROOT
ATOM      1  O   UNL     1      -3.101  -8.713   9.763  1.00  0.00    -0.273 OA
ATOM      2  N   UNL     1      -4.224  -9.315  11.662  1.00  0.00    -0.343 N 
ATOM      3  C   UNL     1      -3.214  -8.662  10.988  1.00  0.00     0.243 C 
ATOM      4  H   UNL     1      -4.295  -9.239  12.669  1.00  0.00     0.164 HD
ENDROOT
BRANCH   2   5
ATOM      5  C   UNL     1      -5.140 -10.200  10.951  1.00  0.00     0.171 C 
ATOM      6  C   UNL     1      -6.972 -12.261  11.846  1.00  0.00     0.214 C 
ATOM      7  N   UNL     1      -5.618 -12.618  11.496  1.00  0.00    -0.303 N 
ATOM      8  C   UNL     1      -7.499 -11.064  11.070  1.00  0.00     0.057 C 
ATOM      9  C   UNL     1      -4.677 -11.676  11.110  1.00  0.00     0.247 C 
ATOM     10  C   UNL     1      -6.594  -9.872  11.290  1.00  0.00     0.040 C 
ATOM     11  O   UNL     1      -3.496 -11.978  10.895  1.00  0.00    -0.272 OA
BRANCH   6  12
ATOM     12  O   UNL     1      -7.005 -12.002  13.231  1.00  0.00    -0.373 OA
ATOM     13  H   UNL     1      -7.418 -12.783  13.659  1.00  0.00     0.213 HD
ENDBRANCH   6  12
BRANCH   7  14
ATOM     14  C   UNL     1      -5.220 -14.026  11.706  1.00  0.00     0.177 C 
BRANCH  14  15
ATOM     15  C   UNL     1      -4.907 -14.819  10.422  1.00  0.00     0.038 C 
BRANCH  15  16
ATOM     16  C   UNL     1      -5.449 -16.257  10.265  1.00  0.00    -0.015 C 
ATOM     17  C   UNL     1      -5.946 -16.542   8.844  1.00  0.00     0.007 C 
ATOM     18  C   UNL     1      -6.615 -16.481  11.236  1.00  0.00     0.007 C 
ENDBRANCH  15  16
ENDBRANCH  14  15
BRANCH  14  19
ATOM     19  C   UNL     1      -4.467 -14.180  13.073  1.00  0.00     0.245 C 
ATOM     20  O   UNL     1      -4.531 -13.219  13.858  1.00  0.00    -0.272 OA
BRANCH  19  21
ATOM     21  N   UNL     1      -3.661 -15.258  13.392  1.00  0.00    -0.332 N 
ATOM     22  C   UNL     1      -4.128 -16.542  13.884  1.00  0.00     0.147 C 
BRANCH  21  23
ATOM     23  C   UNL     1      -2.189 -15.098  13.233  1.00  0.00     0.178 C 
BRANCH  23  24
ATOM     24  C   UNL     1      -1.739 -14.613  11.840  1.00  0.00     0.070 C 
BRANCH  24  25
ATOM     25  C   UNL     1      -0.569 -15.330  11.207  1.00  0.00    -0.045 A 
ATOM     26  C   UNL     1       0.246 -16.181  11.964  1.00  0.00     0.004 A 
ATOM     27  C   UNL     1      -0.279 -15.146   9.847  1.00  0.00     0.004 A 
ATOM     28  C   UNL     1       1.336 -16.826  11.375  1.00  0.00     0.000 A 
ATOM     29  C   UNL     1       0.810 -15.792   9.259  1.00  0.00     0.000 A 
ATOM     30  C   UNL     1       1.618 -16.630  10.025  1.00  0.00     0.000 A 
ENDBRANCH  24  25
ENDBRANCH  23  24
BRANCH  23  31
ATOM     31  C   UNL     1      -1.530 -14.362  14.424  1.00  0.00     0.243 C 
ATOM     32  O   UNL     1      -1.540 -14.778  15.580  1.00  0.00    -0.273 OA
ATOM     33  N   UNL     1      -1.083 -13.090  14.108  1.00  0.00    -0.341 N 
ATOM     34  H   UNL     1      -1.106 -12.797  13.128  1.00  0.00     0.164 HD
BRANCH  33  35
ATOM     35  C   UNL     1      -0.533 -12.166  15.104  1.00  0.00     0.194 C 
BRANCH  35  36
ATOM     36  C   UNL     1      -1.579 -11.185  15.706  1.00  0.00     0.017 C 
ATOM     37  C   UNL     1      -2.476 -10.584  14.611  1.00  0.00     0.010 C 
ATOM     38  C   UNL     1      -0.942 -10.018  16.470  1.00  0.00     0.010 C 
ENDBRANCH  35  36
BRANCH  35  39
ATOM     39  C   UNL     1       0.734 -11.424  14.596  1.00  0.00     0.329 C 
ATOM     40  O   UNL     1       1.879 -11.722  14.916  1.00  0.00    -0.250 OA
BRANCH  39  41
ATOM     41  O   UNL     1       0.435 -10.452  13.681  1.00  0.00    -0.458 OA
BRANCH  41  42
ATOM     42  C   UNL     1       1.540  -9.630  13.235  1.00  0.00     0.205 CG0
ATOM     43  C   UNL     1       1.599  -8.411  14.154  1.00  0.00     0.056 C 
ATOM     44  G   UNL     1       1.304  -9.246  11.761  1.00  0.00     0.000 G0
ENDBRANCH  41  42
ENDBRANCH  39  41
ENDBRANCH  35  39
ENDBRANCH  33  35
ENDBRANCH  23  31
ENDBRANCH  21  23
ENDBRANCH  19  21
ENDBRANCH  14  19
ENDBRANCH   7  14
ENDBRANCH   2   5
BRANCH   3  45
ATOM     45  C   UNL     1      -2.254  -7.851  11.868  1.00  0.00     0.171 C 
BRANCH  45  46
ATOM     46  N   UNL     1      -1.052  -8.664  11.992  1.00  0.00    -0.342 N 
ATOM     47  C   UNL     1       0.194  -8.191  11.664  1.00  0.00     0.247 C 
ATOM     48  O   UNL     1       0.396  -7.028  11.312  1.00  0.00    -0.273 OA
ATOM     49  H   UNL     1      -1.167  -9.616  12.334  1.00  0.00     0.164 HD
BRANCH  47  50
ATOM     50  C   UNL     1       1.324  -9.227  11.741  1.00  0.00     0.212 CG0
ATOM     51  G   UNL     1       1.506  -9.612  13.223  1.00  0.00     0.000 G0
BRANCH  50  52
ATOM     52  N   UNL     1       0.887 -10.343  10.905  1.00  0.00    -0.339 N 
ATOM     53  C   UNL     1       1.528 -10.718   9.750  1.00  0.00     0.243 C 
ATOM     54  O   UNL     1       2.493 -10.107   9.300  1.00  0.00    -0.273 OA
ATOM     55  H   UNL     1       0.026 -10.820  11.166  1.00  0.00     0.164 HD
BRANCH  53  56
ATOM     56  C   UNL     1       0.833 -11.867   8.991  1.00  0.00     0.182 C 
BRANCH  56  57
ATOM     57  N   UNL     1       1.307 -11.945   7.606  1.00  0.00    -0.344 N 
ATOM     58  C   UNL     1       2.316 -12.793   7.219  1.00  0.00     0.220 C 
ATOM     59  O   UNL     1       2.940 -13.487   8.015  1.00  0.00    -0.275 OA
ATOM     60  H   UNL     1       0.752 -11.465   6.902  1.00  0.00     0.164 HD
BRANCH  58  61
ATOM     61  C   UNL     1       2.601 -12.750   5.730  1.00  0.00     0.100 C 
BRANCH  61  62
ATOM     62  C   UNL     1       3.046 -14.092   5.148  1.00  0.00     0.010 C 
BRANCH  62  63
ATOM     63  C   UNL     1       1.890 -15.020   4.754  1.00  0.00     0.000 C 
BRANCH  63  64
ATOM     64  C   UNL     1       1.689 -16.206   5.696  1.00  0.00    -0.003 C 
ATOM     65  C   UNL     1       3.014 -16.696   6.262  1.00  0.00     0.004 C 
ENDBRANCH  63  64
ENDBRANCH  62  63
ENDBRANCH  61  62
ENDBRANCH  58  61
ENDBRANCH  56  57
BRANCH  56  66
ATOM     66  C   UNL     1      -0.688 -11.754   9.075  1.00  0.00     0.157 C 
BRANCH  66  67
ATOM     67  C   UNL     1      -1.280 -11.376   7.748  1.00  0.00     0.305 C 
ATOM     68  O   UNL     1      -1.265 -12.041   6.723  1.00  0.00    -0.252 OA
BRANCH  67  69
ATOM     69  O   UNL     1      -1.913 -10.189   7.790  1.00  0.00    -0.481 OA
ATOM     70  H   UNL     1      -2.866 -10.412   7.729  1.00  0.00     0.296 HD
ENDBRANCH  67  69
ENDBRANCH  66  67
ENDBRANCH  56  66
ENDBRANCH  53  56
ENDBRANCH  50  52
ENDBRANCH  47  50
ENDBRANCH  45  46
BRANCH  45  71
ATOM     71  C   UNL     1      -2.891  -7.570  13.234  1.00  0.00     0.037 C 
BRANCH  71  72
ATOM     72  C   UNL     1      -2.087  -6.550  14.045  1.00  0.00     0.026 C 
BRANCH  72  73
ATOM     73  C   UNL     1      -2.819  -6.149  15.323  1.00  0.00     0.146 C 
BRANCH  73  74
ATOM     74  N   UNL     1      -4.069  -6.901  15.378  1.00  0.00    -0.254 NA
ATOM     75  C   UNL     1      -5.149  -6.252  15.613  1.00  0.00     0.185 C 
ATOM     76  N   UNL     1      -6.315  -6.916  15.668  1.00  0.00    -0.370 N 
ATOM     77  N   UNL     1      -5.314  -4.935  15.827  1.00  0.00    -0.370 N 
ATOM     78  H   UNL     1      -6.279  -7.916  15.526  1.00  0.00     0.159 HD
ATOM     79  H   UNL     1      -7.173  -6.503  15.989  1.00  0.00     0.159 HD
ATOM     80  H   UNL     1      -4.523  -4.309  15.811  1.00  0.00     0.159 HD
ATOM     81  H   UNL     1      -6.229  -4.520  15.887  1.00  0.00     0.159 HD
ENDBRANCH  73  74
ENDBRANCH  72  73
ENDBRANCH  71  72
ENDBRANCH  45  71
ENDBRANCH   3  45
TORSDOF 20
ENDMDL
MODEL 48
REMARK VINA RESULT:    -4.178      4.365     10.341
REMARK INTER + INTRA:         -18.745
REMARK INTER:                 -16.329
REMARK INTRA:                  -2.416
REMARK UNBOUND:                -6.750
REMARK SMILES CCCCCC(=O)N[C@H](CC(=O)O)C(=O)N[C@H]1C(=O)N[C@H](CCCN=C(N)N)C(=O)N[C@@H]2CC[C@H](O)N(C2=O)[C@@H](CC(C)C)C(=O)N(C)[C@@H](Cc2ccccc2)C(=O)N[C@H](C(C)C)C(=O)O[C@@H]1C
REMARK SMILES IDX 30 1 31 2 29 3 32 5 35 6 37 7 34 8 38 9 33 10 39 11 36 12
REMARK SMILES IDX 40 14 41 15 42 16 43 17 44 18 45 19 46 20 47 21 48 22 49 23
REMARK SMILES IDX 50 24 51 25 52 26 56 27 53 28 55 29 54 30 57 31 58 32 59 33
REMARK SMILES IDX 60 35 61 36 62 37 63 38 64 39 65 40 66 41 67 42 68 43 21 45
REMARK SMILES IDX 20 46 18 47 19 48 17 50 16 52 14 53 15 54 9 56 8 57 6 58
REMARK SMILES IDX 7 59 5 61 4 62 3 63 2 64 1 65 10 66 11 67 12 68 13 69 22 71
REMARK SMILES IDX 23 72 24 73 25 74 26 75 27 76 28 77
REMARK H PARENT 31 4 36 13 59 34 20 49 16 55 8 60 13 70 27 78 27 79 28 80
REMARK H PARENT 28 81
REMARK Flexibility Score:  259.900
ROOT
ATOM      1  O   UNL     1     -14.019 -11.738   5.510  1.00  0.00    -0.273 OA
ATOM      2  N   UNL     1     -13.679  -9.495   5.804  1.00  0.00    -0.343 N 
ATOM      3  C   UNL     1     -13.352 -10.821   5.992  1.00  0.00     0.243 C 
ATOM      4  H   UNL     1     -13.099  -8.768   6.204  1.00  0.00     0.164 HD
ENDROOT
BRANCH   2   5
ATOM      5  C   UNL     1     -14.911  -9.124   5.117  1.00  0.00     0.171 C 
ATOM      6  C   UNL     1     -16.497 -10.441   3.079  1.00  0.00     0.214 C 
ATOM      7  N   UNL     1     -15.453  -9.526   2.685  1.00  0.00    -0.303 N 
ATOM      8  C   UNL     1     -17.123 -10.098   4.422  1.00  0.00     0.057 C 
ATOM      9  C   UNL     1     -14.625  -8.902   3.605  1.00  0.00     0.247 C 
ATOM     10  C   UNL     1     -16.054 -10.067   5.492  1.00  0.00     0.040 C 
ATOM     11  O   UNL     1     -13.677  -8.187   3.255  1.00  0.00    -0.272 OA
BRANCH   6  12
ATOM     12  O   UNL     1     -15.945 -11.737   3.110  1.00  0.00    -0.373 OA
ATOM     13  H   UNL     1     -15.207 -11.750   2.464  1.00  0.00     0.213 HD
ENDBRANCH   6  12
BRANCH   7  14
ATOM     14  C   UNL     1     -15.196  -9.385   1.236  1.00  0.00     0.177 C 
BRANCH  14  15
ATOM     15  C   UNL     1     -15.500  -7.994   0.647  1.00  0.00     0.038 C 
BRANCH  15  16
ATOM     16  C   UNL     1     -16.746  -7.219   1.129  1.00  0.00    -0.015 C 
ATOM     17  C   UNL     1     -17.474  -6.512  -0.017  1.00  0.00     0.007 C 
ATOM     18  C   UNL     1     -16.333  -6.161   2.161  1.00  0.00     0.007 C 
ENDBRANCH  15  16
ENDBRANCH  14  15
BRANCH  14  19
ATOM     19  C   UNL     1     -14.011 -10.315   0.801  1.00  0.00     0.245 C 
ATOM     20  O   UNL     1     -12.903  -9.775   0.649  1.00  0.00    -0.272 OA
BRANCH  19  21
ATOM     21  N   UNL     1     -14.160 -11.652   0.475  1.00  0.00    -0.332 N 
ATOM     22  C   UNL     1     -15.379 -12.270  -0.013  1.00  0.00     0.147 C 
BRANCH  21  23
ATOM     23  C   UNL     1     -12.980 -12.545   0.647  1.00  0.00     0.178 C 
BRANCH  23  24
ATOM     24  C   UNL     1     -11.655 -11.976   0.099  1.00  0.00     0.070 C 
BRANCH  24  25
ATOM     25  C   UNL     1     -10.394 -12.318   0.857  1.00  0.00    -0.045 A 
ATOM     26  C   UNL     1      -9.730 -11.348   1.620  1.00  0.00     0.004 A 
ATOM     27  C   UNL     1      -9.866 -13.617   0.804  1.00  0.00     0.004 A 
ATOM     28  C   UNL     1      -8.555 -11.668   2.304  1.00  0.00     0.000 A 
ATOM     29  C   UNL     1      -8.692 -13.935   1.489  1.00  0.00     0.000 A 
ATOM     30  C   UNL     1      -8.036 -12.959   2.237  1.00  0.00     0.000 A 
ENDBRANCH  24  25
ENDBRANCH  23  24
BRANCH  23  31
ATOM     31  C   UNL     1     -12.889 -13.159   2.064  1.00  0.00     0.243 C 
ATOM     32  O   UNL     1     -12.228 -12.677   2.980  1.00  0.00    -0.273 OA
ATOM     33  N   UNL     1     -13.472 -14.411   2.163  1.00  0.00    -0.341 N 
ATOM     34  H   UNL     1     -14.006 -14.762   1.364  1.00  0.00     0.164 HD
BRANCH  33  35
ATOM     35  C   UNL     1     -13.403 -15.231   3.376  1.00  0.00     0.194 C 
BRANCH  35  36
ATOM     36  C   UNL     1     -13.494 -16.760   3.114  1.00  0.00     0.017 C 
ATOM     37  C   UNL     1     -12.149 -17.324   2.622  1.00  0.00     0.010 C 
ATOM     38  C   UNL     1     -14.556 -17.134   2.072  1.00  0.00     0.010 C 
ENDBRANCH  35  36
BRANCH  35  39
ATOM     39  C   UNL     1     -14.408 -14.769   4.468  1.00  0.00     0.329 C 
ATOM     40  O   UNL     1     -15.620 -14.701   4.300  1.00  0.00    -0.250 OA
BRANCH  39  41
ATOM     41  O   UNL     1     -13.798 -14.528   5.668  1.00  0.00    -0.458 OA
BRANCH  41  42
ATOM     42  C   UNL     1     -12.887 -15.550   6.140  1.00  0.00     0.205 CG0
ATOM     43  C   UNL     1     -13.725 -16.613   6.848  1.00  0.00     0.056 C 
ATOM     44  G   UNL     1     -11.854 -14.892   7.076  1.00  0.00     0.000 G0
ENDBRANCH  41  42
ENDBRANCH  39  41
ENDBRANCH  35  39
ENDBRANCH  33  35
ENDBRANCH  23  31
ENDBRANCH  21  23
ENDBRANCH  19  21
ENDBRANCH  14  19
ENDBRANCH   7  14
ENDBRANCH   2   5
BRANCH   3  45
ATOM     45  C   UNL     1     -12.089 -11.076   6.824  1.00  0.00     0.171 C 
BRANCH  45  46
ATOM     46  N   UNL     1     -12.167 -12.469   7.243  1.00  0.00    -0.342 N 
ATOM     47  C   UNL     1     -11.535 -13.479   6.561  1.00  0.00     0.247 C 
ATOM     48  O   UNL     1     -10.801 -13.275   5.594  1.00  0.00    -0.273 OA
ATOM     49  H   UNL     1     -12.719 -12.675   8.073  1.00  0.00     0.164 HD
BRANCH  47  50
ATOM     50  C   UNL     1     -11.832 -14.895   7.075  1.00  0.00     0.212 CG0
ATOM     51  G   UNL     1     -12.897 -15.515   6.148  1.00  0.00     0.000 G0
BRANCH  50  52
ATOM     52  N   UNL     1     -10.554 -15.599   7.038  1.00  0.00    -0.339 N 
ATOM     53  C   UNL     1      -9.426 -15.154   7.685  1.00  0.00     0.243 C 
ATOM     54  O   UNL     1      -9.394 -14.095   8.305  1.00  0.00    -0.273 OA
ATOM     55  H   UNL     1     -10.487 -16.426   6.448  1.00  0.00     0.164 HD
BRANCH  53  56
ATOM     56  C   UNL     1      -8.174 -16.017   7.429  1.00  0.00     0.182 C 
BRANCH  56  57
ATOM     57  N   UNL     1      -7.054 -15.580   8.268  1.00  0.00    -0.344 N 
ATOM     58  C   UNL     1      -6.824 -16.100   9.518  1.00  0.00     0.220 C 
ATOM     59  O   UNL     1      -7.578 -16.908  10.049  1.00  0.00    -0.275 OA
ATOM     60  H   UNL     1      -6.351 -14.991   7.828  1.00  0.00     0.164 HD
BRANCH  58  61
ATOM     61  C   UNL     1      -5.577 -15.545  10.181  1.00  0.00     0.100 C 
BRANCH  61  62
ATOM     62  C   UNL     1      -5.624 -14.035  10.417  1.00  0.00     0.010 C 
BRANCH  62  63
ATOM     63  C   UNL     1      -5.563 -13.629  11.895  1.00  0.00     0.000 C 
BRANCH  63  64
ATOM     64  C   UNL     1      -6.627 -14.288  12.771  1.00  0.00    -0.003 C 
ATOM     65  C   UNL     1      -6.903 -13.467  14.022  1.00  0.00     0.004 C 
ENDBRANCH  63  64
ENDBRANCH  62  63
ENDBRANCH  61  62
ENDBRANCH  58  61
ENDBRANCH  56  57
BRANCH  56  66
ATOM     66  C   UNL     1      -7.807 -16.046   5.946  1.00  0.00     0.157 C 
BRANCH  66  67
ATOM     67  C   UNL     1      -8.897 -16.678   5.129  1.00  0.00     0.305 C 
ATOM     68  O   UNL     1      -9.293 -17.831   5.202  1.00  0.00    -0.252 OA
BRANCH  67  69
ATOM     69  O   UNL     1      -9.476 -15.803   4.284  1.00  0.00    -0.481 OA
ATOM     70  H   UNL     1      -9.403 -16.222   3.401  1.00  0.00     0.296 HD
ENDBRANCH  67  69
ENDBRANCH  66  67
ENDBRANCH  56  66
ENDBRANCH  53  56
ENDBRANCH  50  52
ENDBRANCH  47  50
ENDBRANCH  45  46
BRANCH  45  71
ATOM     71  C   UNL     1     -12.041 -10.126   8.026  1.00  0.00     0.037 C 
BRANCH  71  72
ATOM     72  C   UNL     1     -13.436  -9.836   8.587  1.00  0.00     0.026 C 
BRANCH  72  73
ATOM     73  C   UNL     1     -13.558  -8.392   9.068  1.00  0.00     0.146 C 
BRANCH  73  74
ATOM     74  N   UNL     1     -14.312  -7.649   8.063  1.00  0.00    -0.254 NA
ATOM     75  C   UNL     1     -14.458  -6.387   8.235  1.00  0.00     0.185 C 
ATOM     76  N   UNL     1     -15.146  -5.676   7.327  1.00  0.00    -0.370 N 
ATOM     77  N   UNL     1     -14.006  -5.613   9.238  1.00  0.00    -0.370 N 
ATOM     78  H   UNL     1     -15.528  -6.183   6.542  1.00  0.00     0.159 HD
ATOM     79  H   UNL     1     -15.422  -4.720   7.467  1.00  0.00     0.159 HD
ATOM     80  H   UNL     1     -13.467  -6.013   9.992  1.00  0.00     0.159 HD
ATOM     81  H   UNL     1     -14.084  -4.610   9.207  1.00  0.00     0.159 HD
ENDBRANCH  73  74
ENDBRANCH  72  73
ENDBRANCH  71  72
ENDBRANCH  45  71
ENDBRANCH   3  45
TORSDOF 20
ENDMDL
MODEL 49
REMARK VINA RESULT:    -4.174      4.746     11.474
REMARK INTER + INTRA:         -18.733
REMARK INTER:                 -15.768
REMARK INTRA:                  -2.966
REMARK UNBOUND:                -6.750
REMARK SMILES CCCCCC(=O)N[C@H](CC(=O)O)C(=O)N[C@H]1C(=O)N[C@H](CCCN=C(N)N)C(=O)N[C@@H]2CC[C@H](O)N(C2=O)[C@@H](CC(C)C)C(=O)N(C)[C@@H](Cc2ccccc2)C(=O)N[C@H](C(C)C)C(=O)O[C@@H]1C
REMARK SMILES IDX 30 1 31 2 29 3 32 5 35 6 37 7 34 8 38 9 33 10 39 11 36 12
REMARK SMILES IDX 40 14 41 15 42 16 43 17 44 18 45 19 46 20 47 21 48 22 49 23
REMARK SMILES IDX 50 24 51 25 52 26 56 27 53 28 55 29 54 30 57 31 58 32 59 33
REMARK SMILES IDX 60 35 61 36 62 37 63 38 64 39 65 40 66 41 67 42 68 43 21 45
REMARK SMILES IDX 20 46 18 47 19 48 17 50 16 52 14 53 15 54 9 56 8 57 6 58
REMARK SMILES IDX 7 59 5 61 4 62 3 63 2 64 1 65 10 66 11 67 12 68 13 69 22 71
REMARK SMILES IDX 23 72 24 73 25 74 26 75 27 76 28 77
REMARK H PARENT 31 4 36 13 59 34 20 49 16 55 8 60 13 70 27 78 27 79 28 80
REMARK H PARENT 28 81
REMARK Flexibility Score:  259.900
ROOT
ATOM      1  O   UNL     1     -12.197 -15.972   4.496  1.00  0.00    -0.273 OA
ATOM      2  N   UNL     1     -13.865 -17.113   5.567  1.00  0.00    -0.343 N 
ATOM      3  C   UNL     1     -12.557 -16.706   5.417  1.00  0.00     0.243 C 
ATOM      4  H   UNL     1     -14.127 -17.705   6.345  1.00  0.00     0.164 HD
ENDROOT
BRANCH   2   5
ATOM      5  C   UNL     1     -14.866 -16.782   4.558  1.00  0.00     0.171 C 
ATOM      6  C   UNL     1     -14.811 -15.057   2.229  1.00  0.00     0.214 C 
ATOM      7  N   UNL     1     -15.239 -14.521   3.500  1.00  0.00    -0.303 N 
ATOM      8  C   UNL     1     -15.114 -16.538   2.068  1.00  0.00     0.057 C 
ATOM      9  C   UNL     1     -15.240 -15.275   4.662  1.00  0.00     0.247 C 
ATOM     10  C   UNL     1     -14.461 -17.320   3.187  1.00  0.00     0.040 C 
ATOM     11  O   UNL     1     -15.525 -14.785   5.762  1.00  0.00    -0.272 OA
BRANCH   6  12
ATOM     12  O   UNL     1     -13.427 -14.822   2.106  1.00  0.00    -0.373 OA
ATOM     13  H   UNL     1     -13.021 -15.657   1.790  1.00  0.00     0.213 HD
ENDBRANCH   6  12
BRANCH   7  14
ATOM     14  C   UNL     1     -15.541 -13.074   3.550  1.00  0.00     0.177 C 
BRANCH  14  15
ATOM     15  C   UNL     1     -14.939 -12.319   4.750  1.00  0.00     0.038 C 
BRANCH  15  16
ATOM     16  C   UNL     1     -15.872 -11.547   5.709  1.00  0.00    -0.015 C 
ATOM     17  C   UNL     1     -17.275 -11.349   5.127  1.00  0.00     0.007 C 
ATOM     18  C   UNL     1     -15.278 -10.165   6.011  1.00  0.00     0.007 C 
ENDBRANCH  15  16
ENDBRANCH  14  15
BRANCH  14  19
ATOM     19  C   UNL     1     -15.690 -12.500   2.099  1.00  0.00     0.245 C 
ATOM     20  O   UNL     1     -16.728 -12.796   1.484  1.00  0.00    -0.272 OA
BRANCH  19  21
ATOM     21  N   UNL     1     -14.698 -11.792   1.444  1.00  0.00    -0.332 N 
ATOM     22  C   UNL     1     -13.838 -12.317   0.398  1.00  0.00     0.147 C 
BRANCH  21  23
ATOM     23  C   UNL     1     -14.475 -10.375   1.844  1.00  0.00     0.178 C 
BRANCH  23  24
ATOM     24  C   UNL     1     -15.652  -9.725   2.600  1.00  0.00     0.070 C 
BRANCH  24  25
ATOM     25  C   UNL     1     -15.924  -8.264   2.323  1.00  0.00    -0.045 A 
ATOM     26  C   UNL     1     -15.937  -7.327   3.365  1.00  0.00     0.004 A 
ATOM     27  C   UNL     1     -16.173  -7.826   1.014  1.00  0.00     0.004 A 
ATOM     28  C   UNL     1     -16.206  -5.982   3.103  1.00  0.00     0.000 A 
ATOM     29  C   UNL     1     -16.441  -6.481   0.754  1.00  0.00     0.000 A 
ATOM     30  C   UNL     1     -16.460  -5.561   1.800  1.00  0.00     0.000 A 
ENDBRANCH  24  25
ENDBRANCH  23  24
BRANCH  23  31
ATOM     31  C   UNL     1     -13.083 -10.138   2.477  1.00  0.00     0.243 C 
ATOM     32  O   UNL     1     -12.364  -9.177   2.216  1.00  0.00    -0.273 OA
ATOM     33  N   UNL     1     -12.631 -11.207   3.233  1.00  0.00    -0.341 N 
ATOM     34  H   UNL     1     -13.274 -11.982   3.411  1.00  0.00     0.164 HD
BRANCH  33  35
ATOM     35  C   UNL     1     -11.293 -11.254   3.829  1.00  0.00     0.194 C 
BRANCH  35  36
ATOM     36  C   UNL     1     -10.265 -12.093   3.019  1.00  0.00     0.017 C 
ATOM     37  C   UNL     1      -8.915 -11.365   2.902  1.00  0.00     0.010 C 
ATOM     38  C   UNL     1     -10.737 -12.416   1.596  1.00  0.00     0.010 C 
ENDBRANCH  35  36
BRANCH  35  39
ATOM     39  C   UNL     1     -11.320 -11.661   5.329  1.00  0.00     0.329 C 
ATOM     40  O   UNL     1     -12.079 -11.173   6.158  1.00  0.00    -0.250 OA
BRANCH  39  41
ATOM     41  O   UNL     1     -10.461 -12.688   5.605  1.00  0.00    -0.458 OA
BRANCH  41  42
ATOM     42  C   UNL     1      -9.957 -12.756   6.960  1.00  0.00     0.205 CG0
ATOM     43  C   UNL     1      -8.904 -11.659   7.108  1.00  0.00     0.056 C 
ATOM     44  G   UNL     1      -9.379 -14.165   7.200  1.00  0.00     0.000 G0
ENDBRANCH  41  42
ENDBRANCH  39  41
ENDBRANCH  35  39
ENDBRANCH  33  35
ENDBRANCH  23  31
ENDBRANCH  21  23
ENDBRANCH  19  21
ENDBRANCH  14  19
ENDBRANCH   7  14
ENDBRANCH   2   5
BRANCH   3  45
ATOM     45  C   UNL     1     -11.584 -17.213   6.490  1.00  0.00     0.171 C 
BRANCH  45  46
ATOM     46  N   UNL     1     -10.504 -16.236   6.535  1.00  0.00    -0.342 N 
ATOM     47  C   UNL     1     -10.521 -15.159   7.385  1.00  0.00     0.247 C 
ATOM     48  O   UNL     1     -11.410 -14.978   8.217  1.00  0.00    -0.273 OA
ATOM     49  H   UNL     1      -9.720 -16.379   5.901  1.00  0.00     0.164 HD
BRANCH  47  50
ATOM     50  C   UNL     1      -9.360 -14.170   7.204  1.00  0.00     0.212 CG0
ATOM     51  G   UNL     1      -9.968 -12.773   6.969  1.00  0.00     0.000 G0
BRANCH  50  52
ATOM     52  N   UNL     1      -8.578 -14.260   8.435  1.00  0.00    -0.339 N 
ATOM     53  C   UNL     1      -7.607 -15.208   8.646  1.00  0.00     0.243 C 
ATOM     54  O   UNL     1      -7.358 -16.093   7.831  1.00  0.00    -0.273 OA
ATOM     55  H   UNL     1      -8.815 -13.623   9.193  1.00  0.00     0.164 HD
BRANCH  53  56
ATOM     56  C   UNL     1      -6.977 -15.159  10.052  1.00  0.00     0.182 C 
BRANCH  56  57
ATOM     57  N   UNL     1      -7.205 -13.856  10.686  1.00  0.00    -0.344 N 
ATOM     58  C   UNL     1      -6.877 -13.608  11.996  1.00  0.00     0.220 C 
ATOM     59  O   UNL     1      -6.441 -14.474  12.747  1.00  0.00    -0.275 OA
ATOM     60  H   UNL     1      -7.467 -13.087  10.075  1.00  0.00     0.164 HD
BRANCH  58  61
ATOM     61  C   UNL     1      -7.145 -12.176  12.422  1.00  0.00     0.100 C 
BRANCH  61  62
ATOM     62  C   UNL     1      -5.995 -11.216  12.115  1.00  0.00     0.010 C 
BRANCH  62  63
ATOM     63  C   UNL     1      -5.481 -10.442  13.336  1.00  0.00     0.000 C 
BRANCH  63  64
ATOM     64  C   UNL     1      -5.790  -8.947  13.306  1.00  0.00    -0.003 C 
ATOM     65  C   UNL     1      -5.321  -8.309  12.006  1.00  0.00     0.004 C 
ENDBRANCH  63  64
ENDBRANCH  62  63
ENDBRANCH  61  62
ENDBRANCH  58  61
ENDBRANCH  56  57
BRANCH  56  66
ATOM     66  C   UNL     1      -5.496 -15.532  10.016  1.00  0.00     0.157 C 
BRANCH  66  67
ATOM     67  C   UNL     1      -5.283 -16.955  10.447  1.00  0.00     0.305 C 
ATOM     68  O   UNL     1      -4.953 -17.893   9.738  1.00  0.00    -0.252 OA
BRANCH  67  69
ATOM     69  O   UNL     1      -5.447 -17.118  11.774  1.00  0.00    -0.481 OA
ATOM     70  H   UNL     1      -4.625 -17.560  12.075  1.00  0.00     0.296 HD
ENDBRANCH  67  69
ENDBRANCH  66  67
ENDBRANCH  56  66
ENDBRANCH  53  56
ENDBRANCH  50  52
ENDBRANCH  47  50
ENDBRANCH  45  46
BRANCH  45  71
ATOM     71  C   UNL     1     -11.068 -18.610   6.125  1.00  0.00     0.037 C 
BRANCH  71  72
ATOM     72  C   UNL     1      -9.636 -18.572   5.585  1.00  0.00     0.026 C 
BRANCH  72  73
ATOM     73  C   UNL     1      -9.609 -18.692   4.063  1.00  0.00     0.146 C 
BRANCH  73  74
ATOM     74  N   UNL     1      -8.216 -18.836   3.651  1.00  0.00    -0.254 NA
ATOM     75  C   UNL     1      -7.579 -17.776   3.312  1.00  0.00     0.185 C 
ATOM     76  N   UNL     1      -6.296 -17.876   2.930  1.00  0.00    -0.370 N 
ATOM     77  N   UNL     1      -8.014 -16.504   3.276  1.00  0.00    -0.370 N 
ATOM     78  H   UNL     1      -5.891 -18.801   2.922  1.00  0.00     0.159 HD
ATOM     79  H   UNL     1      -5.781 -17.119   2.516  1.00  0.00     0.159 HD
ATOM     80  H   UNL     1      -8.960 -16.277   3.541  1.00  0.00     0.159 HD
ATOM     81  H   UNL     1      -7.387 -15.736   3.103  1.00  0.00     0.159 HD
ENDBRANCH  73  74
ENDBRANCH  72  73
ENDBRANCH  71  72
ENDBRANCH  45  71
ENDBRANCH   3  45
TORSDOF 20
ENDMDL
MODEL 50
REMARK VINA RESULT:    -4.160     12.504     16.870
REMARK INTER + INTRA:         -18.694
REMARK INTER:                 -11.906
REMARK INTRA:                  -6.788
REMARK UNBOUND:                -6.750
REMARK SMILES CCCCCC(=O)N[C@H](CC(=O)O)C(=O)N[C@H]1C(=O)N[C@H](CCCN=C(N)N)C(=O)N[C@@H]2CC[C@H](O)N(C2=O)[C@@H](CC(C)C)C(=O)N(C)[C@@H](Cc2ccccc2)C(=O)N[C@H](C(C)C)C(=O)O[C@@H]1C
REMARK SMILES IDX 30 1 31 2 29 3 32 5 35 6 37 7 34 8 38 9 33 10 39 11 36 12
REMARK SMILES IDX 40 14 41 15 42 16 43 17 44 18 45 19 46 20 47 21 48 22 49 23
REMARK SMILES IDX 50 24 51 25 52 26 56 27 53 28 55 29 54 30 57 31 58 32 59 33
REMARK SMILES IDX 60 35 61 36 62 37 63 38 64 39 65 40 66 41 67 42 68 43 21 45
REMARK SMILES IDX 20 46 18 47 19 48 17 50 16 52 14 53 15 54 9 56 8 57 6 58
REMARK SMILES IDX 7 59 5 61 4 62 3 63 2 64 1 65 10 66 11 67 12 68 13 69 22 71
REMARK SMILES IDX 23 72 24 73 25 74 26 75 27 76 28 77
REMARK H PARENT 31 4 36 13 59 34 20 49 16 55 8 60 13 70 27 78 27 79 28 80
REMARK H PARENT 28 81
REMARK Flexibility Score:  259.900
ROOT
ATOM      1  O   UNL     1      -2.923  -9.905   9.354  1.00  0.00    -0.273 OA
ATOM      2  N   UNL     1      -3.210 -11.423  11.041  1.00  0.00    -0.343 N 
ATOM      3  C   UNL     1      -2.776 -11.048   9.787  1.00  0.00     0.243 C 
ATOM      4  H   UNL     1      -3.059 -12.368  11.370  1.00  0.00     0.164 HD
ENDROOT
BRANCH   2   5
ATOM      5  C   UNL     1      -3.978 -10.498  11.868  1.00  0.00     0.171 C 
ATOM      6  C   UNL     1      -4.606  -7.681  11.598  1.00  0.00     0.214 C 
ATOM      7  N   UNL     1      -3.422  -8.078  12.324  1.00  0.00    -0.303 N 
ATOM      8  C   UNL     1      -5.728  -8.703  11.671  1.00  0.00     0.057 C 
ATOM      9  C   UNL     1      -3.036  -9.403  12.447  1.00  0.00     0.247 C 
ATOM     10  C   UNL     1      -5.242 -10.036  11.145  1.00  0.00     0.040 C 
ATOM     11  O   UNL     1      -1.976  -9.730  12.996  1.00  0.00    -0.272 OA
BRANCH   6  12
ATOM     12  O   UNL     1      -4.233  -7.453  10.259  1.00  0.00    -0.373 OA
ATOM     13  H   UNL     1      -5.061  -7.400   9.735  1.00  0.00     0.213 HD
ENDBRANCH   6  12
BRANCH   7  14
ATOM     14  C   UNL     1      -2.542  -6.997  12.816  1.00  0.00     0.177 C 
BRANCH  14  15
ATOM     15  C   UNL     1      -2.572  -5.698  11.986  1.00  0.00     0.038 C 
BRANCH  15  16
ATOM     16  C   UNL     1      -1.349  -5.319  11.122  1.00  0.00    -0.015 C 
ATOM     17  C   UNL     1      -1.745  -4.583   9.839  1.00  0.00     0.007 C 
ATOM     18  C   UNL     1      -0.577  -6.586  10.731  1.00  0.00     0.007 C 
ENDBRANCH  15  16
ENDBRANCH  14  15
BRANCH  14  19
ATOM     19  C   UNL     1      -2.406  -7.073  14.375  1.00  0.00     0.245 C 
ATOM     20  O   UNL     1      -3.461  -7.180  15.024  1.00  0.00    -0.272 OA
BRANCH  19  21
ATOM     21  N   UNL     1      -1.211  -6.918  15.054  1.00  0.00    -0.332 N 
ATOM     22  C   UNL     1      -1.070  -6.412  16.408  1.00  0.00     0.147 C 
BRANCH  21  23
ATOM     23  C   UNL     1       0.045  -7.286  14.344  1.00  0.00     0.178 C 
BRANCH  23  24
ATOM     24  C   UNL     1       1.225  -6.319  14.576  1.00  0.00     0.070 C 
BRANCH  24  25
ATOM     25  C   UNL     1       1.869  -5.713  13.350  1.00  0.00    -0.045 A 
ATOM     26  C   UNL     1       2.776  -6.449  12.578  1.00  0.00     0.004 A 
ATOM     27  C   UNL     1       1.568  -4.396  12.971  1.00  0.00     0.004 A 
ATOM     28  C   UNL     1       3.380  -5.875  11.457  1.00  0.00     0.000 A 
ATOM     29  C   UNL     1       2.171  -3.825  11.849  1.00  0.00     0.000 A 
ATOM     30  C   UNL     1       3.079  -4.564  11.095  1.00  0.00     0.000 A 
ENDBRANCH  24  25
ENDBRANCH  23  24
BRANCH  23  31
ATOM     31  C   UNL     1       0.397  -8.786  14.478  1.00  0.00     0.243 C 
ATOM     32  O   UNL     1       0.307  -9.422  15.526  1.00  0.00    -0.273 OA
ATOM     33  N   UNL     1       1.004  -9.315  13.351  1.00  0.00    -0.341 N 
ATOM     34  H   UNL     1       1.055  -8.735  12.510  1.00  0.00     0.164 HD
BRANCH  33  35
ATOM     35  C   UNL     1       1.529 -10.682  13.294  1.00  0.00     0.194 C 
BRANCH  35  36
ATOM     36  C   UNL     1       3.079 -10.764  13.208  1.00  0.00     0.017 C 
ATOM     37  C   UNL     1       3.742 -10.121  14.439  1.00  0.00     0.010 C 
ATOM     38  C   UNL     1       3.653 -10.073  11.965  1.00  0.00     0.010 C 
ENDBRANCH  35  36
BRANCH  35  39
ATOM     39  C   UNL     1       0.841 -11.541  12.196  1.00  0.00     0.329 C 
ATOM     40  O   UNL     1       0.451 -11.098  11.122  1.00  0.00    -0.250 OA
BRANCH  39  41
ATOM     41  O   UNL     1       0.797 -12.868  12.526  1.00  0.00    -0.458 OA
BRANCH  41  42
ATOM     42  C   UNL     1      -0.519 -13.430  12.746  1.00  0.00     0.205 CG0
ATOM     43  C   UNL     1      -0.548 -13.973  14.173  1.00  0.00     0.056 C 
ATOM     44  G   UNL     1      -0.768 -14.527  11.692  1.00  0.00     0.000 G0
ENDBRANCH  41  42
ENDBRANCH  39  41
ENDBRANCH  35  39
ENDBRANCH  33  35
ENDBRANCH  23  31
ENDBRANCH  21  23
ENDBRANCH  19  21
ENDBRANCH  14  19
ENDBRANCH   7  14
ENDBRANCH   2   5
BRANCH   3  45
ATOM     45  C   UNL     1      -2.077 -12.149   8.978  1.00  0.00     0.171 C 
BRANCH  45  46
ATOM     46  N   UNL     1      -1.269 -12.891   9.937  1.00  0.00    -0.342 N 
ATOM     47  C   UNL     1      -1.759 -13.963  10.639  1.00  0.00     0.247 C 
ATOM     48  O   UNL     1      -2.888 -14.421  10.458  1.00  0.00    -0.273 OA
ATOM     49  H   UNL     1      -0.310 -12.579  10.077  1.00  0.00     0.164 HD
BRANCH  47  50
ATOM     50  C   UNL     1      -0.805 -14.540  11.695  1.00  0.00     0.212 CG0
ATOM     51  G   UNL     1      -0.527 -13.432  12.729  1.00  0.00     0.000 G0
BRANCH  50  52
ATOM     52  N   UNL     1      -1.500 -15.694  12.259  1.00  0.00    -0.339 N 
ATOM     53  C   UNL     1      -1.140 -16.994  11.999  1.00  0.00     0.243 C 
ATOM     54  O   UNL     1      -0.232 -17.288  11.226  1.00  0.00    -0.273 OA
ATOM     55  H   UNL     1      -2.331 -15.518  12.820  1.00  0.00     0.164 HD
BRANCH  53  56
ATOM     56  C   UNL     1      -2.074 -18.043  12.637  1.00  0.00     0.182 C 
BRANCH  56  57
ATOM     57  N   UNL     1      -3.482 -17.687  12.434  1.00  0.00    -0.344 N 
ATOM     58  C   UNL     1      -4.151 -17.967  11.267  1.00  0.00     0.220 C 
ATOM     59  O   UNL     1      -3.602 -18.466  10.291  1.00  0.00    -0.275 OA
ATOM     60  H   UNL     1      -3.998 -17.367  13.249  1.00  0.00     0.164 HD
BRANCH  58  61
ATOM     61  C   UNL     1      -5.613 -17.563  11.301  1.00  0.00     0.100 C 
BRANCH  61  62
ATOM     62  C   UNL     1      -5.966 -16.621  12.452  1.00  0.00     0.010 C 
BRANCH  62  63
ATOM     63  C   UNL     1      -5.984 -15.136  12.065  1.00  0.00     0.000 C 
BRANCH  63  64
ATOM     64  C   UNL     1      -5.483 -14.197  13.161  1.00  0.00    -0.003 C 
ATOM     65  C   UNL     1      -6.407 -13.000  13.331  1.00  0.00     0.004 C 
ENDBRANCH  63  64
ENDBRANCH  62  63
ENDBRANCH  61  62
ENDBRANCH  58  61
ENDBRANCH  56  57
BRANCH  56  66
ATOM     66  C   UNL     1      -1.742 -18.266  14.111  1.00  0.00     0.157 C 
BRANCH  66  67
ATOM     67  C   UNL     1      -2.884 -17.850  14.994  1.00  0.00     0.305 C 
ATOM     68  O   UNL     1      -3.011 -16.782  15.572  1.00  0.00    -0.252 OA
BRANCH  67  69
ATOM     69  O   UNL     1      -3.844 -18.791  15.066  1.00  0.00    -0.481 OA
ATOM     70  H   UNL     1      -4.534 -18.492  14.436  1.00  0.00     0.296 HD
ENDBRANCH  67  69
ENDBRANCH  66  67
ENDBRANCH  56  66
ENDBRANCH  53  56
ENDBRANCH  50  52
ENDBRANCH  47  50
ENDBRANCH  45  46
BRANCH  45  71
ATOM     71  C   UNL     1      -1.215 -11.532   7.871  1.00  0.00     0.037 C 
BRANCH  71  72
ATOM     72  C   UNL     1       0.109 -12.277   7.689  1.00  0.00     0.026 C 
BRANCH  72  73
ATOM     73  C   UNL     1       0.057 -13.232   6.498  1.00  0.00     0.146 C 
BRANCH  73  74
ATOM     74  N   UNL     1       0.424 -12.477   5.304  1.00  0.00    -0.254 NA
ATOM     75  C   UNL     1       1.583 -12.686   4.797  1.00  0.00     0.185 C 
ATOM     76  N   UNL     1       1.949 -12.007   3.697  1.00  0.00    -0.370 N 
ATOM     77  N   UNL     1       2.548 -13.524   5.211  1.00  0.00    -0.370 N 
ATOM     78  H   UNL     1       1.282 -11.348   3.323  1.00  0.00     0.159 HD
ATOM     79  H   UNL     1       2.885 -12.010   3.331  1.00  0.00     0.159 HD
ATOM     80  H   UNL     1       2.411 -14.103   6.026  1.00  0.00     0.159 HD
ATOM     81  H   UNL     1       3.377 -13.688   4.663  1.00  0.00     0.159 HD
ENDBRANCH  73  74
ENDBRANCH  72  73
ENDBRANCH  71  72
ENDBRANCH  45  71
ENDBRANCH   3  45
TORSDOF 20
ENDMDL
