MODEL 1
REMARK VINA RESULT:    -6.608      0.000      0.000
REMARK INTER + INTRA:         -20.505
REMARK INTER:                 -16.458
REMARK INTRA:                  -4.047
REMARK UNBOUND:                -4.047
REMARK SMILES CCCCCCC[C@H](N)[C@H](O)C(=O)N[C@H](C)C(=O)N(C)[C@H](CC(C)C)C(=O)N[C@@H](Cc1ccc(O)cc1)C(=O)N[C@@H](Cc1ccc(O)cc1)C(=O)O
REMARK SMILES IDX 18 1 17 2 15 3 16 4 14 5 12 6 13 7 10 9 11 10 8 12 9 13 7 16
REMARK SMILES IDX 6 17 5 18 4 19 3 20 2 21 1 22 19 23 20 24 21 25 22 26 23 27
REMARK SMILES IDX 24 28 25 29 26 30 27 31 28 32 29 34 30 35 31 36 32 37 37 38
REMARK SMILES IDX 33 39 36 40 34 41 35 42 38 44 39 45 40 46 41 48 42 49 43 50
REMARK SMILES IDX 44 51 49 52 45 53 48 54 46 55 47 56 50 58 51 59 52 60
REMARK H PARENT 14 8 11 11 9 14 9 15 28 33 35 43 40 47 47 57 52 61
ROOT
ATOM      1  O   UNL     1       4.968   2.295  -2.946  1.00  0.00    -0.272 OA
ATOM      2  C   UNL     1       4.199   1.748  -3.750  1.00  0.00     0.245 C 
ENDROOT
BRANCH   2   3
ATOM      3  C   UNL     1       3.206   0.684  -3.219  1.00  0.00     0.168 C 
ATOM      4  C   UNL     1       3.862  -0.184  -2.150  1.00  0.00     0.041 C 
BRANCH   3   5
ATOM      5  N   UNL     1       1.924   1.211  -2.777  1.00  0.00    -0.342 N 
ATOM      6  C   UNL     1       0.741   0.853  -3.386  1.00  0.00     0.251 C 
ATOM      7  O   UNL     1       0.679   0.108  -4.358  1.00  0.00    -0.272 OA
ATOM      8  H   UNL     1       1.852   1.865  -2.001  1.00  0.00     0.164 HD
BRANCH   6   9
ATOM      9  C   UNL     1      -0.494   1.417  -2.665  1.00  0.00     0.219 C 
BRANCH   9  10
ATOM     10  O   UNL     1      -0.710   0.812  -1.384  1.00  0.00    -0.382 OA
ATOM     11  H   UNL     1       0.195   0.741  -1.007  1.00  0.00     0.211 HD
ENDBRANCH   9  10
BRANCH   9  12
ATOM     12  C   UNL     1      -0.478   2.963  -2.549  1.00  0.00     0.089 C 
BRANCH  12  13
ATOM     13  N   UNL     1       0.365   3.336  -1.389  1.00  0.00    -0.325 NA
ATOM     14  H   UNL     1       0.037   2.836  -0.561  1.00  0.00     0.119 HD
ATOM     15  H   UNL     1       0.218   4.326  -1.179  1.00  0.00     0.119 HD
ENDBRANCH  12  13
BRANCH  12  16
ATOM     16  C   UNL     1      -0.018   3.733  -3.810  1.00  0.00     0.022 C 
BRANCH  16  17
ATOM     17  C   UNL     1      -1.076   4.290  -4.772  1.00  0.00     0.002 C 
BRANCH  17  18
ATOM     18  C   UNL     1      -2.190   3.312  -5.141  1.00  0.00     0.000 C 
BRANCH  18  19
ATOM     19  C   UNL     1      -1.777   2.256  -6.175  1.00  0.00    -0.000 C 
BRANCH  19  20
ATOM     20  C   UNL     1      -2.498   0.910  -6.053  1.00  0.00    -0.000 C 
BRANCH  20  21
ATOM     21  C   UNL     1      -1.906  -0.172  -6.959  1.00  0.00    -0.003 C 
ATOM     22  C   UNL     1      -2.757  -1.432  -6.948  1.00  0.00     0.004 C 
ENDBRANCH  20  21
ENDBRANCH  19  20
ENDBRANCH  18  19
ENDBRANCH  17  18
ENDBRANCH  16  17
ENDBRANCH  12  16
ENDBRANCH   9  12
ENDBRANCH   6   9
ENDBRANCH   3   5
ENDBRANCH   2   3
BRANCH   2  23
ATOM     23  N   UNL     1       4.154   2.178  -5.072  1.00  0.00    -0.332 N 
ATOM     24  C   UNL     1       3.065   1.894  -5.995  1.00  0.00     0.147 C 
BRANCH  23  25
ATOM     25  C   UNL     1       5.200   3.095  -5.599  1.00  0.00     0.174 C 
BRANCH  25  26
ATOM     26  C   UNL     1       4.623   4.435  -6.115  1.00  0.00     0.038 C 
BRANCH  26  27
ATOM     27  C   UNL     1       5.151   5.726  -5.451  1.00  0.00    -0.015 C 
ATOM     28  C   UNL     1       5.305   5.584  -3.937  1.00  0.00     0.007 C 
ATOM     29  C   UNL     1       6.443   6.246  -6.076  1.00  0.00     0.007 C 
ENDBRANCH  26  27
ENDBRANCH  25  26
BRANCH  25  30
ATOM     30  C   UNL     1       6.081   2.359  -6.635  1.00  0.00     0.243 C 
ATOM     31  O   UNL     1       6.863   1.468  -6.306  1.00  0.00    -0.273 OA
ATOM     32  N   UNL     1       5.936   2.768  -7.935  1.00  0.00    -0.342 N 
ATOM     33  H   UNL     1       5.168   3.411  -8.147  1.00  0.00     0.164 HD
BRANCH  32  34
ATOM     34  C   UNL     1       6.707   2.202  -9.045  1.00  0.00     0.175 C 
BRANCH  34  35
ATOM     35  C   UNL     1       5.815   1.936 -10.267  1.00  0.00     0.070 C 
BRANCH  35  36
ATOM     36  C   UNL     1       5.975   0.535 -10.814  1.00  0.00    -0.045 A 
ATOM     37  C   UNL     1       4.917  -0.381 -10.715  1.00  0.00     0.007 A 
ATOM     38  C   UNL     1       7.179   0.125 -11.401  1.00  0.00     0.007 A 
ATOM     39  C   UNL     1       5.060  -1.680 -11.204  1.00  0.00     0.046 A 
ATOM     40  C   UNL     1       7.323  -1.176 -11.889  1.00  0.00     0.046 A 
ATOM     41  C   UNL     1       6.260  -2.067 -11.787  1.00  0.00     0.115 A 
BRANCH  41  42
ATOM     42  O   UNL     1       6.359  -3.346 -12.249  1.00  0.00    -0.508 OA
ATOM     43  H   UNL     1       6.991  -3.825 -11.687  1.00  0.00     0.293 HD
ENDBRANCH  41  42
ENDBRANCH  35  36
ENDBRANCH  34  35
BRANCH  34  44
ATOM     44  C   UNL     1       7.860   3.178  -9.373  1.00  0.00     0.243 C 
ATOM     45  O   UNL     1       8.950   3.180  -8.807  1.00  0.00    -0.273 OA
ATOM     46  N   UNL     1       7.512   4.152 -10.285  1.00  0.00    -0.341 N 
ATOM     47  H   UNL     1       6.559   4.180 -10.639  1.00  0.00     0.164 HD
BRANCH  46  48
ATOM     48  C   UNL     1       8.416   5.227 -10.700  1.00  0.00     0.196 C 
BRANCH  48  49
ATOM     49  C   UNL     1       8.672   5.189 -12.216  1.00  0.00     0.072 C 
BRANCH  49  50
ATOM     50  C   UNL     1       9.115   3.826 -12.697  1.00  0.00    -0.045 A 
ATOM     51  C   UNL     1       8.328   3.121 -13.619  1.00  0.00     0.007 A 
ATOM     52  C   UNL     1      10.295   3.242 -12.221  1.00  0.00     0.007 A 
ATOM     53  C   UNL     1       8.719   1.857 -14.060  1.00  0.00     0.046 A 
ATOM     54  C   UNL     1      10.687   1.976 -12.662  1.00  0.00     0.046 A 
ATOM     55  C   UNL     1       9.895   1.294 -13.579  1.00  0.00     0.115 A 
BRANCH  55  56
ATOM     56  O   UNL     1      10.242   0.056 -14.034  1.00  0.00    -0.508 OA
ATOM     57  H   UNL     1      10.608   0.150 -14.928  1.00  0.00     0.293 HD
ENDBRANCH  55  56
ENDBRANCH  49  50
ENDBRANCH  48  49
BRANCH  48  58
ATOM     58  C   UNL     1       7.795   6.577 -10.316  1.00  0.00     0.326 C 
ATOM     59  O   UNL     1       6.946   6.785  -9.464  1.00  0.00    -0.250 OA
BRANCH  58  60
ATOM     60  O   UNL     1       8.292   7.623 -11.025  1.00  0.00    -0.480 OA
ATOM     61  H   UNL     1       9.226   7.674 -10.727  1.00  0.00     0.296 HD
ENDBRANCH  58  60
ENDBRANCH  48  58
ENDBRANCH  46  48
ENDBRANCH  34  44
ENDBRANCH  32  34
ENDBRANCH  25  30
ENDBRANCH  23  25
ENDBRANCH   2  23
TORSDOF 28
ENDMDL
MODEL 2
REMARK VINA RESULT:    -6.596      6.483      9.562
REMARK INTER + INTRA:         -20.475
REMARK INTER:                 -16.947
REMARK INTRA:                  -3.529
REMARK UNBOUND:                -4.047
REMARK SMILES CCCCCCC[C@H](N)[C@H](O)C(=O)N[C@H](C)C(=O)N(C)[C@H](CC(C)C)C(=O)N[C@@H](Cc1ccc(O)cc1)C(=O)N[C@@H](Cc1ccc(O)cc1)C(=O)O
REMARK SMILES IDX 18 1 17 2 15 3 16 4 14 5 12 6 13 7 10 9 11 10 8 12 9 13 7 16
REMARK SMILES IDX 6 17 5 18 4 19 3 20 2 21 1 22 19 23 20 24 21 25 22 26 23 27
REMARK SMILES IDX 24 28 25 29 26 30 27 31 28 32 29 34 30 35 31 36 32 37 37 38
REMARK SMILES IDX 33 39 36 40 34 41 35 42 38 44 39 45 40 46 41 48 42 49 43 50
REMARK SMILES IDX 44 51 49 52 45 53 48 54 46 55 47 56 50 58 51 59 52 60
REMARK H PARENT 14 8 11 11 9 14 9 15 28 33 35 43 40 47 47 57 52 61
ROOT
ATOM      1  O   UNL     1      -0.613   4.943 -10.535  1.00  0.00    -0.272 OA
ATOM      2  C   UNL     1       0.074   5.498 -11.406  1.00  0.00     0.245 C 
ENDROOT
BRANCH   2   3
ATOM      3  C   UNL     1      -0.608   6.526 -12.343  1.00  0.00     0.168 C 
ATOM      4  C   UNL     1       0.432   7.400 -13.037  1.00  0.00     0.041 C 
BRANCH   3   5
ATOM      5  N   UNL     1      -1.555   5.957 -13.289  1.00  0.00    -0.342 N 
ATOM      6  C   UNL     1      -2.894   5.824 -12.987  1.00  0.00     0.251 C 
ATOM      7  O   UNL     1      -3.377   6.130 -11.902  1.00  0.00    -0.272 OA
ATOM      8  H   UNL     1      -1.266   5.634 -14.209  1.00  0.00     0.164 HD
BRANCH   6   9
ATOM      9  C   UNL     1      -3.727   5.333 -14.183  1.00  0.00     0.219 C 
BRANCH   9  10
ATOM     10  O   UNL     1      -3.432   6.045 -15.391  1.00  0.00    -0.382 OA
ATOM     11  H   UNL     1      -2.455   5.976 -15.467  1.00  0.00     0.211 HD
ENDBRANCH   9  10
BRANCH   9  12
ATOM     12  C   UNL     1      -3.626   3.802 -14.407  1.00  0.00     0.089 C 
BRANCH  12  13
ATOM     13  N   UNL     1      -3.336   3.157 -13.106  1.00  0.00    -0.325 NA
ATOM     14  H   UNL     1      -2.669   3.731 -12.588  1.00  0.00     0.119 HD
ATOM     15  H   UNL     1      -2.851   2.272 -13.276  1.00  0.00     0.119 HD
ENDBRANCH  12  13
BRANCH  12  16
ATOM     16  C   UNL     1      -4.853   3.132 -15.071  1.00  0.00     0.022 C 
BRANCH  16  17
ATOM     17  C   UNL     1      -6.220   3.223 -14.379  1.00  0.00     0.002 C 
BRANCH  17  18
ATOM     18  C   UNL     1      -7.177   4.252 -14.976  1.00  0.00     0.000 C 
BRANCH  18  19
ATOM     19  C   UNL     1      -7.427   5.469 -14.075  1.00  0.00    -0.000 C 
BRANCH  19  20
ATOM     20  C   UNL     1      -8.735   6.219 -14.344  1.00  0.00    -0.000 C 
BRANCH  20  21
ATOM     21  C   UNL     1      -8.994   6.457 -15.833  1.00  0.00    -0.003 C 
ATOM     22  C   UNL     1     -10.051   7.529 -16.048  1.00  0.00     0.004 C 
ENDBRANCH  20  21
ENDBRANCH  19  20
ENDBRANCH  18  19
ENDBRANCH  17  18
ENDBRANCH  16  17
ENDBRANCH  12  16
ENDBRANCH   9  12
ENDBRANCH   6   9
ENDBRANCH   3   5
ENDBRANCH   2   3
BRANCH   2  23
ATOM     23  N   UNL     1       1.448   5.286 -11.449  1.00  0.00    -0.332 N 
ATOM     24  C   UNL     1       2.436   6.146 -10.816  1.00  0.00     0.147 C 
BRANCH  23  25
ATOM     25  C   UNL     1       1.997   4.046 -12.065  1.00  0.00     0.174 C 
BRANCH  25  26
ATOM     26  C   UNL     1       1.098   3.483 -13.190  1.00  0.00     0.038 C 
BRANCH  26  27
ATOM     27  C   UNL     1       1.579   3.695 -14.643  1.00  0.00    -0.015 C 
ATOM     28  C   UNL     1       0.419   3.847 -15.626  1.00  0.00     0.007 C 
ATOM     29  C   UNL     1       2.566   4.850 -14.793  1.00  0.00     0.007 C 
ENDBRANCH  26  27
ENDBRANCH  25  26
BRANCH  25  30
ATOM     30  C   UNL     1       2.339   3.013 -10.966  1.00  0.00     0.243 C 
ATOM     31  O   UNL     1       1.487   2.264 -10.492  1.00  0.00    -0.273 OA
ATOM     32  N   UNL     1       3.647   2.995 -10.556  1.00  0.00    -0.342 N 
ATOM     33  H   UNL     1       4.320   3.546 -11.094  1.00  0.00     0.164 HD
BRANCH  32  34
ATOM     34  C   UNL     1       4.145   2.101  -9.507  1.00  0.00     0.175 C 
BRANCH  34  35
ATOM     35  C   UNL     1       5.624   1.748  -9.729  1.00  0.00     0.070 C 
BRANCH  35  36
ATOM     36  C   UNL     1       5.809   0.438 -10.461  1.00  0.00    -0.045 A 
ATOM     37  C   UNL     1       4.727  -0.444 -10.605  1.00  0.00     0.007 A 
ATOM     38  C   UNL     1       7.057   0.075 -10.982  1.00  0.00     0.007 A 
ATOM     39  C   UNL     1       4.891  -1.661 -11.267  1.00  0.00     0.046 A 
ATOM     40  C   UNL     1       7.223  -1.144 -11.643  1.00  0.00     0.046 A 
ATOM     41  C   UNL     1       6.136  -2.001 -11.781  1.00  0.00     0.115 A 
BRANCH  41  42
ATOM     42  O   UNL     1       6.255  -3.201 -12.417  1.00  0.00    -0.508 OA
ATOM     43  H   UNL     1       5.688  -3.185 -13.206  1.00  0.00     0.293 HD
ENDBRANCH  41  42
ENDBRANCH  35  36
ENDBRANCH  34  35
BRANCH  34  44
ATOM     44  C   UNL     1       3.915   2.789  -8.142  1.00  0.00     0.243 C 
ATOM     45  O   UNL     1       4.004   3.999  -7.952  1.00  0.00    -0.273 OA
ATOM     46  N   UNL     1       3.723   1.901  -7.105  1.00  0.00    -0.341 N 
ATOM     47  H   UNL     1       3.774   0.903  -7.294  1.00  0.00     0.164 HD
BRANCH  46  48
ATOM     48  C   UNL     1       3.551   2.316  -5.711  1.00  0.00     0.196 C 
BRANCH  48  49
ATOM     49  C   UNL     1       2.815   1.241  -4.894  1.00  0.00     0.072 C 
BRANCH  49  50
ATOM     50  C   UNL     1       1.452   0.912  -5.460  1.00  0.00    -0.045 A 
ATOM     51  C   UNL     1       0.444   1.888  -5.466  1.00  0.00     0.007 A 
ATOM     52  C   UNL     1       1.169  -0.364  -5.962  1.00  0.00     0.007 A 
ATOM     53  C   UNL     1      -0.821   1.592  -5.974  1.00  0.00     0.046 A 
ATOM     54  C   UNL     1      -0.099  -0.661  -6.469  1.00  0.00     0.046 A 
ATOM     55  C   UNL     1      -1.083   0.322  -6.471  1.00  0.00     0.115 A 
BRANCH  55  56
ATOM     56  O   UNL     1      -2.333   0.073  -6.956  1.00  0.00    -0.508 OA
ATOM     57  H   UNL     1      -2.642   0.863  -7.427  1.00  0.00     0.293 HD
ENDBRANCH  55  56
ENDBRANCH  49  50
ENDBRANCH  48  49
BRANCH  48  58
ATOM     58  C   UNL     1       4.933   2.575  -5.094  1.00  0.00     0.326 C 
ATOM     59  O   UNL     1       5.690   1.752  -4.605  1.00  0.00    -0.250 OA
BRANCH  58  60
ATOM     60  O   UNL     1       5.309   3.878  -5.136  1.00  0.00    -0.480 OA
ATOM     61  H   UNL     1       4.485   4.358  -4.900  1.00  0.00     0.296 HD
ENDBRANCH  58  60
ENDBRANCH  48  58
ENDBRANCH  46  48
ENDBRANCH  34  44
ENDBRANCH  32  34
ENDBRANCH  25  30
ENDBRANCH  23  25
ENDBRANCH   2  23
TORSDOF 28
ENDMDL
MODEL 3
REMARK VINA RESULT:    -6.568      3.705      8.986
REMARK INTER + INTRA:         -20.406
REMARK INTER:                 -14.077
REMARK INTRA:                  -6.329
REMARK UNBOUND:                -4.047
REMARK SMILES CCCCCCC[C@H](N)[C@H](O)C(=O)N[C@H](C)C(=O)N(C)[C@H](CC(C)C)C(=O)N[C@@H](Cc1ccc(O)cc1)C(=O)N[C@@H](Cc1ccc(O)cc1)C(=O)O
REMARK SMILES IDX 18 1 17 2 15 3 16 4 14 5 12 6 13 7 10 9 11 10 8 12 9 13 7 16
REMARK SMILES IDX 6 17 5 18 4 19 3 20 2 21 1 22 19 23 20 24 21 25 22 26 23 27
REMARK SMILES IDX 24 28 25 29 26 30 27 31 28 32 29 34 30 35 31 36 32 37 37 38
REMARK SMILES IDX 33 39 36 40 34 41 35 42 38 44 39 45 40 46 41 48 42 49 43 50
REMARK SMILES IDX 44 51 49 52 45 53 48 54 46 55 47 56 50 58 51 59 52 60
REMARK H PARENT 14 8 11 11 9 14 9 15 28 33 35 43 40 47 47 57 52 61
ROOT
ATOM      1  O   UNL     1       1.473   6.548  -9.841  1.00  0.00    -0.272 OA
ATOM      2  C   UNL     1       1.756   6.251 -11.011  1.00  0.00     0.245 C 
ENDROOT
BRANCH   2   3
ATOM      3  C   UNL     1       2.893   7.029 -11.718  1.00  0.00     0.168 C 
ATOM      4  C   UNL     1       2.357   8.302 -12.365  1.00  0.00     0.041 C 
BRANCH   3   5
ATOM      5  N   UNL     1       4.061   7.292 -10.892  1.00  0.00    -0.342 N 
ATOM      6  C   UNL     1       5.126   6.419 -10.839  1.00  0.00     0.251 C 
ATOM      7  O   UNL     1       5.156   5.350 -11.441  1.00  0.00    -0.272 OA
ATOM      8  H   UNL     1       4.135   8.130 -10.320  1.00  0.00     0.164 HD
BRANCH   6   9
ATOM      9  C   UNL     1       6.304   6.967 -10.016  1.00  0.00     0.219 C 
BRANCH   9  10
ATOM     10  O   UNL     1       6.469   8.382 -10.164  1.00  0.00    -0.382 OA
ATOM     11  H   UNL     1       6.346   8.726  -9.252  1.00  0.00     0.211 HD
ENDBRANCH   9  10
BRANCH   9  12
ATOM     12  C   UNL     1       6.234   6.574  -8.517  1.00  0.00     0.089 C 
BRANCH  12  13
ATOM     13  N   UNL     1       5.231   5.496  -8.362  1.00  0.00    -0.325 NA
ATOM     14  H   UNL     1       4.787   5.318  -9.265  1.00  0.00     0.119 HD
ATOM     15  H   UNL     1       4.478   5.830  -7.756  1.00  0.00     0.119 HD
ENDBRANCH  12  13
BRANCH  12  16
ATOM     16  C   UNL     1       7.572   6.152  -7.864  1.00  0.00     0.022 C 
BRANCH  16  17
ATOM     17  C   UNL     1       8.864   6.234  -8.688  1.00  0.00     0.002 C 
BRANCH  17  18
ATOM     18  C   UNL     1       9.456   4.886  -9.095  1.00  0.00     0.000 C 
BRANCH  18  19
ATOM     19  C   UNL     1       8.756   4.234 -10.295  1.00  0.00    -0.000 C 
BRANCH  19  20
ATOM     20  C   UNL     1       8.355   2.769 -10.096  1.00  0.00    -0.000 C 
BRANCH  20  21
ATOM     21  C   UNL     1       8.394   2.331  -8.629  1.00  0.00    -0.003 C 
ATOM     22  C   UNL     1       7.008   2.361  -8.005  1.00  0.00     0.004 C 
ENDBRANCH  20  21
ENDBRANCH  19  20
ENDBRANCH  18  19
ENDBRANCH  17  18
ENDBRANCH  16  17
ENDBRANCH  12  16
ENDBRANCH   9  12
ENDBRANCH   6   9
ENDBRANCH   3   5
ENDBRANCH   2   3
BRANCH   2  23
ATOM     23  N   UNL     1       1.144   5.160 -11.619  1.00  0.00    -0.332 N 
ATOM     24  C   UNL     1      -0.217   4.721 -11.350  1.00  0.00     0.147 C 
BRANCH  23  25
ATOM     25  C   UNL     1       1.834   4.427 -12.716  1.00  0.00     0.174 C 
BRANCH  25  26
ATOM     26  C   UNL     1       1.033   4.432 -14.040  1.00  0.00     0.038 C 
BRANCH  26  27
ATOM     27  C   UNL     1       1.848   4.512 -15.350  1.00  0.00    -0.015 C 
ATOM     28  C   UNL     1       1.032   5.080 -16.512  1.00  0.00     0.007 C 
ATOM     29  C   UNL     1       3.166   5.267 -15.201  1.00  0.00     0.007 C 
ENDBRANCH  26  27
ENDBRANCH  25  26
BRANCH  25  30
ATOM     30  C   UNL     1       2.238   3.013 -12.240  1.00  0.00     0.243 C 
ATOM     31  O   UNL     1       1.801   1.997 -12.777  1.00  0.00    -0.273 OA
ATOM     32  N   UNL     1       3.107   2.970 -11.180  1.00  0.00    -0.342 N 
ATOM     33  H   UNL     1       3.534   3.851 -10.882  1.00  0.00     0.164 HD
BRANCH  32  34
ATOM     34  C   UNL     1       3.577   1.719 -10.579  1.00  0.00     0.175 C 
BRANCH  34  35
ATOM     35  C   UNL     1       5.100   1.569 -10.721  1.00  0.00     0.070 C 
BRANCH  35  36
ATOM     36  C   UNL     1       5.519   0.157 -11.066  1.00  0.00    -0.045 A 
ATOM     37  C   UNL     1       6.829  -0.100 -11.496  1.00  0.00     0.007 A 
ATOM     38  C   UNL     1       4.607  -0.903 -10.985  1.00  0.00     0.007 A 
ATOM     39  C   UNL     1       7.221  -1.397 -11.830  1.00  0.00     0.046 A 
ATOM     40  C   UNL     1       4.998  -2.202 -11.320  1.00  0.00     0.046 A 
ATOM     41  C   UNL     1       6.303  -2.437 -11.739  1.00  0.00     0.115 A 
BRANCH  41  42
ATOM     42  O   UNL     1       6.726  -3.688 -12.077  1.00  0.00    -0.508 OA
ATOM     43  H   UNL     1       6.387  -3.894 -12.965  1.00  0.00     0.293 HD
ENDBRANCH  41  42
ENDBRANCH  35  36
ENDBRANCH  34  35
BRANCH  34  44
ATOM     44  C   UNL     1       3.130   1.701  -9.100  1.00  0.00     0.243 C 
ATOM     45  O   UNL     1       2.707   0.708  -8.515  1.00  0.00    -0.273 OA
ATOM     46  N   UNL     1       3.124   2.949  -8.513  1.00  0.00    -0.341 N 
ATOM     47  H   UNL     1       3.372   3.760  -9.075  1.00  0.00     0.164 HD
BRANCH  46  48
ATOM     48  C   UNL     1       2.674   3.192  -7.141  1.00  0.00     0.196 C 
BRANCH  48  49
ATOM     49  C   UNL     1       3.864   3.411  -6.192  1.00  0.00     0.072 C 
BRANCH  49  50
ATOM     50  C   UNL     1       3.819   2.505  -4.982  1.00  0.00    -0.045 A 
ATOM     51  C   UNL     1       4.873   2.520  -4.058  1.00  0.00     0.007 A 
ATOM     52  C   UNL     1       2.745   1.629  -4.778  1.00  0.00     0.007 A 
ATOM     53  C   UNL     1       4.848   1.679  -2.945  1.00  0.00     0.046 A 
ATOM     54  C   UNL     1       2.720   0.786  -3.664  1.00  0.00     0.046 A 
ATOM     55  C   UNL     1       3.773   0.820  -2.756  1.00  0.00     0.115 A 
BRANCH  55  56
ATOM     56  O   UNL     1       3.788   0.013  -1.657  1.00  0.00    -0.508 OA
ATOM     57  H   UNL     1       3.609   0.558  -0.875  1.00  0.00     0.293 HD
ENDBRANCH  55  56
ENDBRANCH  49  50
ENDBRANCH  48  49
BRANCH  48  58
ATOM     58  C   UNL     1       1.767   4.430  -7.124  1.00  0.00     0.326 C 
ATOM     59  O   UNL     1       0.548   4.453  -7.096  1.00  0.00    -0.250 OA
BRANCH  58  60
ATOM     60  O   UNL     1       2.452   5.602  -7.129  1.00  0.00    -0.480 OA
ATOM     61  H   UNL     1       3.391   5.315  -7.152  1.00  0.00     0.296 HD
ENDBRANCH  58  60
ENDBRANCH  48  58
ENDBRANCH  46  48
ENDBRANCH  34  44
ENDBRANCH  32  34
ENDBRANCH  25  30
ENDBRANCH  23  25
ENDBRANCH   2  23
TORSDOF 28
ENDMDL
MODEL 4
REMARK VINA RESULT:    -6.425      2.756      5.905
REMARK INTER + INTRA:         -20.049
REMARK INTER:                 -15.573
REMARK INTRA:                  -4.476
REMARK UNBOUND:                -4.047
REMARK SMILES CCCCCCC[C@H](N)[C@H](O)C(=O)N[C@H](C)C(=O)N(C)[C@H](CC(C)C)C(=O)N[C@@H](Cc1ccc(O)cc1)C(=O)N[C@@H](Cc1ccc(O)cc1)C(=O)O
REMARK SMILES IDX 18 1 17 2 15 3 16 4 14 5 12 6 13 7 10 9 11 10 8 12 9 13 7 16
REMARK SMILES IDX 6 17 5 18 4 19 3 20 2 21 1 22 19 23 20 24 21 25 22 26 23 27
REMARK SMILES IDX 24 28 25 29 26 30 27 31 28 32 29 34 30 35 31 36 32 37 37 38
REMARK SMILES IDX 33 39 36 40 34 41 35 42 38 44 39 45 40 46 41 48 42 49 43 50
REMARK SMILES IDX 44 51 49 52 45 53 48 54 46 55 47 56 50 58 51 59 52 60
REMARK H PARENT 14 8 11 11 9 14 9 15 28 33 35 43 40 47 47 57 52 61
ROOT
ATOM      1  O   UNL     1      -1.783   5.365  -7.822  1.00  0.00    -0.272 OA
ATOM      2  C   UNL     1      -0.799   5.081  -7.123  1.00  0.00     0.245 C 
ENDROOT
BRANCH   2   3
ATOM      3  C   UNL     1      -1.000   4.145  -5.906  1.00  0.00     0.168 C 
ATOM      4  C   UNL     1      -1.756   2.884  -6.311  1.00  0.00     0.041 C 
BRANCH   3   5
ATOM      5  N   UNL     1       0.214   3.835  -5.166  1.00  0.00    -0.342 N 
ATOM      6  C   UNL     1       0.188   3.512  -3.826  1.00  0.00     0.251 C 
ATOM      7  O   UNL     1      -0.837   3.503  -3.153  1.00  0.00    -0.272 OA
ATOM      8  H   UNL     1       1.129   3.844  -5.610  1.00  0.00     0.164 HD
BRANCH   6   9
ATOM      9  C   UNL     1       1.564   3.084  -3.291  1.00  0.00     0.219 C 
BRANCH   9  10
ATOM     10  O   UNL     1       1.938   3.791  -2.102  1.00  0.00    -0.382 OA
ATOM     11  H   UNL     1       2.891   3.988  -2.241  1.00  0.00     0.211 HD
ENDBRANCH   9  10
BRANCH   9  12
ATOM     12  C   UNL     1       1.686   1.552  -3.082  1.00  0.00     0.089 C 
BRANCH  12  13
ATOM     13  N   UNL     1       0.958   1.189  -1.845  1.00  0.00    -0.325 NA
ATOM     14  H   UNL     1       0.810   0.178  -1.827  1.00  0.00     0.119 HD
ATOM     15  H   UNL     1       0.020   1.595  -1.882  1.00  0.00     0.119 HD
ENDBRANCH  12  13
BRANCH  12  16
ATOM     16  C   UNL     1       1.209   0.667  -4.259  1.00  0.00     0.022 C 
BRANCH  16  17
ATOM     17  C   UNL     1       1.956   0.739  -5.598  1.00  0.00     0.002 C 
BRANCH  17  18
ATOM     18  C   UNL     1       1.432  -0.203  -6.680  1.00  0.00     0.000 C 
BRANCH  18  19
ATOM     19  C   UNL     1       0.139  -0.935  -6.297  1.00  0.00    -0.000 C 
BRANCH  19  20
ATOM     20  C   UNL     1      -1.104  -0.515  -7.087  1.00  0.00    -0.000 C 
BRANCH  20  21
ATOM     21  C   UNL     1      -2.333  -1.370  -6.769  1.00  0.00    -0.003 C 
ATOM     22  C   UNL     1      -3.493  -1.040  -7.696  1.00  0.00     0.004 C 
ENDBRANCH  20  21
ENDBRANCH  19  20
ENDBRANCH  18  19
ENDBRANCH  17  18
ENDBRANCH  16  17
ENDBRANCH  12  16
ENDBRANCH   9  12
ENDBRANCH   6   9
ENDBRANCH   3   5
ENDBRANCH   2   3
BRANCH   2  23
ATOM     23  N   UNL     1       0.471   5.501  -7.506  1.00  0.00    -0.332 N 
ATOM     24  C   UNL     1       1.277   6.467  -6.775  1.00  0.00     0.147 C 
BRANCH  23  25
ATOM     25  C   UNL     1       1.154   4.864  -8.665  1.00  0.00     0.174 C 
BRANCH  25  26
ATOM     26  C   UNL     1       0.554   3.487  -9.036  1.00  0.00     0.038 C 
BRANCH  26  27
ATOM     27  C   UNL     1       0.513   3.123 -10.537  1.00  0.00    -0.015 C 
ATOM     28  C   UNL     1       0.045   4.288 -11.409  1.00  0.00     0.007 C 
ATOM     29  C   UNL     1       1.830   2.556 -11.061  1.00  0.00     0.007 C 
ENDBRANCH  26  27
ENDBRANCH  25  26
BRANCH  25  30
ATOM     30  C   UNL     1       2.682   4.834  -8.431  1.00  0.00     0.243 C 
ATOM     31  O   UNL     1       3.407   5.774  -8.750  1.00  0.00    -0.273 OA
ATOM     32  N   UNL     1       3.171   3.690  -7.853  1.00  0.00    -0.342 N 
ATOM     33  H   UNL     1       2.492   3.017  -7.488  1.00  0.00     0.164 HD
BRANCH  32  34
ATOM     34  C   UNL     1       4.595   3.475  -7.581  1.00  0.00     0.175 C 
BRANCH  34  35
ATOM     35  C   UNL     1       4.799   2.506  -6.406  1.00  0.00     0.070 C 
BRANCH  35  36
ATOM     36  C   UNL     1       4.973   3.220  -5.084  1.00  0.00    -0.045 A 
ATOM     37  C   UNL     1       4.948   4.622  -5.034  1.00  0.00     0.007 A 
ATOM     38  C   UNL     1       5.183   2.499  -3.901  1.00  0.00     0.007 A 
ATOM     39  C   UNL     1       5.122   5.289  -3.821  1.00  0.00     0.046 A 
ATOM     40  C   UNL     1       5.358   3.167  -2.686  1.00  0.00     0.046 A 
ATOM     41  C   UNL     1       5.324   4.557  -2.658  1.00  0.00     0.115 A 
BRANCH  41  42
ATOM     42  O   UNL     1       5.493   5.247  -1.494  1.00  0.00    -0.508 OA
ATOM     43  H   UNL     1       4.721   5.081  -0.927  1.00  0.00     0.293 HD
ENDBRANCH  41  42
ENDBRANCH  35  36
ENDBRANCH  34  35
BRANCH  34  44
ATOM     44  C   UNL     1       5.256   2.957  -8.878  1.00  0.00     0.243 C 
ATOM     45  O   UNL     1       5.801   3.674  -9.713  1.00  0.00    -0.273 OA
ATOM     46  N   UNL     1       5.068   1.607  -9.089  1.00  0.00    -0.341 N 
ATOM     47  H   UNL     1       4.508   1.077  -8.426  1.00  0.00     0.164 HD
BRANCH  46  48
ATOM     48  C   UNL     1       5.544   0.904 -10.282  1.00  0.00     0.196 C 
BRANCH  48  49
ATOM     49  C   UNL     1       6.996   0.428 -10.109  1.00  0.00     0.072 C 
BRANCH  49  50
ATOM     50  C   UNL     1       7.901   0.904 -11.223  1.00  0.00    -0.045 A 
ATOM     51  C   UNL     1       7.934   0.211 -12.442  1.00  0.00     0.007 A 
ATOM     52  C   UNL     1       8.729   2.021 -11.051  1.00  0.00     0.007 A 
ATOM     53  C   UNL     1       8.774   0.634 -13.472  1.00  0.00     0.046 A 
ATOM     54  C   UNL     1       9.572   2.443 -12.082  1.00  0.00     0.046 A 
ATOM     55  C   UNL     1       9.586   1.746 -13.285  1.00  0.00     0.115 A 
BRANCH  55  56
ATOM     56  O   UNL     1      10.395   2.125 -14.315  1.00  0.00    -0.508 OA
ATOM     57  H   UNL     1      11.219   2.477 -13.944  1.00  0.00     0.293 HD
ENDBRANCH  55  56
ENDBRANCH  49  50
ENDBRANCH  48  49
BRANCH  48  58
ATOM     58  C   UNL     1       4.634  -0.304 -10.546  1.00  0.00     0.326 C 
ATOM     59  O   UNL     1       4.816  -1.205 -11.349  1.00  0.00    -0.250 OA
BRANCH  58  60
ATOM     60  O   UNL     1       3.526  -0.328  -9.763  1.00  0.00    -0.480 OA
ATOM     61  H   UNL     1       3.191   0.593  -9.817  1.00  0.00     0.296 HD
ENDBRANCH  58  60
ENDBRANCH  48  58
ENDBRANCH  46  48
ENDBRANCH  34  44
ENDBRANCH  32  34
ENDBRANCH  25  30
ENDBRANCH  23  25
ENDBRANCH   2  23
TORSDOF 28
ENDMDL
MODEL 5
REMARK VINA RESULT:    -6.326      6.085      9.092
REMARK INTER + INTRA:         -19.802
REMARK INTER:                 -16.831
REMARK INTRA:                  -2.971
REMARK UNBOUND:                -4.047
REMARK SMILES CCCCCCC[C@H](N)[C@H](O)C(=O)N[C@H](C)C(=O)N(C)[C@H](CC(C)C)C(=O)N[C@@H](Cc1ccc(O)cc1)C(=O)N[C@@H](Cc1ccc(O)cc1)C(=O)O
REMARK SMILES IDX 18 1 17 2 15 3 16 4 14 5 12 6 13 7 10 9 11 10 8 12 9 13 7 16
REMARK SMILES IDX 6 17 5 18 4 19 3 20 2 21 1 22 19 23 20 24 21 25 22 26 23 27
REMARK SMILES IDX 24 28 25 29 26 30 27 31 28 32 29 34 30 35 31 36 32 37 37 38
REMARK SMILES IDX 33 39 36 40 34 41 35 42 38 44 39 45 40 46 41 48 42 49 43 50
REMARK SMILES IDX 44 51 49 52 45 53 48 54 46 55 47 56 50 58 51 59 52 60
REMARK H PARENT 14 8 11 11 9 14 9 15 28 33 35 43 40 47 47 57 52 61
ROOT
ATOM      1  O   UNL     1       0.726   2.717 -13.420  1.00  0.00    -0.272 OA
ATOM      2  C   UNL     1       0.563   3.946 -13.441  1.00  0.00     0.245 C 
ENDROOT
BRANCH   2   3
ATOM      3  C   UNL     1      -0.444   4.543 -14.455  1.00  0.00     0.168 C 
ATOM      4  C   UNL     1       0.164   4.599 -15.853  1.00  0.00     0.041 C 
BRANCH   3   5
ATOM      5  N   UNL     1      -1.754   3.912 -14.459  1.00  0.00    -0.342 N 
ATOM      6  C   UNL     1      -2.752   4.300 -13.590  1.00  0.00     0.251 C 
ATOM      7  O   UNL     1      -2.603   5.164 -12.733  1.00  0.00    -0.272 OA
ATOM      8  H   UNL     1      -1.985   3.159 -15.103  1.00  0.00     0.164 HD
BRANCH   6   9
ATOM      9  C   UNL     1      -4.090   3.598 -13.869  1.00  0.00     0.219 C 
BRANCH   9  10
ATOM     10  O   UNL     1      -4.745   3.160 -12.672  1.00  0.00    -0.382 OA
ATOM     11  H   UNL     1      -5.691   3.363 -12.839  1.00  0.00     0.211 HD
ENDBRANCH   9  10
BRANCH   9  12
ATOM     12  C   UNL     1      -5.051   4.443 -14.745  1.00  0.00     0.089 C 
BRANCH  12  13
ATOM     13  N   UNL     1      -4.455   4.583 -16.093  1.00  0.00    -0.325 NA
ATOM     14  H   UNL     1      -4.613   5.533 -16.434  1.00  0.00     0.119 HD
ATOM     15  H   UNL     1      -4.962   3.978 -16.744  1.00  0.00     0.119 HD
ENDBRANCH  12  13
BRANCH  12  16
ATOM     16  C   UNL     1      -6.503   3.920 -14.858  1.00  0.00     0.022 C 
BRANCH  16  17
ATOM     17  C   UNL     1      -7.668   4.898 -14.654  1.00  0.00     0.002 C 
BRANCH  17  18
ATOM     18  C   UNL     1      -7.535   5.814 -13.439  1.00  0.00     0.000 C 
BRANCH  18  19
ATOM     19  C   UNL     1      -7.575   5.078 -12.094  1.00  0.00    -0.000 C 
BRANCH  19  20
ATOM     20  C   UNL     1      -8.910   5.160 -11.347  1.00  0.00    -0.000 C 
BRANCH  20  21
ATOM     21  C   UNL     1      -8.931   4.327 -10.063  1.00  0.00    -0.003 C 
ATOM     22  C   UNL     1      -9.921   4.888  -9.054  1.00  0.00     0.004 C 
ENDBRANCH  20  21
ENDBRANCH  19  20
ENDBRANCH  18  19
ENDBRANCH  17  18
ENDBRANCH  16  17
ENDBRANCH  12  16
ENDBRANCH   9  12
ENDBRANCH   6   9
ENDBRANCH   3   5
ENDBRANCH   2   3
BRANCH   2  23
ATOM     23  N   UNL     1       1.184   4.746 -12.488  1.00  0.00    -0.332 N 
ATOM     24  C   UNL     1       0.520   5.307 -11.321  1.00  0.00     0.147 C 
BRANCH  23  25
ATOM     25  C   UNL     1       2.654   4.979 -12.545  1.00  0.00     0.174 C 
BRANCH  25  26
ATOM     26  C   UNL     1       3.241   4.777 -13.962  1.00  0.00     0.038 C 
BRANCH  26  27
ATOM     27  C   UNL     1       4.250   5.836 -14.459  1.00  0.00    -0.015 C 
ATOM     28  C   UNL     1       4.078   6.155 -15.944  1.00  0.00     0.007 C 
ATOM     29  C   UNL     1       4.242   7.118 -13.630  1.00  0.00     0.007 C 
ENDBRANCH  26  27
ENDBRANCH  25  26
BRANCH  25  30
ATOM     30  C   UNL     1       3.367   4.149 -11.452  1.00  0.00     0.243 C 
ATOM     31  O   UNL     1       4.177   4.655 -10.677  1.00  0.00    -0.273 OA
ATOM     32  N   UNL     1       3.041   2.818 -11.411  1.00  0.00    -0.342 N 
ATOM     33  H   UNL     1       2.259   2.504 -11.991  1.00  0.00     0.164 HD
BRANCH  32  34
ATOM     34  C   UNL     1       3.637   1.875 -10.461  1.00  0.00     0.175 C 
BRANCH  34  35
ATOM     35  C   UNL     1       5.154   1.751 -10.675  1.00  0.00     0.070 C 
BRANCH  35  36
ATOM     36  C   UNL     1       5.577   0.352 -11.062  1.00  0.00    -0.045 A 
ATOM     37  C   UNL     1       4.686  -0.720 -10.904  1.00  0.00     0.007 A 
ATOM     38  C   UNL     1       6.863   0.102 -11.558  1.00  0.00     0.007 A 
ATOM     39  C   UNL     1       5.072  -2.016 -11.246  1.00  0.00     0.046 A 
ATOM     40  C   UNL     1       7.252  -1.196 -11.899  1.00  0.00     0.046 A 
ATOM     41  C   UNL     1       6.351  -2.244 -11.741  1.00  0.00     0.115 A 
BRANCH  41  42
ATOM     42  O   UNL     1       6.690  -3.525 -12.060  1.00  0.00    -0.508 OA
ATOM     43  H   UNL     1       7.223  -3.506 -12.872  1.00  0.00     0.293 HD
ENDBRANCH  41  42
ENDBRANCH  35  36
ENDBRANCH  34  35
BRANCH  34  44
ATOM     44  C   UNL     1       3.293   2.353  -9.032  1.00  0.00     0.243 C 
ATOM     45  O   UNL     1       2.165   2.331  -8.547  1.00  0.00    -0.273 OA
ATOM     46  N   UNL     1       4.356   2.939  -8.378  1.00  0.00    -0.341 N 
ATOM     47  H   UNL     1       5.242   3.040  -8.867  1.00  0.00     0.164 HD
BRANCH  46  48
ATOM     48  C   UNL     1       4.254   3.527  -7.041  1.00  0.00     0.196 C 
BRANCH  48  49
ATOM     49  C   UNL     1       5.151   2.788  -6.034  1.00  0.00     0.072 C 
BRANCH  49  50
ATOM     50  C   UNL     1       4.357   2.078  -4.960  1.00  0.00    -0.045 A 
ATOM     51  C   UNL     1       4.952   1.798  -3.721  1.00  0.00     0.007 A 
ATOM     52  C   UNL     1       3.036   1.672  -5.190  1.00  0.00     0.007 A 
ATOM     53  C   UNL     1       4.234   1.132  -2.728  1.00  0.00     0.046 A 
ATOM     54  C   UNL     1       2.318   1.004  -4.196  1.00  0.00     0.046 A 
ATOM     55  C   UNL     1       2.923   0.741  -2.972  1.00  0.00     0.115 A 
BRANCH  55  56
ATOM     56  O   UNL     1       2.257   0.090  -1.976  1.00  0.00    -0.508 OA
ATOM     57  H   UNL     1       1.381  -0.162  -2.308  1.00  0.00     0.293 HD
ENDBRANCH  55  56
ENDBRANCH  49  50
ENDBRANCH  48  49
BRANCH  48  58
ATOM     58  C   UNL     1       4.669   5.004  -7.112  1.00  0.00     0.326 C 
ATOM     59  O   UNL     1       3.939   5.969  -7.269  1.00  0.00    -0.250 OA
BRANCH  58  60
ATOM     60  O   UNL     1       6.003   5.199  -6.965  1.00  0.00    -0.480 OA
ATOM     61  H   UNL     1       6.285   4.433  -6.418  1.00  0.00     0.296 HD
ENDBRANCH  58  60
ENDBRANCH  48  58
ENDBRANCH  46  48
ENDBRANCH  34  44
ENDBRANCH  32  34
ENDBRANCH  25  30
ENDBRANCH  23  25
ENDBRANCH   2  23
TORSDOF 28
ENDMDL
MODEL 6
REMARK VINA RESULT:    -6.289      4.500      7.540
REMARK INTER + INTRA:         -19.710
REMARK INTER:                 -15.378
REMARK INTRA:                  -4.331
REMARK UNBOUND:                -4.047
REMARK SMILES CCCCCCC[C@H](N)[C@H](O)C(=O)N[C@H](C)C(=O)N(C)[C@H](CC(C)C)C(=O)N[C@@H](Cc1ccc(O)cc1)C(=O)N[C@@H](Cc1ccc(O)cc1)C(=O)O
REMARK SMILES IDX 18 1 17 2 15 3 16 4 14 5 12 6 13 7 10 9 11 10 8 12 9 13 7 16
REMARK SMILES IDX 6 17 5 18 4 19 3 20 2 21 1 22 19 23 20 24 21 25 22 26 23 27
REMARK SMILES IDX 24 28 25 29 26 30 27 31 28 32 29 34 30 35 31 36 32 37 37 38
REMARK SMILES IDX 33 39 36 40 34 41 35 42 38 44 39 45 40 46 41 48 42 49 43 50
REMARK SMILES IDX 44 51 49 52 45 53 48 54 46 55 47 56 50 58 51 59 52 60
REMARK H PARENT 14 8 11 11 9 14 9 15 28 33 35 43 40 47 47 57 52 61
ROOT
ATOM      1  O   UNL     1       3.160   5.780 -10.014  1.00  0.00    -0.272 OA
ATOM      2  C   UNL     1       4.222   5.317 -10.457  1.00  0.00     0.245 C 
ENDROOT
BRANCH   2   3
ATOM      3  C   UNL     1       4.217   4.662 -11.861  1.00  0.00     0.168 C 
ATOM      4  C   UNL     1       5.444   3.777 -12.049  1.00  0.00     0.041 C 
BRANCH   3   5
ATOM      5  N   UNL     1       2.987   3.964 -12.205  1.00  0.00    -0.342 N 
ATOM      6  C   UNL     1       2.166   4.396 -13.225  1.00  0.00     0.251 C 
ATOM      7  O   UNL     1       2.382   5.408 -13.884  1.00  0.00    -0.272 OA
ATOM      8  H   UNL     1       2.686   3.131 -11.705  1.00  0.00     0.164 HD
BRANCH   6   9
ATOM      9  C   UNL     1       1.004   3.429 -13.502  1.00  0.00     0.219 C 
BRANCH   9  10
ATOM     10  O   UNL     1       1.306   2.080 -13.126  1.00  0.00    -0.382 OA
ATOM     11  H   UNL     1       0.678   1.898 -12.393  1.00  0.00     0.211 HD
ENDBRANCH   9  10
BRANCH   9  12
ATOM     12  C   UNL     1      -0.336   3.890 -12.872  1.00  0.00     0.089 C 
BRANCH  12  13
ATOM     13  N   UNL     1      -0.042   4.932 -11.861  1.00  0.00    -0.325 NA
ATOM     14  H   UNL     1      -0.670   4.812 -11.064  1.00  0.00     0.119 HD
ATOM     15  H   UNL     1      -0.278   5.847 -12.252  1.00  0.00     0.119 HD
ENDBRANCH  12  13
BRANCH  12  16
ATOM     16  C   UNL     1      -1.412   4.397 -13.862  1.00  0.00     0.022 C 
BRANCH  16  17
ATOM     17  C   UNL     1      -2.894   4.168 -13.535  1.00  0.00     0.002 C 
BRANCH  17  18
ATOM     18  C   UNL     1      -3.859   4.461 -14.681  1.00  0.00     0.000 C 
BRANCH  18  19
ATOM     19  C   UNL     1      -4.697   3.252 -15.118  1.00  0.00    -0.000 C 
BRANCH  19  20
ATOM     20  C   UNL     1      -6.210   3.412 -14.944  1.00  0.00    -0.000 C 
BRANCH  20  21
ATOM     21  C   UNL     1      -6.608   3.850 -13.532  1.00  0.00    -0.003 C 
ATOM     22  C   UNL     1      -7.507   5.076 -13.565  1.00  0.00     0.004 C 
ENDBRANCH  20  21
ENDBRANCH  19  20
ENDBRANCH  18  19
ENDBRANCH  17  18
ENDBRANCH  16  17
ENDBRANCH  12  16
ENDBRANCH   9  12
ENDBRANCH   6   9
ENDBRANCH   3   5
ENDBRANCH   2   3
BRANCH   2  23
ATOM     23  N   UNL     1       5.407   5.501  -9.753  1.00  0.00    -0.332 N 
ATOM     24  C   UNL     1       6.527   6.307 -10.217  1.00  0.00     0.147 C 
BRANCH  23  25
ATOM     25  C   UNL     1       5.552   4.962  -8.373  1.00  0.00     0.174 C 
BRANCH  25  26
ATOM     26  C   UNL     1       6.866   5.406  -7.688  1.00  0.00     0.038 C 
BRANCH  26  27
ATOM     27  C   UNL     1       6.771   6.572  -6.679  1.00  0.00    -0.015 C 
ATOM     28  C   UNL     1       6.075   6.166  -5.381  1.00  0.00     0.007 C 
ATOM     29  C   UNL     1       8.116   7.232  -6.385  1.00  0.00     0.007 C 
ENDBRANCH  26  27
ENDBRANCH  25  26
BRANCH  25  30
ATOM     30  C   UNL     1       5.338   3.431  -8.374  1.00  0.00     0.243 C 
ATOM     31  O   UNL     1       6.273   2.644  -8.239  1.00  0.00    -0.273 OA
ATOM     32  N   UNL     1       4.042   3.014  -8.540  1.00  0.00    -0.342 N 
ATOM     33  H   UNL     1       3.307   3.724  -8.503  1.00  0.00     0.164 HD
BRANCH  32  34
ATOM     34  C   UNL     1       3.656   1.601  -8.594  1.00  0.00     0.175 C 
BRANCH  34  35
ATOM     35  C   UNL     1       2.166   1.417  -8.267  1.00  0.00     0.070 C 
BRANCH  35  36
ATOM     36  C   UNL     1       1.921   1.110  -6.807  1.00  0.00    -0.045 A 
ATOM     37  C   UNL     1       0.763   0.420  -6.420  1.00  0.00     0.007 A 
ATOM     38  C   UNL     1       2.827   1.527  -5.823  1.00  0.00     0.007 A 
ATOM     39  C   UNL     1       0.521   0.145  -5.074  1.00  0.00     0.046 A 
ATOM     40  C   UNL     1       2.585   1.253  -4.475  1.00  0.00     0.046 A 
ATOM     41  C   UNL     1       1.434   0.562  -4.112  1.00  0.00     0.115 A 
BRANCH  41  42
ATOM     42  O   UNL     1       1.159   0.276  -2.808  1.00  0.00    -0.508 OA
ATOM     43  H   UNL     1       0.221   0.031  -2.741  1.00  0.00     0.293 HD
ENDBRANCH  41  42
ENDBRANCH  35  36
ENDBRANCH  34  35
BRANCH  34  44
ATOM     44  C   UNL     1       4.011   1.061  -9.998  1.00  0.00     0.243 C 
ATOM     45  O   UNL     1       3.330   1.242 -11.003  1.00  0.00    -0.273 OA
ATOM     46  N   UNL     1       5.112   0.232 -10.004  1.00  0.00    -0.341 N 
ATOM     47  H   UNL     1       5.575   0.018  -9.124  1.00  0.00     0.164 HD
BRANCH  46  48
ATOM     48  C   UNL     1       5.599  -0.453 -11.204  1.00  0.00     0.196 C 
BRANCH  48  49
ATOM     49  C   UNL     1       7.129  -0.600 -11.183  1.00  0.00     0.072 C 
BRANCH  49  50
ATOM     50  C   UNL     1       7.834   0.548 -11.869  1.00  0.00    -0.045 A 
ATOM     51  C   UNL     1       8.290   1.639 -11.116  1.00  0.00     0.007 A 
ATOM     52  C   UNL     1       8.023   0.552 -13.257  1.00  0.00     0.007 A 
ATOM     53  C   UNL     1       8.930   2.711 -11.739  1.00  0.00     0.046 A 
ATOM     54  C   UNL     1       8.662   1.625 -13.882  1.00  0.00     0.046 A 
ATOM     55  C   UNL     1       9.111   2.696 -13.117  1.00  0.00     0.115 A 
BRANCH  55  56
ATOM     56  O   UNL     1       9.739   3.763 -13.688  1.00  0.00    -0.508 OA
ATOM     57  H   UNL     1      10.630   3.833 -13.309  1.00  0.00     0.293 HD
ENDBRANCH  55  56
ENDBRANCH  49  50
ENDBRANCH  48  49
BRANCH  48  58
ATOM     58  C   UNL     1       4.949  -1.841 -11.286  1.00  0.00     0.326 C 
ATOM     59  O   UNL     1       4.027  -2.266 -10.608  1.00  0.00    -0.250 OA
BRANCH  58  60
ATOM     60  O   UNL     1       5.489  -2.636 -12.243  1.00  0.00    -0.480 OA
ATOM     61  H   UNL     1       4.783  -3.296 -12.414  1.00  0.00     0.296 HD
ENDBRANCH  58  60
ENDBRANCH  48  58
ENDBRANCH  46  48
ENDBRANCH  34  44
ENDBRANCH  32  34
ENDBRANCH  25  30
ENDBRANCH  23  25
ENDBRANCH   2  23
TORSDOF 28
ENDMDL
MODEL 7
REMARK VINA RESULT:    -6.274      6.306      9.689
REMARK INTER + INTRA:         -19.674
REMARK INTER:                 -16.229
REMARK INTRA:                  -3.444
REMARK UNBOUND:                -4.047
REMARK SMILES CCCCCCC[C@H](N)[C@H](O)C(=O)N[C@H](C)C(=O)N(C)[C@H](CC(C)C)C(=O)N[C@@H](Cc1ccc(O)cc1)C(=O)N[C@@H](Cc1ccc(O)cc1)C(=O)O
REMARK SMILES IDX 18 1 17 2 15 3 16 4 14 5 12 6 13 7 10 9 11 10 8 12 9 13 7 16
REMARK SMILES IDX 6 17 5 18 4 19 3 20 2 21 1 22 19 23 20 24 21 25 22 26 23 27
REMARK SMILES IDX 24 28 25 29 26 30 27 31 28 32 29 34 30 35 31 36 32 37 37 38
REMARK SMILES IDX 33 39 36 40 34 41 35 42 38 44 39 45 40 46 41 48 42 49 43 50
REMARK SMILES IDX 44 51 49 52 45 53 48 54 46 55 47 56 50 58 51 59 52 60
REMARK H PARENT 14 8 11 11 9 14 9 15 28 33 35 43 40 47 47 57 52 61
ROOT
ATOM      1  O   UNL     1      -1.681   3.122 -12.412  1.00  0.00    -0.272 OA
ATOM      2  C   UNL     1      -0.785   3.860 -12.847  1.00  0.00     0.245 C 
ENDROOT
BRANCH   2   3
ATOM      3  C   UNL     1      -1.189   5.128 -13.639  1.00  0.00     0.168 C 
ATOM      4  C   UNL     1      -0.002   5.679 -14.422  1.00  0.00     0.041 C 
BRANCH   3   5
ATOM      5  N   UNL     1      -2.367   4.976 -14.478  1.00  0.00    -0.342 N 
ATOM      6  C   UNL     1      -3.603   5.450 -14.091  1.00  0.00     0.251 C 
ATOM      7  O   UNL     1      -3.811   5.992 -13.010  1.00  0.00    -0.272 OA
ATOM      8  H   UNL     1      -2.325   4.512 -15.383  1.00  0.00     0.164 HD
BRANCH   6   9
ATOM      9  C   UNL     1      -4.666   5.306 -15.191  1.00  0.00     0.219 C 
BRANCH   9  10
ATOM     10  O   UNL     1      -4.142   5.549 -16.502  1.00  0.00    -0.382 OA
ATOM     11  H   UNL     1      -4.223   4.678 -16.949  1.00  0.00     0.211 HD
ENDBRANCH   9  10
BRANCH   9  12
ATOM     12  C   UNL     1      -5.414   3.948 -15.140  1.00  0.00     0.089 C 
BRANCH  12  13
ATOM     13  N   UNL     1      -4.738   3.079 -14.151  1.00  0.00    -0.325 NA
ATOM     14  H   UNL     1      -5.072   2.120 -14.263  1.00  0.00     0.119 HD
ATOM     15  H   UNL     1      -5.032   3.356 -13.211  1.00  0.00     0.119 HD
ENDBRANCH  12  13
BRANCH  12  16
ATOM     16  C   UNL     1      -6.930   4.020 -14.837  1.00  0.00     0.022 C 
BRANCH  16  17
ATOM     17  C   UNL     1      -7.421   4.922 -13.696  1.00  0.00     0.002 C 
BRANCH  17  18
ATOM     18  C   UNL     1      -7.110   4.411 -12.291  1.00  0.00     0.000 C 
BRANCH  18  19
ATOM     19  C   UNL     1      -6.881   5.522 -11.258  1.00  0.00    -0.000 C 
BRANCH  19  20
ATOM     20  C   UNL     1      -7.751   5.431 -10.001  1.00  0.00    -0.000 C 
BRANCH  20  21
ATOM     21  C   UNL     1      -9.013   4.588 -10.205  1.00  0.00    -0.003 C 
ATOM     22  C   UNL     1     -10.242   5.465 -10.385  1.00  0.00     0.004 C 
ENDBRANCH  20  21
ENDBRANCH  19  20
ENDBRANCH  18  19
ENDBRANCH  17  18
ENDBRANCH  16  17
ENDBRANCH  12  16
ENDBRANCH   9  12
ENDBRANCH   6   9
ENDBRANCH   3   5
ENDBRANCH   2   3
BRANCH   2  23
ATOM     23  N   UNL     1       0.543   3.609 -12.519  1.00  0.00    -0.332 N 
ATOM     24  C   UNL     1       1.476   2.870 -13.357  1.00  0.00     0.147 C 
BRANCH  23  25
ATOM     25  C   UNL     1       1.142   4.216 -11.299  1.00  0.00     0.174 C 
BRANCH  25  26
ATOM     26  C   UNL     1       2.276   5.218 -11.619  1.00  0.00     0.038 C 
BRANCH  26  27
ATOM     27  C   UNL     1       2.054   6.686 -11.193  1.00  0.00    -0.015 C 
ATOM     28  C   UNL     1       2.608   7.681 -12.212  1.00  0.00     0.007 C 
ATOM     29  C   UNL     1       0.598   7.009 -10.863  1.00  0.00     0.007 C 
ENDBRANCH  26  27
ENDBRANCH  25  26
BRANCH  25  30
ATOM     30  C   UNL     1       1.555   3.109 -10.301  1.00  0.00     0.243 C 
ATOM     31  O   UNL     1       0.753   2.272  -9.891  1.00  0.00    -0.273 OA
ATOM     32  N   UNL     1       2.867   3.128  -9.904  1.00  0.00    -0.342 N 
ATOM     33  H   UNL     1       3.502   3.763 -10.395  1.00  0.00     0.164 HD
BRANCH  32  34
ATOM     34  C   UNL     1       3.428   2.173  -8.944  1.00  0.00     0.175 C 
BRANCH  34  35
ATOM     35  C   UNL     1       4.957   2.086  -9.070  1.00  0.00     0.070 C 
BRANCH  35  36
ATOM     36  C   UNL     1       5.410   0.880  -9.862  1.00  0.00    -0.045 A 
ATOM     37  C   UNL     1       6.779   0.644 -10.060  1.00  0.00     0.007 A 
ATOM     38  C   UNL     1       4.478  -0.003 -10.424  1.00  0.00     0.007 A 
ATOM     39  C   UNL     1       7.207  -0.458 -10.800  1.00  0.00     0.046 A 
ATOM     40  C   UNL     1       4.906  -1.106 -11.167  1.00  0.00     0.046 A 
ATOM     41  C   UNL     1       6.268  -1.325 -11.347  1.00  0.00     0.115 A 
BRANCH  41  42
ATOM     42  O   UNL     1       6.727  -2.388 -12.066  1.00  0.00    -0.508 OA
ATOM     43  H   UNL     1       7.518  -2.737 -11.622  1.00  0.00     0.293 HD
ENDBRANCH  41  42
ENDBRANCH  35  36
ENDBRANCH  34  35
BRANCH  34  44
ATOM     44  C   UNL     1       2.990   2.606  -7.527  1.00  0.00     0.243 C 
ATOM     45  O   UNL     1       2.797   3.769  -7.185  1.00  0.00    -0.273 OA
ATOM     46  N   UNL     1       2.957   1.566  -6.621  1.00  0.00    -0.341 N 
ATOM     47  H   UNL     1       3.238   0.638  -6.925  1.00  0.00     0.164 HD
BRANCH  46  48
ATOM     48  C   UNL     1       2.636   1.743  -5.203  1.00  0.00     0.196 C 
BRANCH  48  49
ATOM     49  C   UNL     1       1.952   0.493  -4.623  1.00  0.00     0.072 C 
BRANCH  49  50
ATOM     50  C   UNL     1       0.573   0.266  -5.198  1.00  0.00    -0.045 A 
ATOM     51  C   UNL     1      -0.520   0.993  -4.704  1.00  0.00     0.007 A 
ATOM     52  C   UNL     1       0.360  -0.680  -6.209  1.00  0.00     0.007 A 
ATOM     53  C   UNL     1      -1.799   0.782  -5.217  1.00  0.00     0.046 A 
ATOM     54  C   UNL     1      -0.922  -0.893  -6.722  1.00  0.00     0.046 A 
ATOM     55  C   UNL     1      -1.991  -0.158  -6.222  1.00  0.00     0.115 A 
BRANCH  55  56
ATOM     56  O   UNL     1      -3.257  -0.335  -6.695  1.00  0.00    -0.508 OA
ATOM     57  H   UNL     1      -3.809  -0.675  -5.973  1.00  0.00     0.293 HD
ENDBRANCH  55  56
ENDBRANCH  49  50
ENDBRANCH  48  49
BRANCH  48  58
ATOM     58  C   UNL     1       3.931   2.026  -4.430  1.00  0.00     0.326 C 
ATOM     59  O   UNL     1       4.454   1.323  -3.580  1.00  0.00    -0.250 OA
BRANCH  58  60
ATOM     60  O   UNL     1       4.526   3.195  -4.779  1.00  0.00    -0.480 OA
ATOM     61  H   UNL     1       4.236   3.327  -5.708  1.00  0.00     0.296 HD
ENDBRANCH  58  60
ENDBRANCH  48  58
ENDBRANCH  46  48
ENDBRANCH  34  44
ENDBRANCH  32  34
ENDBRANCH  25  30
ENDBRANCH  23  25
ENDBRANCH   2  23
TORSDOF 28
ENDMDL
MODEL 8
REMARK VINA RESULT:    -6.257      2.598      6.266
REMARK INTER + INTRA:         -19.632
REMARK INTER:                 -14.163
REMARK INTRA:                  -5.469
REMARK UNBOUND:                -4.047
REMARK SMILES CCCCCCC[C@H](N)[C@H](O)C(=O)N[C@H](C)C(=O)N(C)[C@H](CC(C)C)C(=O)N[C@@H](Cc1ccc(O)cc1)C(=O)N[C@@H](Cc1ccc(O)cc1)C(=O)O
REMARK SMILES IDX 18 1 17 2 15 3 16 4 14 5 12 6 13 7 10 9 11 10 8 12 9 13 7 16
REMARK SMILES IDX 6 17 5 18 4 19 3 20 2 21 1 22 19 23 20 24 21 25 22 26 23 27
REMARK SMILES IDX 24 28 25 29 26 30 27 31 28 32 29 34 30 35 31 36 32 37 37 38
REMARK SMILES IDX 33 39 36 40 34 41 35 42 38 44 39 45 40 46 41 48 42 49 43 50
REMARK SMILES IDX 44 51 49 52 45 53 48 54 46 55 47 56 50 58 51 59 52 60
REMARK H PARENT 14 8 11 11 9 14 9 15 28 33 35 43 40 47 47 57 52 61
ROOT
ATOM      1  O   UNL     1      -0.322   2.179  -9.666  1.00  0.00    -0.272 OA
ATOM      2  C   UNL     1       0.131   2.406  -8.534  1.00  0.00     0.245 C 
ENDROOT
BRANCH   2   3
ATOM      3  C   UNL     1      -0.395   1.566  -7.343  1.00  0.00     0.168 C 
ATOM      4  C   UNL     1       0.762   1.014  -6.517  1.00  0.00     0.041 C 
BRANCH   3   5
ATOM      5  N   UNL     1      -1.384   2.236  -6.513  1.00  0.00    -0.342 N 
ATOM      6  C   UNL     1      -2.607   1.664  -6.233  1.00  0.00     0.251 C 
ATOM      7  O   UNL     1      -2.969   0.584  -6.689  1.00  0.00    -0.272 OA
ATOM      8  H   UNL     1      -1.211   3.152  -6.107  1.00  0.00     0.164 HD
BRANCH   6   9
ATOM      9  C   UNL     1      -3.429   2.483  -5.225  1.00  0.00     0.219 C 
BRANCH   9  10
ATOM     10  O   UNL     1      -4.837   2.430  -5.487  1.00  0.00    -0.382 OA
ATOM     11  H   UNL     1      -4.929   1.669  -6.102  1.00  0.00     0.211 HD
ENDBRANCH   9  10
BRANCH   9  12
ATOM     12  C   UNL     1      -3.129   2.109  -3.750  1.00  0.00     0.089 C 
BRANCH  12  13
ATOM     13  N   UNL     1      -2.212   0.947  -3.739  1.00  0.00    -0.325 NA
ATOM     14  H   UNL     1      -2.759   0.089  -3.644  1.00  0.00     0.119 HD
ATOM     15  H   UNL     1      -1.634   0.989  -2.896  1.00  0.00     0.119 HD
ENDBRANCH  12  13
BRANCH  12  16
ATOM     16  C   UNL     1      -2.560   3.244  -2.865  1.00  0.00     0.022 C 
BRANCH  16  17
ATOM     17  C   UNL     1      -2.232   2.953  -1.395  1.00  0.00     0.002 C 
BRANCH  17  18
ATOM     18  C   UNL     1      -1.478   4.065  -0.669  1.00  0.00     0.000 C 
BRANCH  18  19
ATOM     19  C   UNL     1      -1.236   5.316  -1.524  1.00  0.00    -0.000 C 
BRANCH  19  20
ATOM     20  C   UNL     1      -0.177   6.280  -0.981  1.00  0.00    -0.000 C 
BRANCH  20  21
ATOM     21  C   UNL     1       1.060   6.379  -1.878  1.00  0.00    -0.003 C 
ATOM     22  C   UNL     1       2.330   6.540  -1.056  1.00  0.00     0.004 C 
ENDBRANCH  20  21
ENDBRANCH  19  20
ENDBRANCH  18  19
ENDBRANCH  17  18
ENDBRANCH  16  17
ENDBRANCH  12  16
ENDBRANCH   9  12
ENDBRANCH   6   9
ENDBRANCH   3   5
ENDBRANCH   2   3
BRANCH   2  23
ATOM     23  N   UNL     1       1.176   3.309  -8.371  1.00  0.00    -0.332 N 
ATOM     24  C   UNL     1       2.276   3.477  -9.309  1.00  0.00     0.147 C 
BRANCH  23  25
ATOM     25  C   UNL     1       1.158   4.283  -7.245  1.00  0.00     0.174 C 
BRANCH  25  26
ATOM     26  C   UNL     1       0.309   5.540  -7.549  1.00  0.00     0.038 C 
BRANCH  26  27
ATOM     27  C   UNL     1      -0.730   5.957  -6.484  1.00  0.00    -0.015 C 
ATOM     28  C   UNL     1      -2.167   5.696  -6.937  1.00  0.00     0.007 C 
ATOM     29  C   UNL     1      -0.478   5.335  -5.113  1.00  0.00     0.007 C 
ENDBRANCH  26  27
ENDBRANCH  25  26
BRANCH  25  30
ATOM     30  C   UNL     1       2.602   4.602  -6.794  1.00  0.00     0.243 C 
ATOM     31  O   UNL     1       3.104   5.712  -6.960  1.00  0.00    -0.273 OA
ATOM     32  N   UNL     1       3.282   3.566  -6.206  1.00  0.00    -0.342 N 
ATOM     33  H   UNL     1       2.753   2.722  -5.976  1.00  0.00     0.164 HD
BRANCH  32  34
ATOM     34  C   UNL     1       4.668   3.678  -5.743  1.00  0.00     0.175 C 
BRANCH  34  35
ATOM     35  C   UNL     1       4.776   3.412  -4.234  1.00  0.00     0.070 C 
BRANCH  35  36
ATOM     36  C   UNL     1       3.577   2.672  -3.683  1.00  0.00    -0.045 A 
ATOM     37  C   UNL     1       3.599   1.273  -3.586  1.00  0.00     0.007 A 
ATOM     38  C   UNL     1       2.425   3.364  -3.286  1.00  0.00     0.007 A 
ATOM     39  C   UNL     1       2.493   0.581  -3.093  1.00  0.00     0.046 A 
ATOM     40  C   UNL     1       1.317   2.672  -2.793  1.00  0.00     0.046 A 
ATOM     41  C   UNL     1       1.362   1.285  -2.700  1.00  0.00     0.115 A 
BRANCH  41  42
ATOM     42  O   UNL     1       0.301   0.571  -2.226  1.00  0.00    -0.508 OA
ATOM     43  H   UNL     1       0.370  -0.337  -2.564  1.00  0.00     0.293 HD
ENDBRANCH  41  42
ENDBRANCH  35  36
ENDBRANCH  34  35
BRANCH  34  44
ATOM     44  C   UNL     1       5.529   2.694  -6.566  1.00  0.00     0.243 C 
ATOM     45  O   UNL     1       6.233   1.813  -6.079  1.00  0.00    -0.273 OA
ATOM     46  N   UNL     1       5.543   2.973  -7.916  1.00  0.00    -0.341 N 
ATOM     47  H   UNL     1       5.036   3.786  -8.258  1.00  0.00     0.164 HD
BRANCH  46  48
ATOM     48  C   UNL     1       6.341   2.220  -8.887  1.00  0.00     0.196 C 
BRANCH  48  49
ATOM     49  C   UNL     1       5.542   1.939 -10.170  1.00  0.00     0.072 C 
BRANCH  49  50
ATOM     50  C   UNL     1       5.768   0.542 -10.702  1.00  0.00    -0.045 A 
ATOM     51  C   UNL     1       7.000   0.205 -11.281  1.00  0.00     0.007 A 
ATOM     52  C   UNL     1       4.755  -0.423 -10.646  1.00  0.00     0.007 A 
ATOM     53  C   UNL     1       7.216  -1.077 -11.787  1.00  0.00     0.046 A 
ATOM     54  C   UNL     1       4.970  -1.707 -11.154  1.00  0.00     0.046 A 
ATOM     55  C   UNL     1       6.200  -2.022 -11.719  1.00  0.00     0.115 A 
BRANCH  55  56
ATOM     56  O   UNL     1       6.451  -3.263 -12.227  1.00  0.00    -0.508 OA
ATOM     57  H   UNL     1       6.096  -3.923 -11.610  1.00  0.00     0.293 HD
ENDBRANCH  55  56
ENDBRANCH  49  50
ENDBRANCH  48  49
BRANCH  48  58
ATOM     58  C   UNL     1       7.600   3.027  -9.230  1.00  0.00     0.326 C 
ATOM     59  O   UNL     1       7.653   4.164  -9.671  1.00  0.00    -0.250 OA
BRANCH  58  60
ATOM     60  O   UNL     1       8.755   2.358  -8.986  1.00  0.00    -0.480 OA
ATOM     61  H   UNL     1       9.379   3.071  -8.727  1.00  0.00     0.296 HD
ENDBRANCH  58  60
ENDBRANCH  48  58
ENDBRANCH  46  48
ENDBRANCH  34  44
ENDBRANCH  32  34
ENDBRANCH  25  30
ENDBRANCH  23  25
ENDBRANCH   2  23
TORSDOF 28
ENDMDL
MODEL 9
REMARK VINA RESULT:    -6.247      2.997      9.084
REMARK INTER + INTRA:         -19.606
REMARK INTER:                 -13.631
REMARK INTRA:                  -5.975
REMARK UNBOUND:                -4.047
REMARK SMILES CCCCCCC[C@H](N)[C@H](O)C(=O)N[C@H](C)C(=O)N(C)[C@H](CC(C)C)C(=O)N[C@@H](Cc1ccc(O)cc1)C(=O)N[C@@H](Cc1ccc(O)cc1)C(=O)O
REMARK SMILES IDX 18 1 17 2 15 3 16 4 14 5 12 6 13 7 10 9 11 10 8 12 9 13 7 16
REMARK SMILES IDX 6 17 5 18 4 19 3 20 2 21 1 22 19 23 20 24 21 25 22 26 23 27
REMARK SMILES IDX 24 28 25 29 26 30 27 31 28 32 29 34 30 35 31 36 32 37 37 38
REMARK SMILES IDX 33 39 36 40 34 41 35 42 38 44 39 45 40 46 41 48 42 49 43 50
REMARK SMILES IDX 44 51 49 52 45 53 48 54 46 55 47 56 50 58 51 59 52 60
REMARK H PARENT 14 8 11 11 9 14 9 15 28 33 35 43 40 47 47 57 52 61
ROOT
ATOM      1  O   UNL     1       2.793   5.663  -7.237  1.00  0.00    -0.272 OA
ATOM      2  C   UNL     1       2.353   5.924  -8.367  1.00  0.00     0.245 C 
ENDROOT
BRANCH   2   3
ATOM      3  C   UNL     1       3.090   6.984  -9.223  1.00  0.00     0.168 C 
ATOM      4  C   UNL     1       2.494   8.370  -8.999  1.00  0.00     0.041 C 
BRANCH   3   5
ATOM      5  N   UNL     1       4.537   6.987  -9.079  1.00  0.00    -0.342 N 
ATOM      6  C   UNL     1       5.337   6.085  -9.748  1.00  0.00     0.251 C 
ATOM      7  O   UNL     1       4.897   5.198 -10.472  1.00  0.00    -0.272 OA
ATOM      8  H   UNL     1       5.015   7.655  -8.478  1.00  0.00     0.164 HD
BRANCH   6   9
ATOM      9  C   UNL     1       6.837   6.366  -9.559  1.00  0.00     0.219 C 
BRANCH   9  10
ATOM     10  O   UNL     1       7.117   7.755  -9.348  1.00  0.00    -0.382 OA
ATOM     11  H   UNL     1       6.250   8.127  -9.074  1.00  0.00     0.211 HD
ENDBRANCH   9  10
BRANCH   9  12
ATOM     12  C   UNL     1       7.482   5.499  -8.446  1.00  0.00     0.089 C 
BRANCH  12  13
ATOM     13  N   UNL     1       6.399   4.895  -7.636  1.00  0.00    -0.325 NA
ATOM     14  H   UNL     1       6.617   5.009  -6.645  1.00  0.00     0.119 HD
ATOM     15  H   UNL     1       6.392   3.885  -7.794  1.00  0.00     0.119 HD
ENDBRANCH  12  13
BRANCH  12  16
ATOM     16  C   UNL     1       8.463   4.402  -8.924  1.00  0.00     0.022 C 
BRANCH  16  17
ATOM     17  C   UNL     1       8.225   3.727 -10.282  1.00  0.00     0.002 C 
BRANCH  17  18
ATOM     18  C   UNL     1       9.349   2.805 -10.749  1.00  0.00     0.000 C 
BRANCH  18  19
ATOM     19  C   UNL     1       9.496   2.723 -12.274  1.00  0.00    -0.000 C 
BRANCH  19  20
ATOM     20  C   UNL     1       8.292   2.130 -13.012  1.00  0.00    -0.000 C 
BRANCH  20  21
ATOM     21  C   UNL     1       8.692   1.216 -14.173  1.00  0.00    -0.003 C 
ATOM     22  C   UNL     1       9.823   0.279 -13.778  1.00  0.00     0.004 C 
ENDBRANCH  20  21
ENDBRANCH  19  20
ENDBRANCH  18  19
ENDBRANCH  17  18
ENDBRANCH  16  17
ENDBRANCH  12  16
ENDBRANCH   9  12
ENDBRANCH   6   9
ENDBRANCH   3   5
ENDBRANCH   2   3
BRANCH   2  23
ATOM     23  N   UNL     1       1.297   5.185  -8.890  1.00  0.00    -0.332 N 
ATOM     24  C   UNL     1      -0.104   5.398  -8.558  1.00  0.00     0.147 C 
BRANCH  23  25
ATOM     25  C   UNL     1       1.541   4.176  -9.957  1.00  0.00     0.174 C 
BRANCH  25  26
ATOM     26  C   UNL     1       0.298   3.922 -10.842  1.00  0.00     0.038 C 
BRANCH  26  27
ATOM     27  C   UNL     1       0.530   3.834 -12.367  1.00  0.00    -0.015 C 
ATOM     28  C   UNL     1       0.939   5.176 -12.974  1.00  0.00     0.007 C 
ATOM     29  C   UNL     1       1.515   2.740 -12.769  1.00  0.00     0.007 C 
ENDBRANCH  26  27
ENDBRANCH  25  26
BRANCH  25  30
ATOM     30  C   UNL     1       2.143   2.890  -9.346  1.00  0.00     0.243 C 
ATOM     31  O   UNL     1       1.452   1.903  -9.099  1.00  0.00    -0.273 OA
ATOM     32  N   UNL     1       3.490   2.927  -9.094  1.00  0.00    -0.342 N 
ATOM     33  H   UNL     1       4.018   3.725  -9.456  1.00  0.00     0.164 HD
BRANCH  32  34
ATOM     34  C   UNL     1       4.224   1.810  -8.493  1.00  0.00     0.175 C 
BRANCH  34  35
ATOM     35  C   UNL     1       5.615   1.650  -9.126  1.00  0.00     0.070 C 
BRANCH  35  36
ATOM     36  C   UNL     1       5.699   0.462 -10.059  1.00  0.00    -0.045 A 
ATOM     37  C   UNL     1       4.533  -0.226 -10.426  1.00  0.00     0.007 A 
ATOM     38  C   UNL     1       6.935   0.019 -10.549  1.00  0.00     0.007 A 
ATOM     39  C   UNL     1       4.602  -1.331 -11.275  1.00  0.00     0.046 A 
ATOM     40  C   UNL     1       7.005  -1.088 -11.397  1.00  0.00     0.046 A 
ATOM     41  C   UNL     1       5.836  -1.753 -11.754  1.00  0.00     0.115 A 
BRANCH  41  42
ATOM     42  O   UNL     1       5.861  -2.838 -12.579  1.00  0.00    -0.508 OA
ATOM     43  H   UNL     1       5.066  -2.814 -13.137  1.00  0.00     0.293 HD
ENDBRANCH  41  42
ENDBRANCH  35  36
ENDBRANCH  34  35
BRANCH  34  44
ATOM     44  C   UNL     1       4.308   2.058  -6.970  1.00  0.00     0.243 C 
ATOM     45  O   UNL     1       5.314   2.450  -6.385  1.00  0.00    -0.273 OA
ATOM     46  N   UNL     1       3.175   1.670  -6.287  1.00  0.00    -0.341 N 
ATOM     47  H   UNL     1       2.410   1.241  -6.803  1.00  0.00     0.164 HD
BRANCH  46  48
ATOM     48  C   UNL     1       3.046   1.745  -4.830  1.00  0.00     0.196 C 
BRANCH  48  49
ATOM     49  C   UNL     1       2.378   3.060  -4.394  1.00  0.00     0.072 C 
BRANCH  49  50
ATOM     50  C   UNL     1       3.253   3.881  -3.474  1.00  0.00    -0.045 A 
ATOM     51  C   UNL     1       2.744   5.043  -2.878  1.00  0.00     0.007 A 
ATOM     52  C   UNL     1       4.580   3.510  -3.222  1.00  0.00     0.007 A 
ATOM     53  C   UNL     1       3.546   5.816  -2.038  1.00  0.00     0.046 A 
ATOM     54  C   UNL     1       5.384   4.284  -2.382  1.00  0.00     0.046 A 
ATOM     55  C   UNL     1       4.859   5.431  -1.796  1.00  0.00     0.115 A 
BRANCH  55  56
ATOM     56  O   UNL     1       5.611   6.214  -0.971  1.00  0.00    -0.508 OA
ATOM     57  H   UNL     1       5.284   6.105  -0.064  1.00  0.00     0.293 HD
ENDBRANCH  55  56
ENDBRANCH  49  50
ENDBRANCH  48  49
BRANCH  48  58
ATOM     58  C   UNL     1       2.210   0.555  -4.341  1.00  0.00     0.326 C 
ATOM     59  O   UNL     1       2.391  -0.112  -3.335  1.00  0.00    -0.250 OA
BRANCH  58  60
ATOM     60  O   UNL     1       1.157   0.265  -5.147  1.00  0.00    -0.480 OA
ATOM     61  H   UNL     1       0.887  -0.631  -4.852  1.00  0.00     0.296 HD
ENDBRANCH  58  60
ENDBRANCH  48  58
ENDBRANCH  46  48
ENDBRANCH  34  44
ENDBRANCH  32  34
ENDBRANCH  25  30
ENDBRANCH  23  25
ENDBRANCH   2  23
TORSDOF 28
ENDMDL
MODEL 10
REMARK VINA RESULT:    -6.224      2.664      9.780
REMARK INTER + INTRA:         -19.550
REMARK INTER:                 -14.134
REMARK INTRA:                  -5.416
REMARK UNBOUND:                -4.047
REMARK SMILES CCCCCCC[C@H](N)[C@H](O)C(=O)N[C@H](C)C(=O)N(C)[C@H](CC(C)C)C(=O)N[C@@H](Cc1ccc(O)cc1)C(=O)N[C@@H](Cc1ccc(O)cc1)C(=O)O
REMARK SMILES IDX 18 1 17 2 15 3 16 4 14 5 12 6 13 7 10 9 11 10 8 12 9 13 7 16
REMARK SMILES IDX 6 17 5 18 4 19 3 20 2 21 1 22 19 23 20 24 21 25 22 26 23 27
REMARK SMILES IDX 24 28 25 29 26 30 27 31 28 32 29 34 30 35 31 36 32 37 37 38
REMARK SMILES IDX 33 39 36 40 34 41 35 42 38 44 39 45 40 46 41 48 42 49 43 50
REMARK SMILES IDX 44 51 49 52 45 53 48 54 46 55 47 56 50 58 51 59 52 60
REMARK H PARENT 14 8 11 11 9 14 9 15 28 33 35 43 40 47 47 57 52 61
ROOT
ATOM      1  O   UNL     1       6.430   4.762 -10.585  1.00  0.00    -0.272 OA
ATOM      2  C   UNL     1       6.035   3.796  -9.916  1.00  0.00     0.245 C 
ENDROOT
BRANCH   2   3
ATOM      3  C   UNL     1       6.625   3.586  -8.499  1.00  0.00     0.168 C 
ATOM      4  C   UNL     1       8.072   3.113  -8.579  1.00  0.00     0.041 C 
BRANCH   3   5
ATOM      5  N   UNL     1       6.475   4.721  -7.600  1.00  0.00    -0.342 N 
ATOM      6  C   UNL     1       5.235   5.186  -7.217  1.00  0.00     0.251 C 
ATOM      7  O   UNL     1       4.179   4.717  -7.628  1.00  0.00    -0.272 OA
ATOM      8  H   UNL     1       7.279   5.214  -7.221  1.00  0.00     0.164 HD
BRANCH   6   9
ATOM      9  C   UNL     1       5.319   6.296  -6.156  1.00  0.00     0.219 C 
BRANCH   9  10
ATOM     10  O   UNL     1       4.392   7.362  -6.397  1.00  0.00    -0.382 OA
ATOM     11  H   UNL     1       4.971   8.141  -6.547  1.00  0.00     0.211 HD
ENDBRANCH   9  10
BRANCH   9  12
ATOM     12  C   UNL     1       5.180   5.764  -4.706  1.00  0.00     0.089 C 
BRANCH  12  13
ATOM     13  N   UNL     1       5.026   4.292  -4.761  1.00  0.00    -0.325 NA
ATOM     14  H   UNL     1       4.529   3.975  -3.927  1.00  0.00     0.119 HD
ATOM     15  H   UNL     1       5.951   3.860  -4.701  1.00  0.00     0.119 HD
ENDBRANCH  12  13
BRANCH  12  16
ATOM     16  C   UNL     1       6.322   6.143  -3.733  1.00  0.00     0.022 C 
BRANCH  16  17
ATOM     17  C   UNL     1       6.669   7.624  -3.529  1.00  0.00     0.002 C 
BRANCH  17  18
ATOM     18  C   UNL     1       8.163   7.930  -3.441  1.00  0.00     0.000 C 
BRANCH  18  19
ATOM     19  C   UNL     1       8.978   7.411  -4.633  1.00  0.00    -0.000 C 
BRANCH  19  20
ATOM     20  C   UNL     1       8.682   8.095  -5.971  1.00  0.00    -0.000 C 
BRANCH  20  21
ATOM     21  C   UNL     1       8.888   7.173  -7.175  1.00  0.00    -0.003 C 
ATOM     22  C   UNL     1       8.170   7.701  -8.407  1.00  0.00     0.004 C 
ENDBRANCH  20  21
ENDBRANCH  19  20
ENDBRANCH  18  19
ENDBRANCH  17  18
ENDBRANCH  16  17
ENDBRANCH  12  16
ENDBRANCH   9  12
ENDBRANCH   6   9
ENDBRANCH   3   5
ENDBRANCH   2   3
BRANCH   2  23
ATOM     23  N   UNL     1       4.998   2.999 -10.388  1.00  0.00    -0.332 N 
ATOM     24  C   UNL     1       4.158   3.329 -11.530  1.00  0.00     0.147 C 
BRANCH  23  25
ATOM     25  C   UNL     1       4.762   1.650  -9.806  1.00  0.00     0.174 C 
BRANCH  25  26
ATOM     26  C   UNL     1       5.065   0.504 -10.799  1.00  0.00     0.038 C 
BRANCH  26  27
ATOM     27  C   UNL     1       6.396  -0.257 -10.606  1.00  0.00    -0.015 C 
ATOM     28  C   UNL     1       6.380  -1.638 -11.260  1.00  0.00     0.007 C 
ATOM     29  C   UNL     1       7.620   0.537 -11.058  1.00  0.00     0.007 C 
ENDBRANCH  26  27
ENDBRANCH  25  26
BRANCH  25  30
ATOM     30  C   UNL     1       3.348   1.578  -9.186  1.00  0.00     0.243 C 
ATOM     31  O   UNL     1       2.333   1.577  -9.881  1.00  0.00    -0.273 OA
ATOM     32  N   UNL     1       3.302   1.521  -7.816  1.00  0.00    -0.342 N 
ATOM     33  H   UNL     1       4.186   1.383  -7.318  1.00  0.00     0.164 HD
BRANCH  32  34
ATOM     34  C   UNL     1       2.050   1.476  -7.057  1.00  0.00     0.175 C 
BRANCH  34  35
ATOM     35  C   UNL     1       1.581   0.030  -6.839  1.00  0.00     0.070 C 
BRANCH  35  36
ATOM     36  C   UNL     1       0.076  -0.111  -6.889  1.00  0.00    -0.045 A 
ATOM     37  C   UNL     1      -0.516  -1.376  -6.752  1.00  0.00     0.007 A 
ATOM     38  C   UNL     1      -0.744   1.006  -7.094  1.00  0.00     0.007 A 
ATOM     39  C   UNL     1      -1.902  -1.518  -6.811  1.00  0.00     0.046 A 
ATOM     40  C   UNL     1      -2.133   0.865  -7.154  1.00  0.00     0.046 A 
ATOM     41  C   UNL     1      -2.699  -0.397  -7.011  1.00  0.00     0.115 A 
BRANCH  41  42
ATOM     42  O   UNL     1      -4.049  -0.579  -7.065  1.00  0.00    -0.508 OA
ATOM     43  H   UNL     1      -4.449  -0.121  -6.307  1.00  0.00     0.293 HD
ENDBRANCH  41  42
ENDBRANCH  35  36
ENDBRANCH  34  35
BRANCH  34  44
ATOM     44  C   UNL     1       2.274   2.219  -5.720  1.00  0.00     0.243 C 
ATOM     45  O   UNL     1       2.324   3.440  -5.605  1.00  0.00    -0.273 OA
ATOM     46  N   UNL     1       2.546   1.376  -4.663  1.00  0.00    -0.341 N 
ATOM     47  H   UNL     1       2.609   0.375  -4.833  1.00  0.00     0.164 HD
BRANCH  46  48
ATOM     48  C   UNL     1       2.859   1.852  -3.314  1.00  0.00     0.196 C 
BRANCH  48  49
ATOM     49  C   UNL     1       1.785   1.414  -2.304  1.00  0.00     0.072 C 
BRANCH  49  50
ATOM     50  C   UNL     1       0.388   1.802  -2.734  1.00  0.00    -0.045 A 
ATOM     51  C   UNL     1      -0.008   3.147  -2.692  1.00  0.00     0.007 A 
ATOM     52  C   UNL     1      -0.530   0.834  -3.159  1.00  0.00     0.007 A 
ATOM     53  C   UNL     1      -1.298   3.515  -3.074  1.00  0.00     0.046 A 
ATOM     54  C   UNL     1      -1.822   1.202  -3.541  1.00  0.00     0.046 A 
ATOM     55  C   UNL     1      -2.195   2.541  -3.496  1.00  0.00     0.115 A 
BRANCH  55  56
ATOM     56  O   UNL     1      -3.446   2.942  -3.859  1.00  0.00    -0.508 OA
ATOM     57  H   UNL     1      -3.731   3.644  -3.252  1.00  0.00     0.293 HD
ENDBRANCH  55  56
ENDBRANCH  49  50
ENDBRANCH  48  49
BRANCH  48  58
ATOM     58  C   UNL     1       4.223   1.290  -2.890  1.00  0.00     0.326 C 
ATOM     59  O   UNL     1       5.319   1.604  -3.325  1.00  0.00    -0.250 OA
BRANCH  58  60
ATOM     60  O   UNL     1       4.143   0.354  -1.911  1.00  0.00    -0.480 OA
ATOM     61  H   UNL     1       3.197   0.381  -1.650  1.00  0.00     0.296 HD
ENDBRANCH  58  60
ENDBRANCH  48  58
ENDBRANCH  46  48
ENDBRANCH  34  44
ENDBRANCH  32  34
ENDBRANCH  25  30
ENDBRANCH  23  25
ENDBRANCH   2  23
TORSDOF 28
ENDMDL
MODEL 11
REMARK VINA RESULT:    -6.197      2.135      4.273
REMARK INTER + INTRA:         -19.480
REMARK INTER:                 -15.039
REMARK INTRA:                  -4.441
REMARK UNBOUND:                -4.047
REMARK SMILES CCCCCCC[C@H](N)[C@H](O)C(=O)N[C@H](C)C(=O)N(C)[C@H](CC(C)C)C(=O)N[C@@H](Cc1ccc(O)cc1)C(=O)N[C@@H](Cc1ccc(O)cc1)C(=O)O
REMARK SMILES IDX 18 1 17 2 15 3 16 4 14 5 12 6 13 7 10 9 11 10 8 12 9 13 7 16
REMARK SMILES IDX 6 17 5 18 4 19 3 20 2 21 1 22 19 23 20 24 21 25 22 26 23 27
REMARK SMILES IDX 24 28 25 29 26 30 27 31 28 32 29 34 30 35 31 36 32 37 37 38
REMARK SMILES IDX 33 39 36 40 34 41 35 42 38 44 39 45 40 46 41 48 42 49 43 50
REMARK SMILES IDX 44 51 49 52 45 53 48 54 46 55 47 56 50 58 51 59 52 60
REMARK H PARENT 14 8 11 11 9 14 9 15 28 33 35 43 40 47 47 57 52 61
ROOT
ATOM      1  O   UNL     1       3.148   3.081  -3.559  1.00  0.00    -0.272 OA
ATOM      2  C   UNL     1       3.113   2.802  -4.767  1.00  0.00     0.245 C 
ENDROOT
BRANCH   2   3
ATOM      3  C   UNL     1       2.415   1.490  -5.205  1.00  0.00     0.168 C 
ATOM      4  C   UNL     1       2.306   0.518  -4.035  1.00  0.00     0.041 C 
BRANCH   3   5
ATOM      5  N   UNL     1       1.139   1.673  -5.878  1.00  0.00    -0.342 N 
ATOM      6  C   UNL     1       0.979   1.402  -7.221  1.00  0.00     0.251 C 
ATOM      7  O   UNL     1       1.894   1.032  -7.950  1.00  0.00    -0.272 OA
ATOM      8  H   UNL     1       0.315   2.008  -5.385  1.00  0.00     0.164 HD
BRANCH   6   9
ATOM      9  C   UNL     1      -0.482   1.528  -7.683  1.00  0.00     0.219 C 
BRANCH   9  10
ATOM     10  O   UNL     1      -0.596   2.014  -9.026  1.00  0.00    -0.382 OA
ATOM     11  H   UNL     1       0.113   2.692  -9.088  1.00  0.00     0.211 HD
ENDBRANCH   9  10
BRANCH   9  12
ATOM     12  C   UNL     1      -1.294   0.220  -7.500  1.00  0.00     0.089 C 
BRANCH  12  13
ATOM     13  N   UNL     1      -0.349  -0.878  -7.192  1.00  0.00    -0.325 NA
ATOM     14  H   UNL     1      -0.207  -0.926  -6.181  1.00  0.00     0.119 HD
ATOM     15  H   UNL     1       0.568  -0.643  -7.579  1.00  0.00     0.119 HD
ENDBRANCH  12  13
BRANCH  12  16
ATOM     16  C   UNL     1      -2.421   0.264  -6.440  1.00  0.00     0.022 C 
BRANCH  16  17
ATOM     17  C   UNL     1      -2.600   1.532  -5.593  1.00  0.00     0.002 C 
BRANCH  17  18
ATOM     18  C   UNL     1      -2.122   1.414  -4.147  1.00  0.00     0.000 C 
BRANCH  18  19
ATOM     19  C   UNL     1      -2.791   2.405  -3.185  1.00  0.00    -0.000 C 
BRANCH  19  20
ATOM     20  C   UNL     1      -1.864   3.480  -2.611  1.00  0.00    -0.000 C 
BRANCH  20  21
ATOM     21  C   UNL     1      -0.423   3.360  -3.114  1.00  0.00    -0.003 C 
ATOM     22  C   UNL     1       0.005   4.607  -3.872  1.00  0.00     0.004 C 
ENDBRANCH  20  21
ENDBRANCH  19  20
ENDBRANCH  18  19
ENDBRANCH  17  18
ENDBRANCH  16  17
ENDBRANCH  12  16
ENDBRANCH   9  12
ENDBRANCH   6   9
ENDBRANCH   3   5
ENDBRANCH   2   3
BRANCH   2  23
ATOM     23  N   UNL     1       3.583   3.715  -5.705  1.00  0.00    -0.332 N 
ATOM     24  C   UNL     1       2.735   4.569  -6.523  1.00  0.00     0.147 C 
BRANCH  23  25
ATOM     25  C   UNL     1       5.044   3.968  -5.841  1.00  0.00     0.174 C 
BRANCH  25  26
ATOM     26  C   UNL     1       5.371   5.440  -6.185  1.00  0.00     0.038 C 
BRANCH  26  27
ATOM     27  C   UNL     1       6.058   6.280  -5.085  1.00  0.00    -0.015 C 
ATOM     28  C   UNL     1       5.886   7.783  -5.304  1.00  0.00     0.007 C 
ATOM     29  C   UNL     1       5.635   5.892  -3.671  1.00  0.00     0.007 C 
ENDBRANCH  26  27
ENDBRANCH  25  26
BRANCH  25  30
ATOM     30  C   UNL     1       5.672   2.947  -6.817  1.00  0.00     0.243 C 
ATOM     31  O   UNL     1       6.233   1.927  -6.419  1.00  0.00    -0.273 OA
ATOM     32  N   UNL     1       5.569   3.258  -8.148  1.00  0.00    -0.342 N 
ATOM     33  H   UNL     1       4.969   4.046  -8.405  1.00  0.00     0.164 HD
BRANCH  32  34
ATOM     34  C   UNL     1       6.130   2.422  -9.213  1.00  0.00     0.175 C 
BRANCH  34  35
ATOM     35  C   UNL     1       5.021   1.760 -10.046  1.00  0.00     0.070 C 
BRANCH  35  36
ATOM     36  C   UNL     1       5.437   0.422 -10.615  1.00  0.00    -0.045 A 
ATOM     37  C   UNL     1       4.509  -0.628 -10.688  1.00  0.00     0.007 A 
ATOM     38  C   UNL     1       6.749   0.204 -11.053  1.00  0.00     0.007 A 
ATOM     39  C   UNL     1       4.887  -1.870 -11.198  1.00  0.00     0.046 A 
ATOM     40  C   UNL     1       7.129  -1.040 -11.563  1.00  0.00     0.046 A 
ATOM     41  C   UNL     1       6.192  -2.066 -11.632  1.00  0.00     0.115 A 
BRANCH  41  42
ATOM     42  O   UNL     1       6.522  -3.296 -12.121  1.00  0.00    -0.508 OA
ATOM     43  H   UNL     1       6.149  -3.378 -13.015  1.00  0.00     0.293 HD
ENDBRANCH  41  42
ENDBRANCH  35  36
ENDBRANCH  34  35
BRANCH  34  44
ATOM     44  C   UNL     1       7.054   3.306 -10.080  1.00  0.00     0.243 C 
ATOM     45  O   UNL     1       6.681   3.951 -11.056  1.00  0.00    -0.273 OA
ATOM     46  N   UNL     1       8.386   3.208  -9.738  1.00  0.00    -0.341 N 
ATOM     47  H   UNL     1       8.660   2.569  -8.996  1.00  0.00     0.164 HD
BRANCH  46  48
ATOM     48  C   UNL     1       9.456   3.900 -10.460  1.00  0.00     0.196 C 
BRANCH  48  49
ATOM     49  C   UNL     1      10.427   4.596  -9.490  1.00  0.00     0.072 C 
BRANCH  49  50
ATOM     50  C   UNL     1       9.953   5.971  -9.080  1.00  0.00    -0.045 A 
ATOM     51  C   UNL     1      10.271   7.085  -9.871  1.00  0.00     0.007 A 
ATOM     52  C   UNL     1       9.214   6.158  -7.905  1.00  0.00     0.007 A 
ATOM     53  C   UNL     1       9.850   8.361  -9.495  1.00  0.00     0.046 A 
ATOM     54  C   UNL     1       8.793   7.436  -7.528  1.00  0.00     0.046 A 
ATOM     55  C   UNL     1       9.115   8.527  -8.328  1.00  0.00     0.115 A 
BRANCH  55  56
ATOM     56  O   UNL     1       8.724   9.791  -7.996  1.00  0.00    -0.508 OA
ATOM     57  H   UNL     1       8.024  10.066  -8.608  1.00  0.00     0.293 HD
ENDBRANCH  55  56
ENDBRANCH  49  50
ENDBRANCH  48  49
BRANCH  48  58
ATOM     58  C   UNL     1      10.224   2.880 -11.313  1.00  0.00     0.326 C 
ATOM     59  O   UNL     1       9.754   2.063 -12.087  1.00  0.00    -0.250 OA
BRANCH  58  60
ATOM     60  O   UNL     1      11.570   2.950 -11.159  1.00  0.00    -0.480 OA
ATOM     61  H   UNL     1      11.799   3.816 -11.560  1.00  0.00     0.296 HD
ENDBRANCH  58  60
ENDBRANCH  48  58
ENDBRANCH  46  48
ENDBRANCH  34  44
ENDBRANCH  32  34
ENDBRANCH  25  30
ENDBRANCH  23  25
ENDBRANCH   2  23
TORSDOF 28
ENDMDL
MODEL 12
REMARK VINA RESULT:    -6.164      4.750      9.273
REMARK INTER + INTRA:         -19.399
REMARK INTER:                 -16.086
REMARK INTRA:                  -3.313
REMARK UNBOUND:                -4.047
REMARK SMILES CCCCCCC[C@H](N)[C@H](O)C(=O)N[C@H](C)C(=O)N(C)[C@H](CC(C)C)C(=O)N[C@@H](Cc1ccc(O)cc1)C(=O)N[C@@H](Cc1ccc(O)cc1)C(=O)O
REMARK SMILES IDX 18 1 17 2 15 3 16 4 14 5 12 6 13 7 10 9 11 10 8 12 9 13 7 16
REMARK SMILES IDX 6 17 5 18 4 19 3 20 2 21 1 22 19 23 20 24 21 25 22 26 23 27
REMARK SMILES IDX 24 28 25 29 26 30 27 31 28 32 29 34 30 35 31 36 32 37 37 38
REMARK SMILES IDX 33 39 36 40 34 41 35 42 38 44 39 45 40 46 41 48 42 49 43 50
REMARK SMILES IDX 44 51 49 52 45 53 48 54 46 55 47 56 50 58 51 59 52 60
REMARK H PARENT 14 8 11 11 9 14 9 15 28 33 35 43 40 47 47 57 52 61
ROOT
ATOM      1  O   UNL     1       6.041   4.953  -1.823  1.00  0.00    -0.272 OA
ATOM      2  C   UNL     1       5.866   6.181  -1.803  1.00  0.00     0.245 C 
ENDROOT
BRANCH   2   3
ATOM      3  C   UNL     1       6.365   6.981  -0.574  1.00  0.00     0.168 C 
ATOM      4  C   UNL     1       6.866   8.359  -0.992  1.00  0.00     0.041 C 
BRANCH   3   5
ATOM      5  N   UNL     1       5.420   7.059   0.529  1.00  0.00    -0.342 N 
ATOM      6  C   UNL     1       5.730   6.589   1.787  1.00  0.00     0.251 C 
ATOM      7  O   UNL     1       6.791   6.039   2.062  1.00  0.00    -0.272 OA
ATOM      8  H   UNL     1       4.494   7.464   0.413  1.00  0.00     0.164 HD
BRANCH   6   9
ATOM      9  C   UNL     1       4.640   6.905   2.825  1.00  0.00     0.219 C 
BRANCH   9  10
ATOM     10  O   UNL     1       4.127   5.729   3.462  1.00  0.00    -0.382 OA
ATOM     11  H   UNL     1       3.187   5.703   3.177  1.00  0.00     0.211 HD
ENDBRANCH   9  10
BRANCH   9  12
ATOM     12  C   UNL     1       5.087   7.952   3.878  1.00  0.00     0.089 C 
BRANCH  12  13
ATOM     13  N   UNL     1       6.107   8.830   3.260  1.00  0.00    -0.325 NA
ATOM     14  H   UNL     1       6.561   8.330   2.493  1.00  0.00     0.119 HD
ATOM     15  H   UNL     1       6.850   9.005   3.941  1.00  0.00     0.119 HD
ENDBRANCH  12  13
BRANCH  12  16
ATOM     16  C   UNL     1       3.960   8.806   4.506  1.00  0.00     0.022 C 
BRANCH  16  17
ATOM     17  C   UNL     1       2.858   8.109   5.316  1.00  0.00     0.002 C 
BRANCH  17  18
ATOM     18  C   UNL     1       1.599   8.943   5.543  1.00  0.00     0.000 C 
BRANCH  18  19
ATOM     19  C   UNL     1       0.296   8.217   5.182  1.00  0.00    -0.000 C 
BRANCH  19  20
ATOM     20  C   UNL     1       0.418   6.698   5.032  1.00  0.00    -0.000 C 
BRANCH  20  21
ATOM     21  C   UNL     1      -0.706   6.086   4.192  1.00  0.00    -0.003 C 
ATOM     22  C   UNL     1      -1.827   5.552   5.070  1.00  0.00     0.004 C 
ENDBRANCH  20  21
ENDBRANCH  19  20
ENDBRANCH  18  19
ENDBRANCH  17  18
ENDBRANCH  16  17
ENDBRANCH  12  16
ENDBRANCH   9  12
ENDBRANCH   6   9
ENDBRANCH   3   5
ENDBRANCH   2   3
BRANCH   2  23
ATOM     23  N   UNL     1       5.344   6.827  -2.919  1.00  0.00    -0.332 N 
ATOM     24  C   UNL     1       4.167   7.682  -2.903  1.00  0.00     0.147 C 
BRANCH  23  25
ATOM     25  C   UNL     1       6.065   6.778  -4.221  1.00  0.00     0.174 C 
BRANCH  25  26
ATOM     26  C   UNL     1       6.311   8.180  -4.826  1.00  0.00     0.038 C 
BRANCH  26  27
ATOM     27  C   UNL     1       7.771   8.686  -4.850  1.00  0.00    -0.015 C 
ATOM     28  C   UNL     1       8.772   7.602  -4.455  1.00  0.00     0.007 C 
ATOM     29  C   UNL     1       8.169   9.328  -6.177  1.00  0.00     0.007 C 
ENDBRANCH  26  27
ENDBRANCH  25  26
BRANCH  25  30
ATOM     30  C   UNL     1       5.356   5.800  -5.185  1.00  0.00     0.243 C 
ATOM     31  O   UNL     1       4.702   6.197  -6.148  1.00  0.00    -0.273 OA
ATOM     32  N   UNL     1       5.501   4.468  -4.892  1.00  0.00    -0.342 N 
ATOM     33  H   UNL     1       6.172   4.214  -4.163  1.00  0.00     0.164 HD
BRANCH  32  34
ATOM     34  C   UNL     1       4.877   3.402  -5.680  1.00  0.00     0.175 C 
BRANCH  34  35
ATOM     35  C   UNL     1       5.863   2.253  -5.944  1.00  0.00     0.070 C 
BRANCH  35  36
ATOM     36  C   UNL     1       6.094   2.009  -7.418  1.00  0.00    -0.045 A 
ATOM     37  C   UNL     1       5.029   2.123  -8.325  1.00  0.00     0.007 A 
ATOM     38  C   UNL     1       7.360   1.645  -7.897  1.00  0.00     0.007 A 
ATOM     39  C   UNL     1       5.230   1.886  -9.685  1.00  0.00     0.046 A 
ATOM     40  C   UNL     1       7.562   1.407  -9.258  1.00  0.00     0.046 A 
ATOM     41  C   UNL     1       6.494   1.531 -10.141  1.00  0.00     0.115 A 
BRANCH  41  42
ATOM     42  O   UNL     1       6.648   1.306 -11.477  1.00  0.00    -0.508 OA
ATOM     43  H   UNL     1       6.546   2.152 -11.942  1.00  0.00     0.293 HD
ENDBRANCH  41  42
ENDBRANCH  35  36
ENDBRANCH  34  35
BRANCH  34  44
ATOM     44  C   UNL     1       3.619   2.920  -4.923  1.00  0.00     0.243 C 
ATOM     45  O   UNL     1       2.637   3.621  -4.693  1.00  0.00    -0.273 OA
ATOM     46  N   UNL     1       3.744   1.650  -4.402  1.00  0.00    -0.341 N 
ATOM     47  H   UNL     1       4.624   1.152  -4.519  1.00  0.00     0.164 HD
BRANCH  46  48
ATOM     48  C   UNL     1       2.710   1.006  -3.589  1.00  0.00     0.196 C 
BRANCH  48  49
ATOM     49  C   UNL     1       1.731   0.203  -4.461  1.00  0.00     0.072 C 
BRANCH  49  50
ATOM     50  C   UNL     1       0.301   0.671  -4.314  1.00  0.00    -0.045 A 
ATOM     51  C   UNL     1      -0.573   0.602  -5.409  1.00  0.00     0.007 A 
ATOM     52  C   UNL     1      -0.164   1.197  -3.102  1.00  0.00     0.007 A 
ATOM     53  C   UNL     1      -1.891   1.043  -5.289  1.00  0.00     0.046 A 
ATOM     54  C   UNL     1      -1.483   1.640  -2.982  1.00  0.00     0.046 A 
ATOM     55  C   UNL     1      -2.336   1.558  -4.077  1.00  0.00     0.115 A 
BRANCH  55  56
ATOM     56  O   UNL     1      -3.630   1.981  -4.002  1.00  0.00    -0.508 OA
ATOM     57  H   UNL     1      -4.111   1.634  -4.771  1.00  0.00     0.293 HD
ENDBRANCH  55  56
ENDBRANCH  49  50
ENDBRANCH  48  49
BRANCH  48  58
ATOM     58  C   UNL     1       3.382   0.071  -2.574  1.00  0.00     0.326 C 
ATOM     59  O   UNL     1       3.153  -1.114  -2.397  1.00  0.00    -0.250 OA
BRANCH  58  60
ATOM     60  O   UNL     1       4.338   0.680  -1.828  1.00  0.00    -0.480 OA
ATOM     61  H   UNL     1       5.083   0.041  -1.851  1.00  0.00     0.296 HD
ENDBRANCH  58  60
ENDBRANCH  48  58
ENDBRANCH  46  48
ENDBRANCH  34  44
ENDBRANCH  32  34
ENDBRANCH  25  30
ENDBRANCH  23  25
ENDBRANCH   2  23
TORSDOF 28
ENDMDL
MODEL 13
REMARK VINA RESULT:    -6.159      2.717      9.906
REMARK INTER + INTRA:         -19.386
REMARK INTER:                 -15.099
REMARK INTRA:                  -4.287
REMARK UNBOUND:                -4.047
REMARK SMILES CCCCCCC[C@H](N)[C@H](O)C(=O)N[C@H](C)C(=O)N(C)[C@H](CC(C)C)C(=O)N[C@@H](Cc1ccc(O)cc1)C(=O)N[C@@H](Cc1ccc(O)cc1)C(=O)O
REMARK SMILES IDX 18 1 17 2 15 3 16 4 14 5 12 6 13 7 10 9 11 10 8 12 9 13 7 16
REMARK SMILES IDX 6 17 5 18 4 19 3 20 2 21 1 22 19 23 20 24 21 25 22 26 23 27
REMARK SMILES IDX 24 28 25 29 26 30 27 31 28 32 29 34 30 35 31 36 32 37 37 38
REMARK SMILES IDX 33 39 36 40 34 41 35 42 38 44 39 45 40 46 41 48 42 49 43 50
REMARK SMILES IDX 44 51 49 52 45 53 48 54 46 55 47 56 50 58 51 59 52 60
REMARK H PARENT 14 8 11 11 9 14 9 15 28 33 35 43 40 47 47 57 52 61
ROOT
ATOM      1  O   UNL     1       8.186   2.754  -9.145  1.00  0.00    -0.272 OA
ATOM      2  C   UNL     1       8.578   3.745  -9.780  1.00  0.00     0.245 C 
ENDROOT
BRANCH   2   3
ATOM      3  C   UNL     1      10.082   3.848 -10.138  1.00  0.00     0.168 C 
ATOM      4  C   UNL     1      10.950   3.533  -8.924  1.00  0.00     0.041 C 
BRANCH   3   5
ATOM      5  N   UNL     1      10.486   3.082 -11.307  1.00  0.00    -0.342 N 
ATOM      6  C   UNL     1      10.673   3.676 -12.537  1.00  0.00     0.251 C 
ATOM      7  O   UNL     1      10.476   4.868 -12.749  1.00  0.00    -0.272 OA
ATOM      8  H   UNL     1      10.645   2.078 -11.261  1.00  0.00     0.164 HD
BRANCH   6   9
ATOM      9  C   UNL     1      11.235   2.704 -13.587  1.00  0.00     0.219 C 
BRANCH   9  10
ATOM     10  O   UNL     1      11.778   1.514 -13.003  1.00  0.00    -0.382 OA
ATOM     11  H   UNL     1      12.611   1.371 -13.504  1.00  0.00     0.211 HD
ENDBRANCH   9  10
BRANCH   9  12
ATOM     12  C   UNL     1      10.214   2.355 -14.702  1.00  0.00     0.089 C 
BRANCH  12  13
ATOM     13  N   UNL     1      10.696   1.150 -15.415  1.00  0.00    -0.325 NA
ATOM     14  H   UNL     1      11.686   1.265 -15.637  1.00  0.00     0.119 HD
ATOM     15  H   UNL     1      10.224   1.092 -16.321  1.00  0.00     0.119 HD
ENDBRANCH  12  13
BRANCH  12  16
ATOM     16  C   UNL     1       8.751   2.151 -14.241  1.00  0.00     0.022 C 
BRANCH  16  17
ATOM     17  C   UNL     1       8.372   0.858 -13.507  1.00  0.00     0.002 C 
BRANCH  17  18
ATOM     18  C   UNL     1       7.630   1.059 -12.188  1.00  0.00     0.000 C 
BRANCH  18  19
ATOM     19  C   UNL     1       7.331  -0.243 -11.433  1.00  0.00    -0.000 C 
BRANCH  19  20
ATOM     20  C   UNL     1       6.025  -0.247 -10.634  1.00  0.00    -0.000 C 
BRANCH  20  21
ATOM     21  C   UNL     1       5.001  -1.253 -11.165  1.00  0.00    -0.003 C 
ATOM     22  C   UNL     1       5.677  -2.390 -11.916  1.00  0.00     0.004 C 
ENDBRANCH  20  21
ENDBRANCH  19  20
ENDBRANCH  18  19
ENDBRANCH  17  18
ENDBRANCH  16  17
ENDBRANCH  12  16
ENDBRANCH   9  12
ENDBRANCH   6   9
ENDBRANCH   3   5
ENDBRANCH   2   3
BRANCH   2  23
ATOM     23  N   UNL     1       7.659   4.672 -10.260  1.00  0.00    -0.332 N 
ATOM     24  C   UNL     1       7.160   4.708 -11.627  1.00  0.00     0.147 C 
BRANCH  23  25
ATOM     25  C   UNL     1       7.015   5.640  -9.332  1.00  0.00     0.174 C 
BRANCH  25  26
ATOM     26  C   UNL     1       7.822   5.856  -8.030  1.00  0.00     0.038 C 
BRANCH  26  27
ATOM     27  C   UNL     1       7.582   7.178  -7.268  1.00  0.00    -0.015 C 
ATOM     28  C   UNL     1       7.119   6.948  -5.830  1.00  0.00     0.007 C 
ATOM     29  C   UNL     1       8.780   8.124  -7.301  1.00  0.00     0.007 C 
ENDBRANCH  26  27
ENDBRANCH  25  26
BRANCH  25  30
ATOM     30  C   UNL     1       5.540   5.245  -9.090  1.00  0.00     0.243 C 
ATOM     31  O   UNL     1       4.612   5.814  -9.662  1.00  0.00    -0.273 OA
ATOM     32  N   UNL     1       5.338   4.226  -8.194  1.00  0.00    -0.342 N 
ATOM     33  H   UNL     1       6.161   3.711  -7.870  1.00  0.00     0.164 HD
BRANCH  32  34
ATOM     34  C   UNL     1       4.008   3.737  -7.822  1.00  0.00     0.175 C 
BRANCH  34  35
ATOM     35  C   UNL     1       3.707   2.381  -8.478  1.00  0.00     0.070 C 
BRANCH  35  36
ATOM     36  C   UNL     1       2.665   2.477  -9.569  1.00  0.00    -0.045 A 
ATOM     37  C   UNL     1       3.034   2.289 -10.910  1.00  0.00     0.007 A 
ATOM     38  C   UNL     1       1.330   2.776  -9.265  1.00  0.00     0.007 A 
ATOM     39  C   UNL     1       2.082   2.390 -11.925  1.00  0.00     0.046 A 
ATOM     40  C   UNL     1       0.377   2.878 -10.281  1.00  0.00     0.046 A 
ATOM     41  C   UNL     1       0.763   2.682 -11.603  1.00  0.00     0.115 A 
BRANCH  41  42
ATOM     42  O   UNL     1      -0.135   2.775 -12.625  1.00  0.00    -0.508 OA
ATOM     43  H   UNL     1      -1.029   2.802 -12.244  1.00  0.00     0.293 HD
ENDBRANCH  41  42
ENDBRANCH  35  36
ENDBRANCH  34  35
BRANCH  34  44
ATOM     44  C   UNL     1       3.940   3.661  -6.280  1.00  0.00     0.243 C 
ATOM     45  O   UNL     1       4.203   4.594  -5.527  1.00  0.00    -0.273 OA
ATOM     46  N   UNL     1       3.678   2.393  -5.804  1.00  0.00    -0.341 N 
ATOM     47  H   UNL     1       3.583   1.627  -6.466  1.00  0.00     0.164 HD
BRANCH  46  48
ATOM     48  C   UNL     1       3.633   2.061  -4.379  1.00  0.00     0.196 C 
BRANCH  48  49
ATOM     49  C   UNL     1       3.005   0.677  -4.146  1.00  0.00     0.072 C 
BRANCH  49  50
ATOM     50  C   UNL     1       1.556   0.616  -4.574  1.00  0.00    -0.045 A 
ATOM     51  C   UNL     1       1.192  -0.134  -5.702  1.00  0.00     0.007 A 
ATOM     52  C   UNL     1       0.567   1.316  -3.872  1.00  0.00     0.007 A 
ATOM     53  C   UNL     1      -0.140  -0.187  -6.114  1.00  0.00     0.046 A 
ATOM     54  C   UNL     1      -0.766   1.264  -4.285  1.00  0.00     0.046 A 
ATOM     55  C   UNL     1      -1.108   0.511  -5.403  1.00  0.00     0.115 A 
BRANCH  55  56
ATOM     56  O   UNL     1      -2.398   0.435  -5.840  1.00  0.00    -0.508 OA
ATOM     57  H   UNL     1      -2.986   0.524  -5.074  1.00  0.00     0.293 HD
ENDBRANCH  55  56
ENDBRANCH  49  50
ENDBRANCH  48  49
BRANCH  48  58
ATOM     58  C   UNL     1       5.061   2.080  -3.816  1.00  0.00     0.326 C 
ATOM     59  O   UNL     1       5.403   2.353  -2.677  1.00  0.00    -0.250 OA
BRANCH  58  60
ATOM     60  O   UNL     1       6.006   1.734  -4.726  1.00  0.00    -0.480 OA
ATOM     61  H   UNL     1       6.195   0.795  -4.511  1.00  0.00     0.296 HD
ENDBRANCH  58  60
ENDBRANCH  48  58
ENDBRANCH  46  48
ENDBRANCH  34  44
ENDBRANCH  32  34
ENDBRANCH  25  30
ENDBRANCH  23  25
ENDBRANCH   2  23
TORSDOF 28
ENDMDL
MODEL 14
REMARK VINA RESULT:    -6.128      5.199      7.835
REMARK INTER + INTRA:         -19.310
REMARK INTER:                 -15.369
REMARK INTRA:                  -3.941
REMARK UNBOUND:                -4.047
REMARK SMILES CCCCCCC[C@H](N)[C@H](O)C(=O)N[C@H](C)C(=O)N(C)[C@H](CC(C)C)C(=O)N[C@@H](Cc1ccc(O)cc1)C(=O)N[C@@H](Cc1ccc(O)cc1)C(=O)O
REMARK SMILES IDX 18 1 17 2 15 3 16 4 14 5 12 6 13 7 10 9 11 10 8 12 9 13 7 16
REMARK SMILES IDX 6 17 5 18 4 19 3 20 2 21 1 22 19 23 20 24 21 25 22 26 23 27
REMARK SMILES IDX 24 28 25 29 26 30 27 31 28 32 29 34 30 35 31 36 32 37 37 38
REMARK SMILES IDX 33 39 36 40 34 41 35 42 38 44 39 45 40 46 41 48 42 49 43 50
REMARK SMILES IDX 44 51 49 52 45 53 48 54 46 55 47 56 50 58 51 59 52 60
REMARK H PARENT 14 8 11 11 9 14 9 15 28 33 35 43 40 47 47 57 52 61
ROOT
ATOM      1  O   UNL     1      -0.294   2.400 -10.642  1.00  0.00    -0.272 OA
ATOM      2  C   UNL     1       0.165   3.479 -10.239  1.00  0.00     0.245 C 
ENDROOT
BRANCH   2   3
ATOM      3  C   UNL     1       0.332   4.638 -11.253  1.00  0.00     0.168 C 
ATOM      4  C   UNL     1       1.807   4.957 -11.472  1.00  0.00     0.041 C 
BRANCH   3   5
ATOM      5  N   UNL     1      -0.376   4.456 -12.510  1.00  0.00    -0.342 N 
ATOM      6  C   UNL     1      -1.588   5.066 -12.758  1.00  0.00     0.251 C 
ATOM      7  O   UNL     1      -2.175   5.762 -11.936  1.00  0.00    -0.272 OA
ATOM      8  H   UNL     1      -0.004   3.872 -13.255  1.00  0.00     0.164 HD
BRANCH   6   9
ATOM      9  C   UNL     1      -2.079   4.848 -14.198  1.00  0.00     0.219 C 
BRANCH   9  10
ATOM     10  O   UNL     1      -1.018   4.512 -15.099  1.00  0.00    -0.382 OA
ATOM     11  H   UNL     1      -1.171   3.561 -15.292  1.00  0.00     0.211 HD
ENDBRANCH   9  10
BRANCH   9  12
ATOM     12  C   UNL     1      -3.234   3.818 -14.298  1.00  0.00     0.089 C 
BRANCH  12  13
ATOM     13  N   UNL     1      -3.273   3.035 -13.042  1.00  0.00    -0.325 NA
ATOM     14  H   UNL     1      -3.764   2.155 -13.210  1.00  0.00     0.119 HD
ATOM     15  H   UNL     1      -3.846   3.535 -12.358  1.00  0.00     0.119 HD
ENDBRANCH  12  13
BRANCH  12  16
ATOM     16  C   UNL     1      -4.636   4.398 -14.606  1.00  0.00     0.022 C 
BRANCH  16  17
ATOM     17  C   UNL     1      -5.175   5.546 -13.742  1.00  0.00     0.002 C 
BRANCH  17  18
ATOM     18  C   UNL     1      -6.435   5.215 -12.945  1.00  0.00     0.000 C 
BRANCH  18  19
ATOM     19  C   UNL     1      -6.762   6.231 -11.842  1.00  0.00    -0.000 C 
BRANCH  19  20
ATOM     20  C   UNL     1      -7.413   5.642 -10.587  1.00  0.00    -0.000 C 
BRANCH  20  21
ATOM     21  C   UNL     1      -8.546   4.662 -10.903  1.00  0.00    -0.003 C 
ATOM     22  C   UNL     1      -9.412   4.403  -9.681  1.00  0.00     0.004 C 
ENDBRANCH  20  21
ENDBRANCH  19  20
ENDBRANCH  18  19
ENDBRANCH  17  18
ENDBRANCH  16  17
ENDBRANCH  12  16
ENDBRANCH   9  12
ENDBRANCH   6   9
ENDBRANCH   3   5
ENDBRANCH   2   3
BRANCH   2  23
ATOM     23  N   UNL     1       0.404   3.670  -8.882  1.00  0.00    -0.332 N 
ATOM     24  C   UNL     1       0.185   4.922  -8.173  1.00  0.00     0.147 C 
BRANCH  23  25
ATOM     25  C   UNL     1       0.794   2.521  -8.019  1.00  0.00     0.174 C 
BRANCH  25  26
ATOM     26  C   UNL     1       0.411   2.726  -6.534  1.00  0.00     0.038 C 
BRANCH  26  27
ATOM     27  C   UNL     1       1.387   2.165  -5.476  1.00  0.00    -0.015 C 
ATOM     28  C   UNL     1       1.476   3.052  -4.234  1.00  0.00     0.007 C 
ATOM     29  C   UNL     1       1.093   0.720  -5.084  1.00  0.00     0.007 C 
ENDBRANCH  26  27
ENDBRANCH  25  26
BRANCH  25  30
ATOM     30  C   UNL     1       2.285   2.175  -8.235  1.00  0.00     0.243 C 
ATOM     31  O   UNL     1       2.660   1.025  -8.457  1.00  0.00    -0.273 OA
ATOM     32  N   UNL     1       3.156   3.231  -8.155  1.00  0.00    -0.342 N 
ATOM     33  H   UNL     1       2.757   4.172  -8.110  1.00  0.00     0.164 HD
BRANCH  32  34
ATOM     34  C   UNL     1       4.607   3.086  -8.306  1.00  0.00     0.175 C 
BRANCH  34  35
ATOM     35  C   UNL     1       5.195   2.180  -7.214  1.00  0.00     0.070 C 
BRANCH  35  36
ATOM     36  C   UNL     1       5.140   2.809  -5.840  1.00  0.00    -0.045 A 
ATOM     37  C   UNL     1       5.146   4.206  -5.707  1.00  0.00     0.007 A 
ATOM     38  C   UNL     1       5.105   2.015  -4.686  1.00  0.00     0.007 A 
ATOM     39  C   UNL     1       5.110   4.795  -4.443  1.00  0.00     0.046 A 
ATOM     40  C   UNL     1       5.070   2.604  -3.420  1.00  0.00     0.046 A 
ATOM     41  C   UNL     1       5.071   3.991  -3.311  1.00  0.00     0.115 A 
BRANCH  41  42
ATOM     42  O   UNL     1       5.039   4.607  -2.095  1.00  0.00    -0.508 OA
ATOM     43  H   UNL     1       5.566   5.421  -2.152  1.00  0.00     0.293 HD
ENDBRANCH  41  42
ENDBRANCH  35  36
ENDBRANCH  34  35
BRANCH  34  44
ATOM     44  C   UNL     1       4.888   2.539  -9.724  1.00  0.00     0.243 C 
ATOM     45  O   UNL     1       4.584   3.116 -10.764  1.00  0.00    -0.273 OA
ATOM     46  N   UNL     1       5.406   1.261  -9.726  1.00  0.00    -0.341 N 
ATOM     47  H   UNL     1       5.532   0.778  -8.840  1.00  0.00     0.164 HD
BRANCH  46  48
ATOM     48  C   UNL     1       5.690   0.509 -10.950  1.00  0.00     0.196 C 
BRANCH  48  49
ATOM     49  C   UNL     1       7.193   0.214 -11.090  1.00  0.00     0.072 C 
BRANCH  49  50
ATOM     50  C   UNL     1       7.828   0.963 -12.240  1.00  0.00    -0.045 A 
ATOM     51  C   UNL     1       7.773   2.363 -12.278  1.00  0.00     0.007 A 
ATOM     52  C   UNL     1       8.456   0.276 -13.287  1.00  0.00     0.007 A 
ATOM     53  C   UNL     1       8.344   3.064 -13.341  1.00  0.00     0.046 A 
ATOM     54  C   UNL     1       9.027   0.978 -14.352  1.00  0.00     0.046 A 
ATOM     55  C   UNL     1       8.966   2.367 -14.369  1.00  0.00     0.115 A 
BRANCH  55  56
ATOM     56  O   UNL     1       9.510   3.089 -15.390  1.00  0.00    -0.508 OA
ATOM     57  H   UNL     1      10.468   3.143 -15.250  1.00  0.00     0.293 HD
ENDBRANCH  55  56
ENDBRANCH  49  50
ENDBRANCH  48  49
BRANCH  48  58
ATOM     58  C   UNL     1       4.908  -0.812 -10.918  1.00  0.00     0.326 C 
ATOM     59  O   UNL     1       5.176  -1.844 -11.511  1.00  0.00    -0.250 OA
BRANCH  58  60
ATOM     60  O   UNL     1       3.815  -0.774 -10.115  1.00  0.00    -0.480 OA
ATOM     61  H   UNL     1       3.283  -0.039 -10.491  1.00  0.00     0.296 HD
ENDBRANCH  58  60
ENDBRANCH  48  58
ENDBRANCH  46  48
ENDBRANCH  34  44
ENDBRANCH  32  34
ENDBRANCH  25  30
ENDBRANCH  23  25
ENDBRANCH   2  23
TORSDOF 28
ENDMDL
MODEL 15
REMARK VINA RESULT:    -6.068      8.515     13.318
REMARK INTER + INTRA:         -19.161
REMARK INTER:                 -13.419
REMARK INTRA:                  -5.742
REMARK UNBOUND:                -4.047
REMARK SMILES CCCCCCC[C@H](N)[C@H](O)C(=O)N[C@H](C)C(=O)N(C)[C@H](CC(C)C)C(=O)N[C@@H](Cc1ccc(O)cc1)C(=O)N[C@@H](Cc1ccc(O)cc1)C(=O)O
REMARK SMILES IDX 18 1 17 2 15 3 16 4 14 5 12 6 13 7 10 9 11 10 8 12 9 13 7 16
REMARK SMILES IDX 6 17 5 18 4 19 3 20 2 21 1 22 19 23 20 24 21 25 22 26 23 27
REMARK SMILES IDX 24 28 25 29 26 30 27 31 28 32 29 34 30 35 31 36 32 37 37 38
REMARK SMILES IDX 33 39 36 40 34 41 35 42 38 44 39 45 40 46 41 48 42 49 43 50
REMARK SMILES IDX 44 51 49 52 45 53 48 54 46 55 47 56 50 58 51 59 52 60
REMARK H PARENT 14 8 11 11 9 14 9 15 28 33 35 43 40 47 47 57 52 61
ROOT
ATOM      1  O   UNL     1      -3.918   7.397  -5.055  1.00  0.00    -0.272 OA
ATOM      2  C   UNL     1      -3.972   7.419  -3.816  1.00  0.00     0.245 C 
ENDROOT
BRANCH   2   3
ATOM      3  C   UNL     1      -4.776   6.311  -3.090  1.00  0.00     0.168 C 
ATOM      4  C   UNL     1      -6.219   6.279  -3.582  1.00  0.00     0.041 C 
BRANCH   3   5
ATOM      5  N   UNL     1      -4.163   4.993  -3.119  1.00  0.00    -0.342 N 
ATOM      6  C   UNL     1      -3.947   4.264  -1.969  1.00  0.00     0.251 C 
ATOM      7  O   UNL     1      -4.211   4.680  -0.845  1.00  0.00    -0.272 OA
ATOM      8  H   UNL     1      -3.869   4.557  -3.991  1.00  0.00     0.164 HD
BRANCH   6   9
ATOM      9  C   UNL     1      -3.423   2.847  -2.251  1.00  0.00     0.219 C 
BRANCH   9  10
ATOM     10  O   UNL     1      -3.895   2.322  -3.498  1.00  0.00    -0.382 OA
ATOM     11  H   UNL     1      -4.836   2.602  -3.525  1.00  0.00     0.211 HD
ENDBRANCH   9  10
BRANCH   9  12
ATOM     12  C   UNL     1      -1.878   2.740  -2.158  1.00  0.00     0.089 C 
BRANCH  12  13
ATOM     13  N   UNL     1      -1.426   3.515  -0.980  1.00  0.00    -0.325 NA
ATOM     14  H   UNL     1      -1.845   3.119  -0.136  1.00  0.00     0.119 HD
ATOM     15  H   UNL     1      -1.801   4.464  -1.044  1.00  0.00     0.119 HD
ENDBRANCH  12  13
BRANCH  12  16
ATOM     16  C   UNL     1      -1.301   1.305  -2.104  1.00  0.00     0.022 C 
BRANCH  16  17
ATOM     17  C   UNL     1      -0.217   0.897  -3.112  1.00  0.00     0.002 C 
BRANCH  17  18
ATOM     18  C   UNL     1      -0.151   1.759  -4.371  1.00  0.00     0.000 C 
BRANCH  18  19
ATOM     19  C   UNL     1      -1.017   1.243  -5.527  1.00  0.00    -0.000 C 
BRANCH  19  20
ATOM     20  C   UNL     1      -0.649  -0.150  -6.044  1.00  0.00    -0.000 C 
BRANCH  20  21
ATOM     21  C   UNL     1      -1.594  -0.653  -7.139  1.00  0.00    -0.003 C 
ATOM     22  C   UNL     1      -2.479  -1.781  -6.632  1.00  0.00     0.004 C 
ENDBRANCH  20  21
ENDBRANCH  19  20
ENDBRANCH  18  19
ENDBRANCH  17  18
ENDBRANCH  16  17
ENDBRANCH  12  16
ENDBRANCH   9  12
ENDBRANCH   6   9
ENDBRANCH   3   5
ENDBRANCH   2   3
BRANCH   2  23
ATOM     23  N   UNL     1      -3.222   8.348  -3.103  1.00  0.00    -0.332 N 
ATOM     24  C   UNL     1      -2.673   9.573  -3.667  1.00  0.00     0.147 C 
BRANCH  23  25
ATOM     25  C   UNL     1      -3.039   8.198  -1.634  1.00  0.00     0.174 C 
BRANCH  25  26
ATOM     26  C   UNL     1      -3.166   9.537  -0.870  1.00  0.00     0.038 C 
BRANCH  26  27
ATOM     27  C   UNL     1      -4.577   9.933  -0.382  1.00  0.00    -0.015 C 
ATOM     28  C   UNL     1      -4.566  10.502   1.036  1.00  0.00     0.007 C 
ATOM     29  C   UNL     1      -5.307  10.877  -1.334  1.00  0.00     0.007 C 
ENDBRANCH  26  27
ENDBRANCH  25  26
BRANCH  25  30
ATOM     30  C   UNL     1      -1.727   7.435  -1.337  1.00  0.00     0.243 C 
ATOM     31  O   UNL     1      -1.381   6.456  -1.997  1.00  0.00    -0.273 OA
ATOM     32  N   UNL     1      -0.985   7.917  -0.290  1.00  0.00    -0.342 N 
ATOM     33  H   UNL     1      -1.265   8.814   0.116  1.00  0.00     0.164 HD
BRANCH  32  34
ATOM     34  C   UNL     1       0.272   7.305   0.151  1.00  0.00     0.175 C 
BRANCH  34  35
ATOM     35  C   UNL     1       1.172   8.327   0.862  1.00  0.00     0.070 C 
BRANCH  35  36
ATOM     36  C   UNL     1       2.597   7.844   1.015  1.00  0.00    -0.045 A 
ATOM     37  C   UNL     1       3.253   7.975   2.248  1.00  0.00     0.007 A 
ATOM     38  C   UNL     1       3.287   7.285  -0.068  1.00  0.00     0.007 A 
ATOM     39  C   UNL     1       4.573   7.545   2.395  1.00  0.00     0.046 A 
ATOM     40  C   UNL     1       4.608   6.856   0.078  1.00  0.00     0.046 A 
ATOM     41  C   UNL     1       5.239   6.989   1.310  1.00  0.00     0.115 A 
BRANCH  41  42
ATOM     42  O   UNL     1       6.528   6.584   1.495  1.00  0.00    -0.508 OA
ATOM     43  H   UNL     1       6.991   7.268   2.007  1.00  0.00     0.293 HD
ENDBRANCH  41  42
ENDBRANCH  35  36
ENDBRANCH  34  35
BRANCH  34  44
ATOM     44  C   UNL     1      -0.075   6.107   1.064  1.00  0.00     0.243 C 
ATOM     45  O   UNL     1       0.254   4.945   0.839  1.00  0.00    -0.273 OA
ATOM     46  N   UNL     1      -0.911   6.437   2.109  1.00  0.00    -0.341 N 
ATOM     47  H   UNL     1      -1.251   7.392   2.187  1.00  0.00     0.164 HD
BRANCH  46  48
ATOM     48  C   UNL     1      -1.430   5.457   3.066  1.00  0.00     0.196 C 
BRANCH  48  49
ATOM     49  C   UNL     1      -1.563   6.065   4.473  1.00  0.00     0.072 C 
BRANCH  49  50
ATOM     50  C   UNL     1      -0.328   6.826   4.897  1.00  0.00    -0.045 A 
ATOM     51  C   UNL     1       0.905   6.164   4.987  1.00  0.00     0.007 A 
ATOM     52  C   UNL     1      -0.397   8.186   5.225  1.00  0.00     0.007 A 
ATOM     53  C   UNL     1       2.049   6.853   5.390  1.00  0.00     0.046 A 
ATOM     54  C   UNL     1       0.748   8.876   5.630  1.00  0.00     0.046 A 
ATOM     55  C   UNL     1       1.963   8.203   5.707  1.00  0.00     0.115 A 
BRANCH  55  56
ATOM     56  O   UNL     1       3.103   8.839   6.099  1.00  0.00    -0.508 OA
ATOM     57  H   UNL     1       3.863   8.359   5.732  1.00  0.00     0.293 HD
ENDBRANCH  55  56
ENDBRANCH  49  50
ENDBRANCH  48  49
BRANCH  48  58
ATOM     58  C   UNL     1      -2.803   4.967   2.585  1.00  0.00     0.326 C 
ATOM     59  O   UNL     1      -3.896   5.274   3.032  1.00  0.00    -0.250 OA
BRANCH  58  60
ATOM     60  O   UNL     1      -2.734   4.110   1.535  1.00  0.00    -0.480 OA
ATOM     61  H   UNL     1      -3.109   3.278   1.898  1.00  0.00     0.296 HD
ENDBRANCH  58  60
ENDBRANCH  48  58
ENDBRANCH  46  48
ENDBRANCH  34  44
ENDBRANCH  32  34
ENDBRANCH  25  30
ENDBRANCH  23  25
ENDBRANCH   2  23
TORSDOF 28
ENDMDL
MODEL 16
REMARK VINA RESULT:    -6.059      5.476     11.577
REMARK INTER + INTRA:         -19.139
REMARK INTER:                 -13.659
REMARK INTRA:                  -5.480
REMARK UNBOUND:                -4.047
REMARK SMILES CCCCCCC[C@H](N)[C@H](O)C(=O)N[C@H](C)C(=O)N(C)[C@H](CC(C)C)C(=O)N[C@@H](Cc1ccc(O)cc1)C(=O)N[C@@H](Cc1ccc(O)cc1)C(=O)O
REMARK SMILES IDX 18 1 17 2 15 3 16 4 14 5 12 6 13 7 10 9 11 10 8 12 9 13 7 16
REMARK SMILES IDX 6 17 5 18 4 19 3 20 2 21 1 22 19 23 20 24 21 25 22 26 23 27
REMARK SMILES IDX 24 28 25 29 26 30 27 31 28 32 29 34 30 35 31 36 32 37 37 38
REMARK SMILES IDX 33 39 36 40 34 41 35 42 38 44 39 45 40 46 41 48 42 49 43 50
REMARK SMILES IDX 44 51 49 52 45 53 48 54 46 55 47 56 50 58 51 59 52 60
REMARK H PARENT 14 8 11 11 9 14 9 15 28 33 35 43 40 47 47 57 52 61
ROOT
ATOM      1  O   UNL     1      -2.148   4.861  -4.890  1.00  0.00    -0.272 OA
ATOM      2  C   UNL     1      -1.436   5.827  -5.199  1.00  0.00     0.245 C 
ENDROOT
BRANCH   2   3
ATOM      3  C   UNL     1      -0.025   5.554  -5.778  1.00  0.00     0.168 C 
ATOM      4  C   UNL     1       1.053   5.860  -4.744  1.00  0.00     0.041 C 
BRANCH   3   5
ATOM      5  N   UNL     1       0.148   4.235  -6.367  1.00  0.00    -0.342 N 
ATOM      6  C   UNL     1      -0.156   3.982  -7.688  1.00  0.00     0.251 C 
ATOM      7  O   UNL     1      -0.628   4.822  -8.446  1.00  0.00    -0.272 OA
ATOM      8  H   UNL     1       0.500   3.448  -5.826  1.00  0.00     0.164 HD
BRANCH   6   9
ATOM      9  C   UNL     1       0.240   2.563  -8.127  1.00  0.00     0.219 C 
BRANCH   9  10
ATOM     10  O   UNL     1      -0.546   2.086  -9.226  1.00  0.00    -0.382 OA
ATOM     11  H   UNL     1      -1.102   2.860  -9.466  1.00  0.00     0.211 HD
ENDBRANCH   9  10
BRANCH   9  12
ATOM     12  C   UNL     1       1.754   2.419  -8.430  1.00  0.00     0.089 C 
BRANCH  12  13
ATOM     13  N   UNL     1       2.317   3.771  -8.651  1.00  0.00    -0.325 NA
ATOM     14  H   UNL     1       2.454   4.230  -7.749  1.00  0.00     0.119 HD
ATOM     15  H   UNL     1       1.623   4.343  -9.138  1.00  0.00     0.119 HD
ENDBRANCH  12  13
BRANCH  12  16
ATOM     16  C   UNL     1       2.589   1.663  -7.369  1.00  0.00     0.022 C 
BRANCH  16  17
ATOM     17  C   UNL     1       3.997   2.169  -7.027  1.00  0.00     0.002 C 
BRANCH  17  18
ATOM     18  C   UNL     1       4.328   2.197  -5.537  1.00  0.00     0.000 C 
BRANCH  18  19
ATOM     19  C   UNL     1       3.225   2.808  -4.663  1.00  0.00    -0.000 C 
BRANCH  19  20
ATOM     20  C   UNL     1       2.887   2.018  -3.395  1.00  0.00    -0.000 C 
BRANCH  20  21
ATOM     21  C   UNL     1       4.050   1.153  -2.900  1.00  0.00    -0.003 C 
ATOM     22  C   UNL     1       3.567  -0.213  -2.440  1.00  0.00     0.004 C 
ENDBRANCH  20  21
ENDBRANCH  19  20
ENDBRANCH  18  19
ENDBRANCH  17  18
ENDBRANCH  16  17
ENDBRANCH  12  16
ENDBRANCH   9  12
ENDBRANCH   6   9
ENDBRANCH   3   5
ENDBRANCH   2   3
BRANCH   2  23
ATOM     23  N   UNL     1      -1.950   7.118  -5.138  1.00  0.00    -0.332 N 
ATOM     24  C   UNL     1      -2.091   8.006  -6.283  1.00  0.00     0.147 C 
BRANCH  23  25
ATOM     25  C   UNL     1      -2.526   7.638  -3.867  1.00  0.00     0.174 C 
BRANCH  25  26
ATOM     26  C   UNL     1      -2.662   9.179  -3.854  1.00  0.00     0.038 C 
BRANCH  26  27
ATOM     27  C   UNL     1      -4.063   9.755  -3.552  1.00  0.00    -0.015 C 
ATOM     28  C   UNL     1      -4.029  10.843  -2.478  1.00  0.00     0.007 C 
ATOM     29  C   UNL     1      -4.797  10.251  -4.795  1.00  0.00     0.007 C 
ENDBRANCH  26  27
ENDBRANCH  25  26
BRANCH  25  30
ATOM     30  C   UNL     1      -1.745   7.073  -2.659  1.00  0.00     0.243 C 
ATOM     31  O   UNL     1      -0.678   7.560  -2.288  1.00  0.00    -0.273 OA
ATOM     32  N   UNL     1      -2.316   5.993  -2.036  1.00  0.00    -0.342 N 
ATOM     33  H   UNL     1      -3.267   5.735  -2.312  1.00  0.00     0.164 HD
BRANCH  32  34
ATOM     34  C   UNL     1      -1.704   5.311  -0.893  1.00  0.00     0.175 C 
BRANCH  34  35
ATOM     35  C   UNL     1      -2.704   5.150   0.263  1.00  0.00     0.070 C 
BRANCH  35  36
ATOM     36  C   UNL     1      -2.095   5.463   1.611  1.00  0.00    -0.045 A 
ATOM     37  C   UNL     1      -2.830   5.231   2.783  1.00  0.00     0.007 A 
ATOM     38  C   UNL     1      -0.808   6.006   1.710  1.00  0.00     0.007 A 
ATOM     39  C   UNL     1      -2.283   5.529   4.031  1.00  0.00     0.046 A 
ATOM     40  C   UNL     1      -0.259   6.307   2.959  1.00  0.00     0.046 A 
ATOM     41  C   UNL     1      -1.002   6.064   4.109  1.00  0.00     0.115 A 
BRANCH  41  42
ATOM     42  O   UNL     1      -0.505   6.344   5.348  1.00  0.00    -0.508 OA
ATOM     43  H   UNL     1       0.464   6.381   5.286  1.00  0.00     0.293 HD
ENDBRANCH  41  42
ENDBRANCH  35  36
ENDBRANCH  34  35
BRANCH  34  44
ATOM     44  C   UNL     1      -1.162   3.948  -1.382  1.00  0.00     0.243 C 
ATOM     45  O   UNL     1       0.008   3.590  -1.280  1.00  0.00    -0.273 OA
ATOM     46  N   UNL     1      -2.094   3.203  -2.073  1.00  0.00    -0.341 N 
ATOM     47  H   UNL     1      -3.019   3.594  -2.232  1.00  0.00     0.164 HD
BRANCH  46  48
ATOM     48  C   UNL     1      -1.795   1.909  -2.689  1.00  0.00     0.196 C 
BRANCH  48  49
ATOM     49  C   UNL     1      -0.725   2.045  -3.786  1.00  0.00     0.072 C 
BRANCH  49  50
ATOM     50  C   UNL     1      -0.928   1.068  -4.922  1.00  0.00    -0.045 A 
ATOM     51  C   UNL     1       0.110   0.202  -5.292  1.00  0.00     0.007 A 
ATOM     52  C   UNL     1      -2.136   1.027  -5.629  1.00  0.00     0.007 A 
ATOM     53  C   UNL     1      -0.061  -0.695  -6.347  1.00  0.00     0.046 A 
ATOM     54  C   UNL     1      -2.308   0.130  -6.686  1.00  0.00     0.046 A 
ATOM     55  C   UNL     1      -1.268  -0.725  -7.035  1.00  0.00     0.115 A 
BRANCH  55  56
ATOM     56  O   UNL     1      -1.394  -1.614  -8.061  1.00  0.00    -0.508 OA
ATOM     57  H   UNL     1      -0.549  -2.079  -8.169  1.00  0.00     0.293 HD
ENDBRANCH  55  56
ENDBRANCH  49  50
ENDBRANCH  48  49
BRANCH  48  58
ATOM     58  C   UNL     1      -1.300   0.942  -1.605  1.00  0.00     0.326 C 
ATOM     59  O   UNL     1      -1.957   0.438  -0.709  1.00  0.00    -0.250 OA
BRANCH  58  60
ATOM     60  O   UNL     1       0.019   0.639  -1.710  1.00  0.00    -0.480 OA
ATOM     61  H   UNL     1       0.360   1.327  -2.322  1.00  0.00     0.296 HD
ENDBRANCH  58  60
ENDBRANCH  48  58
ENDBRANCH  46  48
ENDBRANCH  34  44
ENDBRANCH  32  34
ENDBRANCH  25  30
ENDBRANCH  23  25
ENDBRANCH   2  23
TORSDOF 28
ENDMDL
MODEL 17
REMARK VINA RESULT:    -6.050      3.095      4.658
REMARK INTER + INTRA:         -19.115
REMARK INTER:                 -15.588
REMARK INTRA:                  -3.527
REMARK UNBOUND:                -4.047
REMARK SMILES CCCCCCC[C@H](N)[C@H](O)C(=O)N[C@H](C)C(=O)N(C)[C@H](CC(C)C)C(=O)N[C@@H](Cc1ccc(O)cc1)C(=O)N[C@@H](Cc1ccc(O)cc1)C(=O)O
REMARK SMILES IDX 18 1 17 2 15 3 16 4 14 5 12 6 13 7 10 9 11 10 8 12 9 13 7 16
REMARK SMILES IDX 6 17 5 18 4 19 3 20 2 21 1 22 19 23 20 24 21 25 22 26 23 27
REMARK SMILES IDX 24 28 25 29 26 30 27 31 28 32 29 34 30 35 31 36 32 37 37 38
REMARK SMILES IDX 33 39 36 40 34 41 35 42 38 44 39 45 40 46 41 48 42 49 43 50
REMARK SMILES IDX 44 51 49 52 45 53 48 54 46 55 47 56 50 58 51 59 52 60
REMARK H PARENT 14 8 11 11 9 14 9 15 28 33 35 43 40 47 47 57 52 61
ROOT
ATOM      1  O   UNL     1       1.015   1.686  -8.153  1.00  0.00    -0.272 OA
ATOM      2  C   UNL     1       1.196   1.720  -6.926  1.00  0.00     0.245 C 
ENDROOT
BRANCH   2   3
ATOM      3  C   UNL     1       0.612   0.576  -6.060  1.00  0.00     0.168 C 
ATOM      4  C   UNL     1       1.337  -0.736  -6.335  1.00  0.00     0.041 C 
BRANCH   3   5
ATOM      5  N   UNL     1       0.536   0.866  -4.636  1.00  0.00    -0.342 N 
ATOM      6  C   UNL     1      -0.671   1.001  -3.984  1.00  0.00     0.251 C 
ATOM      7  O   UNL     1      -1.757   0.931  -4.550  1.00  0.00    -0.272 OA
ATOM      8  H   UNL     1       1.372   0.981  -4.067  1.00  0.00     0.164 HD
BRANCH   6   9
ATOM      9  C   UNL     1      -0.510   1.162  -2.464  1.00  0.00     0.219 C 
BRANCH   9  10
ATOM     10  O   UNL     1       0.193   2.358  -2.106  1.00  0.00    -0.382 OA
ATOM     11  H   UNL     1       0.895   2.039  -1.497  1.00  0.00     0.211 HD
ENDBRANCH   9  10
BRANCH   9  12
ATOM     12  C   UNL     1      -1.854   1.062  -1.696  1.00  0.00     0.089 C 
BRANCH  12  13
ATOM     13  N   UNL     1      -1.705   0.054  -0.622  1.00  0.00    -0.325 NA
ATOM     14  H   UNL     1      -0.827   0.219  -0.125  1.00  0.00     0.119 HD
ATOM     15  H   UNL     1      -1.601  -0.870  -1.048  1.00  0.00     0.119 HD
ENDBRANCH  12  13
BRANCH  12  16
ATOM     16  C   UNL     1      -2.399   2.387  -1.109  1.00  0.00     0.022 C 
BRANCH  16  17
ATOM     17  C   UNL     1      -3.564   3.093  -1.816  1.00  0.00     0.002 C 
BRANCH  17  18
ATOM     18  C   UNL     1      -3.181   3.864  -3.077  1.00  0.00     0.000 C 
BRANCH  18  19
ATOM     19  C   UNL     1      -3.435   5.375  -2.987  1.00  0.00    -0.000 C 
BRANCH  19  20
ATOM     20  C   UNL     1      -3.907   6.033  -4.287  1.00  0.00    -0.000 C 
BRANCH  20  21
ATOM     21  C   UNL     1      -4.957   5.205  -5.032  1.00  0.00    -0.003 C 
ATOM     22  C   UNL     1      -4.455   4.776  -6.402  1.00  0.00     0.004 C 
ENDBRANCH  20  21
ENDBRANCH  19  20
ENDBRANCH  18  19
ENDBRANCH  17  18
ENDBRANCH  16  17
ENDBRANCH  12  16
ENDBRANCH   9  12
ENDBRANCH   6   9
ENDBRANCH   3   5
ENDBRANCH   2   3
BRANCH   2  23
ATOM     23  N   UNL     1       2.011   2.700  -6.370  1.00  0.00    -0.332 N 
ATOM     24  C   UNL     1       1.649   4.105  -6.251  1.00  0.00     0.147 C 
BRANCH  23  25
ATOM     25  C   UNL     1       3.300   2.328  -5.725  1.00  0.00     0.174 C 
BRANCH  25  26
ATOM     26  C   UNL     1       3.710   3.302  -4.595  1.00  0.00     0.038 C 
BRANCH  26  27
ATOM     27  C   UNL     1       4.003   2.683  -3.210  1.00  0.00    -0.015 C 
ATOM     28  C   UNL     1       3.861   1.161  -3.208  1.00  0.00     0.007 C 
ATOM     29  C   UNL     1       5.355   3.097  -2.633  1.00  0.00     0.007 C 
ENDBRANCH  26  27
ENDBRANCH  25  26
BRANCH  25  30
ATOM     30  C   UNL     1       4.393   2.126  -6.798  1.00  0.00     0.243 C 
ATOM     31  O   UNL     1       5.590   2.122  -6.515  1.00  0.00    -0.273 OA
ATOM     32  N   UNL     1       3.941   1.957  -8.082  1.00  0.00    -0.342 N 
ATOM     33  H   UNL     1       2.934   1.831  -8.216  1.00  0.00     0.164 HD
BRANCH  32  34
ATOM     34  C   UNL     1       4.833   1.780  -9.230  1.00  0.00     0.175 C 
BRANCH  34  35
ATOM     35  C   UNL     1       4.135   1.021 -10.369  1.00  0.00     0.070 C 
BRANCH  35  36
ATOM     36  C   UNL     1       4.902  -0.205 -10.811  1.00  0.00    -0.045 A 
ATOM     37  C   UNL     1       4.278  -1.462 -10.808  1.00  0.00     0.007 A 
ATOM     38  C   UNL     1       6.243  -0.111 -11.206  1.00  0.00     0.007 A 
ATOM     39  C   UNL     1       4.982  -2.601 -11.201  1.00  0.00     0.046 A 
ATOM     40  C   UNL     1       6.949  -1.251 -11.598  1.00  0.00     0.046 A 
ATOM     41  C   UNL     1       6.310  -2.486 -11.593  1.00  0.00     0.115 A 
BRANCH  41  42
ATOM     42  O   UNL     1       6.963  -3.624 -11.967  1.00  0.00    -0.508 OA
ATOM     43  H   UNL     1       6.727  -3.821 -12.889  1.00  0.00     0.293 HD
ENDBRANCH  41  42
ENDBRANCH  35  36
ENDBRANCH  34  35
BRANCH  34  44
ATOM     44  C   UNL     1       5.319   3.176  -9.680  1.00  0.00     0.243 C 
ATOM     45  O   UNL     1       6.471   3.582  -9.559  1.00  0.00    -0.273 OA
ATOM     46  N   UNL     1       4.301   3.996 -10.119  1.00  0.00    -0.341 N 
ATOM     47  H   UNL     1       3.344   3.653 -10.091  1.00  0.00     0.164 HD
BRANCH  46  48
ATOM     48  C   UNL     1       4.507   5.386 -10.533  1.00  0.00     0.196 C 
BRANCH  48  49
ATOM     49  C   UNL     1       3.561   5.774 -11.682  1.00  0.00     0.072 C 
BRANCH  49  50
ATOM     50  C   UNL     1       2.343   4.881 -11.760  1.00  0.00    -0.045 A 
ATOM     51  C   UNL     1       1.201   5.189 -11.008  1.00  0.00     0.007 A 
ATOM     52  C   UNL     1       2.343   3.732 -12.561  1.00  0.00     0.007 A 
ATOM     53  C   UNL     1       0.076   4.366 -11.062  1.00  0.00     0.046 A 
ATOM     54  C   UNL     1       1.218   2.906 -12.614  1.00  0.00     0.046 A 
ATOM     55  C   UNL     1       0.093   3.232 -11.864  1.00  0.00     0.115 A 
BRANCH  55  56
ATOM     56  O   UNL     1      -1.026   2.452 -11.888  1.00  0.00    -0.508 OA
ATOM     57  H   UNL     1      -1.316   2.361 -12.810  1.00  0.00     0.293 HD
ENDBRANCH  55  56
ENDBRANCH  49  50
ENDBRANCH  48  49
BRANCH  48  58
ATOM     58  C   UNL     1       4.260   6.306  -9.329  1.00  0.00     0.326 C 
ATOM     59  O   UNL     1       3.439   7.205  -9.242  1.00  0.00    -0.250 OA
BRANCH  58  60
ATOM     60  O   UNL     1       5.063   6.038  -8.269  1.00  0.00    -0.480 OA
ATOM     61  H   UNL     1       5.208   6.921  -7.866  1.00  0.00     0.296 HD
ENDBRANCH  58  60
ENDBRANCH  48  58
ENDBRANCH  46  48
ENDBRANCH  34  44
ENDBRANCH  32  34
ENDBRANCH  25  30
ENDBRANCH  23  25
ENDBRANCH   2  23
TORSDOF 28
ENDMDL
MODEL 18
REMARK VINA RESULT:    -6.034      3.883     10.042
REMARK INTER + INTRA:         -19.076
REMARK INTER:                 -14.478
REMARK INTRA:                  -4.598
REMARK UNBOUND:                -4.047
REMARK SMILES CCCCCCC[C@H](N)[C@H](O)C(=O)N[C@H](C)C(=O)N(C)[C@H](CC(C)C)C(=O)N[C@@H](Cc1ccc(O)cc1)C(=O)N[C@@H](Cc1ccc(O)cc1)C(=O)O
REMARK SMILES IDX 18 1 17 2 15 3 16 4 14 5 12 6 13 7 10 9 11 10 8 12 9 13 7 16
REMARK SMILES IDX 6 17 5 18 4 19 3 20 2 21 1 22 19 23 20 24 21 25 22 26 23 27
REMARK SMILES IDX 24 28 25 29 26 30 27 31 28 32 29 34 30 35 31 36 32 37 37 38
REMARK SMILES IDX 33 39 36 40 34 41 35 42 38 44 39 45 40 46 41 48 42 49 43 50
REMARK SMILES IDX 44 51 49 52 45 53 48 54 46 55 47 56 50 58 51 59 52 60
REMARK H PARENT 14 8 11 11 9 14 9 15 28 33 35 43 40 47 47 57 52 61
ROOT
ATOM      1  O   UNL     1       3.531   5.822  -9.955  1.00  0.00    -0.272 OA
ATOM      2  C   UNL     1       2.848   6.295 -10.876  1.00  0.00     0.245 C 
ENDROOT
BRANCH   2   3
ATOM      3  C   UNL     1       3.239   7.677 -11.455  1.00  0.00     0.168 C 
ATOM      4  C   UNL     1       3.113   8.764 -10.393  1.00  0.00     0.041 C 
BRANCH   3   5
ATOM      5  N   UNL     1       4.532   7.718 -12.121  1.00  0.00    -0.342 N 
ATOM      6  C   UNL     1       4.664   8.130 -13.430  1.00  0.00     0.251 C 
ATOM      7  O   UNL     1       3.714   8.450 -14.137  1.00  0.00    -0.272 OA
ATOM      8  H   UNL     1       5.388   7.443 -11.646  1.00  0.00     0.164 HD
BRANCH   6   9
ATOM      9  C   UNL     1       6.131   8.229 -13.877  1.00  0.00     0.219 C 
BRANCH   9  10
ATOM     10  O   UNL     1       7.049   8.167 -12.778  1.00  0.00    -0.382 OA
ATOM     11  H   UNL     1       6.471   8.259 -11.989  1.00  0.00     0.211 HD
ENDBRANCH   9  10
BRANCH   9  12
ATOM     12  C   UNL     1       6.506   7.191 -14.966  1.00  0.00     0.089 C 
BRANCH  12  13
ATOM     13  N   UNL     1       5.640   7.417 -16.146  1.00  0.00    -0.325 NA
ATOM     14  H   UNL     1       5.795   8.364 -16.499  1.00  0.00     0.119 HD
ATOM     15  H   UNL     1       4.662   7.401 -15.847  1.00  0.00     0.119 HD
ENDBRANCH  12  13
BRANCH  12  16
ATOM     16  C   UNL     1       7.993   7.165 -15.396  1.00  0.00     0.022 C 
BRANCH  16  17
ATOM     17  C   UNL     1       8.883   6.003 -14.936  1.00  0.00     0.002 C 
BRANCH  17  18
ATOM     18  C   UNL     1       8.144   4.697 -14.655  1.00  0.00     0.000 C 
BRANCH  18  19
ATOM     19  C   UNL     1       9.060   3.539 -14.234  1.00  0.00    -0.000 C 
BRANCH  19  20
ATOM     20  C   UNL     1       8.351   2.363 -13.557  1.00  0.00    -0.000 C 
BRANCH  20  21
ATOM     21  C   UNL     1       8.926   1.003 -13.961  1.00  0.00    -0.003 C 
ATOM     22  C   UNL     1       9.437   1.020 -15.393  1.00  0.00     0.004 C 
ENDBRANCH  20  21
ENDBRANCH  19  20
ENDBRANCH  18  19
ENDBRANCH  17  18
ENDBRANCH  16  17
ENDBRANCH  12  16
ENDBRANCH   9  12
ENDBRANCH   6   9
ENDBRANCH   3   5
ENDBRANCH   2   3
BRANCH   2  23
ATOM     23  N   UNL     1       1.833   5.536 -11.450  1.00  0.00    -0.332 N 
ATOM     24  C   UNL     1       0.417   5.696 -11.159  1.00  0.00     0.147 C 
BRANCH  23  25
ATOM     25  C   UNL     1       2.145   4.562 -12.532  1.00  0.00     0.174 C 
BRANCH  25  26
ATOM     26  C   UNL     1       1.122   4.603 -13.692  1.00  0.00     0.038 C 
BRANCH  26  27
ATOM     27  C   UNL     1       1.687   4.521 -15.128  1.00  0.00    -0.015 C 
ATOM     28  C   UNL     1       3.090   5.117 -15.238  1.00  0.00     0.007 C 
ATOM     29  C   UNL     1       1.654   3.112 -15.714  1.00  0.00     0.007 C 
ENDBRANCH  26  27
ENDBRANCH  25  26
BRANCH  25  30
ATOM     30  C   UNL     1       2.351   3.151 -11.936  1.00  0.00     0.243 C 
ATOM     31  O   UNL     1       1.640   2.200 -12.255  1.00  0.00    -0.273 OA
ATOM     32  N   UNL     1       3.371   3.035 -11.027  1.00  0.00    -0.342 N 
ATOM     33  H   UNL     1       4.004   3.831 -10.920  1.00  0.00     0.164 HD
BRANCH  32  34
ATOM     34  C   UNL     1       3.694   1.781 -10.340  1.00  0.00     0.175 C 
BRANCH  34  35
ATOM     35  C   UNL     1       5.210   1.535 -10.309  1.00  0.00     0.070 C 
BRANCH  35  36
ATOM     36  C   UNL     1       5.591   0.162 -10.815  1.00  0.00    -0.045 A 
ATOM     37  C   UNL     1       4.642  -0.872 -10.819  1.00  0.00     0.007 A 
ATOM     38  C   UNL     1       6.891  -0.104 -11.264  1.00  0.00     0.007 A 
ATOM     39  C   UNL     1       4.988  -2.146 -11.272  1.00  0.00     0.046 A 
ATOM     40  C   UNL     1       7.238  -1.380 -11.715  1.00  0.00     0.046 A 
ATOM     41  C   UNL     1       6.281  -2.389 -11.717  1.00  0.00     0.115 A 
BRANCH  41  42
ATOM     42  O   UNL     1       6.579  -3.648 -12.148  1.00  0.00    -0.508 OA
ATOM     43  H   UNL     1       6.854  -3.595 -13.078  1.00  0.00     0.293 HD
ENDBRANCH  41  42
ENDBRANCH  35  36
ENDBRANCH  34  35
BRANCH  34  44
ATOM     44  C   UNL     1       3.090   1.844  -8.919  1.00  0.00     0.243 C 
ATOM     45  O   UNL     1       2.575   0.891  -8.341  1.00  0.00    -0.273 OA
ATOM     46  N   UNL     1       3.060   3.118  -8.392  1.00  0.00    -0.341 N 
ATOM     47  H   UNL     1       3.393   3.895  -8.957  1.00  0.00     0.164 HD
BRANCH  46  48
ATOM     48  C   UNL     1       2.474   3.437  -7.088  1.00  0.00     0.196 C 
BRANCH  48  49
ATOM     49  C   UNL     1       3.557   3.811  -6.063  1.00  0.00     0.072 C 
BRANCH  49  50
ATOM     50  C   UNL     1       3.660   2.810  -4.934  1.00  0.00    -0.045 A 
ATOM     51  C   UNL     1       4.802   2.791  -4.119  1.00  0.00     0.007 A 
ATOM     52  C   UNL     1       2.639   1.881  -4.699  1.00  0.00     0.007 A 
ATOM     53  C   UNL     1       4.914   1.864  -3.083  1.00  0.00     0.046 A 
ATOM     54  C   UNL     1       2.752   0.952  -3.662  1.00  0.00     0.046 A 
ATOM     55  C   UNL     1       3.889   0.952  -2.862  1.00  0.00     0.115 A 
BRANCH  55  56
ATOM     56  O   UNL     1       4.039   0.062  -1.840  1.00  0.00    -0.508 OA
ATOM     57  H   UNL     1       3.679  -0.794  -2.125  1.00  0.00     0.293 HD
ENDBRANCH  55  56
ENDBRANCH  49  50
ENDBRANCH  48  49
BRANCH  48  58
ATOM     58  C   UNL     1       1.495   4.608  -7.254  1.00  0.00     0.326 C 
ATOM     59  O   UNL     1       1.658   5.763  -6.895  1.00  0.00    -0.250 OA
BRANCH  58  60
ATOM     60  O   UNL     1       0.345   4.267  -7.887  1.00  0.00    -0.480 OA
ATOM     61  H   UNL     1       0.550   3.386  -8.270  1.00  0.00     0.296 HD
ENDBRANCH  58  60
ENDBRANCH  48  58
ENDBRANCH  46  48
ENDBRANCH  34  44
ENDBRANCH  32  34
ENDBRANCH  25  30
ENDBRANCH  23  25
ENDBRANCH   2  23
TORSDOF 28
ENDMDL
MODEL 19
REMARK VINA RESULT:    -6.032      3.827      8.003
REMARK INTER + INTRA:         -19.071
REMARK INTER:                 -12.653
REMARK INTRA:                  -6.418
REMARK UNBOUND:                -4.047
REMARK SMILES CCCCCCC[C@H](N)[C@H](O)C(=O)N[C@H](C)C(=O)N(C)[C@H](CC(C)C)C(=O)N[C@@H](Cc1ccc(O)cc1)C(=O)N[C@@H](Cc1ccc(O)cc1)C(=O)O
REMARK SMILES IDX 18 1 17 2 15 3 16 4 14 5 12 6 13 7 10 9 11 10 8 12 9 13 7 16
REMARK SMILES IDX 6 17 5 18 4 19 3 20 2 21 1 22 19 23 20 24 21 25 22 26 23 27
REMARK SMILES IDX 24 28 25 29 26 30 27 31 28 32 29 34 30 35 31 36 32 37 37 38
REMARK SMILES IDX 33 39 36 40 34 41 35 42 38 44 39 45 40 46 41 48 42 49 43 50
REMARK SMILES IDX 44 51 49 52 45 53 48 54 46 55 47 56 50 58 51 59 52 60
REMARK H PARENT 14 8 11 11 9 14 9 15 28 33 35 43 40 47 47 57 52 61
ROOT
ATOM      1  O   UNL     1      -0.957   5.697 -10.100  1.00  0.00    -0.272 OA
ATOM      2  C   UNL     1       0.166   5.688 -10.625  1.00  0.00     0.245 C 
ENDROOT
BRANCH   2   3
ATOM      3  C   UNL     1       1.264   6.613 -10.042  1.00  0.00     0.168 C 
ATOM      4  C   UNL     1       1.198   7.998 -10.675  1.00  0.00     0.041 C 
BRANCH   3   5
ATOM      5  N   UNL     1       1.297   6.681  -8.589  1.00  0.00    -0.342 N 
ATOM      6  C   UNL     1       2.338   6.149  -7.858  1.00  0.00     0.251 C 
ATOM      7  O   UNL     1       3.281   5.549  -8.363  1.00  0.00    -0.272 OA
ATOM      8  H   UNL     1       0.552   7.125  -8.057  1.00  0.00     0.164 HD
BRANCH   6   9
ATOM      9  C   UNL     1       2.232   6.463  -6.357  1.00  0.00     0.219 C 
BRANCH   9  10
ATOM     10  O   UNL     1       0.949   6.985  -5.991  1.00  0.00    -0.382 OA
ATOM     11  H   UNL     1       1.024   7.125  -5.022  1.00  0.00     0.211 HD
ENDBRANCH   9  10
BRANCH   9  12
ATOM     12  C   UNL     1       2.615   5.261  -5.455  1.00  0.00     0.089 C 
BRANCH  12  13
ATOM     13  N   UNL     1       4.079   5.288  -5.238  1.00  0.00    -0.325 NA
ATOM     14  H   UNL     1       4.441   6.207  -5.498  1.00  0.00     0.119 HD
ATOM     15  H   UNL     1       4.522   4.634  -5.887  1.00  0.00     0.119 HD
ENDBRANCH  12  13
BRANCH  12  16
ATOM     16  C   UNL     1       1.877   5.170  -4.098  1.00  0.00     0.022 C 
BRANCH  16  17
ATOM     17  C   UNL     1       0.716   4.178  -3.944  1.00  0.00     0.002 C 
BRANCH  17  18
ATOM     18  C   UNL     1       0.735   3.358  -2.656  1.00  0.00     0.000 C 
BRANCH  18  19
ATOM     19  C   UNL     1      -0.430   3.662  -1.704  1.00  0.00    -0.000 C 
BRANCH  19  20
ATOM     20  C   UNL     1      -1.629   2.716  -1.822  1.00  0.00    -0.000 C 
BRANCH  20  21
ATOM     21  C   UNL     1      -2.923   3.435  -2.214  1.00  0.00    -0.003 C 
ATOM     22  C   UNL     1      -2.985   3.688  -3.712  1.00  0.00     0.004 C 
ENDBRANCH  20  21
ENDBRANCH  19  20
ENDBRANCH  18  19
ENDBRANCH  17  18
ENDBRANCH  16  17
ENDBRANCH  12  16
ENDBRANCH   9  12
ENDBRANCH   6   9
ENDBRANCH   3   5
ENDBRANCH   2   3
BRANCH   2  23
ATOM     23  N   UNL     1       0.456   4.775 -11.634  1.00  0.00    -0.332 N 
ATOM     24  C   UNL     1      -0.521   4.246 -12.573  1.00  0.00     0.147 C 
BRANCH  23  25
ATOM     25  C   UNL     1       1.863   4.369 -11.898  1.00  0.00     0.174 C 
BRANCH  25  26
ATOM     26  C   UNL     1       2.221   4.378 -13.403  1.00  0.00     0.038 C 
BRANCH  26  27
ATOM     27  C   UNL     1       2.978   5.615 -13.935  1.00  0.00    -0.015 C 
ATOM     28  C   UNL     1       2.035   6.691 -14.472  1.00  0.00     0.007 C 
ATOM     29  C   UNL     1       3.954   6.211 -12.924  1.00  0.00     0.007 C 
ENDBRANCH  26  27
ENDBRANCH  25  26
BRANCH  25  30
ATOM     30  C   UNL     1       2.171   3.027 -11.194  1.00  0.00     0.243 C 
ATOM     31  O   UNL     1       1.896   1.945 -11.709  1.00  0.00    -0.273 OA
ATOM     32  N   UNL     1       2.762   3.126  -9.961  1.00  0.00    -0.342 N 
ATOM     33  H   UNL     1       3.087   4.050  -9.664  1.00  0.00     0.164 HD
BRANCH  32  34
ATOM     34  C   UNL     1       3.100   1.962  -9.138  1.00  0.00     0.175 C 
BRANCH  34  35
ATOM     35  C   UNL     1       4.619   1.837  -8.944  1.00  0.00     0.070 C 
BRANCH  35  36
ATOM     36  C   UNL     1       5.233   0.759  -9.809  1.00  0.00    -0.045 A 
ATOM     37  C   UNL     1       4.409  -0.171 -10.461  1.00  0.00     0.007 A 
ATOM     38  C   UNL     1       6.622   0.658  -9.954  1.00  0.00     0.007 A 
ATOM     39  C   UNL     1       4.966  -1.178 -11.250  1.00  0.00     0.046 A 
ATOM     40  C   UNL     1       7.182  -0.350 -10.743  1.00  0.00     0.046 A 
ATOM     41  C   UNL     1       6.347  -1.259 -11.385  1.00  0.00     0.115 A 
BRANCH  41  42
ATOM     42  O   UNL     1       6.852  -2.259 -12.163  1.00  0.00    -0.508 OA
ATOM     43  H   UNL     1       7.640  -2.618 -11.723  1.00  0.00     0.293 HD
ENDBRANCH  41  42
ENDBRANCH  35  36
ENDBRANCH  34  35
BRANCH  34  44
ATOM     44  C   UNL     1       2.355   2.095  -7.791  1.00  0.00     0.243 C 
ATOM     45  O   UNL     1       1.347   2.774  -7.620  1.00  0.00    -0.273 OA
ATOM     46  N   UNL     1       3.002   1.476  -6.742  1.00  0.00    -0.341 N 
ATOM     47  H   UNL     1       3.897   1.023  -6.912  1.00  0.00     0.164 HD
BRANCH  46  48
ATOM     48  C   UNL     1       2.523   1.523  -5.359  1.00  0.00     0.196 C 
BRANCH  48  49
ATOM     49  C   UNL     1       1.852   0.200  -4.953  1.00  0.00     0.072 C 
BRANCH  49  50
ATOM     50  C   UNL     1       0.437   0.081  -5.472  1.00  0.00    -0.045 A 
ATOM     51  C   UNL     1      -0.596   0.801  -4.855  1.00  0.00     0.007 A 
ATOM     52  C   UNL     1       0.133  -0.756  -6.553  1.00  0.00     0.007 A 
ATOM     53  C   UNL     1      -1.908   0.690  -5.316  1.00  0.00     0.046 A 
ATOM     54  C   UNL     1      -1.181  -0.869  -7.014  1.00  0.00     0.046 A 
ATOM     55  C   UNL     1      -2.190  -0.143  -6.392  1.00  0.00     0.115 A 
BRANCH  55  56
ATOM     56  O   UNL     1      -3.485  -0.225  -6.811  1.00  0.00    -0.508 OA
ATOM     57  H   UNL     1      -4.049   0.201  -6.146  1.00  0.00     0.293 HD
ENDBRANCH  55  56
ENDBRANCH  49  50
ENDBRANCH  48  49
BRANCH  48  58
ATOM     58  C   UNL     1       3.710   1.805  -4.428  1.00  0.00     0.326 C 
ATOM     59  O   UNL     1       3.793   1.551  -3.238  1.00  0.00    -0.250 OA
BRANCH  58  60
ATOM     60  O   UNL     1       4.761   2.391  -5.055  1.00  0.00    -0.480 OA
ATOM     61  H   UNL     1       5.185   2.916  -4.342  1.00  0.00     0.296 HD
ENDBRANCH  58  60
ENDBRANCH  48  58
ENDBRANCH  46  48
ENDBRANCH  34  44
ENDBRANCH  32  34
ENDBRANCH  25  30
ENDBRANCH  23  25
ENDBRANCH   2  23
TORSDOF 28
ENDMDL
MODEL 20
REMARK VINA RESULT:    -6.032      4.348      9.754
REMARK INTER + INTRA:         -19.071
REMARK INTER:                 -12.192
REMARK INTRA:                  -6.878
REMARK UNBOUND:                -4.047
REMARK SMILES CCCCCCC[C@H](N)[C@H](O)C(=O)N[C@H](C)C(=O)N(C)[C@H](CC(C)C)C(=O)N[C@@H](Cc1ccc(O)cc1)C(=O)N[C@@H](Cc1ccc(O)cc1)C(=O)O
REMARK SMILES IDX 18 1 17 2 15 3 16 4 14 5 12 6 13 7 10 9 11 10 8 12 9 13 7 16
REMARK SMILES IDX 6 17 5 18 4 19 3 20 2 21 1 22 19 23 20 24 21 25 22 26 23 27
REMARK SMILES IDX 24 28 25 29 26 30 27 31 28 32 29 34 30 35 31 36 32 37 37 38
REMARK SMILES IDX 33 39 36 40 34 41 35 42 38 44 39 45 40 46 41 48 42 49 43 50
REMARK SMILES IDX 44 51 49 52 45 53 48 54 46 55 47 56 50 58 51 59 52 60
REMARK H PARENT 14 8 11 11 9 14 9 15 28 33 35 43 40 47 47 57 52 61
ROOT
ATOM      1  O   UNL     1      -0.144   2.229  -9.198  1.00  0.00    -0.272 OA
ATOM      2  C   UNL     1       0.866   2.946  -9.145  1.00  0.00     0.245 C 
ENDROOT
BRANCH   2   3
ATOM      3  C   UNL     1       0.687   4.455  -8.844  1.00  0.00     0.168 C 
ATOM      4  C   UNL     1       0.145   5.191 -10.065  1.00  0.00     0.041 C 
BRANCH   3   5
ATOM      5  N   UNL     1      -0.083   4.752  -7.646  1.00  0.00    -0.342 N 
ATOM      6  C   UNL     1       0.497   4.778  -6.395  1.00  0.00     0.251 C 
ATOM      7  O   UNL     1       1.677   4.516  -6.192  1.00  0.00    -0.272 OA
ATOM      8  H   UNL     1      -1.080   4.952  -7.685  1.00  0.00     0.164 HD
BRANCH   6   9
ATOM      9  C   UNL     1      -0.472   5.253  -5.300  1.00  0.00     0.219 C 
BRANCH   9  10
ATOM     10  O   UNL     1      -0.387   4.464  -4.108  1.00  0.00    -0.382 OA
ATOM     11  H   UNL     1       0.540   4.594  -3.810  1.00  0.00     0.211 HD
ENDBRANCH   9  10
BRANCH   9  12
ATOM     12  C   UNL     1      -0.329   6.762  -4.974  1.00  0.00     0.089 C 
BRANCH  12  13
ATOM     13  N   UNL     1       0.607   7.365  -5.949  1.00  0.00    -0.325 NA
ATOM     14  H   UNL     1       0.106   8.050  -6.518  1.00  0.00     0.119 HD
ATOM     15  H   UNL     1       0.910   6.643  -6.607  1.00  0.00     0.119 HD
ENDBRANCH  12  13
BRANCH  12  16
ATOM     16  C   UNL     1      -1.646   7.574  -4.930  1.00  0.00     0.022 C 
BRANCH  16  17
ATOM     17  C   UNL     1      -1.945   8.574  -6.055  1.00  0.00     0.002 C 
BRANCH  17  18
ATOM     18  C   UNL     1      -3.115   8.195  -6.960  1.00  0.00     0.000 C 
BRANCH  18  19
ATOM     19  C   UNL     1      -3.006   6.790  -7.567  1.00  0.00    -0.000 C 
BRANCH  19  20
ATOM     20  C   UNL     1      -3.981   5.757  -6.995  1.00  0.00    -0.000 C 
BRANCH  20  21
ATOM     21  C   UNL     1      -5.297   6.377  -6.516  1.00  0.00    -0.003 C 
ATOM     22  C   UNL     1      -5.387   6.381  -4.998  1.00  0.00     0.004 C 
ENDBRANCH  20  21
ENDBRANCH  19  20
ENDBRANCH  18  19
ENDBRANCH  17  18
ENDBRANCH  16  17
ENDBRANCH  12  16
ENDBRANCH   9  12
ENDBRANCH   6   9
ENDBRANCH   3   5
ENDBRANCH   2   3
BRANCH   2  23
ATOM     23  N   UNL     1       2.131   2.375  -9.233  1.00  0.00    -0.332 N 
ATOM     24  C   UNL     1       2.800   2.037 -10.480  1.00  0.00     0.147 C 
BRANCH  23  25
ATOM     25  C   UNL     1       2.956   2.186  -8.008  1.00  0.00     0.174 C 
BRANCH  25  26
ATOM     26  C   UNL     1       4.462   2.019  -8.316  1.00  0.00     0.038 C 
BRANCH  26  27
ATOM     27  C   UNL     1       5.451   2.344  -7.175  1.00  0.00    -0.015 C 
ATOM     28  C   UNL     1       6.892   1.979  -7.528  1.00  0.00     0.007 C 
ATOM     29  C   UNL     1       5.366   3.790  -6.691  1.00  0.00     0.007 C 
ENDBRANCH  26  27
ENDBRANCH  25  26
BRANCH  25  30
ATOM     30  C   UNL     1       2.369   1.048  -7.142  1.00  0.00     0.243 C 
ATOM     31  O   UNL     1       2.057  -0.041  -7.623  1.00  0.00    -0.273 OA
ATOM     32  N   UNL     1       2.215   1.335  -5.810  1.00  0.00    -0.342 N 
ATOM     33  H   UNL     1       2.626   2.205  -5.462  1.00  0.00     0.164 HD
BRANCH  32  34
ATOM     34  C   UNL     1       1.649   0.387  -4.845  1.00  0.00     0.175 C 
BRANCH  34  35
ATOM     35  C   UNL     1       2.368   0.474  -3.490  1.00  0.00     0.070 C 
BRANCH  35  36
ATOM     36  C   UNL     1       3.181   1.740  -3.339  1.00  0.00    -0.045 A 
ATOM     37  C   UNL     1       4.583   1.677  -3.332  1.00  0.00     0.007 A 
ATOM     38  C   UNL     1       2.553   2.982  -3.181  1.00  0.00     0.007 A 
ATOM     39  C   UNL     1       5.341   2.838  -3.179  1.00  0.00     0.046 A 
ATOM     40  C   UNL     1       3.312   4.145  -3.027  1.00  0.00     0.046 A 
ATOM     41  C   UNL     1       4.700   4.062  -3.028  1.00  0.00     0.115 A 
BRANCH  41  42
ATOM     42  O   UNL     1       5.478   5.172  -2.879  1.00  0.00    -0.508 OA
ATOM     43  H   UNL     1       5.241   5.806  -3.576  1.00  0.00     0.293 HD
ENDBRANCH  41  42
ENDBRANCH  35  36
ENDBRANCH  34  35
BRANCH  34  44
ATOM     44  C   UNL     1       0.138   0.680  -4.717  1.00  0.00     0.243 C 
ATOM     45  O   UNL     1      -0.433   0.932  -3.659  1.00  0.00    -0.273 OA
ATOM     46  N   UNL     1      -0.557   0.505  -5.895  1.00  0.00    -0.341 N 
ATOM     47  H   UNL     1      -0.058   0.182  -6.720  1.00  0.00     0.164 HD
BRANCH  46  48
ATOM     48  C   UNL     1      -2.010   0.658  -6.004  1.00  0.00     0.196 C 
BRANCH  48  49
ATOM     49  C   UNL     1      -2.412   2.140  -6.089  1.00  0.00     0.072 C 
BRANCH  49  50
ATOM     50  C   UNL     1      -3.577   2.480  -5.188  1.00  0.00    -0.045 A 
ATOM     51  C   UNL     1      -3.352   2.780  -3.836  1.00  0.00     0.007 A 
ATOM     52  C   UNL     1      -4.890   2.481  -5.676  1.00  0.00     0.007 A 
ATOM     53  C   UNL     1      -4.420   3.082  -2.992  1.00  0.00     0.046 A 
ATOM     54  C   UNL     1      -5.960   2.782  -4.831  1.00  0.00     0.046 A 
ATOM     55  C   UNL     1      -5.715   3.081  -3.495  1.00  0.00     0.115 A 
BRANCH  55  56
ATOM     56  O   UNL     1      -6.732   3.380  -2.637  1.00  0.00    -0.508 OA
ATOM     57  H   UNL     1      -6.524   2.994  -1.771  1.00  0.00     0.293 HD
ENDBRANCH  55  56
ENDBRANCH  49  50
ENDBRANCH  48  49
BRANCH  48  58
ATOM     58  C   UNL     1      -2.497  -0.080  -7.258  1.00  0.00     0.326 C 
ATOM     59  O   UNL     1      -3.580  -0.619  -7.424  1.00  0.00    -0.250 OA
BRANCH  58  60
ATOM     60  O   UNL     1      -1.589  -0.093  -8.265  1.00  0.00    -0.480 OA
ATOM     61  H   UNL     1      -0.799   0.329  -7.863  1.00  0.00     0.296 HD
ENDBRANCH  58  60
ENDBRANCH  48  58
ENDBRANCH  46  48
ENDBRANCH  34  44
ENDBRANCH  32  34
ENDBRANCH  25  30
ENDBRANCH  23  25
ENDBRANCH   2  23
TORSDOF 28
ENDMDL
MODEL 21
REMARK VINA RESULT:    -5.978      4.319     11.437
REMARK INTER + INTRA:         -18.936
REMARK INTER:                 -14.586
REMARK INTRA:                  -4.350
REMARK UNBOUND:                -4.047
REMARK SMILES CCCCCCC[C@H](N)[C@H](O)C(=O)N[C@H](C)C(=O)N(C)[C@H](CC(C)C)C(=O)N[C@@H](Cc1ccc(O)cc1)C(=O)N[C@@H](Cc1ccc(O)cc1)C(=O)O
REMARK SMILES IDX 18 1 17 2 15 3 16 4 14 5 12 6 13 7 10 9 11 10 8 12 9 13 7 16
REMARK SMILES IDX 6 17 5 18 4 19 3 20 2 21 1 22 19 23 20 24 21 25 22 26 23 27
REMARK SMILES IDX 24 28 25 29 26 30 27 31 28 32 29 34 30 35 31 36 32 37 37 38
REMARK SMILES IDX 33 39 36 40 34 41 35 42 38 44 39 45 40 46 41 48 42 49 43 50
REMARK SMILES IDX 44 51 49 52 45 53 48 54 46 55 47 56 50 58 51 59 52 60
REMARK H PARENT 14 8 11 11 9 14 9 15 28 33 35 43 40 47 47 57 52 61
ROOT
ATOM      1  O   UNL     1      -0.112   2.198  -1.785  1.00  0.00    -0.272 OA
ATOM      2  C   UNL     1       0.385   1.609  -2.756  1.00  0.00     0.245 C 
ENDROOT
BRANCH   2   3
ATOM      3  C   UNL     1      -0.563   0.912  -3.764  1.00  0.00     0.168 C 
ATOM      4  C   UNL     1      -2.022   1.160  -3.397  1.00  0.00     0.041 C 
BRANCH   3   5
ATOM      5  N   UNL     1      -0.297   1.214  -5.162  1.00  0.00    -0.342 N 
ATOM      6  C   UNL     1       0.480   0.391  -5.950  1.00  0.00     0.251 C 
ATOM      7  O   UNL     1       1.032  -0.621  -5.531  1.00  0.00    -0.272 OA
ATOM      8  H   UNL     1      -0.673   2.045  -5.612  1.00  0.00     0.164 HD
BRANCH   6   9
ATOM      9  C   UNL     1       0.506   0.830  -7.423  1.00  0.00     0.219 C 
BRANCH   9  10
ATOM     10  O   UNL     1      -0.789   1.195  -7.914  1.00  0.00    -0.382 OA
ATOM     11  H   UNL     1      -1.060   1.933  -7.324  1.00  0.00     0.211 HD
ENDBRANCH   9  10
BRANCH   9  12
ATOM     12  C   UNL     1       1.539   1.951  -7.705  1.00  0.00     0.089 C 
BRANCH  12  13
ATOM     13  N   UNL     1       1.342   3.030  -6.709  1.00  0.00    -0.325 NA
ATOM     14  H   UNL     1       2.241   3.260  -6.282  1.00  0.00     0.119 HD
ATOM     15  H   UNL     1       0.767   2.672  -5.943  1.00  0.00     0.119 HD
ENDBRANCH  12  13
BRANCH  12  16
ATOM     16  C   UNL     1       3.024   1.516  -7.730  1.00  0.00     0.022 C 
BRANCH  16  17
ATOM     17  C   UNL     1       3.769   1.478  -9.072  1.00  0.00     0.002 C 
BRANCH  17  18
ATOM     18  C   UNL     1       5.282   1.659  -8.974  1.00  0.00     0.000 C 
BRANCH  18  19
ATOM     19  C   UNL     1       6.039   1.301 -10.260  1.00  0.00    -0.000 C 
BRANCH  19  20
ATOM     20  C   UNL     1       6.959   0.081 -10.154  1.00  0.00    -0.000 C 
BRANCH  20  21
ATOM     21  C   UNL     1       6.775  -0.910 -11.306  1.00  0.00    -0.003 C 
ATOM     22  C   UNL     1       5.356  -1.453 -11.350  1.00  0.00     0.004 C 
ENDBRANCH  20  21
ENDBRANCH  19  20
ENDBRANCH  18  19
ENDBRANCH  17  18
ENDBRANCH  16  17
ENDBRANCH  12  16
ENDBRANCH   9  12
ENDBRANCH   6   9
ENDBRANCH   3   5
ENDBRANCH   2   3
BRANCH   2  23
ATOM     23  N   UNL     1       1.753   1.685  -2.990  1.00  0.00    -0.332 N 
ATOM     24  C   UNL     1       2.695   0.602  -2.744  1.00  0.00     0.147 C 
BRANCH  23  25
ATOM     25  C   UNL     1       2.337   2.885  -3.650  1.00  0.00     0.174 C 
BRANCH  25  26
ATOM     26  C   UNL     1       3.880   2.931  -3.560  1.00  0.00     0.038 C 
BRANCH  26  27
ATOM     27  C   UNL     1       4.655   3.089  -4.888  1.00  0.00    -0.015 C 
ATOM     28  C   UNL     1       5.266   4.481  -5.046  1.00  0.00     0.007 C 
ATOM     29  C   UNL     1       5.712   2.010  -5.106  1.00  0.00     0.007 C 
ENDBRANCH  26  27
ENDBRANCH  25  26
BRANCH  25  30
ATOM     30  C   UNL     1       1.646   4.167  -3.131  1.00  0.00     0.243 C 
ATOM     31  O   UNL     1       0.907   4.842  -3.847  1.00  0.00    -0.273 OA
ATOM     32  N   UNL     1       1.915   4.500  -1.829  1.00  0.00    -0.342 N 
ATOM     33  H   UNL     1       2.421   3.817  -1.260  1.00  0.00     0.164 HD
BRANCH  32  34
ATOM     34  C   UNL     1       1.370   5.695  -1.178  1.00  0.00     0.175 C 
BRANCH  34  35
ATOM     35  C   UNL     1       0.777   5.360   0.199  1.00  0.00     0.070 C 
BRANCH  35  36
ATOM     36  C   UNL     1      -0.728   5.502   0.238  1.00  0.00    -0.045 A 
ATOM     37  C   UNL     1      -1.421   5.939  -0.901  1.00  0.00     0.007 A 
ATOM     38  C   UNL     1      -1.446   5.225   1.409  1.00  0.00     0.007 A 
ATOM     39  C   UNL     1      -2.808   6.088  -0.870  1.00  0.00     0.046 A 
ATOM     40  C   UNL     1      -2.834   5.375   1.441  1.00  0.00     0.046 A 
ATOM     41  C   UNL     1      -3.503   5.804   0.299  1.00  0.00     0.115 A 
BRANCH  41  42
ATOM     42  O   UNL     1      -4.857   5.964   0.288  1.00  0.00    -0.508 OA
ATOM     43  H   UNL     1      -5.255   5.171  -0.108  1.00  0.00     0.293 HD
ENDBRANCH  41  42
ENDBRANCH  35  36
ENDBRANCH  34  35
BRANCH  34  44
ATOM     44  C   UNL     1       2.500   6.745  -1.080  1.00  0.00     0.243 C 
ATOM     45  O   UNL     1       2.932   7.389  -2.032  1.00  0.00    -0.273 OA
ATOM     46  N   UNL     1       3.085   6.807   0.167  1.00  0.00    -0.341 N 
ATOM     47  H   UNL     1       2.769   6.168   0.893  1.00  0.00     0.164 HD
BRANCH  46  48
ATOM     48  C   UNL     1       4.219   7.677   0.483  1.00  0.00     0.196 C 
BRANCH  48  49
ATOM     49  C   UNL     1       4.113   8.240   1.910  1.00  0.00     0.072 C 
BRANCH  49  50
ATOM     50  C   UNL     1       2.962   7.643   2.687  1.00  0.00    -0.045 A 
ATOM     51  C   UNL     1       1.680   8.203   2.578  1.00  0.00     0.007 A 
ATOM     52  C   UNL     1       3.157   6.546   3.536  1.00  0.00     0.007 A 
ATOM     53  C   UNL     1       0.613   7.669   3.300  1.00  0.00     0.046 A 
ATOM     54  C   UNL     1       2.088   6.012   4.259  1.00  0.00     0.046 A 
ATOM     55  C   UNL     1       0.824   6.578   4.134  1.00  0.00     0.115 A 
BRANCH  55  56
ATOM     56  O   UNL     1      -0.245   6.088   4.824  1.00  0.00    -0.508 OA
ATOM     57  H   UNL     1      -0.831   6.828   5.046  1.00  0.00     0.293 HD
ENDBRANCH  55  56
ENDBRANCH  49  50
ENDBRANCH  48  49
BRANCH  48  58
ATOM     58  C   UNL     1       5.519   6.874   0.341  1.00  0.00     0.326 C 
ATOM     59  O   UNL     1       5.806   6.080  -0.541  1.00  0.00    -0.250 OA
BRANCH  58  60
ATOM     60  O   UNL     1       6.419   7.123   1.326  1.00  0.00    -0.480 OA
ATOM     61  H   UNL     1       6.687   8.052   1.158  1.00  0.00     0.296 HD
ENDBRANCH  58  60
ENDBRANCH  48  58
ENDBRANCH  46  48
ENDBRANCH  34  44
ENDBRANCH  32  34
ENDBRANCH  25  30
ENDBRANCH  23  25
ENDBRANCH   2  23
TORSDOF 28
ENDMDL
MODEL 22
REMARK VINA RESULT:    -5.959      8.568     13.594
REMARK INTER + INTRA:         -18.889
REMARK INTER:                 -13.809
REMARK INTRA:                  -5.080
REMARK UNBOUND:                -4.047
REMARK SMILES CCCCCCC[C@H](N)[C@H](O)C(=O)N[C@H](C)C(=O)N(C)[C@H](CC(C)C)C(=O)N[C@@H](Cc1ccc(O)cc1)C(=O)N[C@@H](Cc1ccc(O)cc1)C(=O)O
REMARK SMILES IDX 18 1 17 2 15 3 16 4 14 5 12 6 13 7 10 9 11 10 8 12 9 13 7 16
REMARK SMILES IDX 6 17 5 18 4 19 3 20 2 21 1 22 19 23 20 24 21 25 22 26 23 27
REMARK SMILES IDX 24 28 25 29 26 30 27 31 28 32 29 34 30 35 31 36 32 37 37 38
REMARK SMILES IDX 33 39 36 40 34 41 35 42 38 44 39 45 40 46 41 48 42 49 43 50
REMARK SMILES IDX 44 51 49 52 45 53 48 54 46 55 47 56 50 58 51 59 52 60
REMARK H PARENT 14 8 11 11 9 14 9 15 28 33 35 43 40 47 47 57 52 61
ROOT
ATOM      1  O   UNL     1      -9.417   6.244  -2.226  1.00  0.00    -0.272 OA
ATOM      2  C   UNL     1      -9.710   6.789  -3.300  1.00  0.00     0.245 C 
ENDROOT
BRANCH   2   3
ATOM      3  C   UNL     1     -10.865   6.194  -4.143  1.00  0.00     0.168 C 
ATOM      4  C   UNL     1     -12.217   6.531  -3.523  1.00  0.00     0.041 C 
BRANCH   3   5
ATOM      5  N   UNL     1     -10.821   6.522  -5.559  1.00  0.00    -0.342 N 
ATOM      6  C   UNL     1     -10.848   5.547  -6.533  1.00  0.00     0.251 C 
ATOM      7  O   UNL     1     -10.867   4.345  -6.288  1.00  0.00    -0.272 OA
ATOM      8  H   UNL     1     -10.769   7.484  -5.885  1.00  0.00     0.164 HD
BRANCH   6   9
ATOM      9  C   UNL     1     -10.937   6.128  -7.954  1.00  0.00     0.219 C 
BRANCH   9  10
ATOM     10  O   UNL     1     -10.235   7.370  -8.088  1.00  0.00    -0.382 OA
ATOM     11  H   UNL     1      -9.714   7.253  -8.912  1.00  0.00     0.211 HD
ENDBRANCH   9  10
BRANCH   9  12
ATOM     12  C   UNL     1     -10.494   5.124  -9.051  1.00  0.00     0.089 C 
BRANCH  12  13
ATOM     13  N   UNL     1     -11.294   5.383 -10.270  1.00  0.00    -0.325 NA
ATOM     14  H   UNL     1     -11.060   4.686 -10.979  1.00  0.00     0.119 HD
ATOM     15  H   UNL     1     -11.006   6.278 -10.671  1.00  0.00     0.119 HD
ENDBRANCH  12  13
BRANCH  12  16
ATOM     16  C   UNL     1      -8.986   5.119  -9.396  1.00  0.00     0.022 C 
BRANCH  16  17
ATOM     17  C   UNL     1      -8.505   4.345 -10.632  1.00  0.00     0.002 C 
BRANCH  17  18
ATOM     18  C   UNL     1      -8.056   5.216 -11.803  1.00  0.00     0.000 C 
BRANCH  18  19
ATOM     19  C   UNL     1      -6.610   4.962 -12.250  1.00  0.00    -0.000 C 
BRANCH  19  20
ATOM     20  C   UNL     1      -6.307   3.526 -12.687  1.00  0.00    -0.000 C 
BRANCH  20  21
ATOM     21  C   UNL     1      -5.942   3.414 -14.169  1.00  0.00    -0.003 C 
ATOM     22  C   UNL     1      -6.752   4.385 -15.014  1.00  0.00     0.004 C 
ENDBRANCH  20  21
ENDBRANCH  19  20
ENDBRANCH  18  19
ENDBRANCH  17  18
ENDBRANCH  16  17
ENDBRANCH  12  16
ENDBRANCH   9  12
ENDBRANCH   6   9
ENDBRANCH   3   5
ENDBRANCH   2   3
BRANCH   2  23
ATOM     23  N   UNL     1      -9.090   7.979  -3.669  1.00  0.00    -0.332 N 
ATOM     24  C   UNL     1      -9.752   9.274  -3.717  1.00  0.00     0.147 C 
BRANCH  23  25
ATOM     25  C   UNL     1      -7.624   8.015  -3.923  1.00  0.00     0.174 C 
BRANCH  25  26
ATOM     26  C   UNL     1      -7.069   9.453  -4.047  1.00  0.00     0.038 C 
BRANCH  26  27
ATOM     27  C   UNL     1      -6.376   9.824  -5.378  1.00  0.00    -0.015 C 
ATOM     28  C   UNL     1      -7.313  10.550  -6.342  1.00  0.00     0.007 C 
ATOM     29  C   UNL     1      -5.083  10.612  -5.190  1.00  0.00     0.007 C 
ENDBRANCH  26  27
ENDBRANCH  25  26
BRANCH  25  30
ATOM     30  C   UNL     1      -7.269   7.106  -5.122  1.00  0.00     0.243 C 
ATOM     31  O   UNL     1      -7.924   7.119  -6.163  1.00  0.00    -0.273 OA
ATOM     32  N   UNL     1      -6.185   6.285  -4.944  1.00  0.00    -0.342 N 
ATOM     33  H   UNL     1      -5.611   6.433  -4.111  1.00  0.00     0.164 HD
BRANCH  32  34
ATOM     34  C   UNL     1      -5.721   5.338  -5.962  1.00  0.00     0.175 C 
BRANCH  34  35
ATOM     35  C   UNL     1      -4.452   5.848  -6.662  1.00  0.00     0.070 C 
BRANCH  35  36
ATOM     36  C   UNL     1      -4.745   6.878  -7.728  1.00  0.00    -0.045 A 
ATOM     37  C   UNL     1      -4.112   8.130  -7.689  1.00  0.00     0.007 A 
ATOM     38  C   UNL     1      -5.664   6.612  -8.752  1.00  0.00     0.007 A 
ATOM     39  C   UNL     1      -4.387   9.092  -8.661  1.00  0.00     0.046 A 
ATOM     40  C   UNL     1      -5.941   7.575  -9.725  1.00  0.00     0.046 A 
ATOM     41  C   UNL     1      -5.298   8.807  -9.671  1.00  0.00     0.115 A 
BRANCH  41  42
ATOM     42  O   UNL     1      -5.541   9.776 -10.599  1.00  0.00    -0.508 OA
ATOM     43  H   UNL     1      -5.515   9.367 -11.480  1.00  0.00     0.293 HD
ENDBRANCH  41  42
ENDBRANCH  35  36
ENDBRANCH  34  35
BRANCH  34  44
ATOM     44  C   UNL     1      -5.494   3.972  -5.277  1.00  0.00     0.243 C 
ATOM     45  O   UNL     1      -6.286   3.035  -5.317  1.00  0.00    -0.273 OA
ATOM     46  N   UNL     1      -4.361   3.934  -4.491  1.00  0.00    -0.341 N 
ATOM     47  H   UNL     1      -3.797   4.775  -4.396  1.00  0.00     0.164 HD
BRANCH  46  48
ATOM     48  C   UNL     1      -3.975   2.770  -3.691  1.00  0.00     0.196 C 
BRANCH  48  49
ATOM     49  C   UNL     1      -2.454   2.545  -3.727  1.00  0.00     0.072 C 
BRANCH  49  50
ATOM     50  C   UNL     1      -2.036   1.561  -4.797  1.00  0.00    -0.045 A 
ATOM     51  C   UNL     1      -2.908   1.269  -5.856  1.00  0.00     0.007 A 
ATOM     52  C   UNL     1      -0.794   0.916  -4.737  1.00  0.00     0.007 A 
ATOM     53  C   UNL     1      -2.539   0.353  -6.842  1.00  0.00     0.046 A 
ATOM     54  C   UNL     1      -0.426  -0.002  -5.723  1.00  0.00     0.046 A 
ATOM     55  C   UNL     1      -1.301  -0.275  -6.768  1.00  0.00     0.115 A 
BRANCH  55  56
ATOM     56  O   UNL     1      -0.980  -1.165  -7.750  1.00  0.00    -0.508 OA
ATOM     57  H   UNL     1      -0.076  -0.978  -8.048  1.00  0.00     0.293 HD
ENDBRANCH  55  56
ENDBRANCH  49  50
ENDBRANCH  48  49
BRANCH  48  58
ATOM     58  C   UNL     1      -4.428   2.987  -2.241  1.00  0.00     0.326 C 
ATOM     59  O   UNL     1      -5.574   3.089  -1.832  1.00  0.00    -0.250 OA
BRANCH  58  60
ATOM     60  O   UNL     1      -3.401   3.054  -1.357  1.00  0.00    -0.480 OA
ATOM     61  H   UNL     1      -2.620   2.808  -1.898  1.00  0.00     0.296 HD
ENDBRANCH  58  60
ENDBRANCH  48  58
ENDBRANCH  46  48
ENDBRANCH  34  44
ENDBRANCH  32  34
ENDBRANCH  25  30
ENDBRANCH  23  25
ENDBRANCH   2  23
TORSDOF 28
ENDMDL
MODEL 23
REMARK VINA RESULT:    -5.958      5.862     12.104
REMARK INTER + INTRA:         -18.887
REMARK INTER:                 -13.652
REMARK INTRA:                  -5.235
REMARK UNBOUND:                -4.047
REMARK SMILES CCCCCCC[C@H](N)[C@H](O)C(=O)N[C@H](C)C(=O)N(C)[C@H](CC(C)C)C(=O)N[C@@H](Cc1ccc(O)cc1)C(=O)N[C@@H](Cc1ccc(O)cc1)C(=O)O
REMARK SMILES IDX 18 1 17 2 15 3 16 4 14 5 12 6 13 7 10 9 11 10 8 12 9 13 7 16
REMARK SMILES IDX 6 17 5 18 4 19 3 20 2 21 1 22 19 23 20 24 21 25 22 26 23 27
REMARK SMILES IDX 24 28 25 29 26 30 27 31 28 32 29 34 30 35 31 36 32 37 37 38
REMARK SMILES IDX 33 39 36 40 34 41 35 42 38 44 39 45 40 46 41 48 42 49 43 50
REMARK SMILES IDX 44 51 49 52 45 53 48 54 46 55 47 56 50 58 51 59 52 60
REMARK H PARENT 14 8 11 11 9 14 9 15 28 33 35 43 40 47 47 57 52 61
ROOT
ATOM      1  O   UNL     1       2.292   6.380  -1.116  1.00  0.00    -0.272 OA
ATOM      2  C   UNL     1       3.357   6.744  -1.638  1.00  0.00     0.245 C 
ENDROOT
BRANCH   2   3
ATOM      3  C   UNL     1       4.047   8.022  -1.099  1.00  0.00     0.168 C 
ATOM      4  C   UNL     1       3.153   9.242  -1.290  1.00  0.00     0.041 C 
BRANCH   3   5
ATOM      5  N   UNL     1       4.542   7.921   0.265  1.00  0.00    -0.342 N 
ATOM      6  C   UNL     1       5.730   7.288   0.563  1.00  0.00     0.251 C 
ATOM      7  O   UNL     1       6.430   6.733  -0.277  1.00  0.00    -0.272 OA
ATOM      8  H   UNL     1       4.030   8.313   1.051  1.00  0.00     0.164 HD
BRANCH   6   9
ATOM      9  C   UNL     1       6.123   7.427   2.042  1.00  0.00     0.219 C 
BRANCH   9  10
ATOM     10  O   UNL     1       6.104   8.787   2.493  1.00  0.00    -0.382 OA
ATOM     11  H   UNL     1       6.088   8.705   3.472  1.00  0.00     0.211 HD
ENDBRANCH   9  10
BRANCH   9  12
ATOM     12  C   UNL     1       5.283   6.523   2.983  1.00  0.00     0.089 C 
BRANCH  12  13
ATOM     13  N   UNL     1       6.194   5.558   3.640  1.00  0.00    -0.325 NA
ATOM     14  H   UNL     1       7.156   5.891   3.552  1.00  0.00     0.119 HD
ATOM     15  H   UNL     1       6.170   4.676   3.123  1.00  0.00     0.119 HD
ENDBRANCH  12  13
BRANCH  12  16
ATOM     16  C   UNL     1       4.431   7.257   4.046  1.00  0.00     0.022 C 
BRANCH  16  17
ATOM     17  C   UNL     1       2.902   7.127   3.997  1.00  0.00     0.002 C 
BRANCH  17  18
ATOM     18  C   UNL     1       2.172   7.648   5.233  1.00  0.00     0.000 C 
BRANCH  18  19
ATOM     19  C   UNL     1       1.353   8.921   4.984  1.00  0.00    -0.000 C 
BRANCH  19  20
ATOM     20  C   UNL     1       1.124   9.270   3.511  1.00  0.00    -0.000 C 
BRANCH  20  21
ATOM     21  C   UNL     1       1.692  10.637   3.123  1.00  0.00    -0.003 C 
ATOM     22  C   UNL     1       2.985  10.497   2.334  1.00  0.00     0.004 C 
ENDBRANCH  20  21
ENDBRANCH  19  20
ENDBRANCH  18  19
ENDBRANCH  17  18
ENDBRANCH  16  17
ENDBRANCH  12  16
ENDBRANCH   9  12
ENDBRANCH   6   9
ENDBRANCH   3   5
ENDBRANCH   2   3
BRANCH   2  23
ATOM     23  N   UNL     1       3.968   5.946  -2.599  1.00  0.00    -0.332 N 
ATOM     24  C   UNL     1       4.883   6.437  -3.619  1.00  0.00     0.147 C 
BRANCH  23  25
ATOM     25  C   UNL     1       3.812   4.466  -2.557  1.00  0.00     0.174 C 
BRANCH  25  26
ATOM     26  C   UNL     1       4.974   3.718  -3.252  1.00  0.00     0.038 C 
BRANCH  26  27
ATOM     27  C   UNL     1       4.639   2.359  -3.906  1.00  0.00    -0.015 C 
ATOM     28  C   UNL     1       5.575   2.023  -5.067  1.00  0.00     0.007 C 
ATOM     29  C   UNL     1       4.584   1.203  -2.910  1.00  0.00     0.007 C 
ENDBRANCH  26  27
ENDBRANCH  25  26
BRANCH  25  30
ATOM     30  C   UNL     1       2.413   4.064  -3.080  1.00  0.00     0.243 C 
ATOM     31  O   UNL     1       2.053   4.312  -4.229  1.00  0.00    -0.273 OA
ATOM     32  N   UNL     1       1.605   3.422  -2.177  1.00  0.00    -0.342 N 
ATOM     33  H   UNL     1       2.025   3.127  -1.292  1.00  0.00     0.164 HD
BRANCH  32  34
ATOM     34  C   UNL     1       0.239   2.992  -2.488  1.00  0.00     0.175 C 
BRANCH  34  35
ATOM     35  C   UNL     1       0.136   1.460  -2.550  1.00  0.00     0.070 C 
BRANCH  35  36
ATOM     36  C   UNL     1      -0.194   0.952  -3.935  1.00  0.00    -0.045 A 
ATOM     37  C   UNL     1       0.835   0.523  -4.788  1.00  0.00     0.007 A 
ATOM     38  C   UNL     1      -1.517   0.923  -4.395  1.00  0.00     0.007 A 
ATOM     39  C   UNL     1       0.542   0.065  -6.073  1.00  0.00     0.046 A 
ATOM     40  C   UNL     1      -1.811   0.466  -5.682  1.00  0.00     0.046 A 
ATOM     41  C   UNL     1      -0.777   0.040  -6.509  1.00  0.00     0.115 A 
BRANCH  41  42
ATOM     42  O   UNL     1      -1.020  -0.412  -7.773  1.00  0.00    -0.508 OA
ATOM     43  H   UNL     1      -1.560  -1.217  -7.710  1.00  0.00     0.293 HD
ENDBRANCH  41  42
ENDBRANCH  35  36
ENDBRANCH  34  35
BRANCH  34  44
ATOM     44  C   UNL     1      -0.706   3.592  -1.423  1.00  0.00     0.243 C 
ATOM     45  O   UNL     1      -1.726   3.045  -1.013  1.00  0.00    -0.273 OA
ATOM     46  N   UNL     1      -0.372   4.879  -1.055  1.00  0.00    -0.341 N 
ATOM     47  H   UNL     1       0.416   5.334  -1.510  1.00  0.00     0.164 HD
BRANCH  46  48
ATOM     48  C   UNL     1      -1.158   5.677  -0.112  1.00  0.00     0.196 C 
BRANCH  48  49
ATOM     49  C   UNL     1      -0.380   5.934   1.189  1.00  0.00     0.072 C 
BRANCH  49  50
ATOM     50  C   UNL     1      -1.216   5.691   2.425  1.00  0.00    -0.045 A 
ATOM     51  C   UNL     1      -2.445   5.023   2.318  1.00  0.00     0.007 A 
ATOM     52  C   UNL     1      -0.793   6.141   3.682  1.00  0.00     0.007 A 
ATOM     53  C   UNL     1      -3.231   4.804   3.449  1.00  0.00     0.046 A 
ATOM     54  C   UNL     1      -1.580   5.924   4.815  1.00  0.00     0.046 A 
ATOM     55  C   UNL     1      -2.793   5.255   4.688  1.00  0.00     0.115 A 
BRANCH  55  56
ATOM     56  O   UNL     1      -3.592   5.023   5.769  1.00  0.00    -0.508 OA
ATOM     57  H   UNL     1      -3.172   5.417   6.550  1.00  0.00     0.293 HD
ENDBRANCH  55  56
ENDBRANCH  49  50
ENDBRANCH  48  49
BRANCH  48  58
ATOM     58  C   UNL     1      -1.518   7.016  -0.770  1.00  0.00     0.326 C 
ATOM     59  O   UNL     1      -2.618   7.541  -0.825  1.00  0.00    -0.250 OA
BRANCH  58  60
ATOM     60  O   UNL     1      -0.454   7.649  -1.325  1.00  0.00    -0.480 OA
ATOM     61  H   UNL     1       0.270   6.992  -1.241  1.00  0.00     0.296 HD
ENDBRANCH  58  60
ENDBRANCH  48  58
ENDBRANCH  46  48
ENDBRANCH  34  44
ENDBRANCH  32  34
ENDBRANCH  25  30
ENDBRANCH  23  25
ENDBRANCH   2  23
TORSDOF 28
ENDMDL
MODEL 24
REMARK VINA RESULT:    -5.918     12.906     16.908
REMARK INTER + INTRA:         -18.786
REMARK INTER:                 -14.148
REMARK INTRA:                  -4.638
REMARK UNBOUND:                -4.047
REMARK SMILES CCCCCCC[C@H](N)[C@H](O)C(=O)N[C@H](C)C(=O)N(C)[C@H](CC(C)C)C(=O)N[C@@H](Cc1ccc(O)cc1)C(=O)N[C@@H](Cc1ccc(O)cc1)C(=O)O
REMARK SMILES IDX 18 1 17 2 15 3 16 4 14 5 12 6 13 7 10 9 11 10 8 12 9 13 7 16
REMARK SMILES IDX 6 17 5 18 4 19 3 20 2 21 1 22 19 23 20 24 21 25 22 26 23 27
REMARK SMILES IDX 24 28 25 29 26 30 27 31 28 32 29 34 30 35 31 36 32 37 37 38
REMARK SMILES IDX 33 39 36 40 34 41 35 42 38 44 39 45 40 46 41 48 42 49 43 50
REMARK SMILES IDX 44 51 49 52 45 53 48 54 46 55 47 56 50 58 51 59 52 60
REMARK H PARENT 14 8 11 11 9 14 9 15 28 33 35 43 40 47 47 57 52 61
ROOT
ATOM      1  O   UNL     1     -13.436   4.541  -2.812  1.00  0.00    -0.272 OA
ATOM      2  C   UNL     1     -13.255   5.767  -2.773  1.00  0.00     0.245 C 
ENDROOT
BRANCH   2   3
ATOM      3  C   UNL     1     -13.120   6.452  -1.390  1.00  0.00     0.168 C 
ATOM      4  C   UNL     1     -14.354   7.292  -1.078  1.00  0.00     0.041 C 
BRANCH   3   5
ATOM      5  N   UNL     1     -12.783   5.557  -0.294  1.00  0.00    -0.342 N 
ATOM      6  C   UNL     1     -12.212   6.017   0.873  1.00  0.00     0.251 C 
ATOM      7  O   UNL     1     -11.910   7.191   1.061  1.00  0.00    -0.272 OA
ATOM      8  H   UNL     1     -12.955   4.555  -0.348  1.00  0.00     0.164 HD
BRANCH   6   9
ATOM      9  C   UNL     1     -12.077   4.920   1.941  1.00  0.00     0.219 C 
BRANCH   9  10
ATOM     10  O   UNL     1     -12.758   3.712   1.582  1.00  0.00    -0.382 OA
ATOM     11  H   UNL     1     -13.304   3.511   2.374  1.00  0.00     0.211 HD
ENDBRANCH   9  10
BRANCH   9  12
ATOM     12  C   UNL     1     -10.604   4.627   2.330  1.00  0.00     0.089 C 
BRANCH  12  13
ATOM     13  N   UNL     1      -9.724   5.170   1.270  1.00  0.00    -0.325 NA
ATOM     14  H   UNL     1      -9.600   4.464   0.542  1.00  0.00     0.119 HD
ATOM     15  H   UNL     1      -8.790   5.320   1.659  1.00  0.00     0.119 HD
ENDBRANCH  12  13
BRANCH  12  16
ATOM     16  C   UNL     1     -10.151   5.149   3.715  1.00  0.00     0.022 C 
BRANCH  16  17
ATOM     17  C   UNL     1     -11.168   5.194   4.864  1.00  0.00     0.002 C 
BRANCH  17  18
ATOM     18  C   UNL     1     -10.986   4.113   5.928  1.00  0.00     0.000 C 
BRANCH  18  19
ATOM     19  C   UNL     1     -11.621   4.456   7.282  1.00  0.00    -0.000 C 
BRANCH  19  20
ATOM     20  C   UNL     1     -10.664   5.062   8.313  1.00  0.00    -0.000 C 
BRANCH  20  21
ATOM     21  C   UNL     1      -9.202   5.037   7.861  1.00  0.00    -0.003 C 
ATOM     22  C   UNL     1      -8.270   4.713   9.018  1.00  0.00     0.004 C 
ENDBRANCH  20  21
ENDBRANCH  19  20
ENDBRANCH  18  19
ENDBRANCH  17  18
ENDBRANCH  16  17
ENDBRANCH  12  16
ENDBRANCH   9  12
ENDBRANCH   6   9
ENDBRANCH   3   5
ENDBRANCH   2   3
BRANCH   2  23
ATOM     23  N   UNL     1     -13.057   6.479  -3.951  1.00  0.00    -0.332 N 
ATOM     24  C   UNL     1     -14.124   6.963  -4.814  1.00  0.00     0.147 C 
BRANCH  23  25
ATOM     25  C   UNL     1     -11.688   6.912  -4.345  1.00  0.00     0.174 C 
BRANCH  25  26
ATOM     26  C   UNL     1     -11.680   8.248  -5.125  1.00  0.00     0.038 C 
BRANCH  26  27
ATOM     27  C   UNL     1     -10.623   9.295  -4.710  1.00  0.00    -0.015 C 
ATOM     28  C   UNL     1     -10.080   9.051  -3.303  1.00  0.00     0.007 C 
ATOM     29  C   UNL     1      -9.479   9.434  -5.712  1.00  0.00     0.007 C 
ENDBRANCH  26  27
ENDBRANCH  25  26
BRANCH  25  30
ATOM     30  C   UNL     1     -10.955   5.763  -5.073  1.00  0.00     0.243 C 
ATOM     31  O   UNL     1     -11.566   4.854  -5.634  1.00  0.00    -0.273 OA
ATOM     32  N   UNL     1      -9.585   5.821  -5.045  1.00  0.00    -0.342 N 
ATOM     33  H   UNL     1      -9.154   6.676  -4.685  1.00  0.00     0.164 HD
BRANCH  32  34
ATOM     34  C   UNL     1      -8.727   4.804  -5.659  1.00  0.00     0.175 C 
BRANCH  34  35
ATOM     35  C   UNL     1      -8.106   5.313  -6.969  1.00  0.00     0.070 C 
BRANCH  35  36
ATOM     36  C   UNL     1      -9.129   5.502  -8.066  1.00  0.00    -0.045 A 
ATOM     37  C   UNL     1      -9.606   6.787  -8.366  1.00  0.00     0.007 A 
ATOM     38  C   UNL     1      -9.629   4.405  -8.779  1.00  0.00     0.007 A 
ATOM     39  C   UNL     1     -10.560   6.970  -9.368  1.00  0.00     0.046 A 
ATOM     40  C   UNL     1     -10.586   4.588  -9.781  1.00  0.00     0.046 A 
ATOM     41  C   UNL     1     -11.041   5.870 -10.067  1.00  0.00     0.115 A 
BRANCH  41  42
ATOM     42  O   UNL     1     -11.975   6.092 -11.036  1.00  0.00    -0.508 OA
ATOM     43  H   UNL     1     -11.997   7.045 -11.226  1.00  0.00     0.293 HD
ENDBRANCH  41  42
ENDBRANCH  35  36
ENDBRANCH  34  35
BRANCH  34  44
ATOM     44  C   UNL     1      -7.649   4.401  -4.627  1.00  0.00     0.243 C 
ATOM     45  O   UNL     1      -7.230   3.257  -4.472  1.00  0.00    -0.273 OA
ATOM     46  N   UNL     1      -7.281   5.431  -3.788  1.00  0.00    -0.341 N 
ATOM     47  H   UNL     1      -7.742   6.332  -3.880  1.00  0.00     0.164 HD
BRANCH  46  48
ATOM     48  C   UNL     1      -6.327   5.272  -2.688  1.00  0.00     0.196 C 
BRANCH  48  49
ATOM     49  C   UNL     1      -5.077   6.144  -2.901  1.00  0.00     0.072 C 
BRANCH  49  50
ATOM     50  C   UNL     1      -5.346   7.339  -3.787  1.00  0.00    -0.045 A 
ATOM     51  C   UNL     1      -5.825   8.532  -3.227  1.00  0.00     0.007 A 
ATOM     52  C   UNL     1      -5.143   7.269  -5.172  1.00  0.00     0.007 A 
ATOM     53  C   UNL     1      -6.088   9.636  -4.037  1.00  0.00     0.046 A 
ATOM     54  C   UNL     1      -5.408   8.375  -5.983  1.00  0.00     0.046 A 
ATOM     55  C   UNL     1      -5.878   9.550  -5.407  1.00  0.00     0.115 A 
BRANCH  55  56
ATOM     56  O   UNL     1      -6.149  10.652  -6.164  1.00  0.00    -0.508 OA
ATOM     57  H   UNL     1      -5.468  11.320  -5.987  1.00  0.00     0.293 HD
ENDBRANCH  55  56
ENDBRANCH  49  50
ENDBRANCH  48  49
BRANCH  48  58
ATOM     58  C   UNL     1      -7.011   5.666  -1.372  1.00  0.00     0.326 C 
ATOM     59  O   UNL     1      -6.592   6.435  -0.522  1.00  0.00    -0.250 OA
BRANCH  58  60
ATOM     60  O   UNL     1      -8.220   5.075  -1.193  1.00  0.00    -0.480 OA
ATOM     61  H   UNL     1      -8.509   5.415  -0.318  1.00  0.00     0.296 HD
ENDBRANCH  58  60
ENDBRANCH  48  58
ENDBRANCH  46  48
ENDBRANCH  34  44
ENDBRANCH  32  34
ENDBRANCH  25  30
ENDBRANCH  23  25
ENDBRANCH   2  23
TORSDOF 28
ENDMDL
MODEL 25
REMARK VINA RESULT:    -5.915      1.949      5.111
REMARK INTER + INTRA:         -18.780
REMARK INTER:                 -14.636
REMARK INTRA:                  -4.144
REMARK UNBOUND:                -4.047
REMARK SMILES CCCCCCC[C@H](N)[C@H](O)C(=O)N[C@H](C)C(=O)N(C)[C@H](CC(C)C)C(=O)N[C@@H](Cc1ccc(O)cc1)C(=O)N[C@@H](Cc1ccc(O)cc1)C(=O)O
REMARK SMILES IDX 18 1 17 2 15 3 16 4 14 5 12 6 13 7 10 9 11 10 8 12 9 13 7 16
REMARK SMILES IDX 6 17 5 18 4 19 3 20 2 21 1 22 19 23 20 24 21 25 22 26 23 27
REMARK SMILES IDX 24 28 25 29 26 30 27 31 28 32 29 34 30 35 31 36 32 37 37 38
REMARK SMILES IDX 33 39 36 40 34 41 35 42 38 44 39 45 40 46 41 48 42 49 43 50
REMARK SMILES IDX 44 51 49 52 45 53 48 54 46 55 47 56 50 58 51 59 52 60
REMARK H PARENT 14 8 11 11 9 14 9 15 28 33 35 43 40 47 47 57 52 61
ROOT
ATOM      1  O   UNL     1       6.107   1.663  -5.165  1.00  0.00    -0.272 OA
ATOM      2  C   UNL     1       4.969   2.032  -4.836  1.00  0.00     0.245 C 
ENDROOT
BRANCH   2   3
ATOM      3  C   UNL     1       4.595   2.028  -3.333  1.00  0.00     0.168 C 
ATOM      4  C   UNL     1       5.413   3.063  -2.569  1.00  0.00     0.041 C 
BRANCH   3   5
ATOM      5  N   UNL     1       3.172   2.150  -3.057  1.00  0.00    -0.342 N 
ATOM      6  C   UNL     1       2.349   1.047  -2.979  1.00  0.00     0.251 C 
ATOM      7  O   UNL     1       2.735  -0.101  -3.174  1.00  0.00    -0.272 OA
ATOM      8  H   UNL     1       2.730   3.054  -2.911  1.00  0.00     0.164 HD
BRANCH   6   9
ATOM      9  C   UNL     1       0.920   1.402  -2.538  1.00  0.00     0.219 C 
BRANCH   9  10
ATOM     10  O   UNL     1       0.863   2.609  -1.768  1.00  0.00    -0.382 OA
ATOM     11  H   UNL     1       1.616   2.520  -1.142  1.00  0.00     0.211 HD
ENDBRANCH   9  10
BRANCH   9  12
ATOM     12  C   UNL     1      -0.087   1.454  -3.717  1.00  0.00     0.089 C 
BRANCH  12  13
ATOM     13  N   UNL     1      -1.423   1.071  -3.207  1.00  0.00    -0.325 NA
ATOM     14  H   UNL     1      -1.449   0.061  -3.056  1.00  0.00     0.119 HD
ATOM     15  H   UNL     1      -2.119   1.249  -3.936  1.00  0.00     0.119 HD
ENDBRANCH  12  13
BRANCH  12  16
ATOM     16  C   UNL     1      -0.173   2.799  -4.477  1.00  0.00     0.022 C 
BRANCH  16  17
ATOM     17  C   UNL     1      -0.468   2.789  -5.983  1.00  0.00     0.002 C 
BRANCH  17  18
ATOM     18  C   UNL     1      -0.500   1.403  -6.624  1.00  0.00     0.000 C 
BRANCH  18  19
ATOM     19  C   UNL     1      -1.914   0.845  -6.833  1.00  0.00    -0.000 C 
BRANCH  19  20
ATOM     20  C   UNL     1      -2.141  -0.571  -6.295  1.00  0.00    -0.000 C 
BRANCH  20  21
ATOM     21  C   UNL     1      -3.104  -1.393  -7.156  1.00  0.00    -0.003 C 
ATOM     22  C   UNL     1      -3.220  -0.819  -8.559  1.00  0.00     0.004 C 
ENDBRANCH  20  21
ENDBRANCH  19  20
ENDBRANCH  18  19
ENDBRANCH  17  18
ENDBRANCH  16  17
ENDBRANCH  12  16
ENDBRANCH   9  12
ENDBRANCH   6   9
ENDBRANCH   3   5
ENDBRANCH   2   3
BRANCH   2  23
ATOM     23  N   UNL     1       4.102   2.551  -5.792  1.00  0.00    -0.332 N 
ATOM     24  C   UNL     1       3.102   1.773  -6.509  1.00  0.00     0.147 C 
BRANCH  23  25
ATOM     25  C   UNL     1       4.063   4.015  -6.054  1.00  0.00     0.174 C 
BRANCH  25  26
ATOM     26  C   UNL     1       2.635   4.603  -5.976  1.00  0.00     0.038 C 
BRANCH  26  27
ATOM     27  C   UNL     1       2.445   5.871  -5.113  1.00  0.00    -0.015 C 
ATOM     28  C   UNL     1       2.931   5.678  -3.677  1.00  0.00     0.007 C 
ATOM     29  C   UNL     1       3.066   7.122  -5.728  1.00  0.00     0.007 C 
ENDBRANCH  26  27
ENDBRANCH  25  26
BRANCH  25  30
ATOM     30  C   UNL     1       4.798   4.339  -7.375  1.00  0.00     0.243 C 
ATOM     31  O   UNL     1       4.188   4.583  -8.415  1.00  0.00    -0.273 OA
ATOM     32  N   UNL     1       6.167   4.330  -7.310  1.00  0.00    -0.342 N 
ATOM     33  H   UNL     1       6.597   4.260  -6.384  1.00  0.00     0.164 HD
BRANCH  32  34
ATOM     34  C   UNL     1       7.027   4.588  -8.469  1.00  0.00     0.175 C 
BRANCH  34  35
ATOM     35  C   UNL     1       8.167   5.554  -8.115  1.00  0.00     0.070 C 
BRANCH  35  36
ATOM     36  C   UNL     1       7.674   6.827  -7.464  1.00  0.00    -0.045 A 
ATOM     37  C   UNL     1       6.654   7.576  -8.071  1.00  0.00     0.007 A 
ATOM     38  C   UNL     1       8.239   7.288  -6.267  1.00  0.00     0.007 A 
ATOM     39  C   UNL     1       6.202   8.759  -7.485  1.00  0.00     0.046 A 
ATOM     40  C   UNL     1       7.787   8.473  -5.681  1.00  0.00     0.046 A 
ATOM     41  C   UNL     1       6.771   9.198  -6.295  1.00  0.00     0.115 A 
BRANCH  41  42
ATOM     42  O   UNL     1       6.303  10.360  -5.758  1.00  0.00    -0.508 OA
ATOM     43  H   UNL     1       6.671  11.101  -6.267  1.00  0.00     0.293 HD
ENDBRANCH  41  42
ENDBRANCH  35  36
ENDBRANCH  34  35
BRANCH  34  44
ATOM     44  C   UNL     1       7.559   3.230  -8.981  1.00  0.00     0.243 C 
ATOM     45  O   UNL     1       7.745   2.246  -8.272  1.00  0.00    -0.273 OA
ATOM     46  N   UNL     1       7.938   3.254 -10.307  1.00  0.00    -0.341 N 
ATOM     47  H   UNL     1       7.873   4.128 -10.823  1.00  0.00     0.164 HD
BRANCH  46  48
ATOM     48  C   UNL     1       8.534   2.107 -10.995  1.00  0.00     0.196 C 
BRANCH  48  49
ATOM     49  C   UNL     1       7.665   1.653 -12.180  1.00  0.00     0.072 C 
BRANCH  49  50
ATOM     50  C   UNL     1       6.851   0.418 -11.865  1.00  0.00    -0.045 A 
ATOM     51  C   UNL     1       5.643   0.537 -11.164  1.00  0.00     0.007 A 
ATOM     52  C   UNL     1       7.296  -0.855 -12.246  1.00  0.00     0.007 A 
ATOM     53  C   UNL     1       4.890  -0.596 -10.856  1.00  0.00     0.046 A 
ATOM     54  C   UNL     1       6.543  -1.990 -11.937  1.00  0.00     0.046 A 
ATOM     55  C   UNL     1       5.345  -1.850 -11.245  1.00  0.00     0.115 A 
BRANCH  55  56
ATOM     56  O   UNL     1       4.581  -2.933 -10.923  1.00  0.00    -0.508 OA
ATOM     57  H   UNL     1       5.126  -3.730 -11.016  1.00  0.00     0.293 HD
ENDBRANCH  55  56
ENDBRANCH  49  50
ENDBRANCH  48  49
BRANCH  48  58
ATOM     58  C   UNL     1       9.929   2.498 -11.500  1.00  0.00     0.326 C 
ATOM     59  O   UNL     1      10.730   3.242 -10.957  1.00  0.00    -0.250 OA
BRANCH  58  60
ATOM     60  O   UNL     1      10.263   1.912 -12.678  1.00  0.00    -0.480 OA
ATOM     61  H   UNL     1       9.394   1.761 -13.109  1.00  0.00     0.296 HD
ENDBRANCH  58  60
ENDBRANCH  48  58
ENDBRANCH  46  48
ENDBRANCH  34  44
ENDBRANCH  32  34
ENDBRANCH  25  30
ENDBRANCH  23  25
ENDBRANCH   2  23
TORSDOF 28
ENDMDL
MODEL 26
REMARK VINA RESULT:    -5.907      4.102      7.473
REMARK INTER + INTRA:         -18.760
REMARK INTER:                 -15.442
REMARK INTRA:                  -3.318
REMARK UNBOUND:                -4.047
REMARK SMILES CCCCCCC[C@H](N)[C@H](O)C(=O)N[C@H](C)C(=O)N(C)[C@H](CC(C)C)C(=O)N[C@@H](Cc1ccc(O)cc1)C(=O)N[C@@H](Cc1ccc(O)cc1)C(=O)O
REMARK SMILES IDX 18 1 17 2 15 3 16 4 14 5 12 6 13 7 10 9 11 10 8 12 9 13 7 16
REMARK SMILES IDX 6 17 5 18 4 19 3 20 2 21 1 22 19 23 20 24 21 25 22 26 23 27
REMARK SMILES IDX 24 28 25 29 26 30 27 31 28 32 29 34 30 35 31 36 32 37 37 38
REMARK SMILES IDX 33 39 36 40 34 41 35 42 38 44 39 45 40 46 41 48 42 49 43 50
REMARK SMILES IDX 44 51 49 52 45 53 48 54 46 55 47 56 50 58 51 59 52 60
REMARK H PARENT 14 8 11 11 9 14 9 15 28 33 35 43 40 47 47 57 52 61
ROOT
ATOM      1  O   UNL     1       5.525   4.499  -2.073  1.00  0.00    -0.272 OA
ATOM      2  C   UNL     1       5.721   5.696  -2.332  1.00  0.00     0.245 C 
ENDROOT
BRANCH   2   3
ATOM      3  C   UNL     1       6.620   6.523  -1.380  1.00  0.00     0.168 C 
ATOM      4  C   UNL     1       7.653   7.322  -2.167  1.00  0.00     0.041 C 
BRANCH   3   5
ATOM      5  N   UNL     1       5.900   7.355  -0.429  1.00  0.00    -0.342 N 
ATOM      6  C   UNL     1       5.924   7.101   0.926  1.00  0.00     0.251 C 
ATOM      7  O   UNL     1       6.509   6.145   1.424  1.00  0.00    -0.272 OA
ATOM      8  H   UNL     1       5.350   8.157  -0.728  1.00  0.00     0.164 HD
BRANCH   6   9
ATOM      9  C   UNL     1       5.214   8.189   1.748  1.00  0.00     0.219 C 
BRANCH   9  10
ATOM     10  O   UNL     1       5.721   9.502   1.482  1.00  0.00    -0.382 OA
ATOM     11  H   UNL     1       6.369   9.357   0.758  1.00  0.00     0.211 HD
ENDBRANCH   9  10
BRANCH   9  12
ATOM     12  C   UNL     1       3.670   8.154   1.598  1.00  0.00     0.089 C 
BRANCH  12  13
ATOM     13  N   UNL     1       3.296   6.903   0.900  1.00  0.00    -0.325 NA
ATOM     14  H   UNL     1       2.685   7.127   0.113  1.00  0.00     0.119 HD
ATOM     15  H   UNL     1       2.726   6.331   1.527  1.00  0.00     0.119 HD
ENDBRANCH  12  13
BRANCH  12  16
ATOM     16  C   UNL     1       2.859   8.294   2.909  1.00  0.00     0.022 C 
BRANCH  16  17
ATOM     17  C   UNL     1       3.326   7.538   4.160  1.00  0.00     0.002 C 
BRANCH  17  18
ATOM     18  C   UNL     1       2.238   7.279   5.200  1.00  0.00     0.000 C 
BRANCH  18  19
ATOM     19  C   UNL     1       1.349   6.067   4.887  1.00  0.00    -0.000 C 
BRANCH  19  20
ATOM     20  C   UNL     1      -0.157   6.330   4.960  1.00  0.00    -0.000 C 
BRANCH  20  21
ATOM     21  C   UNL     1      -0.731   6.898   3.659  1.00  0.00    -0.003 C 
ATOM     22  C   UNL     1      -0.132   6.210   2.442  1.00  0.00     0.004 C 
ENDBRANCH  20  21
ENDBRANCH  19  20
ENDBRANCH  18  19
ENDBRANCH  17  18
ENDBRANCH  16  17
ENDBRANCH  12  16
ENDBRANCH   9  12
ENDBRANCH   6   9
ENDBRANCH   3   5
ENDBRANCH   2   3
BRANCH   2  23
ATOM     23  N   UNL     1       5.241   6.238  -3.520  1.00  0.00    -0.332 N 
ATOM     24  C   UNL     1       4.102   7.139  -3.615  1.00  0.00     0.147 C 
BRANCH  23  25
ATOM     25  C   UNL     1       5.974   6.018  -4.797  1.00  0.00     0.174 C 
BRANCH  25  26
ATOM     26  C   UNL     1       6.196   7.324  -5.596  1.00  0.00     0.038 C 
BRANCH  26  27
ATOM     27  C   UNL     1       7.643   7.637  -6.038  1.00  0.00    -0.015 C 
ATOM     28  C   UNL     1       8.021   6.936  -7.342  1.00  0.00     0.007 C 
ATOM     29  C   UNL     1       7.941   9.132  -6.126  1.00  0.00     0.007 C 
ENDBRANCH  26  27
ENDBRANCH  25  26
BRANCH  25  30
ATOM     30  C   UNL     1       5.294   4.897  -5.614  1.00  0.00     0.243 C 
ATOM     31  O   UNL     1       4.680   5.131  -6.654  1.00  0.00    -0.273 OA
ATOM     32  N   UNL     1       5.416   3.631  -5.101  1.00  0.00    -0.342 N 
ATOM     33  H   UNL     1       6.057   3.499  -4.314  1.00  0.00     0.164 HD
BRANCH  32  34
ATOM     34  C   UNL     1       4.813   2.451  -5.726  1.00  0.00     0.175 C 
BRANCH  34  35
ATOM     35  C   UNL     1       3.313   2.659  -5.984  1.00  0.00     0.070 C 
BRANCH  35  36
ATOM     36  C   UNL     1       2.447   2.126  -4.865  1.00  0.00    -0.045 A 
ATOM     37  C   UNL     1       1.141   2.609  -4.697  1.00  0.00     0.007 A 
ATOM     38  C   UNL     1       2.939   1.166  -3.970  1.00  0.00     0.007 A 
ATOM     39  C   UNL     1       0.339   2.133  -3.659  1.00  0.00     0.046 A 
ATOM     40  C   UNL     1       2.138   0.690  -2.930  1.00  0.00     0.046 A 
ATOM     41  C   UNL     1       0.843   1.178  -2.785  1.00  0.00     0.115 A 
BRANCH  41  42
ATOM     42  O   UNL     1       0.029   0.741  -1.782  1.00  0.00    -0.508 OA
ATOM     43  H   UNL     1       0.414  -0.069  -1.408  1.00  0.00     0.293 HD
ENDBRANCH  41  42
ENDBRANCH  35  36
ENDBRANCH  34  35
BRANCH  34  44
ATOM     44  C   UNL     1       5.587   2.152  -7.030  1.00  0.00     0.243 C 
ATOM     45  O   UNL     1       6.793   1.927  -7.085  1.00  0.00    -0.273 OA
ATOM     46  N   UNL     1       4.820   2.289  -8.167  1.00  0.00    -0.341 N 
ATOM     47  H   UNL     1       3.853   2.592  -8.077  1.00  0.00     0.164 HD
BRANCH  46  48
ATOM     48  C   UNL     1       5.351   2.123  -9.522  1.00  0.00     0.196 C 
BRANCH  48  49
ATOM     49  C   UNL     1       4.415   1.264 -10.389  1.00  0.00     0.072 C 
BRANCH  49  50
ATOM     50  C   UNL     1       5.048  -0.043 -10.808  1.00  0.00    -0.045 A 
ATOM     51  C   UNL     1       6.399  -0.078 -11.181  1.00  0.00     0.007 A 
ATOM     52  C   UNL     1       4.298  -1.226 -10.850  1.00  0.00     0.007 A 
ATOM     53  C   UNL     1       6.990  -1.276 -11.582  1.00  0.00     0.046 A 
ATOM     54  C   UNL     1       4.890  -2.425 -11.253  1.00  0.00     0.046 A 
ATOM     55  C   UNL     1       6.232  -2.440 -11.615  1.00  0.00     0.115 A 
BRANCH  55  56
ATOM     56  O   UNL     1       6.847  -3.590 -12.014  1.00  0.00    -0.508 OA
ATOM     57  H   UNL     1       6.205  -4.124 -12.508  1.00  0.00     0.293 HD
ENDBRANCH  55  56
ENDBRANCH  49  50
ENDBRANCH  48  49
BRANCH  48  58
ATOM     58  C   UNL     1       5.521   3.507 -10.164  1.00  0.00     0.326 C 
ATOM     59  O   UNL     1       5.484   4.591  -9.605  1.00  0.00    -0.250 OA
BRANCH  58  60
ATOM     60  O   UNL     1       5.748   3.459 -11.501  1.00  0.00    -0.480 OA
ATOM     61  H   UNL     1       6.294   2.651 -11.609  1.00  0.00     0.296 HD
ENDBRANCH  58  60
ENDBRANCH  48  58
ENDBRANCH  46  48
ENDBRANCH  34  44
ENDBRANCH  32  34
ENDBRANCH  25  30
ENDBRANCH  23  25
ENDBRANCH   2  23
TORSDOF 28
ENDMDL
MODEL 27
REMARK VINA RESULT:    -5.876      3.978      5.676
REMARK INTER + INTRA:         -18.682
REMARK INTER:                 -15.359
REMARK INTRA:                  -3.323
REMARK UNBOUND:                -4.047
REMARK SMILES CCCCCCC[C@H](N)[C@H](O)C(=O)N[C@H](C)C(=O)N(C)[C@H](CC(C)C)C(=O)N[C@@H](Cc1ccc(O)cc1)C(=O)N[C@@H](Cc1ccc(O)cc1)C(=O)O
REMARK SMILES IDX 18 1 17 2 15 3 16 4 14 5 12 6 13 7 10 9 11 10 8 12 9 13 7 16
REMARK SMILES IDX 6 17 5 18 4 19 3 20 2 21 1 22 19 23 20 24 21 25 22 26 23 27
REMARK SMILES IDX 24 28 25 29 26 30 27 31 28 32 29 34 30 35 31 36 32 37 37 38
REMARK SMILES IDX 33 39 36 40 34 41 35 42 38 44 39 45 40 46 41 48 42 49 43 50
REMARK SMILES IDX 44 51 49 52 45 53 48 54 46 55 47 56 50 58 51 59 52 60
REMARK H PARENT 14 8 11 11 9 14 9 15 28 33 35 43 40 47 47 57 52 61
ROOT
ATOM      1  O   UNL     1       3.117   2.142  -9.063  1.00  0.00    -0.272 OA
ATOM      2  C   UNL     1       3.882   3.075  -9.353  1.00  0.00     0.245 C 
ENDROOT
BRANCH   2   3
ATOM      3  C   UNL     1       3.698   3.788 -10.715  1.00  0.00     0.168 C 
ATOM      4  C   UNL     1       4.964   3.683 -11.558  1.00  0.00     0.041 C 
BRANCH   3   5
ATOM      5  N   UNL     1       2.516   3.385 -11.461  1.00  0.00    -0.342 N 
ATOM      6  C   UNL     1       1.771   4.289 -12.189  1.00  0.00     0.251 C 
ATOM      7  O   UNL     1       2.018   5.490 -12.232  1.00  0.00    -0.272 OA
ATOM      8  H   UNL     1       2.192   2.421 -11.473  1.00  0.00     0.164 HD
BRANCH   6   9
ATOM      9  C   UNL     1       0.657   3.618 -13.008  1.00  0.00     0.219 C 
BRANCH   9  10
ATOM     10  O   UNL     1       0.939   2.246 -13.306  1.00  0.00    -0.382 OA
ATOM     11  H   UNL     1       1.128   1.852 -12.425  1.00  0.00     0.211 HD
ENDBRANCH   9  10
BRANCH   9  12
ATOM     12  C   UNL     1      -0.746   3.764 -12.362  1.00  0.00     0.089 C 
BRANCH  12  13
ATOM     13  N   UNL     1      -0.569   4.174 -10.950  1.00  0.00    -0.325 NA
ATOM     14  H   UNL     1      -1.460   4.516 -10.585  1.00  0.00     0.119 HD
ATOM     15  H   UNL     1       0.060   4.980 -10.915  1.00  0.00     0.119 HD
ENDBRANCH  12  13
BRANCH  12  16
ATOM     16  C   UNL     1      -1.725   4.726 -13.076  1.00  0.00     0.022 C 
BRANCH  16  17
ATOM     17  C   UNL     1      -2.386   4.281 -14.388  1.00  0.00     0.002 C 
BRANCH  17  18
ATOM     18  C   UNL     1      -3.752   3.616 -14.228  1.00  0.00     0.000 C 
BRANCH  18  19
ATOM     19  C   UNL     1      -4.668   4.309 -13.211  1.00  0.00    -0.000 C 
BRANCH  19  20
ATOM     20  C   UNL     1      -5.940   3.536 -12.851  1.00  0.00    -0.000 C 
BRANCH  20  21
ATOM     21  C   UNL     1      -6.977   4.395 -12.122  1.00  0.00    -0.003 C 
ATOM     22  C   UNL     1      -6.351   5.661 -11.558  1.00  0.00     0.004 C 
ENDBRANCH  20  21
ENDBRANCH  19  20
ENDBRANCH  18  19
ENDBRANCH  17  18
ENDBRANCH  16  17
ENDBRANCH  12  16
ENDBRANCH   9  12
ENDBRANCH   6   9
ENDBRANCH   3   5
ENDBRANCH   2   3
BRANCH   2  23
ATOM     23  N   UNL     1       4.798   3.539  -8.415  1.00  0.00    -0.332 N 
ATOM     24  C   UNL     1       5.148   4.939  -8.226  1.00  0.00     0.147 C 
BRANCH  23  25
ATOM     25  C   UNL     1       5.404   2.603  -7.429  1.00  0.00     0.174 C 
BRANCH  25  26
ATOM     26  C   UNL     1       5.536   3.220  -6.016  1.00  0.00     0.038 C 
BRANCH  26  27
ATOM     27  C   UNL     1       4.443   2.855  -4.988  1.00  0.00    -0.015 C 
ATOM     28  C   UNL     1       3.427   1.857  -5.544  1.00  0.00     0.007 C 
ATOM     29  C   UNL     1       5.002   2.365  -3.654  1.00  0.00     0.007 C 
ENDBRANCH  26  27
ENDBRANCH  25  26
BRANCH  25  30
ATOM     30  C   UNL     1       6.728   2.029  -7.983  1.00  0.00     0.243 C 
ATOM     31  O   UNL     1       7.554   1.481  -7.255  1.00  0.00    -0.273 OA
ATOM     32  N   UNL     1       6.919   2.176  -9.333  1.00  0.00    -0.342 N 
ATOM     33  H   UNL     1       6.129   2.513  -9.889  1.00  0.00     0.164 HD
BRANCH  32  34
ATOM     34  C   UNL     1       8.126   1.718 -10.026  1.00  0.00     0.175 C 
BRANCH  34  35
ATOM     35  C   UNL     1       7.785   1.090 -11.386  1.00  0.00     0.070 C 
BRANCH  35  36
ATOM     36  C   UNL     1       6.801  -0.053 -11.272  1.00  0.00    -0.045 A 
ATOM     37  C   UNL     1       7.184  -1.349 -11.649  1.00  0.00     0.007 A 
ATOM     38  C   UNL     1       5.495   0.165 -10.814  1.00  0.00     0.007 A 
ATOM     39  C   UNL     1       6.280  -2.407 -11.560  1.00  0.00     0.046 A 
ATOM     40  C   UNL     1       4.588  -0.893 -10.726  1.00  0.00     0.046 A 
ATOM     41  C   UNL     1       4.990  -2.172 -11.099  1.00  0.00     0.115 A 
BRANCH  41  42
ATOM     42  O   UNL     1       4.136  -3.232 -11.031  1.00  0.00    -0.508 OA
ATOM     43  H   UNL     1       3.905  -3.497 -11.937  1.00  0.00     0.293 HD
ENDBRANCH  41  42
ENDBRANCH  35  36
ENDBRANCH  34  35
BRANCH  34  44
ATOM     44  C   UNL     1       9.082   2.923 -10.171  1.00  0.00     0.243 C 
ATOM     45  O   UNL     1      10.009   3.170  -9.403  1.00  0.00    -0.273 OA
ATOM     46  N   UNL     1       8.723   3.791 -11.180  1.00  0.00    -0.341 N 
ATOM     47  H   UNL     1       7.878   3.604 -11.715  1.00  0.00     0.164 HD
BRANCH  46  48
ATOM     48  C   UNL     1       9.438   5.037 -11.464  1.00  0.00     0.196 C 
BRANCH  48  49
ATOM     49  C   UNL     1       9.839   5.128 -12.946  1.00  0.00     0.072 C 
BRANCH  49  50
ATOM     50  C   UNL     1       9.973   3.770 -13.596  1.00  0.00    -0.045 A 
ATOM     51  C   UNL     1       8.973   3.309 -14.464  1.00  0.00     0.007 A 
ATOM     52  C   UNL     1      11.076   2.949 -13.330  1.00  0.00     0.007 A 
ATOM     53  C   UNL     1       9.079   2.052 -15.060  1.00  0.00     0.046 A 
ATOM     54  C   UNL     1      11.182   1.690 -13.926  1.00  0.00     0.046 A 
ATOM     55  C   UNL     1      10.182   1.253 -14.787  1.00  0.00     0.115 A 
BRANCH  55  56
ATOM     56  O   UNL     1      10.247   0.031 -15.388  1.00  0.00    -0.508 OA
ATOM     57  H   UNL     1       9.422  -0.114 -15.878  1.00  0.00     0.293 HD
ENDBRANCH  55  56
ENDBRANCH  49  50
ENDBRANCH  48  49
BRANCH  48  58
ATOM     58  C   UNL     1       8.534   6.224 -11.102  1.00  0.00     0.326 C 
ATOM     59  O   UNL     1       7.314   6.251 -11.101  1.00  0.00    -0.250 OA
BRANCH  58  60
ATOM     60  O   UNL     1       9.221   7.336 -10.736  1.00  0.00    -0.480 OA
ATOM     61  H   UNL     1      10.114   6.989 -10.520  1.00  0.00     0.296 HD
ENDBRANCH  58  60
ENDBRANCH  48  58
ENDBRANCH  46  48
ENDBRANCH  34  44
ENDBRANCH  32  34
ENDBRANCH  25  30
ENDBRANCH  23  25
ENDBRANCH   2  23
TORSDOF 28
ENDMDL
MODEL 28
REMARK VINA RESULT:    -5.875      3.299      9.153
REMARK INTER + INTRA:         -18.680
REMARK INTER:                 -12.619
REMARK INTRA:                  -6.061
REMARK UNBOUND:                -4.047
REMARK SMILES CCCCCCC[C@H](N)[C@H](O)C(=O)N[C@H](C)C(=O)N(C)[C@H](CC(C)C)C(=O)N[C@@H](Cc1ccc(O)cc1)C(=O)N[C@@H](Cc1ccc(O)cc1)C(=O)O
REMARK SMILES IDX 18 1 17 2 15 3 16 4 14 5 12 6 13 7 10 9 11 10 8 12 9 13 7 16
REMARK SMILES IDX 6 17 5 18 4 19 3 20 2 21 1 22 19 23 20 24 21 25 22 26 23 27
REMARK SMILES IDX 24 28 25 29 26 30 27 31 28 32 29 34 30 35 31 36 32 37 37 38
REMARK SMILES IDX 33 39 36 40 34 41 35 42 38 44 39 45 40 46 41 48 42 49 43 50
REMARK SMILES IDX 44 51 49 52 45 53 48 54 46 55 47 56 50 58 51 59 52 60
REMARK H PARENT 14 8 11 11 9 14 9 15 28 33 35 43 40 47 47 57 52 61
ROOT
ATOM      1  O   UNL     1       6.473   8.587  -8.431  1.00  0.00    -0.272 OA
ATOM      2  C   UNL     1       5.944   7.569  -7.960  1.00  0.00     0.245 C 
ENDROOT
BRANCH   2   3
ATOM      3  C   UNL     1       6.829   6.569  -7.175  1.00  0.00     0.168 C 
ATOM      4  C   UNL     1       6.333   6.418  -5.741  1.00  0.00     0.041 C 
BRANCH   3   5
ATOM      5  N   UNL     1       7.017   5.280  -7.822  1.00  0.00    -0.342 N 
ATOM      6  C   UNL     1       8.159   4.985  -8.537  1.00  0.00     0.251 C 
ATOM      7  O   UNL     1       9.071   5.785  -8.716  1.00  0.00    -0.272 OA
ATOM      8  H   UNL     1       6.314   4.547  -7.772  1.00  0.00     0.164 HD
BRANCH   6   9
ATOM      9  C   UNL     1       8.203   3.523  -9.009  1.00  0.00     0.219 C 
BRANCH   9  10
ATOM     10  O   UNL     1       7.298   2.681  -8.285  1.00  0.00    -0.382 OA
ATOM     11  H   UNL     1       7.700   1.788  -8.362  1.00  0.00     0.211 HD
ENDBRANCH   9  10
BRANCH   9  12
ATOM     12  C   UNL     1       7.992   3.370 -10.538  1.00  0.00     0.089 C 
BRANCH  12  13
ATOM     13  N   UNL     1       7.444   4.641 -11.064  1.00  0.00    -0.325 NA
ATOM     14  H   UNL     1       7.620   4.693 -12.069  1.00  0.00     0.119 HD
ATOM     15  H   UNL     1       7.970   5.420 -10.660  1.00  0.00     0.119 HD
ENDBRANCH  12  13
BRANCH  12  16
ATOM     16  C   UNL     1       9.238   2.950 -11.355  1.00  0.00     0.022 C 
BRANCH  16  17
ATOM     17  C   UNL     1       9.139   1.747 -12.303  1.00  0.00     0.002 C 
BRANCH  17  18
ATOM     18  C   UNL     1       7.732   1.179 -12.479  1.00  0.00     0.000 C 
BRANCH  18  19
ATOM     19  C   UNL     1       7.660  -0.351 -12.387  1.00  0.00    -0.000 C 
BRANCH  19  20
ATOM     20  C   UNL     1       6.871  -0.894 -11.192  1.00  0.00    -0.000 C 
BRANCH  20  21
ATOM     21  C   UNL     1       6.028   0.177 -10.494  1.00  0.00    -0.003 C 
ATOM     22  C   UNL     1       4.549  -0.178 -10.521  1.00  0.00     0.004 C 
ENDBRANCH  20  21
ENDBRANCH  19  20
ENDBRANCH  18  19
ENDBRANCH  17  18
ENDBRANCH  16  17
ENDBRANCH  12  16
ENDBRANCH   9  12
ENDBRANCH   6   9
ENDBRANCH   3   5
ENDBRANCH   2   3
BRANCH   2  23
ATOM     23  N   UNL     1       4.565   7.403  -8.037  1.00  0.00    -0.332 N 
ATOM     24  C   UNL     1       3.601   8.108  -7.207  1.00  0.00     0.147 C 
BRANCH  23  25
ATOM     25  C   UNL     1       3.970   6.552  -9.104  1.00  0.00     0.174 C 
BRANCH  25  26
ATOM     26  C   UNL     1       2.905   7.296  -9.944  1.00  0.00     0.038 C 
BRANCH  26  27
ATOM     27  C   UNL     1       2.879   7.001 -11.461  1.00  0.00    -0.015 C 
ATOM     28  C   UNL     1       3.993   6.047 -11.890  1.00  0.00     0.007 C 
ATOM     29  C   UNL     1       1.524   6.504 -11.959  1.00  0.00     0.007 C 
ENDBRANCH  26  27
ENDBRANCH  25  26
BRANCH  25  30
ATOM     30  C   UNL     1       3.466   5.219  -8.503  1.00  0.00     0.243 C 
ATOM     31  O   UNL     1       4.242   4.354  -8.099  1.00  0.00    -0.273 OA
ATOM     32  N   UNL     1       2.104   5.067  -8.456  1.00  0.00    -0.342 N 
ATOM     33  H   UNL     1       1.528   5.883  -8.677  1.00  0.00     0.164 HD
BRANCH  32  34
ATOM     34  C   UNL     1       1.450   3.859  -7.944  1.00  0.00     0.175 C 
BRANCH  34  35
ATOM     35  C   UNL     1       1.805   2.629  -8.793  1.00  0.00     0.070 C 
BRANCH  35  36
ATOM     36  C   UNL     1       1.450   2.804 -10.253  1.00  0.00    -0.045 A 
ATOM     37  C   UNL     1       0.116   3.025 -10.629  1.00  0.00     0.007 A 
ATOM     38  C   UNL     1       2.434   2.726 -11.246  1.00  0.00     0.007 A 
ATOM     39  C   UNL     1      -0.223   3.174 -11.974  1.00  0.00     0.046 A 
ATOM     40  C   UNL     1       2.095   2.873 -12.594  1.00  0.00     0.046 A 
ATOM     41  C   UNL     1       0.768   3.098 -12.945  1.00  0.00     0.115 A 
BRANCH  41  42
ATOM     42  O   UNL     1       0.394   3.246 -14.248  1.00  0.00    -0.508 OA
ATOM     43  H   UNL     1      -0.076   2.441 -14.523  1.00  0.00     0.293 HD
ENDBRANCH  41  42
ENDBRANCH  35  36
ENDBRANCH  34  35
BRANCH  34  44
ATOM     44  C   UNL     1       1.865   3.680  -6.466  1.00  0.00     0.243 C 
ATOM     45  O   UNL     1       1.639   4.496  -5.578  1.00  0.00    -0.273 OA
ATOM     46  N   UNL     1       2.641   2.561  -6.246  1.00  0.00    -0.341 N 
ATOM     47  H   UNL     1       2.900   1.977  -7.037  1.00  0.00     0.164 HD
BRANCH  46  48
ATOM     48  C   UNL     1       3.209   2.219  -4.940  1.00  0.00     0.196 C 
BRANCH  48  49
ATOM     49  C   UNL     1       2.696   0.855  -4.447  1.00  0.00     0.072 C 
BRANCH  49  50
ATOM     50  C   UNL     1       1.267   0.587  -4.862  1.00  0.00    -0.045 A 
ATOM     51  C   UNL     1       0.998  -0.328  -5.890  1.00  0.00     0.007 A 
ATOM     52  C   UNL     1       0.201   1.255  -4.247  1.00  0.00     0.007 A 
ATOM     53  C   UNL     1      -0.316  -0.574  -6.290  1.00  0.00     0.046 A 
ATOM     54  C   UNL     1      -1.115   1.010  -4.649  1.00  0.00     0.046 A 
ATOM     55  C   UNL     1      -1.361   0.095  -5.667  1.00  0.00     0.115 A 
BRANCH  55  56
ATOM     56  O   UNL     1      -2.630  -0.172  -6.088  1.00  0.00    -0.508 OA
ATOM     57  H   UNL     1      -3.244   0.386  -5.585  1.00  0.00     0.293 HD
ENDBRANCH  55  56
ENDBRANCH  49  50
ENDBRANCH  48  49
BRANCH  48  58
ATOM     58  C   UNL     1       4.739   2.182  -5.056  1.00  0.00     0.326 C 
ATOM     59  O   UNL     1       5.547   2.100  -4.145  1.00  0.00    -0.250 OA
BRANCH  58  60
ATOM     60  O   UNL     1       5.187   2.236  -6.335  1.00  0.00    -0.480 OA
ATOM     61  H   UNL     1       4.958   3.148  -6.617  1.00  0.00     0.296 HD
ENDBRANCH  58  60
ENDBRANCH  48  58
ENDBRANCH  46  48
ENDBRANCH  34  44
ENDBRANCH  32  34
ENDBRANCH  25  30
ENDBRANCH  23  25
ENDBRANCH   2  23
TORSDOF 28
ENDMDL
MODEL 29
REMARK VINA RESULT:    -5.874     15.109     19.639
REMARK INTER + INTRA:         -18.676
REMARK INTER:                 -14.631
REMARK INTRA:                  -4.046
REMARK UNBOUND:                -4.047
REMARK SMILES CCCCCCC[C@H](N)[C@H](O)C(=O)N[C@H](C)C(=O)N(C)[C@H](CC(C)C)C(=O)N[C@@H](Cc1ccc(O)cc1)C(=O)N[C@@H](Cc1ccc(O)cc1)C(=O)O
REMARK SMILES IDX 18 1 17 2 15 3 16 4 14 5 12 6 13 7 10 9 11 10 8 12 9 13 7 16
REMARK SMILES IDX 6 17 5 18 4 19 3 20 2 21 1 22 19 23 20 24 21 25 22 26 23 27
REMARK SMILES IDX 24 28 25 29 26 30 27 31 28 32 29 34 30 35 31 36 32 37 37 38
REMARK SMILES IDX 33 39 36 40 34 41 35 42 38 44 39 45 40 46 41 48 42 49 43 50
REMARK SMILES IDX 44 51 49 52 45 53 48 54 46 55 47 56 50 58 51 59 52 60
REMARK H PARENT 14 8 11 11 9 14 9 15 28 33 35 43 40 47 47 57 52 61
ROOT
ATOM      1  O   UNL     1      -8.360   6.274   3.590  1.00  0.00    -0.272 OA
ATOM      2  C   UNL     1      -9.366   5.864   4.187  1.00  0.00     0.245 C 
ENDROOT
BRANCH   2   3
ATOM      3  C   UNL     1     -10.036   4.556   3.696  1.00  0.00     0.168 C 
ATOM      4  C   UNL     1     -10.381   3.649   4.873  1.00  0.00     0.041 C 
BRANCH   3   5
ATOM      5  N   UNL     1     -11.173   4.747   2.809  1.00  0.00    -0.342 N 
ATOM      6  C   UNL     1     -11.059   4.615   1.441  1.00  0.00     0.251 C 
ATOM      7  O   UNL     1     -10.000   4.372   0.871  1.00  0.00    -0.272 OA
ATOM      8  H   UNL     1     -12.096   4.987   3.164  1.00  0.00     0.164 HD
BRANCH   6   9
ATOM      9  C   UNL     1     -12.411   4.720   0.719  1.00  0.00     0.219 C 
BRANCH   9  10
ATOM     10  O   UNL     1     -13.517   4.385   1.566  1.00  0.00    -0.382 OA
ATOM     11  H   UNL     1     -14.098   5.176   1.511  1.00  0.00     0.211 HD
ENDBRANCH   9  10
BRANCH   9  12
ATOM     12  C   UNL     1     -12.635   6.097   0.040  1.00  0.00     0.089 C 
BRANCH  12  13
ATOM     13  N   UNL     1     -11.452   6.402  -0.797  1.00  0.00    -0.325 NA
ATOM     14  H   UNL     1     -10.603   6.174  -0.276  1.00  0.00     0.119 HD
ATOM     15  H   UNL     1     -11.407   7.412  -0.951  1.00  0.00     0.119 HD
ENDBRANCH  12  13
BRANCH  12  16
ATOM     16  C   UNL     1     -13.929   6.239  -0.796  1.00  0.00     0.022 C 
BRANCH  16  17
ATOM     17  C   UNL     1     -14.301   7.613  -1.369  1.00  0.00     0.002 C 
BRANCH  17  18
ATOM     18  C   UNL     1     -14.439   7.662  -2.889  1.00  0.00     0.000 C 
BRANCH  18  19
ATOM     19  C   UNL     1     -13.858   6.438  -3.608  1.00  0.00    -0.000 C 
BRANCH  19  20
ATOM     20  C   UNL     1     -14.863   5.630  -4.433  1.00  0.00    -0.000 C 
BRANCH  20  21
ATOM     21  C   UNL     1     -14.201   4.776  -5.518  1.00  0.00    -0.003 C 
ATOM     22  C   UNL     1     -13.503   3.564  -4.921  1.00  0.00     0.004 C 
ENDBRANCH  20  21
ENDBRANCH  19  20
ENDBRANCH  18  19
ENDBRANCH  17  18
ENDBRANCH  16  17
ENDBRANCH  12  16
ENDBRANCH   9  12
ENDBRANCH   6   9
ENDBRANCH   3   5
ENDBRANCH   2   3
BRANCH   2  23
ATOM     23  N   UNL     1      -9.798   6.504   5.343  1.00  0.00    -0.332 N 
ATOM     24  C   UNL     1     -11.094   7.150   5.495  1.00  0.00     0.147 C 
BRANCH  23  25
ATOM     25  C   UNL     1      -8.976   6.451   6.583  1.00  0.00     0.174 C 
BRANCH  25  26
ATOM     26  C   UNL     1      -9.826   6.277   7.863  1.00  0.00     0.038 C 
BRANCH  26  27
ATOM     27  C   UNL     1      -9.091   5.784   9.130  1.00  0.00    -0.015 C 
ATOM     28  C   UNL     1     -10.052   5.456  10.272  1.00  0.00     0.007 C 
ATOM     29  C   UNL     1      -8.148   4.612   8.868  1.00  0.00     0.007 C 
ENDBRANCH  26  27
ENDBRANCH  25  26
BRANCH  25  30
ATOM     30  C   UNL     1      -8.015   7.661   6.635  1.00  0.00     0.243 C 
ATOM     31  O   UNL     1      -8.335   8.765   6.197  1.00  0.00    -0.273 OA
ATOM     32  N   UNL     1      -6.787   7.420   7.195  1.00  0.00    -0.342 N 
ATOM     33  H   UNL     1      -6.648   6.520   7.662  1.00  0.00     0.164 HD
BRANCH  32  34
ATOM     34  C   UNL     1      -5.741   8.440   7.304  1.00  0.00     0.175 C 
BRANCH  34  35
ATOM     35  C   UNL     1      -4.939   8.282   8.605  1.00  0.00     0.070 C 
BRANCH  35  36
ATOM     36  C   UNL     1      -5.816   7.989   9.801  1.00  0.00    -0.045 A 
ATOM     37  C   UNL     1      -5.585   6.844  10.578  1.00  0.00     0.007 A 
ATOM     38  C   UNL     1      -6.880   8.837  10.136  1.00  0.00     0.007 A 
ATOM     39  C   UNL     1      -6.398   6.558  11.675  1.00  0.00     0.046 A 
ATOM     40  C   UNL     1      -7.696   8.551  11.234  1.00  0.00     0.046 A 
ATOM     41  C   UNL     1      -7.446   7.413  11.995  1.00  0.00     0.115 A 
BRANCH  41  42
ATOM     42  O   UNL     1      -8.218   7.097  13.072  1.00  0.00    -0.508 OA
ATOM     43  H   UNL     1      -8.149   6.140  13.226  1.00  0.00     0.293 HD
ENDBRANCH  41  42
ENDBRANCH  35  36
ENDBRANCH  34  35
BRANCH  34  44
ATOM     44  C   UNL     1      -4.838   8.336   6.053  1.00  0.00     0.243 C 
ATOM     45  O   UNL     1      -4.712   9.223   5.213  1.00  0.00    -0.273 OA
ATOM     46  N   UNL     1      -4.274   7.089   5.886  1.00  0.00    -0.341 N 
ATOM     47  H   UNL     1      -4.502   6.351   6.547  1.00  0.00     0.164 HD
BRANCH  46  48
ATOM     48  C   UNL     1      -3.436   6.731   4.739  1.00  0.00     0.196 C 
BRANCH  48  49
ATOM     49  C   UNL     1      -2.279   5.808   5.157  1.00  0.00     0.072 C 
BRANCH  49  50
ATOM     50  C   UNL     1      -0.945   6.519   5.174  1.00  0.00    -0.045 A 
ATOM     51  C   UNL     1      -0.897   7.913   5.314  1.00  0.00     0.007 A 
ATOM     52  C   UNL     1       0.253   5.806   5.031  1.00  0.00     0.007 A 
ATOM     53  C   UNL     1       0.328   8.581   5.318  1.00  0.00     0.046 A 
ATOM     54  C   UNL     1       1.479   6.475   5.034  1.00  0.00     0.046 A 
ATOM     55  C   UNL     1       1.506   7.858   5.178  1.00  0.00     0.115 A 
BRANCH  55  56
ATOM     56  O   UNL     1       2.681   8.548   5.185  1.00  0.00    -0.508 OA
ATOM     57  H   UNL     1       3.308   8.091   4.602  1.00  0.00     0.293 HD
ENDBRANCH  55  56
ENDBRANCH  49  50
ENDBRANCH  48  49
BRANCH  48  58
ATOM     58  C   UNL     1      -4.304   6.026   3.688  1.00  0.00     0.326 C 
ATOM     59  O   UNL     1      -4.002   5.059   3.009  1.00  0.00    -0.250 OA
BRANCH  58  60
ATOM     60  O   UNL     1      -5.538   6.572   3.551  1.00  0.00    -0.480 OA
ATOM     61  H   UNL     1      -5.936   6.051   2.820  1.00  0.00     0.296 HD
ENDBRANCH  58  60
ENDBRANCH  48  58
ENDBRANCH  46  48
ENDBRANCH  34  44
ENDBRANCH  32  34
ENDBRANCH  25  30
ENDBRANCH  23  25
ENDBRANCH   2  23
TORSDOF 28
ENDMDL
MODEL 30
REMARK VINA RESULT:    -5.849      6.248     12.150
REMARK INTER + INTRA:         -18.614
REMARK INTER:                 -13.079
REMARK INTRA:                  -5.535
REMARK UNBOUND:                -4.047
REMARK SMILES CCCCCCC[C@H](N)[C@H](O)C(=O)N[C@H](C)C(=O)N(C)[C@H](CC(C)C)C(=O)N[C@@H](Cc1ccc(O)cc1)C(=O)N[C@@H](Cc1ccc(O)cc1)C(=O)O
REMARK SMILES IDX 18 1 17 2 15 3 16 4 14 5 12 6 13 7 10 9 11 10 8 12 9 13 7 16
REMARK SMILES IDX 6 17 5 18 4 19 3 20 2 21 1 22 19 23 20 24 21 25 22 26 23 27
REMARK SMILES IDX 24 28 25 29 26 30 27 31 28 32 29 34 30 35 31 36 32 37 37 38
REMARK SMILES IDX 33 39 36 40 34 41 35 42 38 44 39 45 40 46 41 48 42 49 43 50
REMARK SMILES IDX 44 51 49 52 45 53 48 54 46 55 47 56 50 58 51 59 52 60
REMARK H PARENT 14 8 11 11 9 14 9 15 28 33 35 43 40 47 47 57 52 61
ROOT
ATOM      1  O   UNL     1      -1.173   6.152  -3.431  1.00  0.00    -0.272 OA
ATOM      2  C   UNL     1      -1.882   5.764  -2.491  1.00  0.00     0.245 C 
ENDROOT
BRANCH   2   3
ATOM      3  C   UNL     1      -2.507   4.348  -2.569  1.00  0.00     0.168 C 
ATOM      4  C   UNL     1      -3.803   4.371  -3.372  1.00  0.00     0.041 C 
BRANCH   3   5
ATOM      5  N   UNL     1      -1.602   3.306  -3.028  1.00  0.00    -0.342 N 
ATOM      6  C   UNL     1      -1.270   2.228  -2.235  1.00  0.00     0.251 C 
ATOM      7  O   UNL     1      -1.669   2.087  -1.084  1.00  0.00    -0.272 OA
ATOM      8  H   UNL     1      -1.180   3.332  -3.953  1.00  0.00     0.164 HD
BRANCH   6   9
ATOM      9  C   UNL     1      -0.418   1.185  -2.976  1.00  0.00     0.219 C 
BRANCH   9  10
ATOM     10  O   UNL     1      -0.939   0.865  -4.271  1.00  0.00    -0.382 OA
ATOM     11  H   UNL     1      -1.101   1.744  -4.679  1.00  0.00     0.211 HD
ENDBRANCH   9  10
BRANCH   9  12
ATOM     12  C   UNL     1       1.081   1.576  -3.066  1.00  0.00     0.089 C 
BRANCH  12  13
ATOM     13  N   UNL     1       1.413   2.427  -1.901  1.00  0.00    -0.325 NA
ATOM     14  H   UNL     1       0.902   3.310  -1.974  1.00  0.00     0.119 HD
ATOM     15  H   UNL     1       2.401   2.686  -1.952  1.00  0.00     0.119 HD
ENDBRANCH  12  13
BRANCH  12  16
ATOM     16  C   UNL     1       2.083   0.401  -3.169  1.00  0.00     0.022 C 
BRANCH  16  17
ATOM     17  C   UNL     1       3.183   0.263  -2.108  1.00  0.00     0.002 C 
BRANCH  17  18
ATOM     18  C   UNL     1       4.588   0.621  -2.587  1.00  0.00     0.000 C 
BRANCH  18  19
ATOM     19  C   UNL     1       4.819   2.127  -2.776  1.00  0.00    -0.000 C 
BRANCH  19  20
ATOM     20  C   UNL     1       5.434   2.526  -4.120  1.00  0.00    -0.000 C 
BRANCH  20  21
ATOM     21  C   UNL     1       4.503   2.265  -5.307  1.00  0.00    -0.003 C 
ATOM     22  C   UNL     1       3.407   3.316  -5.394  1.00  0.00     0.004 C 
ENDBRANCH  20  21
ENDBRANCH  19  20
ENDBRANCH  18  19
ENDBRANCH  17  18
ENDBRANCH  16  17
ENDBRANCH  12  16
ENDBRANCH   9  12
ENDBRANCH   6   9
ENDBRANCH   3   5
ENDBRANCH   2   3
BRANCH   2  23
ATOM     23  N   UNL     1      -2.005   6.542  -1.345  1.00  0.00    -0.332 N 
ATOM     24  C   UNL     1      -2.688   7.827  -1.288  1.00  0.00     0.147 C 
BRANCH  23  25
ATOM     25  C   UNL     1      -1.535   6.024  -0.031  1.00  0.00     0.174 C 
BRANCH  25  26
ATOM     26  C   UNL     1      -1.967   6.915   1.157  1.00  0.00     0.038 C 
BRANCH  26  27
ATOM     27  C   UNL     1      -2.549   6.197   2.395  1.00  0.00    -0.015 C 
ATOM     28  C   UNL     1      -3.990   6.613   2.688  1.00  0.00     0.007 C 
ATOM     29  C   UNL     1      -2.431   4.677   2.326  1.00  0.00     0.007 C 
ENDBRANCH  26  27
ENDBRANCH  25  26
BRANCH  25  30
ATOM     30  C   UNL     1      -0.014   5.749  -0.081  1.00  0.00     0.243 C 
ATOM     31  O   UNL     1       0.442   4.608  -0.028  1.00  0.00    -0.273 OA
ATOM     32  N   UNL     1       0.786   6.858  -0.181  1.00  0.00    -0.342 N 
ATOM     33  H   UNL     1       0.331   7.756  -0.362  1.00  0.00     0.164 HD
BRANCH  32  34
ATOM     34  C   UNL     1       2.250   6.790  -0.214  1.00  0.00     0.175 C 
BRANCH  34  35
ATOM     35  C   UNL     1       2.803   7.300  -1.553  1.00  0.00     0.070 C 
BRANCH  35  36
ATOM     36  C   UNL     1       4.302   7.136  -1.667  1.00  0.00    -0.045 A 
ATOM     37  C   UNL     1       5.108   8.245  -1.969  1.00  0.00     0.007 A 
ATOM     38  C   UNL     1       4.904   5.883  -1.496  1.00  0.00     0.007 A 
ATOM     39  C   UNL     1       6.490   8.101  -2.090  1.00  0.00     0.046 A 
ATOM     40  C   UNL     1       6.288   5.738  -1.618  1.00  0.00     0.046 A 
ATOM     41  C   UNL     1       7.069   6.850  -1.913  1.00  0.00     0.115 A 
BRANCH  41  42
ATOM     42  O   UNL     1       8.423   6.752  -2.042  1.00  0.00    -0.508 OA
ATOM     43  H   UNL     1       8.623   6.486  -2.955  1.00  0.00     0.293 HD
ENDBRANCH  41  42
ENDBRANCH  35  36
ENDBRANCH  34  35
BRANCH  34  44
ATOM     44  C   UNL     1       2.793   7.604   0.983  1.00  0.00     0.243 C 
ATOM     45  O   UNL     1       2.636   8.813   1.128  1.00  0.00    -0.273 OA
ATOM     46  N   UNL     1       3.598   6.868   1.826  1.00  0.00    -0.341 N 
ATOM     47  H   UNL     1       3.794   5.896   1.599  1.00  0.00     0.164 HD
BRANCH  46  48
ATOM     48  C   UNL     1       4.281   7.439   2.990  1.00  0.00     0.196 C 
BRANCH  48  49
ATOM     49  C   UNL     1       3.810   6.777   4.296  1.00  0.00     0.072 C 
BRANCH  49  50
ATOM     50  C   UNL     1       2.333   6.979   4.551  1.00  0.00    -0.045 A 
ATOM     51  C   UNL     1       1.811   8.278   4.641  1.00  0.00     0.007 A 
ATOM     52  C   UNL     1       1.474   5.886   4.721  1.00  0.00     0.007 A 
ATOM     53  C   UNL     1       0.453   8.477   4.889  1.00  0.00     0.046 A 
ATOM     54  C   UNL     1       0.115   6.085   4.970  1.00  0.00     0.046 A 
ATOM     55  C   UNL     1      -0.385   7.381   5.051  1.00  0.00     0.115 A 
BRANCH  55  56
ATOM     56  O   UNL     1      -1.705   7.618   5.294  1.00  0.00    -0.508 OA
ATOM     57  H   UNL     1      -2.221   6.880   4.932  1.00  0.00     0.293 HD
ENDBRANCH  55  56
ENDBRANCH  49  50
ENDBRANCH  48  49
BRANCH  48  58
ATOM     58  C   UNL     1       5.794   7.239   2.828  1.00  0.00     0.326 C 
ATOM     59  O   UNL     1       6.561   6.724   3.626  1.00  0.00    -0.250 OA
BRANCH  58  60
ATOM     60  O   UNL     1       6.276   7.691   1.643  1.00  0.00    -0.480 OA
ATOM     61  H   UNL     1       5.861   7.090   0.987  1.00  0.00     0.296 HD
ENDBRANCH  58  60
ENDBRANCH  48  58
ENDBRANCH  46  48
ENDBRANCH  34  44
ENDBRANCH  32  34
ENDBRANCH  25  30
ENDBRANCH  23  25
ENDBRANCH   2  23
TORSDOF 28
ENDMDL
MODEL 31
REMARK VINA RESULT:    -5.813      2.283      4.500
REMARK INTER + INTRA:         -18.525
REMARK INTER:                 -15.368
REMARK INTRA:                  -3.156
REMARK UNBOUND:                -4.047
REMARK SMILES CCCCCCC[C@H](N)[C@H](O)C(=O)N[C@H](C)C(=O)N(C)[C@H](CC(C)C)C(=O)N[C@@H](Cc1ccc(O)cc1)C(=O)N[C@@H](Cc1ccc(O)cc1)C(=O)O
REMARK SMILES IDX 18 1 17 2 15 3 16 4 14 5 12 6 13 7 10 9 11 10 8 12 9 13 7 16
REMARK SMILES IDX 6 17 5 18 4 19 3 20 2 21 1 22 19 23 20 24 21 25 22 26 23 27
REMARK SMILES IDX 24 28 25 29 26 30 27 31 28 32 29 34 30 35 31 36 32 37 37 38
REMARK SMILES IDX 33 39 36 40 34 41 35 42 38 44 39 45 40 46 41 48 42 49 43 50
REMARK SMILES IDX 44 51 49 52 45 53 48 54 46 55 47 56 50 58 51 59 52 60
REMARK H PARENT 14 8 11 11 9 14 9 15 28 33 35 43 40 47 47 57 52 61
ROOT
ATOM      1  O   UNL     1       1.921   1.058  -8.153  1.00  0.00    -0.272 OA
ATOM      2  C   UNL     1       1.697   1.374  -6.975  1.00  0.00     0.245 C 
ENDROOT
BRANCH   2   3
ATOM      3  C   UNL     1       0.791   0.452  -6.121  1.00  0.00     0.168 C 
ATOM      4  C   UNL     1       1.181  -1.011  -6.303  1.00  0.00     0.041 C 
BRANCH   3   5
ATOM      5  N   UNL     1       0.698   0.818  -4.716  1.00  0.00    -0.342 N 
ATOM      6  C   UNL     1      -0.514   0.912  -4.067  1.00  0.00     0.251 C 
ATOM      7  O   UNL     1      -1.594   0.739  -4.622  1.00  0.00    -0.272 OA
ATOM      8  H   UNL     1       1.526   1.019  -4.159  1.00  0.00     0.164 HD
BRANCH   6   9
ATOM      9  C   UNL     1      -0.362   1.170  -2.559  1.00  0.00     0.219 C 
BRANCH   9  10
ATOM     10  O   UNL     1       0.471   2.300  -2.273  1.00  0.00    -0.382 OA
ATOM     11  H   UNL     1       1.342   1.898  -2.064  1.00  0.00     0.211 HD
ENDBRANCH   9  10
BRANCH   9  12
ATOM     12  C   UNL     1      -1.722   1.288  -1.822  1.00  0.00     0.089 C 
BRANCH  12  13
ATOM     13  N   UNL     1      -1.736   0.310  -0.710  1.00  0.00    -0.325 NA
ATOM     14  H   UNL     1      -0.837  -0.175  -0.677  1.00  0.00     0.119 HD
ATOM     15  H   UNL     1      -2.424  -0.418  -0.917  1.00  0.00     0.119 HD
ENDBRANCH  12  13
BRANCH  12  16
ATOM     16  C   UNL     1      -2.089   2.696  -1.296  1.00  0.00     0.022 C 
BRANCH  16  17
ATOM     17  C   UNL     1      -2.876   3.651  -2.204  1.00  0.00     0.002 C 
BRANCH  17  18
ATOM     18  C   UNL     1      -4.262   3.157  -2.611  1.00  0.00     0.000 C 
BRANCH  18  19
ATOM     19  C   UNL     1      -4.373   2.750  -4.086  1.00  0.00    -0.000 C 
BRANCH  19  20
ATOM     20  C   UNL     1      -4.113   3.875  -5.092  1.00  0.00    -0.000 C 
BRANCH  20  21
ATOM     21  C   UNL     1      -5.356   4.723  -5.377  1.00  0.00    -0.003 C 
ATOM     22  C   UNL     1      -6.587   3.853  -5.576  1.00  0.00     0.004 C 
ENDBRANCH  20  21
ENDBRANCH  19  20
ENDBRANCH  18  19
ENDBRANCH  17  18
ENDBRANCH  16  17
ENDBRANCH  12  16
ENDBRANCH   9  12
ENDBRANCH   6   9
ENDBRANCH   3   5
ENDBRANCH   2   3
BRANCH   2  23
ATOM     23  N   UNL     1       2.350   2.465  -6.411  1.00  0.00    -0.332 N 
ATOM     24  C   UNL     1       1.788   3.804  -6.315  1.00  0.00     0.147 C 
BRANCH  23  25
ATOM     25  C   UNL     1       3.663   2.286  -5.733  1.00  0.00     0.174 C 
BRANCH  25  26
ATOM     26  C   UNL     1       3.928   3.352  -4.644  1.00  0.00     0.038 C 
BRANCH  26  27
ATOM     27  C   UNL     1       4.184   2.838  -3.209  1.00  0.00    -0.015 C 
ATOM     28  C   UNL     1       4.290   1.315  -3.144  1.00  0.00     0.007 C 
ATOM     29  C   UNL     1       5.390   3.489  -2.537  1.00  0.00     0.007 C 
ENDBRANCH  26  27
ENDBRANCH  25  26
BRANCH  25  30
ATOM     30  C   UNL     1       4.793   2.175  -6.783  1.00  0.00     0.243 C 
ATOM     31  O   UNL     1       5.969   2.018  -6.458  1.00  0.00    -0.273 OA
ATOM     32  N   UNL     1       4.397   2.269  -8.092  1.00  0.00    -0.342 N 
ATOM     33  H   UNL     1       3.392   2.256  -8.286  1.00  0.00     0.164 HD
BRANCH  32  34
ATOM     34  C   UNL     1       5.333   2.213  -9.218  1.00  0.00     0.175 C 
BRANCH  34  35
ATOM     35  C   UNL     1       4.664   1.630 -10.473  1.00  0.00     0.070 C 
BRANCH  35  36
ATOM     36  C   UNL     1       5.222   0.279 -10.859  1.00  0.00    -0.045 A 
ATOM     37  C   UNL     1       6.558   0.163 -11.270  1.00  0.00     0.007 A 
ATOM     38  C   UNL     1       4.414  -0.866 -10.835  1.00  0.00     0.007 A 
ATOM     39  C   UNL     1       7.078  -1.078 -11.641  1.00  0.00     0.046 A 
ATOM     40  C   UNL     1       4.934  -2.108 -11.208  1.00  0.00     0.046 A 
ATOM     41  C   UNL     1       6.263  -2.202 -11.607  1.00  0.00     0.115 A 
BRANCH  41  42
ATOM     42  O   UNL     1       6.809  -3.395 -11.981  1.00  0.00    -0.508 OA
ATOM     43  H   UNL     1       7.776  -3.300 -11.983  1.00  0.00     0.293 HD
ENDBRANCH  41  42
ENDBRANCH  35  36
ENDBRANCH  34  35
BRANCH  34  44
ATOM     44  C   UNL     1       5.874   3.639  -9.463  1.00  0.00     0.243 C 
ATOM     45  O   UNL     1       5.170   4.618  -9.696  1.00  0.00    -0.273 OA
ATOM     46  N   UNL     1       7.250   3.701  -9.527  1.00  0.00    -0.341 N 
ATOM     47  H   UNL     1       7.787   2.841  -9.443  1.00  0.00     0.164 HD
BRANCH  46  48
ATOM     48  C   UNL     1       7.989   4.932  -9.816  1.00  0.00     0.196 C 
BRANCH  48  49
ATOM     49  C   UNL     1       8.888   5.336  -8.635  1.00  0.00     0.072 C 
BRANCH  49  50
ATOM     50  C   UNL     1       8.306   6.472  -7.824  1.00  0.00    -0.045 A 
ATOM     51  C   UNL     1       9.042   7.653  -7.647  1.00  0.00     0.007 A 
ATOM     52  C   UNL     1       7.046   6.358  -7.223  1.00  0.00     0.007 A 
ATOM     53  C   UNL     1       8.522   8.702  -6.890  1.00  0.00     0.046 A 
ATOM     54  C   UNL     1       6.525   7.408  -6.464  1.00  0.00     0.046 A 
ATOM     55  C   UNL     1       7.268   8.573  -6.305  1.00  0.00     0.115 A 
BRANCH  55  56
ATOM     56  O   UNL     1       6.796   9.621  -5.571  1.00  0.00    -0.508 OA
ATOM     57  H   UNL     1       6.034   9.314  -5.054  1.00  0.00     0.293 HD
ENDBRANCH  55  56
ENDBRANCH  49  50
ENDBRANCH  48  49
BRANCH  48  58
ATOM     58  C   UNL     1       8.851   4.715 -11.067  1.00  0.00     0.326 C 
ATOM     59  O   UNL     1       9.766   5.417 -11.465  1.00  0.00    -0.250 OA
BRANCH  58  60
ATOM     60  O   UNL     1       8.522   3.597 -11.763  1.00  0.00    -0.480 OA
ATOM     61  H   UNL     1       7.541   3.590 -11.730  1.00  0.00     0.296 HD
ENDBRANCH  58  60
ENDBRANCH  48  58
ENDBRANCH  46  48
ENDBRANCH  34  44
ENDBRANCH  32  34
ENDBRANCH  25  30
ENDBRANCH  23  25
ENDBRANCH   2  23
TORSDOF 28
ENDMDL
MODEL 32
REMARK VINA RESULT:    -5.783      3.503     10.133
REMARK INTER + INTRA:         -18.450
REMARK INTER:                 -13.702
REMARK INTRA:                  -4.748
REMARK UNBOUND:                -4.047
REMARK SMILES CCCCCCC[C@H](N)[C@H](O)C(=O)N[C@H](C)C(=O)N(C)[C@H](CC(C)C)C(=O)N[C@@H](Cc1ccc(O)cc1)C(=O)N[C@@H](Cc1ccc(O)cc1)C(=O)O
REMARK SMILES IDX 18 1 17 2 15 3 16 4 14 5 12 6 13 7 10 9 11 10 8 12 9 13 7 16
REMARK SMILES IDX 6 17 5 18 4 19 3 20 2 21 1 22 19 23 20 24 21 25 22 26 23 27
REMARK SMILES IDX 24 28 25 29 26 30 27 31 28 32 29 34 30 35 31 36 32 37 37 38
REMARK SMILES IDX 33 39 36 40 34 41 35 42 38 44 39 45 40 46 41 48 42 49 43 50
REMARK SMILES IDX 44 51 49 52 45 53 48 54 46 55 47 56 50 58 51 59 52 60
REMARK H PARENT 14 8 11 11 9 14 9 15 28 33 35 43 40 47 47 57 52 61
ROOT
ATOM      1  O   UNL     1       5.443   4.134 -12.208  1.00  0.00    -0.272 OA
ATOM      2  C   UNL     1       6.249   4.985 -11.802  1.00  0.00     0.245 C 
ENDROOT
BRANCH   2   3
ATOM      3  C   UNL     1       7.673   5.006 -12.411  1.00  0.00     0.168 C 
ATOM      4  C   UNL     1       8.726   5.178 -11.321  1.00  0.00     0.041 C 
BRANCH   3   5
ATOM      5  N   UNL     1       7.980   3.887 -13.289  1.00  0.00    -0.342 N 
ATOM      6  C   UNL     1       8.787   4.031 -14.397  1.00  0.00     0.251 C 
ATOM      7  O   UNL     1       9.269   5.102 -14.748  1.00  0.00    -0.272 OA
ATOM      8  H   UNL     1       7.609   2.955 -13.119  1.00  0.00     0.164 HD
BRANCH   6   9
ATOM      9  C   UNL     1       9.087   2.692 -15.091  1.00  0.00     0.219 C 
BRANCH   9  10
ATOM     10  O   UNL     1       9.389   2.848 -16.483  1.00  0.00    -0.382 OA
ATOM     11  H   UNL     1       8.751   3.532 -16.783  1.00  0.00     0.211 HD
ENDBRANCH   9  10
BRANCH   9  12
ATOM     12  C   UNL     1      10.191   1.870 -14.377  1.00  0.00     0.089 C 
BRANCH  12  13
ATOM     13  N   UNL     1      10.914   2.767 -13.447  1.00  0.00    -0.325 NA
ATOM     14  H   UNL     1      10.830   2.403 -12.496  1.00  0.00     0.119 HD
ATOM     15  H   UNL     1      10.443   3.674 -13.428  1.00  0.00     0.119 HD
ENDBRANCH  12  13
BRANCH  12  16
ATOM     16  C   UNL     1       9.715   0.601 -13.629  1.00  0.00     0.022 C 
BRANCH  16  17
ATOM     17  C   UNL     1       8.240   0.485 -13.220  1.00  0.00     0.002 C 
BRANCH  17  18
ATOM     18  C   UNL     1       7.945   0.843 -11.766  1.00  0.00     0.000 C 
BRANCH  18  19
ATOM     19  C   UNL     1       7.226  -0.264 -10.983  1.00  0.00    -0.000 C 
BRANCH  19  20
ATOM     20  C   UNL     1       6.914  -1.530 -11.786  1.00  0.00    -0.000 C 
BRANCH  20  21
ATOM     21  C   UNL     1       5.433  -1.917 -11.743  1.00  0.00    -0.003 C 
ATOM     22  C   UNL     1       4.624  -0.923 -10.925  1.00  0.00     0.004 C 
ENDBRANCH  20  21
ENDBRANCH  19  20
ENDBRANCH  18  19
ENDBRANCH  17  18
ENDBRANCH  16  17
ENDBRANCH  12  16
ENDBRANCH   9  12
ENDBRANCH   6   9
ENDBRANCH   3   5
ENDBRANCH   2   3
BRANCH   2  23
ATOM     23  N   UNL     1       5.833   5.968 -10.911  1.00  0.00    -0.332 N 
ATOM     24  C   UNL     1       5.766   7.388 -11.221  1.00  0.00     0.147 C 
BRANCH  23  25
ATOM     25  C   UNL     1       5.291   5.592  -9.577  1.00  0.00     0.174 C 
BRANCH  25  26
ATOM     26  C   UNL     1       6.230   4.647  -8.790  1.00  0.00     0.038 C 
BRANCH  26  27
ATOM     27  C   UNL     1       6.491   4.994  -7.308  1.00  0.00    -0.015 C 
ATOM     28  C   UNL     1       6.833   6.470  -7.105  1.00  0.00     0.007 C 
ATOM     29  C   UNL     1       5.358   4.572  -6.376  1.00  0.00     0.007 C 
ENDBRANCH  26  27
ENDBRANCH  25  26
BRANCH  25  30
ATOM     30  C   UNL     1       3.848   5.057  -9.720  1.00  0.00     0.243 C 
ATOM     31  O   UNL     1       2.874   5.808  -9.731  1.00  0.00    -0.273 OA
ATOM     32  N   UNL     1       3.728   3.695  -9.826  1.00  0.00    -0.342 N 
ATOM     33  H   UNL     1       4.586   3.152  -9.951  1.00  0.00     0.164 HD
BRANCH  32  34
ATOM     34  C   UNL     1       2.438   3.010  -9.941  1.00  0.00     0.175 C 
BRANCH  34  35
ATOM     35  C   UNL     1       2.311   2.280 -11.287  1.00  0.00     0.070 C 
BRANCH  35  36
ATOM     36  C   UNL     1       1.377   2.980 -12.247  1.00  0.00    -0.045 A 
ATOM     37  C   UNL     1       0.123   3.428 -11.806  1.00  0.00     0.007 A 
ATOM     38  C   UNL     1       1.736   3.172 -13.588  1.00  0.00     0.007 A 
ATOM     39  C   UNL     1      -0.752   4.063 -12.688  1.00  0.00     0.046 A 
ATOM     40  C   UNL     1       0.860   3.807 -14.472  1.00  0.00     0.046 A 
ATOM     41  C   UNL     1      -0.376   4.248 -14.013  1.00  0.00     0.115 A 
BRANCH  41  42
ATOM     42  O   UNL     1      -1.261   4.871 -14.843  1.00  0.00    -0.508 OA
ATOM     43  H   UNL     1      -0.821   5.027 -15.695  1.00  0.00     0.293 HD
ENDBRANCH  41  42
ENDBRANCH  35  36
ENDBRANCH  34  35
BRANCH  34  44
ATOM     44  C   UNL     1       2.300   2.043  -8.744  1.00  0.00     0.243 C 
ATOM     45  O   UNL     1       2.749   0.901  -8.719  1.00  0.00    -0.273 OA
ATOM     46  N   UNL     1       1.502   2.534  -7.732  1.00  0.00    -0.341 N 
ATOM     47  H   UNL     1       1.056   3.440  -7.849  1.00  0.00     0.164 HD
BRANCH  46  48
ATOM     48  C   UNL     1       1.171   1.771  -6.526  1.00  0.00     0.196 C 
BRANCH  48  49
ATOM     49  C   UNL     1       1.118   2.679  -5.286  1.00  0.00     0.072 C 
BRANCH  49  50
ATOM     50  C   UNL     1       2.422   2.694  -4.520  1.00  0.00    -0.045 A 
ATOM     51  C   UNL     1       2.685   3.726  -3.608  1.00  0.00     0.007 A 
ATOM     52  C   UNL     1       3.388   1.700  -4.722  1.00  0.00     0.007 A 
ATOM     53  C   UNL     1       3.890   3.758  -2.906  1.00  0.00     0.046 A 
ATOM     54  C   UNL     1       4.595   1.733  -4.020  1.00  0.00     0.046 A 
ATOM     55  C   UNL     1       4.835   2.762  -3.117  1.00  0.00     0.115 A 
BRANCH  55  56
ATOM     56  O   UNL     1       6.001   2.831  -2.412  1.00  0.00    -0.508 OA
ATOM     57  H   UNL     1       6.695   3.165  -3.002  1.00  0.00     0.293 HD
ENDBRANCH  55  56
ENDBRANCH  49  50
ENDBRANCH  48  49
BRANCH  48  58
ATOM     58  C   UNL     1      -0.191   1.091  -6.724  1.00  0.00     0.326 C 
ATOM     59  O   UNL     1      -0.443   0.136  -7.440  1.00  0.00    -0.250 OA
BRANCH  58  60
ATOM     60  O   UNL     1      -1.186   1.646  -5.987  1.00  0.00    -0.480 OA
ATOM     61  H   UNL     1      -0.742   1.869  -5.140  1.00  0.00     0.296 HD
ENDBRANCH  58  60
ENDBRANCH  48  58
ENDBRANCH  46  48
ENDBRANCH  34  44
ENDBRANCH  32  34
ENDBRANCH  25  30
ENDBRANCH  23  25
ENDBRANCH   2  23
TORSDOF 28
ENDMDL
MODEL 33
REMARK VINA RESULT:    -5.774      6.448     12.649
REMARK INTER + INTRA:         -18.427
REMARK INTER:                 -14.015
REMARK INTRA:                  -4.412
REMARK UNBOUND:                -4.047
REMARK SMILES CCCCCCC[C@H](N)[C@H](O)C(=O)N[C@H](C)C(=O)N(C)[C@H](CC(C)C)C(=O)N[C@@H](Cc1ccc(O)cc1)C(=O)N[C@@H](Cc1ccc(O)cc1)C(=O)O
REMARK SMILES IDX 18 1 17 2 15 3 16 4 14 5 12 6 13 7 10 9 11 10 8 12 9 13 7 16
REMARK SMILES IDX 6 17 5 18 4 19 3 20 2 21 1 22 19 23 20 24 21 25 22 26 23 27
REMARK SMILES IDX 24 28 25 29 26 30 27 31 28 32 29 34 30 35 31 36 32 37 37 38
REMARK SMILES IDX 33 39 36 40 34 41 35 42 38 44 39 45 40 46 41 48 42 49 43 50
REMARK SMILES IDX 44 51 49 52 45 53 48 54 46 55 47 56 50 58 51 59 52 60
REMARK H PARENT 14 8 11 11 9 14 9 15 28 33 35 43 40 47 47 57 52 61
ROOT
ATOM      1  O   UNL     1       0.583   0.501  -2.439  1.00  0.00    -0.272 OA
ATOM      2  C   UNL     1       0.337   1.346  -3.312  1.00  0.00     0.245 C 
ENDROOT
BRANCH   2   3
ATOM      3  C   UNL     1       0.412   2.846  -2.933  1.00  0.00     0.168 C 
ATOM      4  C   UNL     1      -0.698   3.214  -1.955  1.00  0.00     0.041 C 
BRANCH   3   5
ATOM      5  N   UNL     1       1.716   3.294  -2.467  1.00  0.00    -0.342 N 
ATOM      6  C   UNL     1       2.657   3.815  -3.329  1.00  0.00     0.251 C 
ATOM      7  O   UNL     1       2.490   3.902  -4.541  1.00  0.00    -0.272 OA
ATOM      8  H   UNL     1       1.983   3.239  -1.487  1.00  0.00     0.164 HD
BRANCH   6   9
ATOM      9  C   UNL     1       3.899   4.353  -2.599  1.00  0.00     0.219 C 
BRANCH   9  10
ATOM     10  O   UNL     1       5.123   3.860  -3.156  1.00  0.00    -0.382 OA
ATOM     11  H   UNL     1       4.826   3.276  -3.887  1.00  0.00     0.211 HD
ENDBRANCH   9  10
BRANCH   9  12
ATOM     12  C   UNL     1       3.923   5.900  -2.497  1.00  0.00     0.089 C 
BRANCH  12  13
ATOM     13  N   UNL     1       2.537   6.400  -2.648  1.00  0.00    -0.325 NA
ATOM     14  H   UNL     1       2.545   7.422  -2.629  1.00  0.00     0.119 HD
ATOM     15  H   UNL     1       1.994   6.122  -1.827  1.00  0.00     0.119 HD
ENDBRANCH  12  13
BRANCH  12  16
ATOM     16  C   UNL     1       4.563   6.485  -1.215  1.00  0.00     0.022 C 
BRANCH  16  17
ATOM     17  C   UNL     1       5.524   7.675  -1.336  1.00  0.00     0.002 C 
BRANCH  17  18
ATOM     18  C   UNL     1       6.314   7.735  -2.642  1.00  0.00     0.000 C 
BRANCH  18  19
ATOM     19  C   UNL     1       7.566   6.848  -2.656  1.00  0.00    -0.000 C 
BRANCH  19  20
ATOM     20  C   UNL     1       8.895   7.598  -2.530  1.00  0.00    -0.000 C 
BRANCH  20  21
ATOM     21  C   UNL     1       9.918   7.186  -3.592  1.00  0.00    -0.003 C 
ATOM     22  C   UNL     1      11.265   6.856  -2.967  1.00  0.00     0.004 C 
ENDBRANCH  20  21
ENDBRANCH  19  20
ENDBRANCH  18  19
ENDBRANCH  17  18
ENDBRANCH  16  17
ENDBRANCH  12  16
ENDBRANCH   9  12
ENDBRANCH   6   9
ENDBRANCH   3   5
ENDBRANCH   2   3
BRANCH   2  23
ATOM     23  N   UNL     1       0.121   0.946  -4.627  1.00  0.00    -0.332 N 
ATOM     24  C   UNL     1       1.171   0.772  -5.620  1.00  0.00     0.147 C 
BRANCH  23  25
ATOM     25  C   UNL     1      -1.239   0.536  -5.073  1.00  0.00     0.174 C 
BRANCH  25  26
ATOM     26  C   UNL     1      -1.213  -0.368  -6.328  1.00  0.00     0.038 C 
BRANCH  26  27
ATOM     27  C   UNL     1      -2.576  -0.715  -6.968  1.00  0.00    -0.015 C 
ATOM     28  C   UNL     1      -2.553  -0.597  -8.492  1.00  0.00     0.007 C 
ATOM     29  C   UNL     1      -3.116  -2.078  -6.544  1.00  0.00     0.007 C 
ENDBRANCH  26  27
ENDBRANCH  25  26
BRANCH  25  30
ATOM     30  C   UNL     1      -2.148   1.778  -5.220  1.00  0.00     0.243 C 
ATOM     31  O   UNL     1      -1.942   2.637  -6.076  1.00  0.00    -0.273 OA
ATOM     32  N   UNL     1      -3.189   1.859  -4.332  1.00  0.00    -0.342 N 
ATOM     33  H   UNL     1      -3.377   1.041  -3.746  1.00  0.00     0.164 HD
BRANCH  32  34
ATOM     34  C   UNL     1      -4.135   2.978  -4.305  1.00  0.00     0.175 C 
BRANCH  34  35
ATOM     35  C   UNL     1      -5.477   2.591  -4.946  1.00  0.00     0.070 C 
BRANCH  35  36
ATOM     36  C   UNL     1      -6.228   3.782  -5.496  1.00  0.00    -0.045 A 
ATOM     37  C   UNL     1      -5.547   4.759  -6.238  1.00  0.00     0.007 A 
ATOM     38  C   UNL     1      -7.599   3.941  -5.257  1.00  0.00     0.007 A 
ATOM     39  C   UNL     1      -6.228   5.869  -6.738  1.00  0.00     0.046 A 
ATOM     40  C   UNL     1      -8.282   5.052  -5.756  1.00  0.00     0.046 A 
ATOM     41  C   UNL     1      -7.590   6.006  -6.494  1.00  0.00     0.115 A 
BRANCH  41  42
ATOM     42  O   UNL     1      -8.218   7.107  -6.998  1.00  0.00    -0.508 OA
ATOM     43  H   UNL     1      -7.545   7.783  -7.185  1.00  0.00     0.293 HD
ENDBRANCH  41  42
ENDBRANCH  35  36
ENDBRANCH  34  35
BRANCH  34  44
ATOM     44  C   UNL     1      -4.304   3.427  -2.836  1.00  0.00     0.243 C 
ATOM     45  O   UNL     1      -4.414   2.660  -1.884  1.00  0.00    -0.273 OA
ATOM     46  N   UNL     1      -4.455   4.790  -2.693  1.00  0.00    -0.341 N 
ATOM     47  H   UNL     1      -4.474   5.375  -3.525  1.00  0.00     0.164 HD
BRANCH  46  48
ATOM     48  C   UNL     1      -4.697   5.443  -1.405  1.00  0.00     0.196 C 
BRANCH  48  49
ATOM     49  C   UNL     1      -3.840   6.711  -1.249  1.00  0.00     0.072 C 
BRANCH  49  50
ATOM     50  C   UNL     1      -2.546   6.451  -0.511  1.00  0.00    -0.045 A 
ATOM     51  C   UNL     1      -2.548   5.654   0.643  1.00  0.00     0.007 A 
ATOM     52  C   UNL     1      -1.340   7.012  -0.950  1.00  0.00     0.007 A 
ATOM     53  C   UNL     1      -1.363   5.419   1.341  1.00  0.00     0.046 A 
ATOM     54  C   UNL     1      -0.154   6.777  -0.251  1.00  0.00     0.046 A 
ATOM     55  C   UNL     1      -0.176   5.981   0.888  1.00  0.00     0.115 A 
BRANCH  55  56
ATOM     56  O   UNL     1       0.960   5.727   1.599  1.00  0.00    -0.508 OA
ATOM     57  H   UNL     1       0.760   5.048   2.263  1.00  0.00     0.293 HD
ENDBRANCH  55  56
ENDBRANCH  49  50
ENDBRANCH  48  49
BRANCH  48  58
ATOM     58  C   UNL     1      -6.184   5.812  -1.304  1.00  0.00     0.326 C 
ATOM     59  O   UNL     1      -7.074   5.512  -2.082  1.00  0.00    -0.250 OA
BRANCH  58  60
ATOM     60  O   UNL     1      -6.487   6.542  -0.201  1.00  0.00    -0.480 OA
ATOM     61  H   UNL     1      -6.623   7.446  -0.558  1.00  0.00     0.296 HD
ENDBRANCH  58  60
ENDBRANCH  48  58
ENDBRANCH  46  48
ENDBRANCH  34  44
ENDBRANCH  32  34
ENDBRANCH  25  30
ENDBRANCH  23  25
ENDBRANCH   2  23
TORSDOF 28
ENDMDL
MODEL 34
REMARK VINA RESULT:    -5.761      7.453     13.201
REMARK INTER + INTRA:         -18.395
REMARK INTER:                 -12.909
REMARK INTRA:                  -5.486
REMARK UNBOUND:                -4.047
REMARK SMILES CCCCCCC[C@H](N)[C@H](O)C(=O)N[C@H](C)C(=O)N(C)[C@H](CC(C)C)C(=O)N[C@@H](Cc1ccc(O)cc1)C(=O)N[C@@H](Cc1ccc(O)cc1)C(=O)O
REMARK SMILES IDX 18 1 17 2 15 3 16 4 14 5 12 6 13 7 10 9 11 10 8 12 9 13 7 16
REMARK SMILES IDX 6 17 5 18 4 19 3 20 2 21 1 22 19 23 20 24 21 25 22 26 23 27
REMARK SMILES IDX 24 28 25 29 26 30 27 31 28 32 29 34 30 35 31 36 32 37 37 38
REMARK SMILES IDX 33 39 36 40 34 41 35 42 38 44 39 45 40 46 41 48 42 49 43 50
REMARK SMILES IDX 44 51 49 52 45 53 48 54 46 55 47 56 50 58 51 59 52 60
REMARK H PARENT 14 8 11 11 9 14 9 15 28 33 35 43 40 47 47 57 52 61
ROOT
ATOM      1  O   UNL     1      -5.150   5.282  -0.771  1.00  0.00    -0.272 OA
ATOM      2  C   UNL     1      -5.563   4.751  -1.813  1.00  0.00     0.245 C 
ENDROOT
BRANCH   2   3
ATOM      3  C   UNL     1      -5.437   3.215  -1.963  1.00  0.00     0.168 C 
ATOM      4  C   UNL     1      -6.673   2.633  -2.640  1.00  0.00     0.041 C 
BRANCH   3   5
ATOM      5  N   UNL     1      -4.209   2.761  -2.596  1.00  0.00    -0.342 N 
ATOM      6  C   UNL     1      -3.122   2.342  -1.858  1.00  0.00     0.251 C 
ATOM      7  O   UNL     1      -3.090   2.357  -0.632  1.00  0.00    -0.272 OA
ATOM      8  H   UNL     1      -4.104   2.737  -3.607  1.00  0.00     0.164 HD
BRANCH   6   9
ATOM      9  C   UNL     1      -1.993   1.774  -2.734  1.00  0.00     0.219 C 
BRANCH   9  10
ATOM     10  O   UNL     1      -2.483   1.099  -3.898  1.00  0.00    -0.382 OA
ATOM     11  H   UNL     1      -2.674   0.191  -3.576  1.00  0.00     0.211 HD
ENDBRANCH   9  10
BRANCH   9  12
ATOM     12  C   UNL     1      -0.929   2.835  -3.119  1.00  0.00     0.089 C 
BRANCH  12  13
ATOM     13  N   UNL     1      -1.194   4.067  -2.341  1.00  0.00    -0.325 NA
ATOM     14  H   UNL     1      -0.337   4.356  -1.866  1.00  0.00     0.119 HD
ATOM     15  H   UNL     1      -1.854   3.848  -1.590  1.00  0.00     0.119 HD
ENDBRANCH  12  13
BRANCH  12  16
ATOM     16  C   UNL     1       0.548   2.407  -2.950  1.00  0.00     0.022 C 
BRANCH  16  17
ATOM     17  C   UNL     1       0.895   0.912  -2.925  1.00  0.00     0.002 C 
BRANCH  17  18
ATOM     18  C   UNL     1       2.106   0.517  -3.767  1.00  0.00     0.000 C 
BRANCH  18  19
ATOM     19  C   UNL     1       1.914   0.727  -5.275  1.00  0.00    -0.000 C 
BRANCH  19  20
ATOM     20  C   UNL     1       1.138  -0.381  -5.992  1.00  0.00    -0.000 C 
BRANCH  20  21
ATOM     21  C   UNL     1      -0.224   0.083  -6.517  1.00  0.00    -0.003 C 
ATOM     22  C   UNL     1      -1.181  -1.087  -6.686  1.00  0.00     0.004 C 
ENDBRANCH  20  21
ENDBRANCH  19  20
ENDBRANCH  18  19
ENDBRANCH  17  18
ENDBRANCH  16  17
ENDBRANCH  12  16
ENDBRANCH   9  12
ENDBRANCH   6   9
ENDBRANCH   3   5
ENDBRANCH   2   3
BRANCH   2  23
ATOM     23  N   UNL     1      -6.235   5.514  -2.763  1.00  0.00    -0.332 N 
ATOM     24  C   UNL     1      -7.586   6.030  -2.603  1.00  0.00     0.147 C 
BRANCH  23  25
ATOM     25  C   UNL     1      -5.532   5.969  -3.994  1.00  0.00     0.174 C 
BRANCH  25  26
ATOM     26  C   UNL     1      -5.590   4.932  -5.139  1.00  0.00     0.038 C 
BRANCH  26  27
ATOM     27  C   UNL     1      -6.672   5.145  -6.222  1.00  0.00    -0.015 C 
ATOM     28  C   UNL     1      -7.954   4.368  -5.928  1.00  0.00     0.007 C 
ATOM     29  C   UNL     1      -6.984   6.616  -6.487  1.00  0.00     0.007 C 
ENDBRANCH  26  27
ENDBRANCH  25  26
BRANCH  25  30
ATOM     30  C   UNL     1      -4.098   6.432  -3.647  1.00  0.00     0.243 C 
ATOM     31  O   UNL     1      -3.105   5.808  -4.020  1.00  0.00    -0.273 OA
ATOM     32  N   UNL     1      -4.008   7.574  -2.894  1.00  0.00    -0.342 N 
ATOM     33  H   UNL     1      -4.867   8.111  -2.745  1.00  0.00     0.164 HD
BRANCH  32  34
ATOM     34  C   UNL     1      -2.734   8.144  -2.450  1.00  0.00     0.175 C 
BRANCH  34  35
ATOM     35  C   UNL     1      -2.680   9.659  -2.703  1.00  0.00     0.070 C 
BRANCH  35  36
ATOM     36  C   UNL     1      -1.691  10.037  -3.782  1.00  0.00    -0.045 A 
ATOM     37  C   UNL     1      -0.680  10.972  -3.512  1.00  0.00     0.007 A 
ATOM     38  C   UNL     1      -1.780   9.482  -5.065  1.00  0.00     0.007 A 
ATOM     39  C   UNL     1       0.229  11.337  -4.505  1.00  0.00     0.046 A 
ATOM     40  C   UNL     1      -0.871   9.848  -6.061  1.00  0.00     0.046 A 
ATOM     41  C   UNL     1       0.127  10.772  -5.771  1.00  0.00     0.115 A 
BRANCH  41  42
ATOM     42  O   UNL     1       1.033  11.159  -6.714  1.00  0.00    -0.508 OA
ATOM     43  H   UNL     1       0.644  11.884  -7.230  1.00  0.00     0.293 HD
ENDBRANCH  41  42
ENDBRANCH  35  36
ENDBRANCH  34  35
BRANCH  34  44
ATOM     44  C   UNL     1      -2.552   7.802  -0.954  1.00  0.00     0.243 C 
ATOM     45  O   UNL     1      -3.099   8.403  -0.033  1.00  0.00    -0.273 OA
ATOM     46  N   UNL     1      -1.605   6.827  -0.725  1.00  0.00    -0.341 N 
ATOM     47  H   UNL     1      -1.093   6.440  -1.515  1.00  0.00     0.164 HD
BRANCH  46  48
ATOM     48  C   UNL     1      -1.211   6.383   0.614  1.00  0.00     0.196 C 
BRANCH  48  49
ATOM     49  C   UNL     1      -2.107   5.235   1.109  1.00  0.00     0.072 C 
BRANCH  49  50
ATOM     50  C   UNL     1      -2.729   5.523   2.457  1.00  0.00    -0.045 A 
ATOM     51  C   UNL     1      -3.990   6.133   2.529  1.00  0.00     0.007 A 
ATOM     52  C   UNL     1      -2.056   5.207   3.644  1.00  0.00     0.007 A 
ATOM     53  C   UNL     1      -4.569   6.415   3.766  1.00  0.00     0.046 A 
ATOM     54  C   UNL     1      -2.635   5.491   4.883  1.00  0.00     0.046 A 
ATOM     55  C   UNL     1      -3.888   6.092   4.933  1.00  0.00     0.115 A 
BRANCH  55  56
ATOM     56  O   UNL     1      -4.487   6.386   6.122  1.00  0.00    -0.508 OA
ATOM     57  H   UNL     1      -3.964   7.071   6.567  1.00  0.00     0.293 HD
ENDBRANCH  55  56
ENDBRANCH  49  50
ENDBRANCH  48  49
BRANCH  48  58
ATOM     58  C   UNL     1       0.250   5.917   0.577  1.00  0.00     0.326 C 
ATOM     59  O   UNL     1       1.248   6.596   0.759  1.00  0.00    -0.250 OA
BRANCH  58  60
ATOM     60  O   UNL     1       0.389   4.591   0.322  1.00  0.00    -0.480 OA
ATOM     61  H   UNL     1       1.018   4.570  -0.431  1.00  0.00     0.296 HD
ENDBRANCH  58  60
ENDBRANCH  48  58
ENDBRANCH  46  48
ENDBRANCH  34  44
ENDBRANCH  32  34
ENDBRANCH  25  30
ENDBRANCH  23  25
ENDBRANCH   2  23
TORSDOF 28
ENDMDL
MODEL 35
REMARK VINA RESULT:    -5.749      3.716      8.814
REMARK INTER + INTRA:         -18.365
REMARK INTER:                 -13.369
REMARK INTRA:                  -4.996
REMARK UNBOUND:                -4.047
REMARK SMILES CCCCCCC[C@H](N)[C@H](O)C(=O)N[C@H](C)C(=O)N(C)[C@H](CC(C)C)C(=O)N[C@@H](Cc1ccc(O)cc1)C(=O)N[C@@H](Cc1ccc(O)cc1)C(=O)O
REMARK SMILES IDX 18 1 17 2 15 3 16 4 14 5 12 6 13 7 10 9 11 10 8 12 9 13 7 16
REMARK SMILES IDX 6 17 5 18 4 19 3 20 2 21 1 22 19 23 20 24 21 25 22 26 23 27
REMARK SMILES IDX 24 28 25 29 26 30 27 31 28 32 29 34 30 35 31 36 32 37 37 38
REMARK SMILES IDX 33 39 36 40 34 41 35 42 38 44 39 45 40 46 41 48 42 49 43 50
REMARK SMILES IDX 44 51 49 52 45 53 48 54 46 55 47 56 50 58 51 59 52 60
REMARK H PARENT 14 8 11 11 9 14 9 15 28 33 35 43 40 47 47 57 52 61
ROOT
ATOM      1  O   UNL     1      -0.340   6.312 -10.286  1.00  0.00    -0.272 OA
ATOM      2  C   UNL     1       0.747   5.886 -10.704  1.00  0.00     0.245 C 
ENDROOT
BRANCH   2   3
ATOM      3  C   UNL     1       2.050   6.553 -10.197  1.00  0.00     0.168 C 
ATOM      4  C   UNL     1       2.210   7.948 -10.792  1.00  0.00     0.041 C 
BRANCH   3   5
ATOM      5  N   UNL     1       2.211   6.558  -8.752  1.00  0.00    -0.342 N 
ATOM      6  C   UNL     1       3.375   6.130  -8.148  1.00  0.00     0.251 C 
ATOM      7  O   UNL     1       4.332   5.679  -8.768  1.00  0.00    -0.272 OA
ATOM      8  H   UNL     1       1.472   6.877  -8.131  1.00  0.00     0.164 HD
BRANCH   6   9
ATOM      9  C   UNL     1       3.374   6.358  -6.628  1.00  0.00     0.219 C 
BRANCH   9  10
ATOM     10  O   UNL     1       3.638   5.159  -5.889  1.00  0.00    -0.382 OA
ATOM     11  H   UNL     1       2.793   4.987  -5.418  1.00  0.00     0.211 HD
ENDBRANCH   9  10
BRANCH   9  12
ATOM     12  C   UNL     1       4.325   7.499  -6.183  1.00  0.00     0.089 C 
BRANCH  12  13
ATOM     13  N   UNL     1       3.504   8.681  -5.831  1.00  0.00    -0.325 NA
ATOM     14  H   UNL     1       2.533   8.391  -5.709  1.00  0.00     0.119 HD
ATOM     15  H   UNL     1       3.493   9.324  -6.626  1.00  0.00     0.119 HD
ENDBRANCH  12  13
BRANCH  12  16
ATOM     16  C   UNL     1       5.294   7.162  -5.025  1.00  0.00     0.022 C 
BRANCH  16  17
ATOM     17  C   UNL     1       6.759   6.834  -5.348  1.00  0.00     0.002 C 
BRANCH  17  18
ATOM     18  C   UNL     1       7.775   7.365  -4.339  1.00  0.00     0.000 C 
BRANCH  18  19
ATOM     19  C   UNL     1       7.186   7.656  -2.953  1.00  0.00    -0.000 C 
BRANCH  19  20
ATOM     20  C   UNL     1       7.432   6.570  -1.901  1.00  0.00    -0.000 C 
BRANCH  20  21
ATOM     21  C   UNL     1       6.137   5.969  -1.346  1.00  0.00    -0.003 C 
ATOM     22  C   UNL     1       5.662   4.798  -2.192  1.00  0.00     0.004 C 
ENDBRANCH  20  21
ENDBRANCH  19  20
ENDBRANCH  18  19
ENDBRANCH  17  18
ENDBRANCH  16  17
ENDBRANCH  12  16
ENDBRANCH   9  12
ENDBRANCH   6   9
ENDBRANCH   3   5
ENDBRANCH   2   3
BRANCH   2  23
ATOM     23  N   UNL     1       0.785   4.754 -11.512  1.00  0.00    -0.332 N 
ATOM     24  C   UNL     1      -0.385   4.119 -12.100  1.00  0.00     0.147 C 
BRANCH  23  25
ATOM     25  C   UNL     1       2.091   4.182 -11.941  1.00  0.00     0.174 C 
BRANCH  25  26
ATOM     26  C   UNL     1       2.183   3.972 -13.471  1.00  0.00     0.038 C 
BRANCH  26  27
ATOM     27  C   UNL     1       2.888   5.078 -14.288  1.00  0.00    -0.015 C 
ATOM     28  C   UNL     1       1.900   5.969 -15.040  1.00  0.00     0.007 C 
ATOM     29  C   UNL     1       3.851   5.925 -13.459  1.00  0.00     0.007 C 
ENDBRANCH  26  27
ENDBRANCH  25  26
BRANCH  25  30
ATOM     30  C   UNL     1       2.410   2.912 -11.120  1.00  0.00     0.243 C 
ATOM     31  O   UNL     1       2.191   1.783 -11.556  1.00  0.00    -0.273 OA
ATOM     32  N   UNL     1       2.947   3.129  -9.876  1.00  0.00    -0.342 N 
ATOM     33  H   UNL     1       3.230   4.084  -9.643  1.00  0.00     0.164 HD
BRANCH  32  34
ATOM     34  C   UNL     1       3.286   2.046  -8.949  1.00  0.00     0.175 C 
BRANCH  34  35
ATOM     35  C   UNL     1       4.807   1.923  -8.768  1.00  0.00     0.070 C 
BRANCH  35  36
ATOM     36  C   UNL     1       5.426   0.902  -9.696  1.00  0.00    -0.045 A 
ATOM     37  C   UNL     1       4.621  -0.074 -10.303  1.00  0.00     0.007 A 
ATOM     38  C   UNL     1       6.805   0.900  -9.945  1.00  0.00     0.007 A 
ATOM     39  C   UNL     1       5.185  -1.028 -11.150  1.00  0.00     0.046 A 
ATOM     40  C   UNL     1       7.371  -0.055 -10.793  1.00  0.00     0.046 A 
ATOM     41  C   UNL     1       6.554  -1.011 -11.389  1.00  0.00     0.115 A 
BRANCH  41  42
ATOM     42  O   UNL     1       7.066  -1.962 -12.221  1.00  0.00    -0.508 OA
ATOM     43  H   UNL     1       6.373  -2.221 -12.850  1.00  0.00     0.293 HD
ENDBRANCH  41  42
ENDBRANCH  35  36
ENDBRANCH  34  35
BRANCH  34  44
ATOM     44  C   UNL     1       2.565   2.318  -7.610  1.00  0.00     0.243 C 
ATOM     45  O   UNL     1       1.739   3.209  -7.436  1.00  0.00    -0.273 OA
ATOM     46  N   UNL     1       3.030   1.543  -6.569  1.00  0.00    -0.341 N 
ATOM     47  H   UNL     1       3.799   0.899  -6.738  1.00  0.00     0.164 HD
BRANCH  46  48
ATOM     48  C   UNL     1       2.547   1.669  -5.192  1.00  0.00     0.196 C 
BRANCH  48  49
ATOM     49  C   UNL     1       1.850   0.381  -4.723  1.00  0.00     0.072 C 
BRANCH  49  50
ATOM     50  C   UNL     1       0.463   0.225  -5.304  1.00  0.00    -0.045 A 
ATOM     51  C   UNL     1      -0.604   0.967  -4.777  1.00  0.00     0.007 A 
ATOM     52  C   UNL     1       0.218  -0.669  -6.354  1.00  0.00     0.007 A 
ATOM     53  C   UNL     1      -1.890   0.822  -5.296  1.00  0.00     0.046 A 
ATOM     54  C   UNL     1      -1.071  -0.815  -6.874  1.00  0.00     0.046 A 
ATOM     55  C   UNL     1      -2.114  -0.067  -6.340  1.00  0.00     0.115 A 
BRANCH  55  56
ATOM     56  O   UNL     1      -3.386  -0.181  -6.818  1.00  0.00    -0.508 OA
ATOM     57  H   UNL     1      -3.985   0.274  -6.205  1.00  0.00     0.293 HD
ENDBRANCH  55  56
ENDBRANCH  49  50
ENDBRANCH  48  49
BRANCH  48  58
ATOM     58  C   UNL     1       3.736   1.976  -4.272  1.00  0.00     0.326 C 
ATOM     59  O   UNL     1       4.921   1.952  -4.563  1.00  0.00    -0.250 OA
BRANCH  58  60
ATOM     60  O   UNL     1       3.371   2.317  -3.010  1.00  0.00    -0.480 OA
ATOM     61  H   UNL     1       4.132   2.020  -2.466  1.00  0.00     0.296 HD
ENDBRANCH  58  60
ENDBRANCH  48  58
ENDBRANCH  46  48
ENDBRANCH  34  44
ENDBRANCH  32  34
ENDBRANCH  25  30
ENDBRANCH  23  25
ENDBRANCH   2  23
TORSDOF 28
ENDMDL
MODEL 36
REMARK VINA RESULT:    -5.746      3.627      5.770
REMARK INTER + INTRA:         -18.359
REMARK INTER:                 -15.623
REMARK INTRA:                  -2.735
REMARK UNBOUND:                -4.047
REMARK SMILES CCCCCCC[C@H](N)[C@H](O)C(=O)N[C@H](C)C(=O)N(C)[C@H](CC(C)C)C(=O)N[C@@H](Cc1ccc(O)cc1)C(=O)N[C@@H](Cc1ccc(O)cc1)C(=O)O
REMARK SMILES IDX 18 1 17 2 15 3 16 4 14 5 12 6 13 7 10 9 11 10 8 12 9 13 7 16
REMARK SMILES IDX 6 17 5 18 4 19 3 20 2 21 1 22 19 23 20 24 21 25 22 26 23 27
REMARK SMILES IDX 24 28 25 29 26 30 27 31 28 32 29 34 30 35 31 36 32 37 37 38
REMARK SMILES IDX 33 39 36 40 34 41 35 42 38 44 39 45 40 46 41 48 42 49 43 50
REMARK SMILES IDX 44 51 49 52 45 53 48 54 46 55 47 56 50 58 51 59 52 60
REMARK H PARENT 14 8 11 11 9 14 9 15 28 33 35 43 40 47 47 57 52 61
ROOT
ATOM      1  O   UNL     1       1.563   3.939  -5.376  1.00  0.00    -0.272 OA
ATOM      2  C   UNL     1       1.477   2.910  -4.690  1.00  0.00     0.245 C 
ENDROOT
BRANCH   2   3
ATOM      3  C   UNL     1       1.225   3.053  -3.168  1.00  0.00     0.168 C 
ATOM      4  C   UNL     1       1.584   4.455  -2.689  1.00  0.00     0.041 C 
BRANCH   3   5
ATOM      5  N   UNL     1      -0.104   2.654  -2.729  1.00  0.00    -0.342 N 
ATOM      6  C   UNL     1      -1.239   3.308  -3.159  1.00  0.00     0.251 C 
ATOM      7  O   UNL     1      -1.218   4.286  -3.898  1.00  0.00    -0.272 OA
ATOM      8  H   UNL     1      -0.245   1.878  -2.087  1.00  0.00     0.164 HD
BRANCH   6   9
ATOM      9  C   UNL     1      -2.533   2.628  -2.682  1.00  0.00     0.219 C 
BRANCH   9  10
ATOM     10  O   UNL     1      -2.489   1.202  -2.815  1.00  0.00    -0.382 OA
ATOM     11  H   UNL     1      -3.382   0.915  -2.524  1.00  0.00     0.211 HD
ENDBRANCH   9  10
BRANCH   9  12
ATOM     12  C   UNL     1      -2.939   3.034  -1.241  1.00  0.00     0.089 C 
BRANCH  12  13
ATOM     13  N   UNL     1      -2.449   1.995  -0.307  1.00  0.00    -0.325 NA
ATOM     14  H   UNL     1      -1.446   1.859  -0.451  1.00  0.00     0.119 HD
ATOM     15  H   UNL     1      -2.877   1.099  -0.553  1.00  0.00     0.119 HD
ENDBRANCH  12  13
BRANCH  12  16
ATOM     16  C   UNL     1      -2.471   4.433  -0.773  1.00  0.00     0.022 C 
BRANCH  16  17
ATOM     17  C   UNL     1      -1.835   4.582   0.616  1.00  0.00     0.002 C 
BRANCH  17  18
ATOM     18  C   UNL     1      -2.710   5.281   1.653  1.00  0.00     0.000 C 
BRANCH  18  19
ATOM     19  C   UNL     1      -1.934   5.828   2.859  1.00  0.00    -0.000 C 
BRANCH  19  20
ATOM     20  C   UNL     1      -2.214   5.121   4.188  1.00  0.00    -0.000 C 
BRANCH  20  21
ATOM     21  C   UNL     1      -3.443   4.209   4.134  1.00  0.00    -0.003 C 
ATOM     22  C   UNL     1      -4.628   4.833   4.856  1.00  0.00     0.004 C 
ENDBRANCH  20  21
ENDBRANCH  19  20
ENDBRANCH  18  19
ENDBRANCH  17  18
ENDBRANCH  16  17
ENDBRANCH  12  16
ENDBRANCH   9  12
ENDBRANCH   6   9
ENDBRANCH   3   5
ENDBRANCH   2   3
BRANCH   2  23
ATOM     23  N   UNL     1       1.486   1.662  -5.303  1.00  0.00    -0.332 N 
ATOM     24  C   UNL     1       1.984   0.442  -4.686  1.00  0.00     0.147 C 
BRANCH  23  25
ATOM     25  C   UNL     1       0.845   1.475  -6.634  1.00  0.00     0.174 C 
BRANCH  25  26
ATOM     26  C   UNL     1      -0.131   0.275  -6.668  1.00  0.00     0.038 C 
BRANCH  26  27
ATOM     27  C   UNL     1      -1.534   0.531  -7.262  1.00  0.00    -0.015 C 
ATOM     28  C   UNL     1      -2.204  -0.753  -7.751  1.00  0.00     0.007 C 
ATOM     29  C   UNL     1      -2.461   1.296  -6.322  1.00  0.00     0.007 C 
ENDBRANCH  26  27
ENDBRANCH  25  26
BRANCH  25  30
ATOM     30  C   UNL     1       1.922   1.432  -7.742  1.00  0.00     0.243 C 
ATOM     31  O   UNL     1       2.346   0.371  -8.196  1.00  0.00    -0.273 OA
ATOM     32  N   UNL     1       2.374   2.652  -8.177  1.00  0.00    -0.342 N 
ATOM     33  H   UNL     1       1.874   3.485  -7.855  1.00  0.00     0.164 HD
BRANCH  32  34
ATOM     34  C   UNL     1       3.411   2.803  -9.201  1.00  0.00     0.175 C 
BRANCH  34  35
ATOM     35  C   UNL     1       3.183   4.067 -10.044  1.00  0.00     0.070 C 
BRANCH  35  36
ATOM     36  C   UNL     1       2.602   3.764 -11.407  1.00  0.00    -0.045 A 
ATOM     37  C   UNL     1       2.136   2.473 -11.700  1.00  0.00     0.007 A 
ATOM     38  C   UNL     1       2.541   4.752 -12.399  1.00  0.00     0.007 A 
ATOM     39  C   UNL     1       1.611   2.180 -12.959  1.00  0.00     0.046 A 
ATOM     40  C   UNL     1       2.016   4.459 -13.660  1.00  0.00     0.046 A 
ATOM     41  C   UNL     1       1.555   3.175 -13.928  1.00  0.00     0.115 A 
BRANCH  41  42
ATOM     42  O   UNL     1       1.037   2.847 -15.146  1.00  0.00    -0.508 OA
ATOM     43  H   UNL     1       1.639   2.213 -15.572  1.00  0.00     0.293 HD
ENDBRANCH  41  42
ENDBRANCH  35  36
ENDBRANCH  34  35
BRANCH  34  44
ATOM     44  C   UNL     1       4.784   2.822  -8.493  1.00  0.00     0.243 C 
ATOM     45  O   UNL     1       4.939   2.753  -7.276  1.00  0.00    -0.273 OA
ATOM     46  N   UNL     1       5.840   3.058  -9.348  1.00  0.00    -0.341 N 
ATOM     47  H   UNL     1       5.650   3.226 -10.333  1.00  0.00     0.164 HD
BRANCH  46  48
ATOM     48  C   UNL     1       7.228   3.187  -8.898  1.00  0.00     0.196 C 
BRANCH  48  49
ATOM     49  C   UNL     1       8.212   2.687  -9.969  1.00  0.00     0.072 C 
BRANCH  49  50
ATOM     50  C   UNL     1       7.771   1.387 -10.603  1.00  0.00    -0.045 A 
ATOM     51  C   UNL     1       7.178   0.391  -9.814  1.00  0.00     0.007 A 
ATOM     52  C   UNL     1       7.963   1.150 -11.970  1.00  0.00     0.007 A 
ATOM     53  C   UNL     1       6.779  -0.818 -10.386  1.00  0.00     0.046 A 
ATOM     54  C   UNL     1       7.565  -0.060 -12.542  1.00  0.00     0.046 A 
ATOM     55  C   UNL     1       6.974  -1.034 -11.744  1.00  0.00     0.115 A 
BRANCH  55  56
ATOM     56  O   UNL     1       6.572  -2.229 -12.263  1.00  0.00    -0.508 OA
ATOM     57  H   UNL     1       6.693  -2.913 -11.585  1.00  0.00     0.293 HD
ENDBRANCH  55  56
ENDBRANCH  49  50
ENDBRANCH  48  49
BRANCH  48  58
ATOM     58  C   UNL     1       7.516   4.662  -8.583  1.00  0.00     0.326 C 
ATOM     59  O   UNL     1       8.221   5.429  -9.218  1.00  0.00    -0.250 OA
BRANCH  58  60
ATOM     60  O   UNL     1       6.879   5.112  -7.473  1.00  0.00    -0.480 OA
ATOM     61  H   UNL     1       6.454   5.943  -7.777  1.00  0.00     0.296 HD
ENDBRANCH  58  60
ENDBRANCH  48  58
ENDBRANCH  46  48
ENDBRANCH  34  44
ENDBRANCH  32  34
ENDBRANCH  25  30
ENDBRANCH  23  25
ENDBRANCH   2  23
TORSDOF 28
ENDMDL
MODEL 37
REMARK VINA RESULT:    -5.705     18.901     22.289
REMARK INTER + INTRA:         -18.256
REMARK INTER:                 -12.037
REMARK INTRA:                  -6.219
REMARK UNBOUND:                -4.047
REMARK SMILES CCCCCCC[C@H](N)[C@H](O)C(=O)N[C@H](C)C(=O)N(C)[C@H](CC(C)C)C(=O)N[C@@H](Cc1ccc(O)cc1)C(=O)N[C@@H](Cc1ccc(O)cc1)C(=O)O
REMARK SMILES IDX 18 1 17 2 15 3 16 4 14 5 12 6 13 7 10 9 11 10 8 12 9 13 7 16
REMARK SMILES IDX 6 17 5 18 4 19 3 20 2 21 1 22 19 23 20 24 21 25 22 26 23 27
REMARK SMILES IDX 24 28 25 29 26 30 27 31 28 32 29 34 30 35 31 36 32 37 37 38
REMARK SMILES IDX 33 39 36 40 34 41 35 42 38 44 39 45 40 46 41 48 42 49 43 50
REMARK SMILES IDX 44 51 49 52 45 53 48 54 46 55 47 56 50 58 51 59 52 60
REMARK H PARENT 14 8 11 11 9 14 9 15 28 33 35 43 40 47 47 57 52 61
ROOT
ATOM      1  O   UNL     1     -14.958   6.362   5.944  1.00  0.00    -0.272 OA
ATOM      2  C   UNL     1     -14.251   6.676   6.913  1.00  0.00     0.245 C 
ENDROOT
BRANCH   2   3
ATOM      3  C   UNL     1     -14.142   8.173   7.296  1.00  0.00     0.168 C 
ATOM      4  C   UNL     1     -14.209   8.352   8.809  1.00  0.00     0.041 C 
BRANCH   3   5
ATOM      5  N   UNL     1     -13.003   8.870   6.718  1.00  0.00    -0.342 N 
ATOM      6  C   UNL     1     -13.065  10.203   6.372  1.00  0.00     0.251 C 
ATOM      7  O   UNL     1     -14.079  10.885   6.482  1.00  0.00    -0.272 OA
ATOM      8  H   UNL     1     -12.118   8.400   6.546  1.00  0.00     0.164 HD
BRANCH   6   9
ATOM      9  C   UNL     1     -11.708  10.762   5.915  1.00  0.00     0.219 C 
BRANCH   9  10
ATOM     10  O   UNL     1     -11.832  11.994   5.194  1.00  0.00    -0.382 OA
ATOM     11  H   UNL     1     -12.734  12.307   5.425  1.00  0.00     0.211 HD
ENDBRANCH   9  10
BRANCH   9  12
ATOM     12  C   UNL     1     -10.686  10.903   7.074  1.00  0.00     0.089 C 
BRANCH  12  13
ATOM     13  N   UNL     1     -11.430  10.906   8.355  1.00  0.00    -0.325 NA
ATOM     14  H   UNL     1     -12.137  11.644   8.331  1.00  0.00     0.119 HD
ATOM     15  H   UNL     1     -10.791  11.173   9.108  1.00  0.00     0.119 HD
ENDBRANCH  12  13
BRANCH  12  16
ATOM     16  C   UNL     1      -9.559   9.844   7.117  1.00  0.00     0.022 C 
BRANCH  16  17
ATOM     17  C   UNL     1      -9.264   9.120   8.437  1.00  0.00     0.002 C 
BRANCH  17  18
ATOM     18  C   UNL     1      -8.262   7.972   8.333  1.00  0.00     0.000 C 
BRANCH  18  19
ATOM     19  C   UNL     1      -7.100   8.065   9.330  1.00  0.00    -0.000 C 
BRANCH  19  20
ATOM     20  C   UNL     1      -6.709   6.744   9.998  1.00  0.00    -0.000 C 
BRANCH  20  21
ATOM     21  C   UNL     1      -6.828   6.785  11.524  1.00  0.00    -0.003 C 
ATOM     22  C   UNL     1      -5.850   7.780  12.130  1.00  0.00     0.004 C 
ENDBRANCH  20  21
ENDBRANCH  19  20
ENDBRANCH  18  19
ENDBRANCH  17  18
ENDBRANCH  16  17
ENDBRANCH  12  16
ENDBRANCH   9  12
ENDBRANCH   6   9
ENDBRANCH   3   5
ENDBRANCH   2   3
BRANCH   2  23
ATOM     23  N   UNL     1     -13.676   5.687   7.704  1.00  0.00    -0.332 N 
ATOM     24  C   UNL     1     -14.416   4.812   8.601  1.00  0.00     0.147 C 
BRANCH  23  25
ATOM     25  C   UNL     1     -12.226   5.373   7.576  1.00  0.00     0.174 C 
BRANCH  25  26
ATOM     26  C   UNL     1     -11.352   6.139   8.597  1.00  0.00     0.038 C 
BRANCH  26  27
ATOM     27  C   UNL     1     -10.699   5.306   9.723  1.00  0.00    -0.015 C 
ATOM     28  C   UNL     1      -9.430   4.591   9.260  1.00  0.00     0.007 C 
ATOM     29  C   UNL     1     -10.430   6.109  10.993  1.00  0.00     0.007 C 
ENDBRANCH  26  27
ENDBRANCH  25  26
BRANCH  25  30
ATOM     30  C   UNL     1     -11.770   5.551   6.110  1.00  0.00     0.243 C 
ATOM     31  O   UNL     1     -12.028   4.717   5.243  1.00  0.00    -0.273 OA
ATOM     32  N   UNL     1     -11.057   6.691   5.845  1.00  0.00    -0.342 N 
ATOM     33  H   UNL     1     -11.006   7.400   6.582  1.00  0.00     0.164 HD
BRANCH  32  34
ATOM     34  C   UNL     1     -10.521   7.012   4.519  1.00  0.00     0.175 C 
BRANCH  34  35
ATOM     35  C   UNL     1      -9.488   5.969   4.066  1.00  0.00     0.070 C 
BRANCH  35  36
ATOM     36  C   UNL     1      -8.236   5.981   4.913  1.00  0.00    -0.045 A 
ATOM     37  C   UNL     1      -7.280   6.994   4.739  1.00  0.00     0.007 A 
ATOM     38  C   UNL     1      -7.999   4.977   5.861  1.00  0.00     0.007 A 
ATOM     39  C   UNL     1      -6.115   7.006   5.506  1.00  0.00     0.046 A 
ATOM     40  C   UNL     1      -6.832   4.987   6.628  1.00  0.00     0.046 A 
ATOM     41  C   UNL     1      -5.900   6.003   6.444  1.00  0.00     0.115 A 
BRANCH  41  42
ATOM     42  O   UNL     1      -4.747   6.049   7.171  1.00  0.00    -0.508 OA
ATOM     43  H   UNL     1      -4.694   6.918   7.602  1.00  0.00     0.293 HD
ENDBRANCH  41  42
ENDBRANCH  35  36
ENDBRANCH  34  35
BRANCH  34  44
ATOM     44  C   UNL     1     -11.709   7.114   3.535  1.00  0.00     0.243 C 
ATOM     45  O   UNL     1     -12.637   7.910   3.648  1.00  0.00    -0.273 OA
ATOM     46  N   UNL     1     -11.707   6.130   2.569  1.00  0.00    -0.341 N 
ATOM     47  H   UNL     1     -10.978   5.421   2.588  1.00  0.00     0.164 HD
BRANCH  46  48
ATOM     48  C   UNL     1     -12.765   5.982   1.568  1.00  0.00     0.196 C 
BRANCH  48  49
ATOM     49  C   UNL     1     -12.181   5.821   0.155  1.00  0.00     0.072 C 
BRANCH  49  50
ATOM     50  C   UNL     1     -12.930   6.629  -0.880  1.00  0.00    -0.045 A 
ATOM     51  C   UNL     1     -12.741   8.017  -0.954  1.00  0.00     0.007 A 
ATOM     52  C   UNL     1     -13.832   6.016  -1.759  1.00  0.00     0.007 A 
ATOM     53  C   UNL     1     -13.436   8.775  -1.896  1.00  0.00     0.046 A 
ATOM     54  C   UNL     1     -14.530   6.776  -2.701  1.00  0.00     0.046 A 
ATOM     55  C   UNL     1     -14.325   8.150  -2.762  1.00  0.00     0.115 A 
BRANCH  55  56
ATOM     56  O   UNL     1     -14.986   8.927  -3.667  1.00  0.00    -0.508 OA
ATOM     57  H   UNL     1     -15.740   9.343  -3.219  1.00  0.00     0.293 HD
ENDBRANCH  55  56
ENDBRANCH  49  50
ENDBRANCH  48  49
BRANCH  48  58
ATOM     58  C   UNL     1     -13.614   4.751   1.918  1.00  0.00     0.326 C 
ATOM     59  O   UNL     1     -14.441   4.653   2.810  1.00  0.00    -0.250 OA
BRANCH  58  60
ATOM     60  O   UNL     1     -13.388   3.689   1.104  1.00  0.00    -0.480 OA
ATOM     61  H   UNL     1     -14.154   3.708   0.490  1.00  0.00     0.296 HD
ENDBRANCH  58  60
ENDBRANCH  48  58
ENDBRANCH  46  48
ENDBRANCH  34  44
ENDBRANCH  32  34
ENDBRANCH  25  30
ENDBRANCH  23  25
ENDBRANCH   2  23
TORSDOF 28
ENDMDL
MODEL 38
REMARK VINA RESULT:    -5.692      3.727      9.621
REMARK INTER + INTRA:         -18.223
REMARK INTER:                 -12.468
REMARK INTRA:                  -5.755
REMARK UNBOUND:                -4.047
REMARK SMILES CCCCCCC[C@H](N)[C@H](O)C(=O)N[C@H](C)C(=O)N(C)[C@H](CC(C)C)C(=O)N[C@@H](Cc1ccc(O)cc1)C(=O)N[C@@H](Cc1ccc(O)cc1)C(=O)O
REMARK SMILES IDX 18 1 17 2 15 3 16 4 14 5 12 6 13 7 10 9 11 10 8 12 9 13 7 16
REMARK SMILES IDX 6 17 5 18 4 19 3 20 2 21 1 22 19 23 20 24 21 25 22 26 23 27
REMARK SMILES IDX 24 28 25 29 26 30 27 31 28 32 29 34 30 35 31 36 32 37 37 38
REMARK SMILES IDX 33 39 36 40 34 41 35 42 38 44 39 45 40 46 41 48 42 49 43 50
REMARK SMILES IDX 44 51 49 52 45 53 48 54 46 55 47 56 50 58 51 59 52 60
REMARK H PARENT 14 8 11 11 9 14 9 15 28 33 35 43 40 47 47 57 52 61
ROOT
ATOM      1  O   UNL     1       2.608   5.439  -5.179  1.00  0.00    -0.272 OA
ATOM      2  C   UNL     1       1.562   6.105  -5.172  1.00  0.00     0.245 C 
ENDROOT
BRANCH   2   3
ATOM      3  C   UNL     1       0.885   6.435  -6.526  1.00  0.00     0.168 C 
ATOM      4  C   UNL     1       0.444   7.895  -6.569  1.00  0.00     0.041 C 
BRANCH   3   5
ATOM      5  N   UNL     1       1.659   6.068  -7.702  1.00  0.00    -0.342 N 
ATOM      6  C   UNL     1       1.118   5.317  -8.724  1.00  0.00     0.251 C 
ATOM      7  O   UNL     1      -0.025   4.872  -8.704  1.00  0.00    -0.272 OA
ATOM      8  H   UNL     1       2.629   6.351  -7.815  1.00  0.00     0.164 HD
BRANCH   6   9
ATOM      9  C   UNL     1       2.068   5.173  -9.923  1.00  0.00     0.219 C 
BRANCH   9  10
ATOM     10  O   UNL     1       2.769   6.386 -10.222  1.00  0.00    -0.382 OA
ATOM     11  H   UNL     1       2.205   7.084  -9.821  1.00  0.00     0.211 HD
ENDBRANCH   9  10
BRANCH   9  12
ATOM     12  C   UNL     1       3.057   3.987  -9.777  1.00  0.00     0.089 C 
BRANCH  12  13
ATOM     13  N   UNL     1       3.615   4.010  -8.405  1.00  0.00    -0.325 NA
ATOM     14  H   UNL     1       4.610   3.780  -8.443  1.00  0.00     0.119 HD
ATOM     15  H   UNL     1       3.187   3.256  -7.862  1.00  0.00     0.119 HD
ENDBRANCH  12  13
BRANCH  12  16
ATOM     16  C   UNL     1       2.486   2.585 -10.096  1.00  0.00     0.022 C 
BRANCH  16  17
ATOM     17  C   UNL     1       3.255   1.665 -11.055  1.00  0.00     0.002 C 
BRANCH  17  18
ATOM     18  C   UNL     1       4.745   1.519 -10.752  1.00  0.00     0.000 C 
BRANCH  18  19
ATOM     19  C   UNL     1       5.171   0.092 -10.384  1.00  0.00    -0.000 C 
BRANCH  19  20
ATOM     20  C   UNL     1       6.630  -0.252 -10.695  1.00  0.00    -0.000 C 
BRANCH  20  21
ATOM     21  C   UNL     1       6.779  -1.505 -11.562  1.00  0.00    -0.003 C 
ATOM     22  C   UNL     1       5.432  -2.161 -11.824  1.00  0.00     0.004 C 
ENDBRANCH  20  21
ENDBRANCH  19  20
ENDBRANCH  18  19
ENDBRANCH  17  18
ENDBRANCH  16  17
ENDBRANCH  12  16
ENDBRANCH   9  12
ENDBRANCH   6   9
ENDBRANCH   3   5
ENDBRANCH   2   3
BRANCH   2  23
ATOM     23  N   UNL     1       0.956   6.435  -3.965  1.00  0.00    -0.332 N 
ATOM     24  C   UNL     1       1.483   7.400  -3.012  1.00  0.00     0.147 C 
BRANCH  23  25
ATOM     25  C   UNL     1      -0.387   5.889  -3.625  1.00  0.00     0.174 C 
BRANCH  25  26
ATOM     26  C   UNL     1      -1.402   6.987  -3.232  1.00  0.00     0.038 C 
BRANCH  26  27
ATOM     27  C   UNL     1      -2.897   6.596  -3.244  1.00  0.00    -0.015 C 
ATOM     28  C   UNL     1      -3.535   6.684  -1.858  1.00  0.00     0.007 C 
ATOM     29  C   UNL     1      -3.720   7.377  -4.265  1.00  0.00     0.007 C 
ENDBRANCH  26  27
ENDBRANCH  25  26
BRANCH  25  30
ATOM     30  C   UNL     1      -0.253   4.762  -2.575  1.00  0.00     0.243 C 
ATOM     31  O   UNL     1      -0.264   4.995  -1.367  1.00  0.00    -0.273 OA
ATOM     32  N   UNL     1      -0.115   3.494  -3.079  1.00  0.00    -0.342 N 
ATOM     33  H   UNL     1      -0.258   3.366  -4.084  1.00  0.00     0.164 HD
BRANCH  32  34
ATOM     34  C   UNL     1       0.051   2.309  -2.234  1.00  0.00     0.175 C 
BRANCH  34  35
ATOM     35  C   UNL     1      -1.268   1.533  -2.093  1.00  0.00     0.070 C 
BRANCH  35  36
ATOM     36  C   UNL     1      -2.319   1.983  -3.083  1.00  0.00    -0.045 A 
ATOM     37  C   UNL     1      -3.372   2.809  -2.662  1.00  0.00     0.007 A 
ATOM     38  C   UNL     1      -2.272   1.566  -4.420  1.00  0.00     0.007 A 
ATOM     39  C   UNL     1      -4.354   3.218  -3.565  1.00  0.00     0.046 A 
ATOM     40  C   UNL     1      -3.256   1.974  -5.324  1.00  0.00     0.046 A 
ATOM     41  C   UNL     1      -4.288   2.798  -4.888  1.00  0.00     0.115 A 
BRANCH  41  42
ATOM     42  O   UNL     1      -5.269   3.217  -5.737  1.00  0.00    -0.508 OA
ATOM     43  H   UNL     1      -4.859   3.754  -6.434  1.00  0.00     0.293 HD
ENDBRANCH  41  42
ENDBRANCH  35  36
ENDBRANCH  34  35
BRANCH  34  44
ATOM     44  C   UNL     1       1.171   1.438  -2.846  1.00  0.00     0.243 C 
ATOM     45  O   UNL     1       1.319   0.240  -2.621  1.00  0.00    -0.273 OA
ATOM     46  N   UNL     1       2.087   2.159  -3.582  1.00  0.00    -0.341 N 
ATOM     47  H   UNL     1       1.986   3.169  -3.644  1.00  0.00     0.164 HD
BRANCH  46  48
ATOM     48  C   UNL     1       3.272   1.561  -4.203  1.00  0.00     0.196 C 
BRANCH  48  49
ATOM     49  C   UNL     1       3.195   1.629  -5.737  1.00  0.00     0.072 C 
BRANCH  49  50
ATOM     50  C   UNL     1       1.872   1.134  -6.276  1.00  0.00    -0.045 A 
ATOM     51  C   UNL     1       1.523  -0.218  -6.140  1.00  0.00     0.007 A 
ATOM     52  C   UNL     1       0.990   2.003  -6.931  1.00  0.00     0.007 A 
ATOM     53  C   UNL     1       0.311  -0.689  -6.645  1.00  0.00     0.046 A 
ATOM     54  C   UNL     1      -0.224   1.531  -7.438  1.00  0.00     0.046 A 
ATOM     55  C   UNL     1      -0.553   0.188  -7.289  1.00  0.00     0.115 A 
BRANCH  55  56
ATOM     56  O   UNL     1      -1.727  -0.312  -7.769  1.00  0.00    -0.508 OA
ATOM     57  H   UNL     1      -2.450   0.010  -7.208  1.00  0.00     0.293 HD
ENDBRANCH  55  56
ENDBRANCH  49  50
ENDBRANCH  48  49
BRANCH  48  58
ATOM     58  C   UNL     1       4.520   2.310  -3.716  1.00  0.00     0.326 C 
ATOM     59  O   UNL     1       5.288   1.969  -2.831  1.00  0.00    -0.250 OA
BRANCH  58  60
ATOM     60  O   UNL     1       4.756   3.464  -4.389  1.00  0.00    -0.480 OA
ATOM     61  H   UNL     1       5.573   3.268  -4.896  1.00  0.00     0.296 HD
ENDBRANCH  58  60
ENDBRANCH  48  58
ENDBRANCH  46  48
ENDBRANCH  34  44
ENDBRANCH  32  34
ENDBRANCH  25  30
ENDBRANCH  23  25
ENDBRANCH   2  23
TORSDOF 28
ENDMDL
MODEL 39
REMARK VINA RESULT:    -5.682      3.226      6.305
REMARK INTER + INTRA:         -18.199
REMARK INTER:                 -12.220
REMARK INTRA:                  -5.979
REMARK UNBOUND:                -4.047
REMARK SMILES CCCCCCC[C@H](N)[C@H](O)C(=O)N[C@H](C)C(=O)N(C)[C@H](CC(C)C)C(=O)N[C@@H](Cc1ccc(O)cc1)C(=O)N[C@@H](Cc1ccc(O)cc1)C(=O)O
REMARK SMILES IDX 18 1 17 2 15 3 16 4 14 5 12 6 13 7 10 9 11 10 8 12 9 13 7 16
REMARK SMILES IDX 6 17 5 18 4 19 3 20 2 21 1 22 19 23 20 24 21 25 22 26 23 27
REMARK SMILES IDX 24 28 25 29 26 30 27 31 28 32 29 34 30 35 31 36 32 37 37 38
REMARK SMILES IDX 33 39 36 40 34 41 35 42 38 44 39 45 40 46 41 48 42 49 43 50
REMARK SMILES IDX 44 51 49 52 45 53 48 54 46 55 47 56 50 58 51 59 52 60
REMARK H PARENT 14 8 11 11 9 14 9 15 28 33 35 43 40 47 47 57 52 61
ROOT
ATOM      1  O   UNL     1       2.543   3.223  -3.510  1.00  0.00    -0.272 OA
ATOM      2  C   UNL     1       1.741   2.866  -4.385  1.00  0.00     0.245 C 
ENDROOT
BRANCH   2   3
ATOM      3  C   UNL     1       0.733   3.906  -4.936  1.00  0.00     0.168 C 
ATOM      4  C   UNL     1      -0.478   4.025  -4.017  1.00  0.00     0.041 C 
BRANCH   3   5
ATOM      5  N   UNL     1       1.306   5.206  -5.249  1.00  0.00    -0.342 N 
ATOM      6  C   UNL     1       1.356   5.687  -6.540  1.00  0.00     0.251 C 
ATOM      7  O   UNL     1       0.968   5.051  -7.515  1.00  0.00    -0.272 OA
ATOM      8  H   UNL     1       1.692   5.809  -4.527  1.00  0.00     0.164 HD
BRANCH   6   9
ATOM      9  C   UNL     1       1.870   7.134  -6.616  1.00  0.00     0.219 C 
BRANCH   9  10
ATOM     10  O   UNL     1       1.557   7.893  -5.442  1.00  0.00    -0.382 OA
ATOM     11  H   UNL     1       0.660   7.577  -5.195  1.00  0.00     0.211 HD
ENDBRANCH   9  10
BRANCH   9  12
ATOM     12  C   UNL     1       3.383   7.226  -6.945  1.00  0.00     0.089 C 
BRANCH  12  13
ATOM     13  N   UNL     1       3.922   5.852  -7.055  1.00  0.00    -0.325 NA
ATOM     14  H   UNL     1       3.613   5.304  -6.250  1.00  0.00     0.119 HD
ATOM     15  H   UNL     1       4.941   5.889  -6.977  1.00  0.00     0.119 HD
ENDBRANCH  12  13
BRANCH  12  16
ATOM     16  C   UNL     1       3.754   8.046  -8.204  1.00  0.00     0.022 C 
BRANCH  16  17
ATOM     17  C   UNL     1       4.718   7.438  -9.233  1.00  0.00     0.002 C 
BRANCH  17  18
ATOM     18  C   UNL     1       4.286   7.592 -10.689  1.00  0.00     0.000 C 
BRANCH  18  19
ATOM     19  C   UNL     1       5.447   7.558 -11.692  1.00  0.00    -0.000 C 
BRANCH  19  20
ATOM     20  C   UNL     1       5.089   7.030 -13.084  1.00  0.00    -0.000 C 
BRANCH  20  21
ATOM     21  C   UNL     1       5.836   5.745 -13.448  1.00  0.00    -0.003 C 
ATOM     22  C   UNL     1       6.295   4.999 -12.205  1.00  0.00     0.004 C 
ENDBRANCH  20  21
ENDBRANCH  19  20
ENDBRANCH  18  19
ENDBRANCH  17  18
ENDBRANCH  16  17
ENDBRANCH  12  16
ENDBRANCH   9  12
ENDBRANCH   6   9
ENDBRANCH   3   5
ENDBRANCH   2   3
BRANCH   2  23
ATOM     23  N   UNL     1       1.837   1.594  -4.939  1.00  0.00    -0.332 N 
ATOM     24  C   UNL     1       2.548   0.480  -4.331  1.00  0.00     0.147 C 
BRANCH  23  25
ATOM     25  C   UNL     1       1.080   1.254  -6.175  1.00  0.00     0.174 C 
BRANCH  25  26
ATOM     26  C   UNL     1       0.212  -0.018  -6.019  1.00  0.00     0.038 C 
BRANCH  26  27
ATOM     27  C   UNL     1      -1.299   0.127  -6.306  1.00  0.00    -0.015 C 
ATOM     28  C   UNL     1      -1.689   1.557  -6.678  1.00  0.00     0.007 C 
ATOM     29  C   UNL     1      -1.816  -0.860  -7.349  1.00  0.00     0.007 C 
ENDBRANCH  26  27
ENDBRANCH  25  26
BRANCH  25  30
ATOM     30  C   UNL     1       2.035   1.209  -7.389  1.00  0.00     0.243 C 
ATOM     31  O   UNL     1       2.347   0.150  -7.932  1.00  0.00    -0.273 OA
ATOM     32  N   UNL     1       2.514   2.422  -7.813  1.00  0.00    -0.342 N 
ATOM     33  H   UNL     1       2.101   3.263  -7.403  1.00  0.00     0.164 HD
BRANCH  32  34
ATOM     34  C   UNL     1       3.451   2.568  -8.930  1.00  0.00     0.175 C 
BRANCH  34  35
ATOM     35  C   UNL     1       3.189   3.865  -9.712  1.00  0.00     0.070 C 
BRANCH  35  36
ATOM     36  C   UNL     1       2.629   3.612 -11.094  1.00  0.00    -0.045 A 
ATOM     37  C   UNL     1       2.160   2.335 -11.438  1.00  0.00     0.007 A 
ATOM     38  C   UNL     1       2.591   4.632 -12.052  1.00  0.00     0.007 A 
ATOM     39  C   UNL     1       1.654   2.088 -12.714  1.00  0.00     0.046 A 
ATOM     40  C   UNL     1       2.086   4.386 -13.331  1.00  0.00     0.046 A 
ATOM     41  C   UNL     1       1.621   3.114 -13.650  1.00  0.00     0.115 A 
BRANCH  41  42
ATOM     42  O   UNL     1       1.122   2.831 -14.887  1.00  0.00    -0.508 OA
ATOM     43  H   UNL     1       1.209   3.625 -15.440  1.00  0.00     0.293 HD
ENDBRANCH  41  42
ENDBRANCH  35  36
ENDBRANCH  34  35
BRANCH  34  44
ATOM     44  C   UNL     1       4.887   2.517  -8.361  1.00  0.00     0.243 C 
ATOM     45  O   UNL     1       5.159   2.311  -7.182  1.00  0.00    -0.273 OA
ATOM     46  N   UNL     1       5.855   2.856  -9.283  1.00  0.00    -0.341 N 
ATOM     47  H   UNL     1       5.570   3.133 -10.219  1.00  0.00     0.164 HD
BRANCH  46  48
ATOM     48  C   UNL     1       7.280   2.944  -8.959  1.00  0.00     0.196 C 
BRANCH  48  49
ATOM     49  C   UNL     1       8.153   2.516 -10.151  1.00  0.00     0.072 C 
BRANCH  49  50
ATOM     50  C   UNL     1       7.724   1.192 -10.740  1.00  0.00    -0.045 A 
ATOM     51  C   UNL     1       7.118   0.227  -9.923  1.00  0.00     0.007 A 
ATOM     52  C   UNL     1       7.942   0.900 -12.093  1.00  0.00     0.007 A 
ATOM     53  C   UNL     1       6.730  -1.004 -10.453  1.00  0.00     0.046 A 
ATOM     54  C   UNL     1       7.555  -0.333 -12.623  1.00  0.00     0.046 A 
ATOM     55  C   UNL     1       6.951  -1.275 -11.798  1.00  0.00     0.115 A 
BRANCH  55  56
ATOM     56  O   UNL     1       6.559  -2.490 -12.276  1.00  0.00    -0.508 OA
ATOM     57  H   UNL     1       5.685  -2.696 -11.908  1.00  0.00     0.293 HD
ENDBRANCH  55  56
ENDBRANCH  49  50
ENDBRANCH  48  49
BRANCH  48  58
ATOM     58  C   UNL     1       7.615   4.390  -8.568  1.00  0.00     0.326 C 
ATOM     59  O   UNL     1       8.564   5.057  -8.947  1.00  0.00    -0.250 OA
BRANCH  58  60
ATOM     60  O   UNL     1       6.717   4.942  -7.714  1.00  0.00    -0.480 OA
ATOM     61  H   UNL     1       7.220   5.017  -6.874  1.00  0.00     0.296 HD
ENDBRANCH  58  60
ENDBRANCH  48  58
ENDBRANCH  46  48
ENDBRANCH  34  44
ENDBRANCH  32  34
ENDBRANCH  25  30
ENDBRANCH  23  25
ENDBRANCH   2  23
TORSDOF 28
ENDMDL
MODEL 40
REMARK VINA RESULT:    -5.680      4.828     13.261
REMARK INTER + INTRA:         -18.194
REMARK INTER:                 -15.327
REMARK INTRA:                  -2.867
REMARK UNBOUND:                -4.047
REMARK SMILES CCCCCCC[C@H](N)[C@H](O)C(=O)N[C@H](C)C(=O)N(C)[C@H](CC(C)C)C(=O)N[C@@H](Cc1ccc(O)cc1)C(=O)N[C@@H](Cc1ccc(O)cc1)C(=O)O
REMARK SMILES IDX 18 1 17 2 15 3 16 4 14 5 12 6 13 7 10 9 11 10 8 12 9 13 7 16
REMARK SMILES IDX 6 17 5 18 4 19 3 20 2 21 1 22 19 23 20 24 21 25 22 26 23 27
REMARK SMILES IDX 24 28 25 29 26 30 27 31 28 32 29 34 30 35 31 36 32 37 37 38
REMARK SMILES IDX 33 39 36 40 34 41 35 42 38 44 39 45 40 46 41 48 42 49 43 50
REMARK SMILES IDX 44 51 49 52 45 53 48 54 46 55 47 56 50 58 51 59 52 60
REMARK H PARENT 14 8 11 11 9 14 9 15 28 33 35 43 40 47 47 57 52 61
ROOT
ATOM      1  O   UNL     1       0.668   0.527  -2.185  1.00  0.00    -0.272 OA
ATOM      2  C   UNL     1       0.998   1.497  -2.883  1.00  0.00     0.245 C 
ENDROOT
BRANCH   2   3
ATOM      3  C   UNL     1       2.306   1.405  -3.708  1.00  0.00     0.168 C 
ATOM      4  C   UNL     1       3.321   0.501  -3.016  1.00  0.00     0.041 C 
BRANCH   3   5
ATOM      5  N   UNL     1       2.123   1.043  -5.105  1.00  0.00    -0.342 N 
ATOM      6  C   UNL     1       2.957   1.518  -6.096  1.00  0.00     0.251 C 
ATOM      7  O   UNL     1       3.877   2.302  -5.887  1.00  0.00    -0.272 OA
ATOM      8  H   UNL     1       1.372   0.427  -5.406  1.00  0.00     0.164 HD
BRANCH   6   9
ATOM      9  C   UNL     1       2.664   0.894  -7.469  1.00  0.00     0.219 C 
BRANCH   9  10
ATOM     10  O   UNL     1       1.483   0.084  -7.467  1.00  0.00    -0.382 OA
ATOM     11  H   UNL     1       1.470  -0.304  -6.565  1.00  0.00     0.211 HD
ENDBRANCH   9  10
BRANCH   9  12
ATOM     12  C   UNL     1       2.614   1.939  -8.615  1.00  0.00     0.089 C 
BRANCH  12  13
ATOM     13  N   UNL     1       2.328   3.266  -8.024  1.00  0.00    -0.325 NA
ATOM     14  H   UNL     1       1.318   3.378  -7.921  1.00  0.00     0.119 HD
ATOM     15  H   UNL     1       2.611   3.991  -8.688  1.00  0.00     0.119 HD
ENDBRANCH  12  13
BRANCH  12  16
ATOM     16  C   UNL     1       3.869   2.017  -9.517  1.00  0.00     0.022 C 
BRANCH  16  17
ATOM     17  C   UNL     1       4.517   0.716 -10.009  1.00  0.00     0.002 C 
BRANCH  17  18
ATOM     18  C   UNL     1       6.041   0.751 -10.106  1.00  0.00     0.000 C 
BRANCH  18  19
ATOM     19  C   UNL     1       6.672  -0.585 -10.520  1.00  0.00    -0.000 C 
BRANCH  19  20
ATOM     20  C   UNL     1       7.229  -0.627 -11.945  1.00  0.00    -0.000 C 
BRANCH  20  21
ATOM     21  C   UNL     1       7.673   0.747 -12.456  1.00  0.00    -0.003 C 
ATOM     22  C   UNL     1       8.866   0.632 -13.392  1.00  0.00     0.004 C 
ENDBRANCH  20  21
ENDBRANCH  19  20
ENDBRANCH  18  19
ENDBRANCH  17  18
ENDBRANCH  16  17
ENDBRANCH  12  16
ENDBRANCH   9  12
ENDBRANCH   6   9
ENDBRANCH   3   5
ENDBRANCH   2   3
BRANCH   2  23
ATOM     23  N   UNL     1       0.144   2.587  -3.010  1.00  0.00    -0.332 N 
ATOM     24  C   UNL     1       0.581   3.966  -3.172  1.00  0.00     0.147 C 
BRANCH  23  25
ATOM     25  C   UNL     1      -1.327   2.380  -3.116  1.00  0.00     0.174 C 
BRANCH  25  26
ATOM     26  C   UNL     1      -1.895   2.791  -4.495  1.00  0.00     0.038 C 
BRANCH  26  27
ATOM     27  C   UNL     1      -3.001   1.894  -5.092  1.00  0.00    -0.015 C 
ATOM     28  C   UNL     1      -4.218   2.696  -5.554  1.00  0.00     0.007 C 
ATOM     29  C   UNL     1      -2.505   0.980  -6.209  1.00  0.00     0.007 C 
ENDBRANCH  26  27
ENDBRANCH  25  26
BRANCH  25  30
ATOM     30  C   UNL     1      -2.046   3.049  -1.923  1.00  0.00     0.243 C 
ATOM     31  O   UNL     1      -1.772   2.767  -0.757  1.00  0.00    -0.273 OA
ATOM     32  N   UNL     1      -3.010   3.968  -2.250  1.00  0.00    -0.342 N 
ATOM     33  H   UNL     1      -3.081   4.250  -3.231  1.00  0.00     0.164 HD
BRANCH  32  34
ATOM     34  C   UNL     1      -3.811   4.680  -1.252  1.00  0.00     0.175 C 
BRANCH  34  35
ATOM     35  C   UNL     1      -3.162   6.018  -0.865  1.00  0.00     0.070 C 
BRANCH  35  36
ATOM     36  C   UNL     1      -2.593   6.008   0.536  1.00  0.00    -0.045 A 
ATOM     37  C   UNL     1      -3.453   6.017   1.644  1.00  0.00     0.007 A 
ATOM     38  C   UNL     1      -1.208   6.013   0.749  1.00  0.00     0.007 A 
ATOM     39  C   UNL     1      -2.937   6.022   2.940  1.00  0.00     0.046 A 
ATOM     40  C   UNL     1      -0.690   6.019   2.046  1.00  0.00     0.046 A 
ATOM     41  C   UNL     1      -1.560   6.022   3.131  1.00  0.00     0.115 A 
BRANCH  41  42
ATOM     42  O   UNL     1      -1.097   6.030   4.413  1.00  0.00    -0.508 OA
ATOM     43  H   UNL     1      -1.631   5.409   4.934  1.00  0.00     0.293 HD
ENDBRANCH  41  42
ENDBRANCH  35  36
ENDBRANCH  34  35
BRANCH  34  44
ATOM     44  C   UNL     1      -5.233   4.873  -1.827  1.00  0.00     0.243 C 
ATOM     45  O   UNL     1      -6.242   4.338  -1.377  1.00  0.00    -0.273 OA
ATOM     46  N   UNL     1      -5.257   5.609  -2.993  1.00  0.00    -0.341 N 
ATOM     47  H   UNL     1      -4.379   5.933  -3.391  1.00  0.00     0.164 HD
BRANCH  46  48
ATOM     48  C   UNL     1      -6.480   5.866  -3.758  1.00  0.00     0.196 C 
BRANCH  48  49
ATOM     49  C   UNL     1      -7.130   4.556  -4.231  1.00  0.00     0.072 C 
BRANCH  49  50
ATOM     50  C   UNL     1      -7.808   4.695  -5.576  1.00  0.00    -0.045 A 
ATOM     51  C   UNL     1      -7.068   5.114  -6.691  1.00  0.00     0.007 A 
ATOM     52  C   UNL     1      -9.175   4.432  -5.725  1.00  0.00     0.007 A 
ATOM     53  C   UNL     1      -7.685   5.259  -7.934  1.00  0.00     0.046 A 
ATOM     54  C   UNL     1      -9.793   4.578  -6.969  1.00  0.00     0.046 A 
ATOM     55  C   UNL     1      -9.042   4.990  -8.063  1.00  0.00     0.115 A 
BRANCH  55  56
ATOM     56  O   UNL     1      -9.607   5.146  -9.294  1.00  0.00    -0.508 OA
ATOM     57  H   UNL     1      -8.899   5.309  -9.938  1.00  0.00     0.293 HD
ENDBRANCH  55  56
ENDBRANCH  49  50
ENDBRANCH  48  49
BRANCH  48  58
ATOM     58  C   UNL     1      -7.467   6.641  -2.874  1.00  0.00     0.326 C 
ATOM     59  O   UNL     1      -7.443   7.832  -2.608  1.00  0.00    -0.250 OA
BRANCH  58  60
ATOM     60  O   UNL     1      -8.464   5.870  -2.371  1.00  0.00    -0.480 OA
ATOM     61  H   UNL     1      -8.178   5.706  -1.446  1.00  0.00     0.296 HD
ENDBRANCH  58  60
ENDBRANCH  48  58
ENDBRANCH  46  48
ENDBRANCH  34  44
ENDBRANCH  32  34
ENDBRANCH  25  30
ENDBRANCH  23  25
ENDBRANCH   2  23
TORSDOF 28
ENDMDL
MODEL 41
REMARK VINA RESULT:    -5.679      2.861      7.316
REMARK INTER + INTRA:         -18.191
REMARK INTER:                 -13.414
REMARK INTRA:                  -4.777
REMARK UNBOUND:                -4.047
REMARK SMILES CCCCCCC[C@H](N)[C@H](O)C(=O)N[C@H](C)C(=O)N(C)[C@H](CC(C)C)C(=O)N[C@@H](Cc1ccc(O)cc1)C(=O)N[C@@H](Cc1ccc(O)cc1)C(=O)O
REMARK SMILES IDX 18 1 17 2 15 3 16 4 14 5 12 6 13 7 10 9 11 10 8 12 9 13 7 16
REMARK SMILES IDX 6 17 5 18 4 19 3 20 2 21 1 22 19 23 20 24 21 25 22 26 23 27
REMARK SMILES IDX 24 28 25 29 26 30 27 31 28 32 29 34 30 35 31 36 32 37 37 38
REMARK SMILES IDX 33 39 36 40 34 41 35 42 38 44 39 45 40 46 41 48 42 49 43 50
REMARK SMILES IDX 44 51 49 52 45 53 48 54 46 55 47 56 50 58 51 59 52 60
REMARK H PARENT 14 8 11 11 9 14 9 15 28 33 35 43 40 47 47 57 52 61
ROOT
ATOM      1  O   UNL     1       5.204   3.343  -3.329  1.00  0.00    -0.272 OA
ATOM      2  C   UNL     1       5.076   4.443  -3.886  1.00  0.00     0.245 C 
ENDROOT
BRANCH   2   3
ATOM      3  C   UNL     1       5.438   5.722  -3.091  1.00  0.00     0.168 C 
ATOM      4  C   UNL     1       5.740   5.388  -1.635  1.00  0.00     0.041 C 
BRANCH   3   5
ATOM      5  N   UNL     1       6.485   6.537  -3.688  1.00  0.00    -0.342 N 
ATOM      6  C   UNL     1       6.450   7.915  -3.643  1.00  0.00     0.251 C 
ATOM      7  O   UNL     1       5.530   8.552  -3.142  1.00  0.00    -0.272 OA
ATOM      8  H   UNL     1       7.283   6.121  -4.163  1.00  0.00     0.164 HD
BRANCH   6   9
ATOM      9  C   UNL     1       7.726   8.560  -4.209  1.00  0.00     0.219 C 
BRANCH   9  10
ATOM     10  O   UNL     1       8.778   7.611  -4.421  1.00  0.00    -0.382 OA
ATOM     11  H   UNL     1       9.521   8.161  -4.755  1.00  0.00     0.211 HD
ENDBRANCH   9  10
BRANCH   9  12
ATOM     12  C   UNL     1       7.469   9.393  -5.492  1.00  0.00     0.089 C 
BRANCH  12  13
ATOM     13  N   UNL     1       8.771   9.665  -6.142  1.00  0.00    -0.325 NA
ATOM     14  H   UNL     1       9.315   8.800  -6.179  1.00  0.00     0.119 HD
ATOM     15  H   UNL     1       9.313  10.295  -5.546  1.00  0.00     0.119 HD
ENDBRANCH  12  13
BRANCH  12  16
ATOM     16  C   UNL     1       6.483   8.777  -6.514  1.00  0.00     0.022 C 
BRANCH  16  17
ATOM     17  C   UNL     1       6.954   7.614  -7.398  1.00  0.00     0.002 C 
BRANCH  17  18
ATOM     18  C   UNL     1       6.666   7.780  -8.889  1.00  0.00     0.000 C 
BRANCH  18  19
ATOM     19  C   UNL     1       5.320   7.193  -9.335  1.00  0.00    -0.000 C 
BRANCH  19  20
ATOM     20  C   UNL     1       5.218   6.862 -10.826  1.00  0.00    -0.000 C 
BRANCH  20  21
ATOM     21  C   UNL     1       5.698   5.447 -11.161  1.00  0.00    -0.003 C 
ATOM     22  C   UNL     1       4.527   4.501 -11.379  1.00  0.00     0.004 C 
ENDBRANCH  20  21
ENDBRANCH  19  20
ENDBRANCH  18  19
ENDBRANCH  17  18
ENDBRANCH  16  17
ENDBRANCH  12  16
ENDBRANCH   9  12
ENDBRANCH   6   9
ENDBRANCH   3   5
ENDBRANCH   2   3
BRANCH   2  23
ATOM     23  N   UNL     1       4.733   4.505  -5.232  1.00  0.00    -0.332 N 
ATOM     24  C   UNL     1       3.932   5.562  -5.832  1.00  0.00     0.147 C 
BRANCH  23  25
ATOM     25  C   UNL     1       5.294   3.520  -6.197  1.00  0.00     0.174 C 
BRANCH  25  26
ATOM     26  C   UNL     1       6.030   4.189  -7.382  1.00  0.00     0.038 C 
BRANCH  26  27
ATOM     27  C   UNL     1       6.871   3.268  -8.293  1.00  0.00    -0.015 C 
ATOM     28  C   UNL     1       8.132   3.956  -8.814  1.00  0.00     0.007 C 
ATOM     29  C   UNL     1       7.217   1.928  -7.649  1.00  0.00     0.007 C 
ENDBRANCH  26  27
ENDBRANCH  25  26
BRANCH  25  30
ATOM     30  C   UNL     1       4.200   2.518  -6.631  1.00  0.00     0.243 C 
ATOM     31  O   UNL     1       3.716   1.704  -5.846  1.00  0.00    -0.273 OA
ATOM     32  N   UNL     1       3.813   2.594  -7.944  1.00  0.00    -0.342 N 
ATOM     33  H   UNL     1       4.156   3.385  -8.494  1.00  0.00     0.164 HD
BRANCH  32  34
ATOM     34  C   UNL     1       2.809   1.705  -8.537  1.00  0.00     0.175 C 
BRANCH  34  35
ATOM     35  C   UNL     1       1.465   2.426  -8.722  1.00  0.00     0.070 C 
BRANCH  35  36
ATOM     36  C   UNL     1       0.415   1.969  -7.734  1.00  0.00    -0.045 A 
ATOM     37  C   UNL     1       0.568   0.745  -7.065  1.00  0.00     0.007 A 
ATOM     38  C   UNL     1      -0.728   2.741  -7.491  1.00  0.00     0.007 A 
ATOM     39  C   UNL     1      -0.402   0.308  -6.162  1.00  0.00     0.046 A 
ATOM     40  C   UNL     1      -1.700   2.304  -6.588  1.00  0.00     0.046 A 
ATOM     41  C   UNL     1      -1.527   1.090  -5.931  1.00  0.00     0.115 A 
BRANCH  41  42
ATOM     42  O   UNL     1      -2.453   0.626  -5.043  1.00  0.00    -0.508 OA
ATOM     43  H   UNL     1      -2.101  -0.181  -4.631  1.00  0.00     0.293 HD
ENDBRANCH  41  42
ENDBRANCH  35  36
ENDBRANCH  34  35
BRANCH  34  44
ATOM     44  C   UNL     1       3.370   1.176  -9.876  1.00  0.00     0.243 C 
ATOM     45  O   UNL     1       2.876   1.410 -10.976  1.00  0.00    -0.273 OA
ATOM     46  N   UNL     1       4.418   0.294  -9.722  1.00  0.00    -0.341 N 
ATOM     47  H   UNL     1       4.716   0.040  -8.783  1.00  0.00     0.164 HD
BRANCH  46  48
ATOM     48  C   UNL     1       5.068  -0.390 -10.842  1.00  0.00     0.196 C 
BRANCH  48  49
ATOM     49  C   UNL     1       6.598  -0.388 -10.688  1.00  0.00     0.072 C 
BRANCH  49  50
ATOM     50  C   UNL     1       7.285   0.483 -11.715  1.00  0.00    -0.045 A 
ATOM     51  C   UNL     1       7.199   1.880 -11.616  1.00  0.00     0.007 A 
ATOM     52  C   UNL     1       7.994  -0.083 -12.782  1.00  0.00     0.007 A 
ATOM     53  C   UNL     1       7.818   2.694 -12.565  1.00  0.00     0.046 A 
ATOM     54  C   UNL     1       8.613   0.733 -13.733  1.00  0.00     0.046 A 
ATOM     55  C   UNL     1       8.520   2.115 -13.615  1.00  0.00     0.115 A 
BRANCH  55  56
ATOM     56  O   UNL     1       9.109   2.946 -14.522  1.00  0.00    -0.508 OA
ATOM     57  H   UNL     1       9.384   2.417 -15.287  1.00  0.00     0.293 HD
ENDBRANCH  55  56
ENDBRANCH  49  50
ENDBRANCH  48  49
BRANCH  48  58
ATOM     58  C   UNL     1       4.558  -1.837 -10.908  1.00  0.00     0.326 C 
ATOM     59  O   UNL     1       4.961  -2.730 -11.635  1.00  0.00    -0.250 OA
BRANCH  58  60
ATOM     60  O   UNL     1       3.558  -2.098 -10.029  1.00  0.00    -0.480 OA
ATOM     61  H   UNL     1       4.006  -2.617  -9.325  1.00  0.00     0.296 HD
ENDBRANCH  58  60
ENDBRANCH  48  58
ENDBRANCH  46  48
ENDBRANCH  34  44
ENDBRANCH  32  34
ENDBRANCH  25  30
ENDBRANCH  23  25
ENDBRANCH   2  23
TORSDOF 28
ENDMDL
MODEL 42
REMARK VINA RESULT:    -5.671      3.790      9.178
REMARK INTER + INTRA:         -18.172
REMARK INTER:                 -13.136
REMARK INTRA:                  -5.035
REMARK UNBOUND:                -4.047
REMARK SMILES CCCCCCC[C@H](N)[C@H](O)C(=O)N[C@H](C)C(=O)N(C)[C@H](CC(C)C)C(=O)N[C@@H](Cc1ccc(O)cc1)C(=O)N[C@@H](Cc1ccc(O)cc1)C(=O)O
REMARK SMILES IDX 18 1 17 2 15 3 16 4 14 5 12 6 13 7 10 9 11 10 8 12 9 13 7 16
REMARK SMILES IDX 6 17 5 18 4 19 3 20 2 21 1 22 19 23 20 24 21 25 22 26 23 27
REMARK SMILES IDX 24 28 25 29 26 30 27 31 28 32 29 34 30 35 31 36 32 37 37 38
REMARK SMILES IDX 33 39 36 40 34 41 35 42 38 44 39 45 40 46 41 48 42 49 43 50
REMARK SMILES IDX 44 51 49 52 45 53 48 54 46 55 47 56 50 58 51 59 52 60
REMARK H PARENT 14 8 11 11 9 14 9 15 28 33 35 43 40 47 47 57 52 61
ROOT
ATOM      1  O   UNL     1      -0.177   4.885  -9.860  1.00  0.00    -0.272 OA
ATOM      2  C   UNL     1       0.398   5.616 -10.680  1.00  0.00     0.245 C 
ENDROOT
BRANCH   2   3
ATOM      3  C   UNL     1       0.849   7.027 -10.226  1.00  0.00     0.168 C 
ATOM      4  C   UNL     1      -0.357   7.909  -9.922  1.00  0.00     0.041 C 
BRANCH   3   5
ATOM      5  N   UNL     1       1.817   7.039  -9.140  1.00  0.00    -0.342 N 
ATOM      6  C   UNL     1       3.171   7.156  -9.374  1.00  0.00     0.251 C 
ATOM      7  O   UNL     1       3.661   7.215 -10.497  1.00  0.00    -0.272 OA
ATOM      8  H   UNL     1       1.532   6.962  -8.167  1.00  0.00     0.164 HD
BRANCH   6   9
ATOM      9  C   UNL     1       3.988   7.291  -8.079  1.00  0.00     0.219 C 
BRANCH   9  10
ATOM     10  O   UNL     1       3.384   8.183  -7.135  1.00  0.00    -0.382 OA
ATOM     11  H   UNL     1       3.012   8.897  -7.698  1.00  0.00     0.211 HD
ENDBRANCH   9  10
BRANCH   9  12
ATOM     12  C   UNL     1       4.311   5.925  -7.418  1.00  0.00     0.089 C 
BRANCH  12  13
ATOM     13  N   UNL     1       3.038   5.299  -6.994  1.00  0.00    -0.325 NA
ATOM     14  H   UNL     1       3.234   4.575  -6.300  1.00  0.00     0.119 HD
ATOM     15  H   UNL     1       2.632   4.802  -7.790  1.00  0.00     0.119 HD
ENDBRANCH  12  13
BRANCH  12  16
ATOM     16  C   UNL     1       5.131   4.933  -8.276  1.00  0.00     0.022 C 
BRANCH  16  17
ATOM     17  C   UNL     1       6.433   5.413  -8.934  1.00  0.00     0.002 C 
BRANCH  17  18
ATOM     18  C   UNL     1       7.667   5.357  -8.037  1.00  0.00     0.000 C 
BRANCH  18  19
ATOM     19  C   UNL     1       8.811   6.273  -8.491  1.00  0.00    -0.000 C 
BRANCH  19  20
ATOM     20  C   UNL     1       9.639   5.746  -9.666  1.00  0.00    -0.000 C 
BRANCH  20  21
ATOM     21  C   UNL     1      10.408   4.465  -9.331  1.00  0.00    -0.003 C 
ATOM     22  C   UNL     1       9.912   3.288 -10.158  1.00  0.00     0.004 C 
ENDBRANCH  20  21
ENDBRANCH  19  20
ENDBRANCH  18  19
ENDBRANCH  17  18
ENDBRANCH  16  17
ENDBRANCH  12  16
ENDBRANCH   9  12
ENDBRANCH   6   9
ENDBRANCH   3   5
ENDBRANCH   2   3
BRANCH   2  23
ATOM     23  N   UNL     1       0.735   5.122 -11.935  1.00  0.00    -0.332 N 
ATOM     24  C   UNL     1      -0.143   5.148 -13.096  1.00  0.00     0.147 C 
BRANCH  23  25
ATOM     25  C   UNL     1       2.115   4.634 -12.205  1.00  0.00     0.174 C 
BRANCH  25  26
ATOM     26  C   UNL     1       2.519   4.762 -13.693  1.00  0.00     0.038 C 
BRANCH  26  27
ATOM     27  C   UNL     1       3.668   5.741 -14.024  1.00  0.00    -0.015 C 
ATOM     28  C   UNL     1       4.939   5.440 -13.231  1.00  0.00     0.007 C 
ATOM     29  C   UNL     1       3.975   5.833 -15.517  1.00  0.00     0.007 C 
ENDBRANCH  26  27
ENDBRANCH  25  26
BRANCH  25  30
ATOM     30  C   UNL     1       2.297   3.209 -11.632  1.00  0.00     0.243 C 
ATOM     31  O   UNL     1       1.997   2.206 -12.277  1.00  0.00    -0.273 OA
ATOM     32  N   UNL     1       2.806   3.142 -10.361  1.00  0.00    -0.342 N 
ATOM     33  H   UNL     1       3.161   4.007  -9.946  1.00  0.00     0.164 HD
BRANCH  32  34
ATOM     34  C   UNL     1       3.020   1.879  -9.649  1.00  0.00     0.175 C 
BRANCH  34  35
ATOM     35  C   UNL     1       4.488   1.718  -9.227  1.00  0.00     0.070 C 
BRANCH  35  36
ATOM     36  C   UNL     1       5.191   0.603  -9.969  1.00  0.00    -0.045 A 
ATOM     37  C   UNL     1       6.591   0.590 -10.054  1.00  0.00     0.007 A 
ATOM     38  C   UNL     1       4.460  -0.414 -10.597  1.00  0.00     0.007 A 
ATOM     39  C   UNL     1       7.248  -0.426 -10.748  1.00  0.00     0.046 A 
ATOM     40  C   UNL     1       5.117  -1.432 -11.294  1.00  0.00     0.046 A 
ATOM     41  C   UNL     1       6.506  -1.429 -11.362  1.00  0.00     0.115 A 
BRANCH  41  42
ATOM     42  O   UNL     1       7.186  -2.402 -12.033  1.00  0.00    -0.508 OA
ATOM     43  H   UNL     1       6.804  -2.481 -12.923  1.00  0.00     0.293 HD
ENDBRANCH  41  42
ENDBRANCH  35  36
ENDBRANCH  34  35
BRANCH  34  44
ATOM     44  C   UNL     1       2.063   1.846  -8.435  1.00  0.00     0.243 C 
ATOM     45  O   UNL     1       0.859   2.078  -8.494  1.00  0.00    -0.273 OA
ATOM     46  N   UNL     1       2.710   1.656  -7.232  1.00  0.00    -0.341 N 
ATOM     47  H   UNL     1       3.724   1.585  -7.222  1.00  0.00     0.164 HD
BRANCH  46  48
ATOM     48  C   UNL     1       2.022   1.655  -5.939  1.00  0.00     0.196 C 
BRANCH  48  49
ATOM     49  C   UNL     1       1.525   0.248  -5.570  1.00  0.00     0.072 C 
BRANCH  49  50
ATOM     50  C   UNL     1       0.088   0.013  -5.976  1.00  0.00    -0.045 A 
ATOM     51  C   UNL     1      -0.897   0.953  -5.639  1.00  0.00     0.007 A 
ATOM     52  C   UNL     1      -0.285  -1.145  -6.670  1.00  0.00     0.007 A 
ATOM     53  C   UNL     1      -2.228   0.741  -5.997  1.00  0.00     0.046 A 
ATOM     54  C   UNL     1      -1.619  -1.358  -7.028  1.00  0.00     0.046 A 
ATOM     55  C   UNL     1      -2.579  -0.412  -6.689  1.00  0.00     0.115 A 
BRANCH  55  56
ATOM     56  O   UNL     1      -3.891  -0.582  -7.018  1.00  0.00    -0.508 OA
ATOM     57  H   UNL     1      -3.936  -0.946  -7.916  1.00  0.00     0.293 HD
ENDBRANCH  55  56
ENDBRANCH  49  50
ENDBRANCH  48  49
BRANCH  48  58
ATOM     58  C   UNL     1       2.989   2.160  -4.859  1.00  0.00     0.326 C 
ATOM     59  O   UNL     1       2.959   1.908  -3.665  1.00  0.00    -0.250 OA
BRANCH  58  60
ATOM     60  O   UNL     1       3.973   2.959  -5.343  1.00  0.00    -0.480 OA
ATOM     61  H   UNL     1       4.569   2.329  -5.803  1.00  0.00     0.296 HD
ENDBRANCH  58  60
ENDBRANCH  48  58
ENDBRANCH  46  48
ENDBRANCH  34  44
ENDBRANCH  32  34
ENDBRANCH  25  30
ENDBRANCH  23  25
ENDBRANCH   2  23
TORSDOF 28
ENDMDL
MODEL 43
REMARK VINA RESULT:    -5.663      1.931      2.792
REMARK INTER + INTRA:         -18.151
REMARK INTER:                 -13.957
REMARK INTRA:                  -4.194
REMARK UNBOUND:                -4.047
REMARK SMILES CCCCCCC[C@H](N)[C@H](O)C(=O)N[C@H](C)C(=O)N(C)[C@H](CC(C)C)C(=O)N[C@@H](Cc1ccc(O)cc1)C(=O)N[C@@H](Cc1ccc(O)cc1)C(=O)O
REMARK SMILES IDX 18 1 17 2 15 3 16 4 14 5 12 6 13 7 10 9 11 10 8 12 9 13 7 16
REMARK SMILES IDX 6 17 5 18 4 19 3 20 2 21 1 22 19 23 20 24 21 25 22 26 23 27
REMARK SMILES IDX 24 28 25 29 26 30 27 31 28 32 29 34 30 35 31 36 32 37 37 38
REMARK SMILES IDX 33 39 36 40 34 41 35 42 38 44 39 45 40 46 41 48 42 49 43 50
REMARK SMILES IDX 44 51 49 52 45 53 48 54 46 55 47 56 50 58 51 59 52 60
REMARK H PARENT 14 8 11 11 9 14 9 15 28 33 35 43 40 47 47 57 52 61
ROOT
ATOM      1  O   UNL     1       4.754   2.189  -2.844  1.00  0.00    -0.272 OA
ATOM      2  C   UNL     1       4.014   1.632  -3.668  1.00  0.00     0.245 C 
ENDROOT
BRANCH   2   3
ATOM      3  C   UNL     1       3.042   0.534  -3.169  1.00  0.00     0.168 C 
ATOM      4  C   UNL     1       3.728  -0.378  -2.158  1.00  0.00     0.041 C 
BRANCH   3   5
ATOM      5  N   UNL     1       1.765   1.027  -2.674  1.00  0.00    -0.342 N 
ATOM      6  C   UNL     1       0.580   0.761  -3.326  1.00  0.00     0.251 C 
ATOM      7  O   UNL     1       0.513   0.134  -4.379  1.00  0.00    -0.272 OA
ATOM      8  H   UNL     1       1.699   1.588  -1.828  1.00  0.00     0.164 HD
BRANCH   6   9
ATOM      9  C   UNL     1      -0.650   1.257  -2.550  1.00  0.00     0.219 C 
BRANCH   9  10
ATOM     10  O   UNL     1      -0.790   0.624  -1.272  1.00  0.00    -0.382 OA
ATOM     11  H   UNL     1      -0.567   1.338  -0.635  1.00  0.00     0.211 HD
ENDBRANCH   9  10
BRANCH   9  12
ATOM     12  C   UNL     1      -0.698   2.801  -2.408  1.00  0.00     0.089 C 
BRANCH  12  13
ATOM     13  N   UNL     1       0.405   3.223  -1.515  1.00  0.00    -0.325 NA
ATOM     14  H   UNL     1       1.299   3.032  -1.972  1.00  0.00     0.119 HD
ATOM     15  H   UNL     1       0.401   2.630  -0.681  1.00  0.00     0.119 HD
ENDBRANCH  12  13
BRANCH  12  16
ATOM     16  C   UNL     1      -0.650   3.605  -3.729  1.00  0.00     0.022 C 
BRANCH  16  17
ATOM     17  C   UNL     1      -1.954   4.170  -4.308  1.00  0.00     0.002 C 
BRANCH  17  18
ATOM     18  C   UNL     1      -1.988   4.284  -5.830  1.00  0.00     0.000 C 
BRANCH  18  19
ATOM     19  C   UNL     1      -0.822   5.086  -6.423  1.00  0.00    -0.000 C 
BRANCH  19  20
ATOM     20  C   UNL     1      -0.233   4.517  -7.717  1.00  0.00    -0.000 C 
BRANCH  20  21
ATOM     21  C   UNL     1       1.275   4.751  -7.843  1.00  0.00    -0.003 C 
ATOM     22  C   UNL     1       1.889   3.850  -8.903  1.00  0.00     0.004 C 
ENDBRANCH  20  21
ENDBRANCH  19  20
ENDBRANCH  18  19
ENDBRANCH  17  18
ENDBRANCH  16  17
ENDBRANCH  12  16
ENDBRANCH   9  12
ENDBRANCH   6   9
ENDBRANCH   3   5
ENDBRANCH   2   3
BRANCH   2  23
ATOM     23  N   UNL     1       3.979   2.078  -4.985  1.00  0.00    -0.332 N 
ATOM     24  C   UNL     1       2.935   1.746  -5.943  1.00  0.00     0.147 C 
BRANCH  23  25
ATOM     25  C   UNL     1       4.985   3.063  -5.471  1.00  0.00     0.174 C 
BRANCH  25  26
ATOM     26  C   UNL     1       4.342   4.350  -6.039  1.00  0.00     0.038 C 
BRANCH  26  27
ATOM     27  C   UNL     1       4.562   5.654  -5.239  1.00  0.00    -0.015 C 
ATOM     28  C   UNL     1       3.260   6.419  -5.001  1.00  0.00     0.007 C 
ATOM     29  C   UNL     1       5.308   5.441  -3.924  1.00  0.00     0.007 C 
ENDBRANCH  26  27
ENDBRANCH  25  26
BRANCH  25  30
ATOM     30  C   UNL     1       5.971   2.379  -6.445  1.00  0.00     0.243 C 
ATOM     31  O   UNL     1       6.825   1.584  -6.054  1.00  0.00    -0.273 OA
ATOM     32  N   UNL     1       5.835   2.723  -7.766  1.00  0.00    -0.342 N 
ATOM     33  H   UNL     1       5.017   3.277  -8.029  1.00  0.00     0.164 HD
BRANCH  32  34
ATOM     34  C   UNL     1       6.700   2.195  -8.825  1.00  0.00     0.175 C 
BRANCH  34  35
ATOM     35  C   UNL     1       5.942   2.072 -10.155  1.00  0.00     0.070 C 
BRANCH  35  36
ATOM     36  C   UNL     1       6.045   0.691 -10.762  1.00  0.00    -0.045 A 
ATOM     37  C   UNL     1       4.960  -0.195 -10.678  1.00  0.00     0.007 A 
ATOM     38  C   UNL     1       7.223   0.268 -11.391  1.00  0.00     0.007 A 
ATOM     39  C   UNL     1       5.050  -1.476 -11.223  1.00  0.00     0.046 A 
ATOM     40  C   UNL     1       7.315  -1.015 -11.935  1.00  0.00     0.046 A 
ATOM     41  C   UNL     1       6.226  -1.876 -11.847  1.00  0.00     0.115 A 
BRANCH  41  42
ATOM     42  O   UNL     1       6.274  -3.137 -12.363  1.00  0.00    -0.508 OA
ATOM     43  H   UNL     1       6.901  -3.659 -11.835  1.00  0.00     0.293 HD
ENDBRANCH  41  42
ENDBRANCH  35  36
ENDBRANCH  34  35
BRANCH  34  44
ATOM     44  C   UNL     1       7.930   3.122  -8.944  1.00  0.00     0.243 C 
ATOM     45  O   UNL     1       9.095   2.733  -8.936  1.00  0.00    -0.273 OA
ATOM     46  N   UNL     1       7.610   4.463  -8.932  1.00  0.00    -0.341 N 
ATOM     47  H   UNL     1       6.638   4.738  -8.820  1.00  0.00     0.164 HD
BRANCH  46  48
ATOM     48  C   UNL     1       8.612   5.531  -8.967  1.00  0.00     0.196 C 
BRANCH  48  49
ATOM     49  C   UNL     1       8.577   6.289 -10.304  1.00  0.00     0.072 C 
BRANCH  49  50
ATOM     50  C   UNL     1       7.309   6.029 -11.087  1.00  0.00    -0.045 A 
ATOM     51  C   UNL     1       6.138   6.733 -10.774  1.00  0.00     0.007 A 
ATOM     52  C   UNL     1       7.278   5.076 -12.112  1.00  0.00     0.007 A 
ATOM     53  C   UNL     1       4.959   6.493 -11.480  1.00  0.00     0.046 A 
ATOM     54  C   UNL     1       6.098   4.833 -12.819  1.00  0.00     0.046 A 
ATOM     55  C   UNL     1       4.948   5.546 -12.497  1.00  0.00     0.115 A 
BRANCH  55  56
ATOM     56  O   UNL     1       3.776   5.339 -13.162  1.00  0.00    -0.508 OA
ATOM     57  H   UNL     1       3.646   6.068 -13.788  1.00  0.00     0.293 HD
ENDBRANCH  55  56
ENDBRANCH  49  50
ENDBRANCH  48  49
BRANCH  48  58
ATOM     58  C   UNL     1       8.341   6.507  -7.814  1.00  0.00     0.326 C 
ATOM     59  O   UNL     1       7.498   6.400  -6.938  1.00  0.00    -0.250 OA
BRANCH  58  60
ATOM     60  O   UNL     1       9.168   7.583  -7.810  1.00  0.00    -0.480 OA
ATOM     61  H   UNL     1       8.581   8.320  -8.083  1.00  0.00     0.296 HD
ENDBRANCH  58  60
ENDBRANCH  48  58
ENDBRANCH  46  48
ENDBRANCH  34  44
ENDBRANCH  32  34
ENDBRANCH  25  30
ENDBRANCH  23  25
ENDBRANCH   2  23
TORSDOF 28
ENDMDL
MODEL 44
REMARK VINA RESULT:    -5.650      2.656      9.493
REMARK INTER + INTRA:         -18.118
REMARK INTER:                 -13.407
REMARK INTRA:                  -4.712
REMARK UNBOUND:                -4.047
REMARK SMILES CCCCCCC[C@H](N)[C@H](O)C(=O)N[C@H](C)C(=O)N(C)[C@H](CC(C)C)C(=O)N[C@@H](Cc1ccc(O)cc1)C(=O)N[C@@H](Cc1ccc(O)cc1)C(=O)O
REMARK SMILES IDX 18 1 17 2 15 3 16 4 14 5 12 6 13 7 10 9 11 10 8 12 9 13 7 16
REMARK SMILES IDX 6 17 5 18 4 19 3 20 2 21 1 22 19 23 20 24 21 25 22 26 23 27
REMARK SMILES IDX 24 28 25 29 26 30 27 31 28 32 29 34 30 35 31 36 32 37 37 38
REMARK SMILES IDX 33 39 36 40 34 41 35 42 38 44 39 45 40 46 41 48 42 49 43 50
REMARK SMILES IDX 44 51 49 52 45 53 48 54 46 55 47 56 50 58 51 59 52 60
REMARK H PARENT 14 8 11 11 9 14 9 15 28 33 35 43 40 47 47 57 52 61
ROOT
ATOM      1  O   UNL     1       9.059   7.197  -5.781  1.00  0.00    -0.272 OA
ATOM      2  C   UNL     1       8.100   7.888  -6.156  1.00  0.00     0.245 C 
ENDROOT
BRANCH   2   3
ATOM      3  C   UNL     1       7.801   7.978  -7.674  1.00  0.00     0.168 C 
ATOM      4  C   UNL     1       8.998   8.548  -8.428  1.00  0.00     0.041 C 
BRANCH   3   5
ATOM      5  N   UNL     1       7.318   6.746  -8.276  1.00  0.00    -0.342 N 
ATOM      6  C   UNL     1       6.434   6.750  -9.334  1.00  0.00     0.251 C 
ATOM      7  O   UNL     1       5.962   7.774  -9.816  1.00  0.00    -0.272 OA
ATOM      8  H   UNL     1       7.613   5.832  -7.939  1.00  0.00     0.164 HD
BRANCH   6   9
ATOM      9  C   UNL     1       6.175   5.344  -9.898  1.00  0.00     0.219 C 
BRANCH   9  10
ATOM     10  O   UNL     1       5.038   5.299 -10.769  1.00  0.00    -0.382 OA
ATOM     11  H   UNL     1       5.399   4.920 -11.600  1.00  0.00     0.211 HD
ENDBRANCH   9  10
BRANCH   9  12
ATOM     12  C   UNL     1       7.419   4.724 -10.585  1.00  0.00     0.089 C 
BRANCH  12  13
ATOM     13  N   UNL     1       8.297   5.824 -11.043  1.00  0.00    -0.325 NA
ATOM     14  H   UNL     1       9.238   5.681 -10.670  1.00  0.00     0.119 HD
ATOM     15  H   UNL     1       7.975   6.701 -10.625  1.00  0.00     0.119 HD
ENDBRANCH  12  13
BRANCH  12  16
ATOM     16  C   UNL     1       8.230   3.715  -9.735  1.00  0.00     0.022 C 
BRANCH  16  17
ATOM     17  C   UNL     1       8.672   2.390 -10.371  1.00  0.00     0.002 C 
BRANCH  17  18
ATOM     18  C   UNL     1       7.693   1.802 -11.384  1.00  0.00     0.000 C 
BRANCH  18  19
ATOM     19  C   UNL     1       8.224   0.566 -12.122  1.00  0.00    -0.000 C 
BRANCH  19  20
ATOM     20  C   UNL     1       7.196  -0.544 -12.355  1.00  0.00    -0.000 C 
BRANCH  20  21
ATOM     21  C   UNL     1       6.752  -1.232 -11.061  1.00  0.00    -0.003 C 
ATOM     22  C   UNL     1       5.913  -2.467 -11.349  1.00  0.00     0.004 C 
ENDBRANCH  20  21
ENDBRANCH  19  20
ENDBRANCH  18  19
ENDBRANCH  17  18
ENDBRANCH  16  17
ENDBRANCH  12  16
ENDBRANCH   9  12
ENDBRANCH   6   9
ENDBRANCH   3   5
ENDBRANCH   2   3
BRANCH   2  23
ATOM     23  N   UNL     1       7.247   8.461  -5.219  1.00  0.00    -0.332 N 
ATOM     24  C   UNL     1       7.035   9.892  -5.062  1.00  0.00     0.147 C 
BRANCH  23  25
ATOM     25  C   UNL     1       6.372   7.602  -4.375  1.00  0.00     0.174 C 
BRANCH  25  26
ATOM     26  C   UNL     1       7.165   6.765  -3.344  1.00  0.00     0.038 C 
BRANCH  26  27
ATOM     27  C   UNL     1       6.813   6.972  -1.854  1.00  0.00    -0.015 C 
ATOM     28  C   UNL     1       6.892   8.439  -1.434  1.00  0.00     0.007 C 
ATOM     29  C   UNL     1       5.466   6.372  -1.459  1.00  0.00     0.007 C 
ENDBRANCH  26  27
ENDBRANCH  25  26
BRANCH  25  30
ATOM     30  C   UNL     1       5.432   6.760  -5.268  1.00  0.00     0.243 C 
ATOM     31  O   UNL     1       4.782   7.264  -6.183  1.00  0.00    -0.273 OA
ATOM     32  N   UNL     1       5.366   5.424  -4.967  1.00  0.00    -0.342 N 
ATOM     33  H   UNL     1       6.039   5.058  -4.288  1.00  0.00     0.164 HD
BRANCH  32  34
ATOM     34  C   UNL     1       4.508   4.481  -5.688  1.00  0.00     0.175 C 
BRANCH  34  35
ATOM     35  C   UNL     1       5.340   3.450  -6.466  1.00  0.00     0.070 C 
BRANCH  35  36
ATOM     36  C   UNL     1       4.649   2.967  -7.721  1.00  0.00    -0.045 A 
ATOM     37  C   UNL     1       3.420   3.524  -8.104  1.00  0.00     0.007 A 
ATOM     38  C   UNL     1       5.209   1.949  -8.504  1.00  0.00     0.007 A 
ATOM     39  C   UNL     1       2.768   3.076  -9.253  1.00  0.00     0.046 A 
ATOM     40  C   UNL     1       4.557   1.498  -9.654  1.00  0.00     0.046 A 
ATOM     41  C   UNL     1       3.341   2.068 -10.019  1.00  0.00     0.115 A 
BRANCH  41  42
ATOM     42  O   UNL     1       2.671   1.656 -11.132  1.00  0.00    -0.508 OA
ATOM     43  H   UNL     1       1.915   1.115 -10.850  1.00  0.00     0.293 HD
ENDBRANCH  41  42
ENDBRANCH  35  36
ENDBRANCH  34  35
BRANCH  34  44
ATOM     44  C   UNL     1       3.567   3.809  -4.663  1.00  0.00     0.243 C 
ATOM     45  O   UNL     1       2.764   4.413  -3.957  1.00  0.00    -0.273 OA
ATOM     46  N   UNL     1       3.800   2.458  -4.508  1.00  0.00    -0.341 N 
ATOM     47  H   UNL     1       4.556   2.024  -5.031  1.00  0.00     0.164 HD
BRANCH  46  48
ATOM     48  C   UNL     1       3.080   1.622  -3.545  1.00  0.00     0.196 C 
BRANCH  48  49
ATOM     49  C   UNL     1       2.236   0.550  -4.255  1.00  0.00     0.072 C 
BRANCH  49  50
ATOM     50  C   UNL     1       0.752   0.829  -4.174  1.00  0.00    -0.045 A 
ATOM     51  C   UNL     1      -0.064   0.597  -5.290  1.00  0.00     0.007 A 
ATOM     52  C   UNL     1       0.178   1.338  -3.003  1.00  0.00     0.007 A 
ATOM     53  C   UNL     1      -1.433   0.863  -5.232  1.00  0.00     0.046 A 
ATOM     54  C   UNL     1      -1.192   1.605  -2.944  1.00  0.00     0.046 A 
ATOM     55  C   UNL     1      -1.986   1.364  -4.060  1.00  0.00     0.115 A 
BRANCH  55  56
ATOM     56  O   UNL     1      -3.327   1.613  -4.044  1.00  0.00    -0.508 OA
ATOM     57  H   UNL     1      -3.486   2.461  -4.488  1.00  0.00     0.293 HD
ENDBRANCH  55  56
ENDBRANCH  49  50
ENDBRANCH  48  49
BRANCH  48  58
ATOM     58  C   UNL     1       4.095   0.945  -2.614  1.00  0.00     0.326 C 
ATOM     59  O   UNL     1       3.963  -0.113  -2.020  1.00  0.00    -0.250 OA
BRANCH  58  60
ATOM     60  O   UNL     1       5.255   1.637  -2.485  1.00  0.00    -0.480 OA
ATOM     61  H   UNL     1       5.395   2.013  -3.381  1.00  0.00     0.296 HD
ENDBRANCH  58  60
ENDBRANCH  48  58
ENDBRANCH  46  48
ENDBRANCH  34  44
ENDBRANCH  32  34
ENDBRANCH  25  30
ENDBRANCH  23  25
ENDBRANCH   2  23
TORSDOF 28
ENDMDL
MODEL 45
REMARK VINA RESULT:    -5.638      8.498     13.675
REMARK INTER + INTRA:         -18.089
REMARK INTER:                 -11.485
REMARK INTRA:                  -6.605
REMARK UNBOUND:                -4.047
REMARK SMILES CCCCCCC[C@H](N)[C@H](O)C(=O)N[C@H](C)C(=O)N(C)[C@H](CC(C)C)C(=O)N[C@@H](Cc1ccc(O)cc1)C(=O)N[C@@H](Cc1ccc(O)cc1)C(=O)O
REMARK SMILES IDX 18 1 17 2 15 3 16 4 14 5 12 6 13 7 10 9 11 10 8 12 9 13 7 16
REMARK SMILES IDX 6 17 5 18 4 19 3 20 2 21 1 22 19 23 20 24 21 25 22 26 23 27
REMARK SMILES IDX 24 28 25 29 26 30 27 31 28 32 29 34 30 35 31 36 32 37 37 38
REMARK SMILES IDX 33 39 36 40 34 41 35 42 38 44 39 45 40 46 41 48 42 49 43 50
REMARK SMILES IDX 44 51 49 52 45 53 48 54 46 55 47 56 50 58 51 59 52 60
REMARK H PARENT 14 8 11 11 9 14 9 15 28 33 35 43 40 47 47 57 52 61
ROOT
ATOM      1  O   UNL     1       1.373   7.311   0.761  1.00  0.00    -0.272 OA
ATOM      2  C   UNL     1       0.940   8.135  -0.058  1.00  0.00     0.245 C 
ENDROOT
BRANCH   2   3
ATOM      3  C   UNL     1       1.331   7.974  -1.548  1.00  0.00     0.168 C 
ATOM      4  C   UNL     1       2.607   8.748  -1.861  1.00  0.00     0.041 C 
BRANCH   3   5
ATOM      5  N   UNL     1       1.405   6.598  -2.016  1.00  0.00    -0.342 N 
ATOM      6  C   UNL     1       0.305   5.945  -2.531  1.00  0.00     0.251 C 
ATOM      7  O   UNL     1      -0.811   6.448  -2.597  1.00  0.00    -0.272 OA
ATOM      8  H   UNL     1       2.270   6.065  -1.979  1.00  0.00     0.164 HD
BRANCH   6   9
ATOM      9  C   UNL     1       0.649   4.555  -3.092  1.00  0.00     0.219 C 
BRANCH   9  10
ATOM     10  O   UNL     1       2.018   4.447  -3.500  1.00  0.00    -0.382 OA
ATOM     11  H   UNL     1       2.393   3.787  -2.877  1.00  0.00     0.211 HD
ENDBRANCH   9  10
BRANCH   9  12
ATOM     12  C   UNL     1       0.268   3.399  -2.130  1.00  0.00     0.089 C 
BRANCH  12  13
ATOM     13  N   UNL     1       0.350   3.902  -0.739  1.00  0.00    -0.325 NA
ATOM     14  H   UNL     1       0.373   4.924  -0.752  1.00  0.00     0.119 HD
ATOM     15  H   UNL     1       1.248   3.621  -0.338  1.00  0.00     0.119 HD
ENDBRANCH  12  13
BRANCH  12  16
ATOM     16  C   UNL     1      -1.109   2.739  -2.375  1.00  0.00     0.022 C 
BRANCH  16  17
ATOM     17  C   UNL     1      -1.919   3.138  -3.617  1.00  0.00     0.002 C 
BRANCH  17  18
ATOM     18  C   UNL     1      -2.747   2.014  -4.235  1.00  0.00     0.000 C 
BRANCH  18  19
ATOM     19  C   UNL     1      -3.385   2.377  -5.583  1.00  0.00    -0.000 C 
BRANCH  19  20
ATOM     20  C   UNL     1      -4.703   3.151  -5.490  1.00  0.00    -0.000 C 
BRANCH  20  21
ATOM     21  C   UNL     1      -5.523   2.793  -4.247  1.00  0.00    -0.003 C 
ATOM     22  C   UNL     1      -6.975   3.215  -4.400  1.00  0.00     0.004 C 
ENDBRANCH  20  21
ENDBRANCH  19  20
ENDBRANCH  18  19
ENDBRANCH  17  18
ENDBRANCH  16  17
ENDBRANCH  12  16
ENDBRANCH   9  12
ENDBRANCH   6   9
ENDBRANCH   3   5
ENDBRANCH   2   3
BRANCH   2  23
ATOM     23  N   UNL     1       0.027   9.103   0.346  1.00  0.00    -0.332 N 
ATOM     24  C   UNL     1       0.290  10.116   1.356  1.00  0.00     0.147 C 
BRANCH  23  25
ATOM     25  C   UNL     1      -1.281   9.239  -0.353  1.00  0.00     0.174 C 
BRANCH  25  26
ATOM     26  C   UNL     1      -1.768  10.705  -0.438  1.00  0.00     0.038 C 
BRANCH  26  27
ATOM     27  C   UNL     1      -1.704  11.385  -1.824  1.00  0.00    -0.015 C 
ATOM     28  C   UNL     1      -0.282  11.787  -2.212  1.00  0.00     0.007 C 
ATOM     29  C   UNL     1      -2.352  10.562  -2.934  1.00  0.00     0.007 C 
ENDBRANCH  26  27
ENDBRANCH  25  26
BRANCH  25  30
ATOM     30  C   UNL     1      -2.318   8.274   0.265  1.00  0.00     0.243 C 
ATOM     31  O   UNL     1      -3.009   8.595   1.231  1.00  0.00    -0.273 OA
ATOM     32  N   UNL     1      -2.409   7.042  -0.328  1.00  0.00    -0.342 N 
ATOM     33  H   UNL     1      -1.907   6.901  -1.208  1.00  0.00     0.164 HD
BRANCH  32  34
ATOM     34  C   UNL     1      -3.317   5.991   0.141  1.00  0.00     0.175 C 
BRANCH  34  35
ATOM     35  C   UNL     1      -3.723   5.051  -1.005  1.00  0.00     0.070 C 
BRANCH  35  36
ATOM     36  C   UNL     1      -4.691   5.692  -1.973  1.00  0.00    -0.045 A 
ATOM     37  C   UNL     1      -6.036   5.861  -1.612  1.00  0.00     0.007 A 
ATOM     38  C   UNL     1      -4.270   6.102  -3.245  1.00  0.00     0.007 A 
ATOM     39  C   UNL     1      -6.940   6.439  -2.504  1.00  0.00     0.046 A 
ATOM     40  C   UNL     1      -5.174   6.679  -4.139  1.00  0.00     0.046 A 
ATOM     41  C   UNL     1      -6.502   6.844  -3.759  1.00  0.00     0.115 A 
BRANCH  41  42
ATOM     42  O   UNL     1      -7.418   7.401  -4.602  1.00  0.00    -0.508 OA
ATOM     43  H   UNL     1      -7.330   6.975  -5.471  1.00  0.00     0.293 HD
ENDBRANCH  41  42
ENDBRANCH  35  36
ENDBRANCH  34  35
BRANCH  34  44
ATOM     44  C   UNL     1      -2.618   5.232   1.291  1.00  0.00     0.243 C 
ATOM     45  O   UNL     1      -1.949   4.214   1.144  1.00  0.00    -0.273 OA
ATOM     46  N   UNL     1      -2.920   5.731   2.541  1.00  0.00    -0.341 N 
ATOM     47  H   UNL     1      -3.574   6.507   2.618  1.00  0.00     0.164 HD
BRANCH  46  48
ATOM     48  C   UNL     1      -2.430   5.136   3.786  1.00  0.00     0.196 C 
BRANCH  48  49
ATOM     49  C   UNL     1      -2.291   6.192   4.895  1.00  0.00     0.072 C 
BRANCH  49  50
ATOM     50  C   UNL     1      -0.869   6.680   5.059  1.00  0.00    -0.045 A 
ATOM     51  C   UNL     1      -0.622   8.030   5.346  1.00  0.00     0.007 A 
ATOM     52  C   UNL     1       0.214   5.805   4.909  1.00  0.00     0.007 A 
ATOM     53  C   UNL     1       0.686   8.494   5.487  1.00  0.00     0.046 A 
ATOM     54  C   UNL     1       1.524   6.270   5.049  1.00  0.00     0.046 A 
ATOM     55  C   UNL     1       1.749   7.611   5.338  1.00  0.00     0.115 A 
BRANCH  55  56
ATOM     56  O   UNL     1       3.012   8.105   5.481  1.00  0.00    -0.508 OA
ATOM     57  H   UNL     1       3.623   7.523   5.003  1.00  0.00     0.293 HD
ENDBRANCH  55  56
ENDBRANCH  49  50
ENDBRANCH  48  49
BRANCH  48  58
ATOM     58  C   UNL     1      -3.409   4.043   4.236  1.00  0.00     0.326 C 
ATOM     59  O   UNL     1      -3.567   2.941   3.736  1.00  0.00    -0.250 OA
BRANCH  58  60
ATOM     60  O   UNL     1      -4.146   4.390   5.321  1.00  0.00    -0.480 OA
ATOM     61  H   UNL     1      -4.939   3.815   5.249  1.00  0.00     0.296 HD
ENDBRANCH  58  60
ENDBRANCH  48  58
ENDBRANCH  46  48
ENDBRANCH  34  44
ENDBRANCH  32  34
ENDBRANCH  25  30
ENDBRANCH  23  25
ENDBRANCH   2  23
TORSDOF 28
ENDMDL
MODEL 46
REMARK VINA RESULT:    -5.627     16.881     22.027
REMARK INTER + INTRA:         -18.063
REMARK INTER:                 -11.605
REMARK INTRA:                  -6.457
REMARK UNBOUND:                -4.047
REMARK SMILES CCCCCCC[C@H](N)[C@H](O)C(=O)N[C@H](C)C(=O)N(C)[C@H](CC(C)C)C(=O)N[C@@H](Cc1ccc(O)cc1)C(=O)N[C@@H](Cc1ccc(O)cc1)C(=O)O
REMARK SMILES IDX 18 1 17 2 15 3 16 4 14 5 12 6 13 7 10 9 11 10 8 12 9 13 7 16
REMARK SMILES IDX 6 17 5 18 4 19 3 20 2 21 1 22 19 23 20 24 21 25 22 26 23 27
REMARK SMILES IDX 24 28 25 29 26 30 27 31 28 32 29 34 30 35 31 36 32 37 37 38
REMARK SMILES IDX 33 39 36 40 34 41 35 42 38 44 39 45 40 46 41 48 42 49 43 50
REMARK SMILES IDX 44 51 49 52 45 53 48 54 46 55 47 56 50 58 51 59 52 60
REMARK H PARENT 14 8 11 11 9 14 9 15 28 33 35 43 40 47 47 57 52 61
ROOT
ATOM      1  O   UNL     1     -13.592   4.605   7.537  1.00  0.00    -0.272 OA
ATOM      2  C   UNL     1     -13.684   5.325   8.542  1.00  0.00     0.245 C 
ENDROOT
BRANCH   2   3
ATOM      3  C   UNL     1     -14.232   6.764   8.375  1.00  0.00     0.168 C 
ATOM      4  C   UNL     1     -15.141   7.136   9.541  1.00  0.00     0.041 C 
BRANCH   3   5
ATOM      5  N   UNL     1     -13.220   7.780   8.131  1.00  0.00    -0.342 N 
ATOM      6  C   UNL     1     -13.429   8.819   7.249  1.00  0.00     0.251 C 
ATOM      7  O   UNL     1     -14.449   8.944   6.580  1.00  0.00    -0.272 OA
ATOM      8  H   UNL     1     -12.319   7.762   8.602  1.00  0.00     0.164 HD
BRANCH   6   9
ATOM      9  C   UNL     1     -12.285   9.846   7.259  1.00  0.00     0.219 C 
BRANCH   9  10
ATOM     10  O   UNL     1     -11.287   9.552   8.244  1.00  0.00    -0.382 OA
ATOM     11  H   UNL     1     -10.544  10.150   8.006  1.00  0.00     0.211 HD
ENDBRANCH   9  10
BRANCH   9  12
ATOM     12  C   UNL     1     -11.638  10.051   5.864  1.00  0.00     0.089 C 
BRANCH  12  13
ATOM     13  N   UNL     1     -11.729  11.487   5.514  1.00  0.00    -0.325 NA
ATOM     14  H   UNL     1     -11.890  11.578   4.509  1.00  0.00     0.119 HD
ATOM     15  H   UNL     1     -10.821  11.926   5.679  1.00  0.00     0.119 HD
ENDBRANCH  12  13
BRANCH  12  16
ATOM     16  C   UNL     1     -10.179   9.559   5.714  1.00  0.00     0.022 C 
BRANCH  16  17
ATOM     17  C   UNL     1      -9.364  10.000   4.491  1.00  0.00     0.002 C 
BRANCH  17  18
ATOM     18  C   UNL     1      -8.136  10.851   4.807  1.00  0.00     0.000 C 
BRANCH  18  19
ATOM     19  C   UNL     1      -7.075  10.854   3.699  1.00  0.00    -0.000 C 
BRANCH  19  20
ATOM     20  C   UNL     1      -5.667  11.253   4.148  1.00  0.00    -0.000 C 
BRANCH  20  21
ATOM     21  C   UNL     1      -4.573  10.771   3.191  1.00  0.00    -0.003 C 
ATOM     22  C   UNL     1      -3.664   9.750   3.857  1.00  0.00     0.004 C 
ENDBRANCH  20  21
ENDBRANCH  19  20
ENDBRANCH  18  19
ENDBRANCH  17  18
ENDBRANCH  16  17
ENDBRANCH  12  16
ENDBRANCH   9  12
ENDBRANCH   6   9
ENDBRANCH   3   5
ENDBRANCH   2   3
BRANCH   2  23
ATOM     23  N   UNL     1     -13.413   4.800   9.801  1.00  0.00    -0.332 N 
ATOM     24  C   UNL     1     -14.271   3.858  10.504  1.00  0.00     0.147 C 
BRANCH  23  25
ATOM     25  C   UNL     1     -12.116   5.087  10.472  1.00  0.00     0.174 C 
BRANCH  25  26
ATOM     26  C   UNL     1     -12.263   6.030  11.689  1.00  0.00     0.038 C 
BRANCH  26  27
ATOM     27  C   UNL     1     -11.536   5.616  12.988  1.00  0.00    -0.015 C 
ATOM     28  C   UNL     1     -11.487   4.100  13.172  1.00  0.00     0.007 C 
ATOM     29  C   UNL     1     -10.139   6.218  13.120  1.00  0.00     0.007 C 
ENDBRANCH  26  27
ENDBRANCH  25  26
BRANCH  25  30
ATOM     30  C   UNL     1     -11.076   5.570   9.434  1.00  0.00     0.243 C 
ATOM     31  O   UNL     1     -10.708   6.742   9.379  1.00  0.00    -0.273 OA
ATOM     32  N   UNL     1     -10.599   4.608   8.581  1.00  0.00    -0.342 N 
ATOM     33  H   UNL     1     -10.844   3.634   8.781  1.00  0.00     0.164 HD
BRANCH  32  34
ATOM     34  C   UNL     1      -9.630   4.888   7.519  1.00  0.00     0.175 C 
BRANCH  34  35
ATOM     35  C   UNL     1     -10.202   5.870   6.485  1.00  0.00     0.070 C 
BRANCH  35  36
ATOM     36  C   UNL     1     -10.200   5.308   5.081  1.00  0.00    -0.045 A 
ATOM     37  C   UNL     1     -10.076   6.170   3.981  1.00  0.00     0.007 A 
ATOM     38  C   UNL     1     -10.343   3.933   4.857  1.00  0.00     0.007 A 
ATOM     39  C   UNL     1     -10.087   5.662   2.681  1.00  0.00     0.046 A 
ATOM     40  C   UNL     1     -10.356   3.424   3.556  1.00  0.00     0.046 A 
ATOM     41  C   UNL     1     -10.226   4.295   2.479  1.00  0.00     0.115 A 
BRANCH  41  42
ATOM     42  O   UNL     1     -10.235   3.840   1.194  1.00  0.00    -0.508 OA
ATOM     43  H   UNL     1      -9.737   4.469   0.644  1.00  0.00     0.293 HD
ENDBRANCH  41  42
ENDBRANCH  35  36
ENDBRANCH  34  35
BRANCH  34  44
ATOM     44  C   UNL     1      -8.340   5.429   8.177  1.00  0.00     0.243 C 
ATOM     45  O   UNL     1      -7.673   4.814   9.004  1.00  0.00    -0.273 OA
ATOM     46  N   UNL     1      -8.065   6.740   7.849  1.00  0.00    -0.341 N 
ATOM     47  H   UNL     1      -8.713   7.246   7.250  1.00  0.00     0.164 HD
BRANCH  46  48
ATOM     48  C   UNL     1      -6.935   7.489   8.402  1.00  0.00     0.196 C 
BRANCH  48  49
ATOM     49  C   UNL     1      -6.286   8.391   7.339  1.00  0.00     0.072 C 
BRANCH  49  50
ATOM     50  C   UNL     1      -5.777   7.612   6.148  1.00  0.00    -0.045 A 
ATOM     51  C   UNL     1      -4.542   6.952   6.220  1.00  0.00     0.007 A 
ATOM     52  C   UNL     1      -6.512   7.555   4.957  1.00  0.00     0.007 A 
ATOM     53  C   UNL     1      -4.056   6.241   5.122  1.00  0.00     0.046 A 
ATOM     54  C   UNL     1      -6.025   6.844   3.857  1.00  0.00     0.046 A 
ATOM     55  C   UNL     1      -4.800   6.192   3.950  1.00  0.00     0.115 A 
BRANCH  55  56
ATOM     56  O   UNL     1      -4.289   5.489   2.900  1.00  0.00    -0.508 OA
ATOM     57  H   UNL     1      -5.014   5.003   2.475  1.00  0.00     0.293 HD
ENDBRANCH  55  56
ENDBRANCH  49  50
ENDBRANCH  48  49
BRANCH  48  58
ATOM     58  C   UNL     1      -7.432   8.348   9.573  1.00  0.00     0.326 C 
ATOM     59  O   UNL     1      -7.336   9.559   9.694  1.00  0.00    -0.250 OA
BRANCH  58  60
ATOM     60  O   UNL     1      -8.048   7.632  10.547  1.00  0.00    -0.480 OA
ATOM     61  H   UNL     1      -8.994   7.662  10.285  1.00  0.00     0.296 HD
ENDBRANCH  58  60
ENDBRANCH  48  58
ENDBRANCH  46  48
ENDBRANCH  34  44
ENDBRANCH  32  34
ENDBRANCH  25  30
ENDBRANCH  23  25
ENDBRANCH   2  23
TORSDOF 28
ENDMDL
MODEL 47
REMARK VINA RESULT:    -5.621      3.618      7.970
REMARK INTER + INTRA:         -18.047
REMARK INTER:                 -13.180
REMARK INTRA:                  -4.868
REMARK UNBOUND:                -4.047
REMARK SMILES CCCCCCC[C@H](N)[C@H](O)C(=O)N[C@H](C)C(=O)N(C)[C@H](CC(C)C)C(=O)N[C@@H](Cc1ccc(O)cc1)C(=O)N[C@@H](Cc1ccc(O)cc1)C(=O)O
REMARK SMILES IDX 18 1 17 2 15 3 16 4 14 5 12 6 13 7 10 9 11 10 8 12 9 13 7 16
REMARK SMILES IDX 6 17 5 18 4 19 3 20 2 21 1 22 19 23 20 24 21 25 22 26 23 27
REMARK SMILES IDX 24 28 25 29 26 30 27 31 28 32 29 34 30 35 31 36 32 37 37 38
REMARK SMILES IDX 33 39 36 40 34 41 35 42 38 44 39 45 40 46 41 48 42 49 43 50
REMARK SMILES IDX 44 51 49 52 45 53 48 54 46 55 47 56 50 58 51 59 52 60
REMARK H PARENT 14 8 11 11 9 14 9 15 28 33 35 43 40 47 47 57 52 61
ROOT
ATOM      1  O   UNL     1       3.295   6.396 -12.667  1.00  0.00    -0.272 OA
ATOM      2  C   UNL     1       3.017   6.082 -11.500  1.00  0.00     0.245 C 
ENDROOT
BRANCH   2   3
ATOM      3  C   UNL     1       4.153   5.569 -10.580  1.00  0.00     0.168 C 
ATOM      4  C   UNL     1       5.380   5.184 -11.399  1.00  0.00     0.041 C 
BRANCH   3   5
ATOM      5  N   UNL     1       4.493   6.453  -9.477  1.00  0.00    -0.342 N 
ATOM      6  C   UNL     1       4.030   6.232  -8.197  1.00  0.00     0.251 C 
ATOM      7  O   UNL     1       3.275   5.312  -7.901  1.00  0.00    -0.272 OA
ATOM      8  H   UNL     1       5.085   7.270  -9.607  1.00  0.00     0.164 HD
BRANCH   6   9
ATOM      9  C   UNL     1       4.630   7.207  -7.171  1.00  0.00     0.219 C 
BRANCH   9  10
ATOM     10  O   UNL     1       3.683   7.613  -6.176  1.00  0.00    -0.382 OA
ATOM     11  H   UNL     1       4.018   8.489  -5.882  1.00  0.00     0.211 HD
ENDBRANCH   9  10
BRANCH   9  12
ATOM     12  C   UNL     1       5.928   6.673  -6.511  1.00  0.00     0.089 C 
BRANCH  12  13
ATOM     13  N   UNL     1       6.909   7.780  -6.447  1.00  0.00    -0.325 NA
ATOM     14  H   UNL     1       6.854   8.226  -5.529  1.00  0.00     0.119 HD
ATOM     15  H   UNL     1       6.633   8.506  -7.113  1.00  0.00     0.119 HD
ENDBRANCH  12  13
BRANCH  12  16
ATOM     16  C   UNL     1       5.762   6.029  -5.113  1.00  0.00     0.022 C 
BRANCH  16  17
ATOM     17  C   UNL     1       5.169   4.617  -5.007  1.00  0.00     0.002 C 
BRANCH  17  18
ATOM     18  C   UNL     1       4.323   4.365  -3.761  1.00  0.00     0.000 C 
BRANCH  18  19
ATOM     19  C   UNL     1       5.035   3.543  -2.679  1.00  0.00    -0.000 C 
BRANCH  19  20
ATOM     20  C   UNL     1       5.098   2.036  -2.944  1.00  0.00    -0.000 C 
BRANCH  20  21
ATOM     21  C   UNL     1       3.739   1.435  -3.313  1.00  0.00    -0.003 C 
ATOM     22  C   UNL     1       3.462   0.164  -2.525  1.00  0.00     0.004 C 
ENDBRANCH  20  21
ENDBRANCH  19  20
ENDBRANCH  18  19
ENDBRANCH  17  18
ENDBRANCH  16  17
ENDBRANCH  12  16
ENDBRANCH   9  12
ENDBRANCH   6   9
ENDBRANCH   3   5
ENDBRANCH   2   3
BRANCH   2  23
ATOM     23  N   UNL     1       1.737   6.309 -11.005  1.00  0.00    -0.332 N 
ATOM     24  C   UNL     1       1.285   7.566 -10.428  1.00  0.00     0.147 C 
BRANCH  23  25
ATOM     25  C   UNL     1       0.678   5.273 -11.158  1.00  0.00     0.174 C 
BRANCH  25  26
ATOM     26  C   UNL     1      -0.597   5.814 -11.846  1.00  0.00     0.038 C 
BRANCH  26  27
ATOM     27  C   UNL     1      -0.964   5.206 -13.218  1.00  0.00    -0.015 C 
ATOM     28  C   UNL     1       0.256   5.023 -14.121  1.00  0.00     0.007 C 
ATOM     29  C   UNL     1      -1.755   3.905 -13.114  1.00  0.00     0.007 C 
ENDBRANCH  26  27
ENDBRANCH  25  26
BRANCH  25  30
ATOM     30  C   UNL     1       0.408   4.583  -9.802  1.00  0.00     0.243 C 
ATOM     31  O   UNL     1      -0.451   4.994  -9.023  1.00  0.00    -0.273 OA
ATOM     32  N   UNL     1       1.192   3.493  -9.524  1.00  0.00    -0.342 N 
ATOM     33  H   UNL     1       1.782   3.130 -10.277  1.00  0.00     0.164 HD
BRANCH  32  34
ATOM     34  C   UNL     1       1.094   2.732  -8.275  1.00  0.00     0.175 C 
BRANCH  34  35
ATOM     35  C   UNL     1      -0.134   1.809  -8.278  1.00  0.00     0.070 C 
BRANCH  35  36
ATOM     36  C   UNL     1      -0.762   1.666  -6.910  1.00  0.00    -0.045 A 
ATOM     37  C   UNL     1      -1.578   0.561  -6.624  1.00  0.00     0.007 A 
ATOM     38  C   UNL     1      -0.559   2.639  -5.921  1.00  0.00     0.007 A 
ATOM     39  C   UNL     1      -2.172   0.428  -5.368  1.00  0.00     0.046 A 
ATOM     40  C   UNL     1      -1.156   2.507  -4.665  1.00  0.00     0.046 A 
ATOM     41  C   UNL     1      -1.956   1.401  -4.399  1.00  0.00     0.115 A 
BRANCH  41  42
ATOM     42  O   UNL     1      -2.558   1.235  -3.187  1.00  0.00    -0.508 OA
ATOM     43  H   UNL     1      -2.802   2.111  -2.846  1.00  0.00     0.293 HD
ENDBRANCH  41  42
ENDBRANCH  35  36
ENDBRANCH  34  35
BRANCH  34  44
ATOM     44  C   UNL     1       2.410   1.943  -8.091  1.00  0.00     0.243 C 
ATOM     45  O   UNL     1       2.633   1.174  -7.160  1.00  0.00    -0.273 OA
ATOM     46  N   UNL     1       3.383   2.277  -9.009  1.00  0.00    -0.341 N 
ATOM     47  H   UNL     1       3.189   3.006  -9.691  1.00  0.00     0.164 HD
BRANCH  46  48
ATOM     48  C   UNL     1       4.734   1.711  -8.993  1.00  0.00     0.196 C 
BRANCH  48  49
ATOM     49  C   UNL     1       5.340   1.669 -10.406  1.00  0.00     0.072 C 
BRANCH  49  50
ATOM     50  C   UNL     1       5.646   0.261 -10.865  1.00  0.00    -0.045 A 
ATOM     51  C   UNL     1       6.897  -0.035 -11.426  1.00  0.00     0.007 A 
ATOM     52  C   UNL     1       4.688  -0.756 -10.761  1.00  0.00     0.007 A 
ATOM     53  C   UNL     1       7.186  -1.327 -11.865  1.00  0.00     0.046 A 
ATOM     54  C   UNL     1       4.977  -2.049 -11.202  1.00  0.00     0.046 A 
ATOM     55  C   UNL     1       6.225  -2.324 -11.750  1.00  0.00     0.115 A 
BRANCH  55  56
ATOM     56  O   UNL     1       6.546  -3.573 -12.193  1.00  0.00    -0.508 OA
ATOM     57  H   UNL     1       7.513  -3.651 -12.213  1.00  0.00     0.293 HD
ENDBRANCH  55  56
ENDBRANCH  49  50
ENDBRANCH  48  49
BRANCH  48  58
ATOM     58  C   UNL     1       5.622   2.565  -8.077  1.00  0.00     0.326 C 
ATOM     59  O   UNL     1       6.217   3.589  -8.371  1.00  0.00    -0.250 OA
BRANCH  58  60
ATOM     60  O   UNL     1       5.708   2.089  -6.810  1.00  0.00    -0.480 OA
ATOM     61  H   UNL     1       4.769   2.013  -6.533  1.00  0.00     0.296 HD
ENDBRANCH  58  60
ENDBRANCH  48  58
ENDBRANCH  46  48
ENDBRANCH  34  44
ENDBRANCH  32  34
ENDBRANCH  25  30
ENDBRANCH  23  25
ENDBRANCH   2  23
TORSDOF 28
ENDMDL
MODEL 48
REMARK VINA RESULT:    -5.585      2.665      4.788
REMARK INTER + INTRA:         -17.958
REMARK INTER:                 -13.302
REMARK INTRA:                  -4.656
REMARK UNBOUND:                -4.047
REMARK SMILES CCCCCCC[C@H](N)[C@H](O)C(=O)N[C@H](C)C(=O)N(C)[C@H](CC(C)C)C(=O)N[C@@H](Cc1ccc(O)cc1)C(=O)N[C@@H](Cc1ccc(O)cc1)C(=O)O
REMARK SMILES IDX 18 1 17 2 15 3 16 4 14 5 12 6 13 7 10 9 11 10 8 12 9 13 7 16
REMARK SMILES IDX 6 17 5 18 4 19 3 20 2 21 1 22 19 23 20 24 21 25 22 26 23 27
REMARK SMILES IDX 24 28 25 29 26 30 27 31 28 32 29 34 30 35 31 36 32 37 37 38
REMARK SMILES IDX 33 39 36 40 34 41 35 42 38 44 39 45 40 46 41 48 42 49 43 50
REMARK SMILES IDX 44 51 49 52 45 53 48 54 46 55 47 56 50 58 51 59 52 60
REMARK H PARENT 14 8 11 11 9 14 9 15 28 33 35 43 40 47 47 57 52 61
ROOT
ATOM      1  O   UNL     1       1.732   3.267  -4.151  1.00  0.00    -0.272 OA
ATOM      2  C   UNL     1       2.583   2.555  -4.705  1.00  0.00     0.245 C 
ENDROOT
BRANCH   2   3
ATOM      3  C   UNL     1       2.164   1.730  -5.947  1.00  0.00     0.168 C 
ATOM      4  C   UNL     1       1.521   0.412  -5.530  1.00  0.00     0.041 C 
BRANCH   3   5
ATOM      5  N   UNL     1       1.348   2.450  -6.912  1.00  0.00    -0.342 N 
ATOM      6  C   UNL     1       1.432   2.202  -8.266  1.00  0.00     0.251 C 
ATOM      7  O   UNL     1       2.217   1.399  -8.759  1.00  0.00    -0.272 OA
ATOM      8  H   UNL     1       0.684   3.165  -6.625  1.00  0.00     0.164 HD
BRANCH   6   9
ATOM      9  C   UNL     1       0.379   2.974  -9.078  1.00  0.00     0.219 C 
BRANCH   9  10
ATOM     10  O   UNL     1       0.313   4.360  -8.720  1.00  0.00    -0.382 OA
ATOM     11  H   UNL     1       0.530   4.825  -9.558  1.00  0.00     0.211 HD
ENDBRANCH   9  10
BRANCH   9  12
ATOM     12  C   UNL     1       0.551   2.809 -10.611  1.00  0.00     0.089 C 
BRANCH  12  13
ATOM     13  N   UNL     1      -0.737   2.351 -11.179  1.00  0.00    -0.325 NA
ATOM     14  H   UNL     1      -0.769   2.587 -12.172  1.00  0.00     0.119 HD
ATOM     15  H   UNL     1      -1.496   2.888 -10.753  1.00  0.00     0.119 HD
ENDBRANCH  12  13
BRANCH  12  16
ATOM     16  C   UNL     1       1.056   4.056 -11.375  1.00  0.00     0.022 C 
BRANCH  16  17
ATOM     17  C   UNL     1       2.567   4.264 -11.551  1.00  0.00     0.002 C 
BRANCH  17  18
ATOM     18  C   UNL     1       2.965   5.599 -12.175  1.00  0.00     0.000 C 
BRANCH  18  19
ATOM     19  C   UNL     1       4.273   6.181 -11.621  1.00  0.00    -0.000 C 
BRANCH  19  20
ATOM     20  C   UNL     1       5.395   5.162 -11.399  1.00  0.00    -0.000 C 
BRANCH  20  21
ATOM     21  C   UNL     1       6.193   4.862 -12.671  1.00  0.00    -0.003 C 
ATOM     22  C   UNL     1       6.876   3.506 -12.590  1.00  0.00     0.004 C 
ENDBRANCH  20  21
ENDBRANCH  19  20
ENDBRANCH  18  19
ENDBRANCH  17  18
ENDBRANCH  16  17
ENDBRANCH  12  16
ENDBRANCH   9  12
ENDBRANCH   6   9
ENDBRANCH   3   5
ENDBRANCH   2   3
BRANCH   2  23
ATOM     23  N   UNL     1       3.908   2.601  -4.285  1.00  0.00    -0.332 N 
ATOM     24  C   UNL     1       4.457   1.807  -3.196  1.00  0.00     0.147 C 
BRANCH  23  25
ATOM     25  C   UNL     1       4.908   3.405  -5.041  1.00  0.00     0.174 C 
BRANCH  25  26
ATOM     26  C   UNL     1       4.281   4.620  -5.763  1.00  0.00     0.038 C 
BRANCH  26  27
ATOM     27  C   UNL     1       4.953   5.993  -5.536  1.00  0.00    -0.015 C 
ATOM     28  C   UNL     1       3.990   7.159  -5.758  1.00  0.00     0.007 C 
ATOM     29  C   UNL     1       5.639   6.115  -4.178  1.00  0.00     0.007 C 
ENDBRANCH  26  27
ENDBRANCH  25  26
BRANCH  25  30
ATOM     30  C   UNL     1       5.736   2.488  -5.970  1.00  0.00     0.243 C 
ATOM     31  O   UNL     1       6.473   1.609  -5.527  1.00  0.00    -0.273 OA
ATOM     32  N   UNL     1       5.597   2.725  -7.314  1.00  0.00    -0.342 N 
ATOM     33  H   UNL     1       4.862   3.373  -7.607  1.00  0.00     0.164 HD
BRANCH  32  34
ATOM     34  C   UNL     1       6.324   1.972  -8.340  1.00  0.00     0.175 C 
BRANCH  34  35
ATOM     35  C   UNL     1       5.531   1.910  -9.654  1.00  0.00     0.070 C 
BRANCH  35  36
ATOM     36  C   UNL     1       5.721   0.603 -10.390  1.00  0.00    -0.045 A 
ATOM     37  C   UNL     1       4.645  -0.287 -10.530  1.00  0.00     0.007 A 
ATOM     38  C   UNL     1       6.970   0.251 -10.920  1.00  0.00     0.007 A 
ATOM     39  C   UNL     1       4.814  -1.502 -11.195  1.00  0.00     0.046 A 
ATOM     40  C   UNL     1       7.140  -0.966 -11.585  1.00  0.00     0.046 A 
ATOM     41  C   UNL     1       6.059  -1.831 -11.718  1.00  0.00     0.115 A 
BRANCH  41  42
ATOM     42  O   UNL     1       6.183  -3.028 -12.358  1.00  0.00    -0.508 OA
ATOM     43  H   UNL     1       5.362  -3.198 -12.849  1.00  0.00     0.293 HD
ENDBRANCH  41  42
ENDBRANCH  35  36
ENDBRANCH  34  35
BRANCH  34  44
ATOM     44  C   UNL     1       7.707   2.636  -8.530  1.00  0.00     0.243 C 
ATOM     45  O   UNL     1       8.780   2.066  -8.355  1.00  0.00    -0.273 OA
ATOM     46  N   UNL     1       7.634   3.988  -8.795  1.00  0.00    -0.341 N 
ATOM     47  H   UNL     1       6.723   4.439  -8.815  1.00  0.00     0.164 HD
BRANCH  46  48
ATOM     48  C   UNL     1       8.814   4.843  -8.946  1.00  0.00     0.196 C 
BRANCH  48  49
ATOM     49  C   UNL     1       9.020   5.257 -10.413  1.00  0.00     0.072 C 
BRANCH  49  50
ATOM     50  C   UNL     1      10.117   4.469 -11.092  1.00  0.00    -0.045 A 
ATOM     51  C   UNL     1      10.874   3.547 -10.354  1.00  0.00     0.007 A 
ATOM     52  C   UNL     1      10.406   4.658 -12.449  1.00  0.00     0.007 A 
ATOM     53  C   UNL     1      11.897   2.824 -10.967  1.00  0.00     0.046 A 
ATOM     54  C   UNL     1      11.432   3.935 -13.062  1.00  0.00     0.046 A 
ATOM     55  C   UNL     1      12.168   3.022 -12.315  1.00  0.00     0.115 A 
BRANCH  55  56
ATOM     56  O   UNL     1      13.178   2.297 -12.875  1.00  0.00    -0.508 OA
ATOM     57  H   UNL     1      12.926   2.074 -13.786  1.00  0.00     0.293 HD
ENDBRANCH  55  56
ENDBRANCH  49  50
ENDBRANCH  48  49
BRANCH  48  58
ATOM     58  C   UNL     1       8.637   6.096  -8.077  1.00  0.00     0.326 C 
ATOM     59  O   UNL     1       9.496   6.901  -7.758  1.00  0.00    -0.250 OA
BRANCH  58  60
ATOM     60  O   UNL     1       7.361   6.287  -7.656  1.00  0.00    -0.480 OA
ATOM     61  H   UNL     1       7.462   6.437  -6.691  1.00  0.00     0.296 HD
ENDBRANCH  58  60
ENDBRANCH  48  58
ENDBRANCH  46  48
ENDBRANCH  34  44
ENDBRANCH  32  34
ENDBRANCH  25  30
ENDBRANCH  23  25
ENDBRANCH   2  23
TORSDOF 28
ENDMDL
MODEL 49
REMARK VINA RESULT:    -5.582     12.919     16.395
REMARK INTER + INTRA:         -17.951
REMARK INTER:                 -11.037
REMARK INTRA:                  -6.914
REMARK UNBOUND:                -4.047
REMARK SMILES CCCCCCC[C@H](N)[C@H](O)C(=O)N[C@H](C)C(=O)N(C)[C@H](CC(C)C)C(=O)N[C@@H](Cc1ccc(O)cc1)C(=O)N[C@@H](Cc1ccc(O)cc1)C(=O)O
REMARK SMILES IDX 18 1 17 2 15 3 16 4 14 5 12 6 13 7 10 9 11 10 8 12 9 13 7 16
REMARK SMILES IDX 6 17 5 18 4 19 3 20 2 21 1 22 19 23 20 24 21 25 22 26 23 27
REMARK SMILES IDX 24 28 25 29 26 30 27 31 28 32 29 34 30 35 31 36 32 37 37 38
REMARK SMILES IDX 33 39 36 40 34 41 35 42 38 44 39 45 40 46 41 48 42 49 43 50
REMARK SMILES IDX 44 51 49 52 45 53 48 54 46 55 47 56 50 58 51 59 52 60
REMARK H PARENT 14 8 11 11 9 14 9 15 28 33 35 43 40 47 47 57 52 61
ROOT
ATOM      1  O   UNL     1     -12.083   4.975  -4.494  1.00  0.00    -0.272 OA
ATOM      2  C   UNL     1     -12.746   6.015  -4.619  1.00  0.00     0.245 C 
ENDROOT
BRANCH   2   3
ATOM      3  C   UNL     1     -14.007   5.987  -5.518  1.00  0.00     0.168 C 
ATOM      4  C   UNL     1     -15.270   6.182  -4.686  1.00  0.00     0.041 C 
BRANCH   3   5
ATOM      5  N   UNL     1     -13.965   6.890  -6.658  1.00  0.00    -0.342 N 
ATOM      6  C   UNL     1     -14.403   6.505  -7.908  1.00  0.00     0.251 C 
ATOM      7  O   UNL     1     -14.816   5.379  -8.162  1.00  0.00    -0.272 OA
ATOM      8  H   UNL     1     -13.609   7.839  -6.577  1.00  0.00     0.164 HD
BRANCH   6   9
ATOM      9  C   UNL     1     -14.398   7.660  -8.921  1.00  0.00     0.219 C 
BRANCH   9  10
ATOM     10  O   UNL     1     -14.825   8.901  -8.346  1.00  0.00    -0.382 OA
ATOM     11  H   UNL     1     -15.665   8.668  -7.893  1.00  0.00     0.211 HD
ENDBRANCH   9  10
BRANCH   9  12
ATOM     12  C   UNL     1     -13.037   7.829  -9.646  1.00  0.00     0.089 C 
BRANCH  12  13
ATOM     13  N   UNL     1     -12.571   6.493 -10.082  1.00  0.00    -0.325 NA
ATOM     14  H   UNL     1     -12.625   6.434 -11.101  1.00  0.00     0.119 HD
ATOM     15  H   UNL     1     -13.225   5.786  -9.739  1.00  0.00     0.119 HD
ENDBRANCH  12  13
BRANCH  12  16
ATOM     16  C   UNL     1     -13.022   8.814 -10.840  1.00  0.00     0.022 C 
BRANCH  16  17
ATOM     17  C   UNL     1     -12.460  10.227 -10.635  1.00  0.00     0.002 C 
BRANCH  17  18
ATOM     18  C   UNL     1     -11.863  10.490  -9.254  1.00  0.00     0.000 C 
BRANCH  18  19
ATOM     19  C   UNL     1     -10.699  11.490  -9.257  1.00  0.00    -0.000 C 
BRANCH  19  20
ATOM     20  C   UNL     1      -9.309  10.869  -9.088  1.00  0.00    -0.000 C 
BRANCH  20  21
ATOM     21  C   UNL     1      -9.338   9.340  -9.036  1.00  0.00    -0.003 C 
ATOM     22  C   UNL     1      -8.816   8.731 -10.328  1.00  0.00     0.004 C 
ENDBRANCH  20  21
ENDBRANCH  19  20
ENDBRANCH  18  19
ENDBRANCH  17  18
ENDBRANCH  16  17
ENDBRANCH  12  16
ENDBRANCH   9  12
ENDBRANCH   6   9
ENDBRANCH   3   5
ENDBRANCH   2   3
BRANCH   2  23
ATOM     23  N   UNL     1     -12.424   7.139  -3.865  1.00  0.00    -0.332 N 
ATOM     24  C   UNL     1     -13.202   7.626  -2.736  1.00  0.00     0.147 C 
BRANCH  23  25
ATOM     25  C   UNL     1     -11.145   7.863  -4.105  1.00  0.00     0.174 C 
BRANCH  25  26
ATOM     26  C   UNL     1     -11.009   8.381  -5.556  1.00  0.00     0.038 C 
BRANCH  26  27
ATOM     27  C   UNL     1     -10.979   9.913  -5.752  1.00  0.00    -0.015 C 
ATOM     28  C   UNL     1     -12.357  10.551  -5.579  1.00  0.00     0.007 C 
ATOM     29  C   UNL     1      -9.947  10.617  -4.876  1.00  0.00     0.007 C 
ENDBRANCH  26  27
ENDBRANCH  25  26
BRANCH  25  30
ATOM     30  C   UNL     1      -9.951   7.000  -3.638  1.00  0.00     0.243 C 
ATOM     31  O   UNL     1      -9.892   6.531  -2.502  1.00  0.00    -0.273 OA
ATOM     32  N   UNL     1      -8.964   6.800  -4.569  1.00  0.00    -0.342 N 
ATOM     33  H   UNL     1      -9.151   7.100  -5.529  1.00  0.00     0.164 HD
BRANCH  32  34
ATOM     34  C   UNL     1      -7.746   6.032  -4.294  1.00  0.00     0.175 C 
BRANCH  34  35
ATOM     35  C   UNL     1      -7.720   4.721  -5.095  1.00  0.00     0.070 C 
BRANCH  35  36
ATOM     36  C   UNL     1      -8.234   4.887  -6.507  1.00  0.00    -0.045 A 
ATOM     37  C   UNL     1      -9.543   4.499  -6.828  1.00  0.00     0.007 A 
ATOM     38  C   UNL     1      -7.410   5.406  -7.515  1.00  0.00     0.007 A 
ATOM     39  C   UNL     1     -10.021   4.637  -8.132  1.00  0.00     0.046 A 
ATOM     40  C   UNL     1      -7.887   5.542  -8.821  1.00  0.00     0.046 A 
ATOM     41  C   UNL     1      -9.190   5.157  -9.117  1.00  0.00     0.115 A 
BRANCH  41  42
ATOM     42  O   UNL     1      -9.695   5.272 -10.378  1.00  0.00    -0.508 OA
ATOM     43  H   UNL     1     -10.008   6.184 -10.499  1.00  0.00     0.293 HD
ENDBRANCH  41  42
ENDBRANCH  35  36
ENDBRANCH  34  35
BRANCH  34  44
ATOM     44  C   UNL     1      -6.531   6.930  -4.617  1.00  0.00     0.243 C 
ATOM     45  O   UNL     1      -5.364   6.550  -4.599  1.00  0.00    -0.273 OA
ATOM     46  N   UNL     1      -6.863   8.255  -4.806  1.00  0.00    -0.341 N 
ATOM     47  H   UNL     1      -7.832   8.542  -4.696  1.00  0.00     0.164 HD
BRANCH  46  48
ATOM     48  C   UNL     1      -5.873   9.305  -5.057  1.00  0.00     0.196 C 
BRANCH  48  49
ATOM     49  C   UNL     1      -6.445  10.407  -5.965  1.00  0.00     0.072 C 
BRANCH  49  50
ATOM     50  C   UNL     1      -5.990  10.273  -7.400  1.00  0.00    -0.045 A 
ATOM     51  C   UNL     1      -5.850  11.417  -8.200  1.00  0.00     0.007 A 
ATOM     52  C   UNL     1      -5.725   9.015  -7.957  1.00  0.00     0.007 A 
ATOM     53  C   UNL     1      -5.445  11.304  -9.530  1.00  0.00     0.046 A 
ATOM     54  C   UNL     1      -5.320   8.902  -9.289  1.00  0.00     0.046 A 
ATOM     55  C   UNL     1      -5.182  10.048 -10.064  1.00  0.00     0.115 A 
BRANCH  55  56
ATOM     56  O   UNL     1      -4.790   9.981 -11.368  1.00  0.00    -0.508 OA
ATOM     57  H   UNL     1      -5.532  10.262 -11.926  1.00  0.00     0.293 HD
ENDBRANCH  55  56
ENDBRANCH  49  50
ENDBRANCH  48  49
BRANCH  48  58
ATOM     58  C   UNL     1      -5.441   9.915  -3.716  1.00  0.00     0.326 C 
ATOM     59  O   UNL     1      -5.995   9.793  -2.636  1.00  0.00    -0.250 OA
BRANCH  58  60
ATOM     60  O   UNL     1      -4.304  10.650  -3.798  1.00  0.00    -0.480 OA
ATOM     61  H   UNL     1      -3.594   9.972  -3.775  1.00  0.00     0.296 HD
ENDBRANCH  58  60
ENDBRANCH  48  58
ENDBRANCH  46  48
ENDBRANCH  34  44
ENDBRANCH  32  34
ENDBRANCH  25  30
ENDBRANCH  23  25
ENDBRANCH   2  23
TORSDOF 28
ENDMDL
MODEL 50
REMARK VINA RESULT:    -5.530      3.074      6.873
REMARK INTER + INTRA:         -17.819
REMARK INTER:                 -11.762
REMARK INTRA:                  -6.057
REMARK UNBOUND:                -4.047
REMARK SMILES CCCCCCC[C@H](N)[C@H](O)C(=O)N[C@H](C)C(=O)N(C)[C@H](CC(C)C)C(=O)N[C@@H](Cc1ccc(O)cc1)C(=O)N[C@@H](Cc1ccc(O)cc1)C(=O)O
REMARK SMILES IDX 18 1 17 2 15 3 16 4 14 5 12 6 13 7 10 9 11 10 8 12 9 13 7 16
REMARK SMILES IDX 6 17 5 18 4 19 3 20 2 21 1 22 19 23 20 24 21 25 22 26 23 27
REMARK SMILES IDX 24 28 25 29 26 30 27 31 28 32 29 34 30 35 31 36 32 37 37 38
REMARK SMILES IDX 33 39 36 40 34 41 35 42 38 44 39 45 40 46 41 48 42 49 43 50
REMARK SMILES IDX 44 51 49 52 45 53 48 54 46 55 47 56 50 58 51 59 52 60
REMARK H PARENT 14 8 11 11 9 14 9 15 28 33 35 43 40 47 47 57 52 61
ROOT
ATOM      1  O   UNL     1       3.659   9.043 -10.223  1.00  0.00    -0.272 OA
ATOM      2  C   UNL     1       4.369   8.079  -9.902  1.00  0.00     0.245 C 
ENDROOT
BRANCH   2   3
ATOM      3  C   UNL     1       4.679   7.000 -10.970  1.00  0.00     0.168 C 
ATOM      4  C   UNL     1       6.182   6.783 -11.101  1.00  0.00     0.041 C 
BRANCH   3   5
ATOM      5  N   UNL     1       3.963   5.745 -10.796  1.00  0.00    -0.342 N 
ATOM      6  C   UNL     1       2.682   5.566 -11.274  1.00  0.00     0.251 C 
ATOM      7  O   UNL     1       2.040   6.447 -11.836  1.00  0.00    -0.272 OA
ATOM      8  H   UNL     1       4.380   4.952 -10.315  1.00  0.00     0.164 HD
BRANCH   6   9
ATOM      9  C   UNL     1       2.181   4.123 -11.104  1.00  0.00     0.219 C 
BRANCH   9  10
ATOM     10  O   UNL     1       3.239   3.200 -10.818  1.00  0.00    -0.382 OA
ATOM     11  H   UNL     1       3.489   3.415  -9.892  1.00  0.00     0.211 HD
ENDBRANCH   9  10
BRANCH   9  12
ATOM     12  C   UNL     1       1.040   3.993 -10.061  1.00  0.00     0.089 C 
BRANCH  12  13
ATOM     13  N   UNL     1      -0.219   4.459 -10.685  1.00  0.00    -0.325 NA
ATOM     14  H   UNL     1      -0.524   5.318 -10.225  1.00  0.00     0.119 HD
ATOM     15  H   UNL     1      -0.956   3.777 -10.492  1.00  0.00     0.119 HD
ENDBRANCH  12  13
BRANCH  12  16
ATOM     16  C   UNL     1       0.841   2.587  -9.446  1.00  0.00     0.022 C 
BRANCH  16  17
ATOM     17  C   UNL     1      -0.002   2.442  -8.171  1.00  0.00     0.002 C 
BRANCH  17  18
ATOM     18  C   UNL     1       0.801   2.288  -6.882  1.00  0.00     0.000 C 
BRANCH  18  19
ATOM     19  C   UNL     1       1.458   0.912  -6.715  1.00  0.00    -0.000 C 
BRANCH  19  20
ATOM     20  C   UNL     1       0.999   0.116  -5.489  1.00  0.00    -0.000 C 
BRANCH  20  21
ATOM     21  C   UNL     1       1.205   0.871  -4.173  1.00  0.00    -0.003 C 
ATOM     22  C   UNL     1       2.534   0.508  -3.529  1.00  0.00     0.004 C 
ENDBRANCH  20  21
ENDBRANCH  19  20
ENDBRANCH  18  19
ENDBRANCH  17  18
ENDBRANCH  16  17
ENDBRANCH  12  16
ENDBRANCH   9  12
ENDBRANCH   6   9
ENDBRANCH   3   5
ENDBRANCH   2   3
BRANCH   2  23
ATOM     23  N   UNL     1       4.968   8.042  -8.648  1.00  0.00    -0.332 N 
ATOM     24  C   UNL     1       6.014   8.952  -8.205  1.00  0.00     0.147 C 
BRANCH  23  25
ATOM     25  C   UNL     1       4.464   7.111  -7.601  1.00  0.00     0.174 C 
BRANCH  25  26
ATOM     26  C   UNL     1       4.125   7.827  -6.272  1.00  0.00     0.038 C 
BRANCH  26  27
ATOM     27  C   UNL     1       2.638   8.150  -6.010  1.00  0.00    -0.015 C 
ATOM     28  C   UNL     1       2.181   9.421  -6.726  1.00  0.00     0.007 C 
ATOM     29  C   UNL     1       1.699   6.989  -6.326  1.00  0.00     0.007 C 
ENDBRANCH  26  27
ENDBRANCH  25  26
BRANCH  25  30
ATOM     30  C   UNL     1       5.434   5.919  -7.436  1.00  0.00     0.243 C 
ATOM     31  O   UNL     1       6.616   6.080  -7.137  1.00  0.00    -0.273 OA
ATOM     32  N   UNL     1       4.891   4.679  -7.652  1.00  0.00    -0.342 N 
ATOM     33  H   UNL     1       3.875   4.618  -7.757  1.00  0.00     0.164 HD
BRANCH  32  34
ATOM     34  C   UNL     1       5.667   3.438  -7.567  1.00  0.00     0.175 C 
BRANCH  34  35
ATOM     35  C   UNL     1       4.978   2.409  -6.658  1.00  0.00     0.070 C 
BRANCH  35  36
ATOM     36  C   UNL     1       4.579   2.986  -5.318  1.00  0.00    -0.045 A 
ATOM     37  C   UNL     1       3.419   3.767  -5.208  1.00  0.00     0.007 A 
ATOM     38  C   UNL     1       5.368   2.772  -4.180  1.00  0.00     0.007 A 
ATOM     39  C   UNL     1       3.050   4.315  -3.979  1.00  0.00     0.046 A 
ATOM     40  C   UNL     1       5.000   3.322  -2.949  1.00  0.00     0.046 A 
ATOM     41  C   UNL     1       3.843   4.088  -2.860  1.00  0.00     0.115 A 
BRANCH  41  42
ATOM     42  O   UNL     1       3.449   4.644  -1.679  1.00  0.00    -0.508 OA
ATOM     43  H   UNL     1       4.119   5.294  -1.409  1.00  0.00     0.293 HD
ENDBRANCH  41  42
ENDBRANCH  35  36
ENDBRANCH  34  35
BRANCH  34  44
ATOM     44  C   UNL     1       5.868   2.899  -9.001  1.00  0.00     0.243 C 
ATOM     45  O   UNL     1       6.090   3.604  -9.982  1.00  0.00    -0.273 OA
ATOM     46  N   UNL     1       5.644   1.544  -9.114  1.00  0.00    -0.341 N 
ATOM     47  H   UNL     1       5.347   1.022  -8.293  1.00  0.00     0.164 HD
BRANCH  46  48
ATOM     48  C   UNL     1       5.707   0.820 -10.385  1.00  0.00     0.196 C 
BRANCH  48  49
ATOM     49  C   UNL     1       7.061   0.112 -10.560  1.00  0.00     0.072 C 
BRANCH  49  50
ATOM     50  C   UNL     1       7.916   0.746 -11.634  1.00  0.00    -0.045 A 
ATOM     51  C   UNL     1       8.697   1.871 -11.331  1.00  0.00     0.007 A 
ATOM     52  C   UNL     1       7.925   0.240 -12.940  1.00  0.00     0.007 A 
ATOM     53  C   UNL     1       9.479   2.473 -12.317  1.00  0.00     0.046 A 
ATOM     54  C   UNL     1       8.707   0.843 -13.927  1.00  0.00     0.046 A 
ATOM     55  C   UNL     1       9.479   1.955 -13.607  1.00  0.00     0.115 A 
BRANCH  55  56
ATOM     56  O   UNL     1      10.256   2.573 -14.542  1.00  0.00    -0.508 OA
ATOM     57  H   UNL     1      10.849   1.913 -14.932  1.00  0.00     0.293 HD
ENDBRANCH  55  56
ENDBRANCH  49  50
ENDBRANCH  48  49
BRANCH  48  58
ATOM     58  C   UNL     1       4.575  -0.216 -10.427  1.00  0.00     0.326 C 
ATOM     59  O   UNL     1       4.605  -1.323 -10.941  1.00  0.00    -0.250 OA
BRANCH  58  60
ATOM     60  O   UNL     1       3.445   0.191  -9.797  1.00  0.00    -0.480 OA
ATOM     61  H   UNL     1       3.415  -0.377  -8.997  1.00  0.00     0.296 HD
ENDBRANCH  58  60
ENDBRANCH  48  58
ENDBRANCH  46  48
ENDBRANCH  34  44
ENDBRANCH  32  34
ENDBRANCH  25  30
ENDBRANCH  23  25
ENDBRANCH   2  23
TORSDOF 28
ENDMDL
