MODEL 1
REMARK VINA RESULT:    -7.268      0.000      0.000
REMARK INTER + INTRA:         -28.943
REMARK INTER:                 -21.714
REMARK INTRA:                  -7.229
REMARK UNBOUND:                -7.229
REMARK SMILES C=C1C(=O)N[C@H](C)C(=O)N[C@@H](CC(C)C)C(=O)N[C@@H](C(=O)O)[C@H](C)C(=O)N[C@@H](CCCN=C(N)N)C(=O)N[C@@H](/C=C/C(C)=C/[C@H](C)[C@H](Cc2ccccc2)OC)[C@H](C)C(=O)N[C@@H](C(=O)O)CCC(=O)N1C
REMARK SMILES IDX 39 1 38 2 37 3 36 4 28 6 27 7 25 8 26 9 23 11 24 12 19 13
REMARK SMILES IDX 18 14 16 15 17 16 11 18 10 19 8 20 9 21 12 24 13 25 14 26
REMARK SMILES IDX 15 27 20 28 21 29 22 30 29 32 30 33 31 34 32 35 33 36 34 37
REMARK SMILES IDX 35 38 57 43 58 44 59 45 60 46 61 47 62 49 66 50 67 51 68 52
REMARK SMILES IDX 69 53 70 54 71 55 2 56 1 57 3 58 4 59 5 60 6 62 7 63 63 65
REMARK SMILES IDX 64 66 65 67 40 69 41 70 42 71 44 72 43 73 45 74 46 75 47 76
REMARK SMILES IDX 55 77 56 78 48 79 49 80 50 81 54 82 51 83 53 84 52 85
REMARK H PARENT 38 5 27 10 18 17 10 22 22 31 34 39 34 40 35 41 35 42 61 48
REMARK H PARENT 5 61 65 68
REMARK Flexibility Score:  369.900
ROOT
ATOM      1  C   UNL     1      -1.785  10.466   7.758  1.00  0.00     0.117 C 
ENDROOT
BRANCH   1   2
ATOM      2  N   UNL     1      -1.333   9.077   7.846  1.00  0.00    -0.347 N 
ATOM      3  O   UNL     1      -3.102   8.103   6.755  1.00  0.00    -0.273 OA
ATOM      4  C   UNL     1      -1.985   8.013   7.255  1.00  0.00     0.243 C 
ATOM      5  H   UNL     1      -0.468   8.868   8.321  1.00  0.00     0.164 HD
BRANCH   4   6
ATOM      6  C   UNL     1      -1.252   6.658   7.426  1.00  0.00     0.171 C 
BRANCH   6   7
ATOM      7  N   UNL     1      -1.952   5.596   6.687  1.00  0.00    -0.344 N 
ATOM      8  C   UNL     1      -2.031   4.319   7.198  1.00  0.00     0.226 C 
ATOM      9  O   UNL     1      -1.513   4.000   8.261  1.00  0.00    -0.275 OA
ATOM     10  H   UNL     1      -2.335   5.805   5.773  1.00  0.00     0.164 HD
BRANCH   8  11
ATOM     11  C   UNL     1      -2.832   3.352   6.344  1.00  0.00     0.109 C 
ATOM     12  C   UNL     1      -2.243   1.945   6.449  1.00  0.00     0.021 C 
BRANCH  11  13
ATOM     13  C   UNL     1      -4.328   3.457   6.702  1.00  0.00     0.204 C 
BRANCH  13  14
ATOM     14  N   UNL     1      -4.535   3.811   8.110  1.00  0.00    -0.340 N 
ATOM     15  C   UNL     1      -4.635   2.870   9.112  1.00  0.00     0.243 C 
ATOM     16  O   UNL     1      -4.497   1.666   8.902  1.00  0.00    -0.273 OA
ATOM     17  H   UNL     1      -4.807   4.773   8.328  1.00  0.00     0.164 HD
BRANCH  15  18
ATOM     18  C   UNL     1      -5.059   3.463  10.478  1.00  0.00     0.171 C 
BRANCH  18  19
ATOM     19  N   UNL     1      -5.048   2.358  11.435  1.00  0.00    -0.343 N 
ATOM     20  C   UNL     1      -6.192   1.647  11.740  1.00  0.00     0.242 CG0
ATOM     21  O   UNL     1      -7.295   1.993  11.323  1.00  0.00    -0.273 OA
ATOM     22  H   UNL     1      -4.180   2.107  11.895  1.00  0.00     0.164 HD
ATOM     23  G   UNL     1      -5.970   0.468  12.710  1.00  0.00     0.000 G0
ENDBRANCH  18  19
BRANCH  18  24
ATOM     24  C   UNL     1      -4.101   4.583  10.902  1.00  0.00     0.038 C 
BRANCH  24  25
ATOM     25  C   UNL     1      -3.056   4.172  11.960  1.00  0.00    -0.015 C 
ATOM     26  C   UNL     1      -3.331   4.795  13.328  1.00  0.00     0.007 C 
ATOM     27  C   UNL     1      -1.657   4.572  11.484  1.00  0.00     0.007 C 
ENDBRANCH  24  25
ENDBRANCH  18  24
ENDBRANCH  15  18
ENDBRANCH  13  14
BRANCH  13  28
ATOM     28  C   UNL     1      -5.080   4.491   5.859  1.00  0.00     0.327 C 
ATOM     29  O   UNL     1      -4.589   5.243   5.030  1.00  0.00    -0.250 OA
BRANCH  28  30
ATOM     30  O   UNL     1      -6.381   4.601   6.193  1.00  0.00    -0.480 OA
ATOM     31  H   UNL     1      -6.636   3.696   6.470  1.00  0.00     0.296 HD
ENDBRANCH  28  30
ENDBRANCH  13  28
ENDBRANCH  11  13
ENDBRANCH   8  11
ENDBRANCH   6   7
BRANCH   6  32
ATOM     32  C   UNL     1       0.194   6.804   6.937  1.00  0.00     0.037 C 
BRANCH  32  33
ATOM     33  C   UNL     1       1.212   6.395   8.011  1.00  0.00     0.026 C 
BRANCH  33  34
ATOM     34  C   UNL     1       2.047   5.183   7.595  1.00  0.00     0.146 C 
BRANCH  34  35
ATOM     35  N   UNL     1       3.455   5.556   7.605  1.00  0.00    -0.254 NA
ATOM     36  C   UNL     1       4.321   4.677   7.949  1.00  0.00     0.185 C 
ATOM     37  N   UNL     1       5.621   5.009   7.957  1.00  0.00    -0.370 N 
ATOM     38  N   UNL     1       4.125   3.401   8.324  1.00  0.00    -0.370 N 
ATOM     39  H   UNL     1       5.851   5.953   7.675  1.00  0.00     0.159 HD
ATOM     40  H   UNL     1       6.365   4.338   8.043  1.00  0.00     0.159 HD
ATOM     41  H   UNL     1       4.876   2.849   8.706  1.00  0.00     0.159 HD
ATOM     42  H   UNL     1       3.194   3.019   8.380  1.00  0.00     0.159 HD
ENDBRANCH  34  35
ENDBRANCH  33  34
ENDBRANCH  32  33
ENDBRANCH   6  32
ENDBRANCH   4   6
ENDBRANCH   1   2
BRANCH   1  43
ATOM     43  C   UNL     1      -0.535  11.388   7.660  1.00  0.00     0.102 C 
ATOM     44  C   UNL     1      -0.844  12.869   7.937  1.00  0.00     0.020 C 
BRANCH  43  45
ATOM     45  C   UNL     1       0.226  11.146   6.353  1.00  0.00     0.225 C 
ATOM     46  O   UNL     1      -0.259  11.360   5.245  1.00  0.00    -0.275 OA
ATOM     47  N   UNL     1       1.472  10.579   6.489  1.00  0.00    -0.342 N 
ATOM     48  H   UNL     1       1.913  10.552   7.397  1.00  0.00     0.164 HD
BRANCH  47  49
ATOM     49  C   UNL     1       2.329  10.324   5.327  1.00  0.00     0.192 C 
BRANCH  49  50
ATOM     50  C   UNL     1       2.189   8.861   4.896  1.00  0.00     0.047 C 
BRANCH  50  51
ATOM     51  C   UNL     1       1.711   8.725   3.444  1.00  0.00     0.103 C 
BRANCH  51  52
ATOM     52  C   UNL     1       2.839   8.302   2.506  1.00  0.00     0.226 C 
ATOM     53  O   UNL     1       4.011   8.446   2.858  1.00  0.00    -0.275 OA
BRANCH  52  54
ATOM     54  N   UNL     1       2.454   7.691   1.298  1.00  0.00    -0.311 N 
ATOM     55  C   UNL     1       1.994   6.296   1.269  1.00  0.00     0.153 C 
BRANCH  54  56
ATOM     56  C   UNL     1       2.488   8.390   0.080  1.00  0.00     0.102 C 
ATOM     57  C   UNL     1       1.407   8.738  -0.637  1.00  0.00     0.043 C 
BRANCH  56  58
ATOM     58  C   UNL     1       3.799   8.858  -0.508  1.00  0.00     0.268 C 
ATOM     59  O   UNL     1       4.313   8.342  -1.491  1.00  0.00    -0.268 OA
ATOM     60  N   UNL     1       4.316   9.959   0.132  1.00  0.00    -0.339 N 
ATOM     61  H   UNL     1       3.834  10.320   0.946  1.00  0.00     0.164 HD
BRANCH  60  62
ATOM     62  C   UNL     1       5.546  10.613  -0.314  1.00  0.00     0.168 CG0
ATOM     63  C   UNL     1       6.221  11.350   0.836  1.00  0.00     0.041 C 
ATOM     64  G   UNL     1       5.226  11.582  -1.471  1.00  0.00     0.000 G0
ENDBRANCH  60  62
ENDBRANCH  56  58
ENDBRANCH  54  56
ENDBRANCH  52  54
ENDBRANCH  51  52
ENDBRANCH  50  51
ENDBRANCH  49  50
BRANCH  49  65
ATOM     65  C   UNL     1       3.804  10.626   5.633  1.00  0.00     0.326 C 
ATOM     66  O   UNL     1       4.592   9.855   6.162  1.00  0.00    -0.250 OA
BRANCH  65  67
ATOM     67  O   UNL     1       4.199  11.880   5.323  1.00  0.00    -0.480 OA
ATOM     68  H   UNL     1       4.710  12.164   6.112  1.00  0.00     0.296 HD
ENDBRANCH  65  67
ENDBRANCH  49  65
ENDBRANCH  47  49
ENDBRANCH  43  45
ENDBRANCH   1  43
BRANCH   1  69
ATOM     69  C   UNL     1      -2.757  10.669   8.905  1.00  0.00    -0.001 C 
ATOM     70  C   UNL     1      -3.511  11.754   9.155  1.00  0.00     0.001 C 
BRANCH  70  71
ATOM     71  C   UNL     1      -4.463  11.930  10.254  1.00  0.00    -0.055 C 
ATOM     72  C   UNL     1      -4.469  11.002  11.233  1.00  0.00    -0.018 C 
ATOM     73  C   UNL     1      -5.361  13.139  10.218  1.00  0.00     0.044 C 
BRANCH  72  74
ATOM     74  C   UNL     1      -5.334  10.926  12.484  1.00  0.00     0.038 C 
ATOM     75  C   UNL     1      -4.625  11.740  13.574  1.00  0.00     0.015 C 
BRANCH  74  76
ATOM     76  C   UNL     1      -5.573   9.429  12.838  1.00  0.00     0.128 C 
BRANCH  76  77
ATOM     77  O   UNL     1      -6.970   9.112  12.713  1.00  0.00    -0.381 OA
ATOM     78  C   UNL     1      -7.592   8.778  13.946  1.00  0.00     0.195 C 
ENDBRANCH  76  77
BRANCH  76  79
ATOM     79  C   UNL     1      -4.663   8.445  12.060  1.00  0.00     0.068 C 
BRANCH  79  80
ATOM     80  C   UNL     1      -3.217   8.338  12.480  1.00  0.00    -0.045 A 
ATOM     81  C   UNL     1      -2.846   8.440  13.827  1.00  0.00     0.004 A 
ATOM     82  C   UNL     1      -2.212   8.161  11.516  1.00  0.00     0.004 A 
ATOM     83  C   UNL     1      -1.505   8.354  14.205  1.00  0.00     0.000 A 
ATOM     84  C   UNL     1      -0.871   8.075  11.896  1.00  0.00     0.000 A 
ATOM     85  C   UNL     1      -0.518   8.170  13.240  1.00  0.00     0.000 A 
ENDBRANCH  79  80
ENDBRANCH  76  79
ENDBRANCH  74  76
ENDBRANCH  72  74
ENDBRANCH  70  71
ENDBRANCH   1  69
TORSDOF 17
ENDMDL
MODEL 2
REMARK VINA RESULT:    -6.807      3.707     11.449
REMARK INTER + INTRA:         -27.565
REMARK INTER:                 -17.953
REMARK INTRA:                  -9.612
REMARK UNBOUND:                -7.229
REMARK SMILES C=C1C(=O)N[C@H](C)C(=O)N[C@@H](CC(C)C)C(=O)N[C@@H](C(=O)O)[C@H](C)C(=O)N[C@@H](CCCN=C(N)N)C(=O)N[C@@H](/C=C/C(C)=C/[C@H](C)[C@H](Cc2ccccc2)OC)[C@H](C)C(=O)N[C@@H](C(=O)O)CCC(=O)N1C
REMARK SMILES IDX 39 1 38 2 37 3 36 4 28 6 27 7 25 8 26 9 23 11 24 12 19 13
REMARK SMILES IDX 18 14 16 15 17 16 11 18 10 19 8 20 9 21 12 24 13 25 14 26
REMARK SMILES IDX 15 27 20 28 21 29 22 30 29 32 30 33 31 34 32 35 33 36 34 37
REMARK SMILES IDX 35 38 57 43 58 44 59 45 60 46 61 47 62 49 66 50 67 51 68 52
REMARK SMILES IDX 69 53 70 54 71 55 2 56 1 57 3 58 4 59 5 60 6 62 7 63 63 65
REMARK SMILES IDX 64 66 65 67 40 69 41 70 42 71 44 72 43 73 45 74 46 75 47 76
REMARK SMILES IDX 55 77 56 78 48 79 49 80 50 81 54 82 51 83 53 84 52 85
REMARK H PARENT 38 5 27 10 18 17 10 22 22 31 34 39 34 40 35 41 35 42 61 48
REMARK H PARENT 5 61 65 68
REMARK Flexibility Score:  369.900
ROOT
ATOM      1  C   UNL     1       3.265   8.397   8.950  1.00  0.00     0.117 C 
ENDROOT
BRANCH   1   2
ATOM      2  N   UNL     1       2.428   8.189   7.768  1.00  0.00    -0.347 N 
ATOM      3  O   UNL     1       0.925   6.728   8.702  1.00  0.00    -0.273 OA
ATOM      4  C   UNL     1       1.268   7.440   7.764  1.00  0.00     0.243 C 
ATOM      5  H   UNL     1       2.668   8.653   6.904  1.00  0.00     0.164 HD
BRANCH   4   6
ATOM      6  C   UNL     1       0.523   7.451   6.405  1.00  0.00     0.171 C 
BRANCH   6   7
ATOM      7  N   UNL     1       1.137   8.426   5.490  1.00  0.00    -0.344 N 
ATOM      8  C   UNL     1       2.352   8.164   4.896  1.00  0.00     0.226 C 
ATOM      9  O   UNL     1       2.984   7.137   5.111  1.00  0.00    -0.275 OA
ATOM     10  H   UNL     1       0.677   9.315   5.340  1.00  0.00     0.164 HD
BRANCH   8  11
ATOM     11  C   UNL     1       2.825   9.242   3.937  1.00  0.00     0.109 C 
ATOM     12  C   UNL     1       4.170   9.804   4.399  1.00  0.00     0.021 C 
BRANCH  11  13
ATOM     13  C   UNL     1       2.810   8.700   2.494  1.00  0.00     0.204 C 
BRANCH  13  14
ATOM     14  N   UNL     1       3.539   7.434   2.372  1.00  0.00    -0.340 N 
ATOM     15  C   UNL     1       3.985   6.940   1.166  1.00  0.00     0.243 C 
ATOM     16  O   UNL     1       3.856   7.558   0.111  1.00  0.00    -0.273 OA
ATOM     17  H   UNL     1       3.546   6.804   3.179  1.00  0.00     0.164 HD
BRANCH  15  18
ATOM     18  C   UNL     1       4.540   5.497   1.255  1.00  0.00     0.171 C 
BRANCH  18  19
ATOM     19  N   UNL     1       5.406   5.309   0.093  1.00  0.00    -0.343 N 
ATOM     20  C   UNL     1       5.170   4.318  -0.840  1.00  0.00     0.242 CG0
ATOM     21  O   UNL     1       4.301   3.466  -0.667  1.00  0.00    -0.273 OA
ATOM     22  H   UNL     1       6.208   5.917  -0.033  1.00  0.00     0.164 HD
ATOM     23  G   UNL     1       6.143   4.324  -2.036  1.00  0.00     0.000 G0
ENDBRANCH  18  19
BRANCH  18  24
ATOM     24  C   UNL     1       5.307   5.292   2.567  1.00  0.00     0.038 C 
BRANCH  24  25
ATOM     25  C   UNL     1       4.978   3.979   3.308  1.00  0.00    -0.015 C 
ATOM     26  C   UNL     1       5.617   2.758   2.646  1.00  0.00     0.007 C 
ATOM     27  C   UNL     1       3.460   3.792   3.375  1.00  0.00     0.007 C 
ENDBRANCH  24  25
ENDBRANCH  18  24
ENDBRANCH  15  18
ENDBRANCH  13  14
BRANCH  13  28
ATOM     28  C   UNL     1       1.397   8.464   1.953  1.00  0.00     0.327 C 
ATOM     29  O   UNL     1       0.563   7.702   2.417  1.00  0.00    -0.250 OA
BRANCH  28  30
ATOM     30  O   UNL     1       1.159   9.111   0.793  1.00  0.00    -0.480 OA
ATOM     31  H   UNL     1       0.663   9.912   1.061  1.00  0.00     0.296 HD
ENDBRANCH  28  30
ENDBRANCH  13  28
ENDBRANCH  11  13
ENDBRANCH   8  11
ENDBRANCH   6   7
BRANCH   6  32
ATOM     32  C   UNL     1       0.553   6.041   5.803  1.00  0.00     0.037 C 
BRANCH  32  33
ATOM     33  C   UNL     1      -0.697   5.743   4.963  1.00  0.00     0.026 C 
BRANCH  33  34
ATOM     34  C   UNL     1      -1.819   5.112   5.788  1.00  0.00     0.146 C 
BRANCH  34  35
ATOM     35  N   UNL     1      -2.760   6.154   6.175  1.00  0.00    -0.254 NA
ATOM     36  C   UNL     1      -2.833   6.488   7.410  1.00  0.00     0.185 C 
ATOM     37  N   UNL     1      -3.693   7.450   7.777  1.00  0.00    -0.370 N 
ATOM     38  N   UNL     1      -2.145   6.002   8.458  1.00  0.00    -0.370 N 
ATOM     39  H   UNL     1      -4.242   7.874   7.040  1.00  0.00     0.159 HD
ATOM     40  H   UNL     1      -3.686   7.886   8.683  1.00  0.00     0.159 HD
ATOM     41  H   UNL     1      -2.391   6.249   9.403  1.00  0.00     0.159 HD
ATOM     42  H   UNL     1      -1.473   5.261   8.332  1.00  0.00     0.159 HD
ENDBRANCH  34  35
ENDBRANCH  33  34
ENDBRANCH  32  33
ENDBRANCH   6  32
ENDBRANCH   4   6
ENDBRANCH   1   2
BRANCH   1  43
ATOM     43  C   UNL     1       3.032   9.844   9.473  1.00  0.00     0.102 C 
ATOM     44  C   UNL     1       2.657   9.902  10.964  1.00  0.00     0.020 C 
BRANCH  43  45
ATOM     45  C   UNL     1       2.071  10.611   8.560  1.00  0.00     0.225 C 
ATOM     46  O   UNL     1       2.369  10.973   7.426  1.00  0.00    -0.275 OA
ATOM     47  N   UNL     1       0.867  10.960   9.127  1.00  0.00    -0.342 N 
ATOM     48  H   UNL     1       0.579  10.530   9.995  1.00  0.00     0.164 HD
BRANCH  47  49
ATOM     49  C   UNL     1      -0.165  11.665   8.361  1.00  0.00     0.192 C 
BRANCH  49  50
ATOM     50  C   UNL     1      -0.942  12.604   9.287  1.00  0.00     0.047 C 
BRANCH  50  51
ATOM     51  C   UNL     1      -0.531  12.443  10.757  1.00  0.00     0.103 C 
BRANCH  51  52
ATOM     52  C   UNL     1      -1.718  12.085  11.649  1.00  0.00     0.226 C 
ATOM     53  O   UNL     1      -2.429  12.982  12.107  1.00  0.00    -0.275 OA
BRANCH  52  54
ATOM     54  N   UNL     1      -1.973  10.714  11.833  1.00  0.00    -0.311 N 
ATOM     55  C   UNL     1      -0.881   9.773  12.113  1.00  0.00     0.153 C 
BRANCH  54  56
ATOM     56  C   UNL     1      -3.277  10.195  11.761  1.00  0.00     0.102 C 
ATOM     57  C   UNL     1      -3.854   9.720  10.645  1.00  0.00     0.043 C 
BRANCH  56  58
ATOM     58  C   UNL     1      -4.138  10.091  12.997  1.00  0.00     0.268 C 
ATOM     59  O   UNL     1      -4.131   9.118  13.739  1.00  0.00    -0.268 OA
ATOM     60  N   UNL     1      -4.878  11.224  13.237  1.00  0.00    -0.339 N 
ATOM     61  H   UNL     1      -4.837  11.984  12.568  1.00  0.00     0.164 HD
BRANCH  60  62
ATOM     62  C   UNL     1      -5.734  11.361  14.415  1.00  0.00     0.168 CG0
ATOM     63  C   UNL     1      -7.202  11.176  14.049  1.00  0.00     0.041 C 
ATOM     64  G   UNL     1      -5.503  12.741  15.064  1.00  0.00     0.000 G0
ENDBRANCH  60  62
ENDBRANCH  56  58
ENDBRANCH  54  56
ENDBRANCH  52  54
ENDBRANCH  51  52
ENDBRANCH  50  51
ENDBRANCH  49  50
BRANCH  49  65
ATOM     65  C   UNL     1      -1.143  10.686   7.692  1.00  0.00     0.326 C 
ATOM     66  O   UNL     1      -1.560   9.649   8.187  1.00  0.00    -0.250 OA
BRANCH  65  67
ATOM     67  O   UNL     1      -1.498  11.017   6.431  1.00  0.00    -0.480 OA
ATOM     68  H   UNL     1      -2.387  10.615   6.328  1.00  0.00     0.296 HD
ENDBRANCH  65  67
ENDBRANCH  49  65
ENDBRANCH  47  49
ENDBRANCH  43  45
ENDBRANCH   1  43
BRANCH   1  69
ATOM     69  C   UNL     1       4.669   7.978   8.554  1.00  0.00    -0.001 C 
ATOM     70  C   UNL     1       5.347   8.333   7.448  1.00  0.00     0.001 C 
BRANCH  70  71
ATOM     71  C   UNL     1       6.710   7.939   7.087  1.00  0.00    -0.055 C 
ATOM     72  C   UNL     1       6.878   7.228   5.952  1.00  0.00    -0.018 C 
ATOM     73  C   UNL     1       7.829   8.361   8.003  1.00  0.00     0.044 C 
BRANCH  72  74
ATOM     74  C   UNL     1       8.161   6.691   5.333  1.00  0.00     0.038 C 
ATOM     75  C   UNL     1       8.238   7.240   3.903  1.00  0.00     0.015 C 
BRANCH  74  76
ATOM     76  C   UNL     1       8.155   5.138   5.437  1.00  0.00     0.128 C 
BRANCH  76  77
ATOM     77  O   UNL     1       9.399   4.608   4.949  1.00  0.00    -0.381 OA
ATOM     78  C   UNL     1       9.242   3.535   4.030  1.00  0.00     0.195 C 
ENDBRANCH  76  77
BRANCH  76  79
ATOM     79  C   UNL     1       7.786   4.602   6.843  1.00  0.00     0.068 C 
BRANCH  79  80
ATOM     80  C   UNL     1       6.480   3.861   6.997  1.00  0.00    -0.045 A 
ATOM     81  C   UNL     1       6.245   2.661   6.312  1.00  0.00     0.004 A 
ATOM     82  C   UNL     1       5.463   4.381   7.812  1.00  0.00     0.004 A 
ATOM     83  C   UNL     1       5.029   1.989   6.449  1.00  0.00     0.000 A 
ATOM     84  C   UNL     1       4.247   3.709   7.948  1.00  0.00     0.000 A 
ATOM     85  C   UNL     1       4.030   2.512   7.268  1.00  0.00     0.000 A 
ENDBRANCH  79  80
ENDBRANCH  76  79
ENDBRANCH  74  76
ENDBRANCH  72  74
ENDBRANCH  70  71
ENDBRANCH   1  69
TORSDOF 17
ENDMDL
MODEL 3
REMARK VINA RESULT:    -6.806      2.142     10.882
REMARK INTER + INTRA:         -27.565
REMARK INTER:                 -20.283
REMARK INTRA:                  -7.282
REMARK UNBOUND:                -7.229
REMARK SMILES C=C1C(=O)N[C@H](C)C(=O)N[C@@H](CC(C)C)C(=O)N[C@@H](C(=O)O)[C@H](C)C(=O)N[C@@H](CCCN=C(N)N)C(=O)N[C@@H](/C=C/C(C)=C/[C@H](C)[C@H](Cc2ccccc2)OC)[C@H](C)C(=O)N[C@@H](C(=O)O)CCC(=O)N1C
REMARK SMILES IDX 39 1 38 2 37 3 36 4 28 6 27 7 25 8 26 9 23 11 24 12 19 13
REMARK SMILES IDX 18 14 16 15 17 16 11 18 10 19 8 20 9 21 12 24 13 25 14 26
REMARK SMILES IDX 15 27 20 28 21 29 22 30 29 32 30 33 31 34 32 35 33 36 34 37
REMARK SMILES IDX 35 38 57 43 58 44 59 45 60 46 61 47 62 49 66 50 67 51 68 52
REMARK SMILES IDX 69 53 70 54 71 55 2 56 1 57 3 58 4 59 5 60 6 62 7 63 63 65
REMARK SMILES IDX 64 66 65 67 40 69 41 70 42 71 44 72 43 73 45 74 46 75 47 76
REMARK SMILES IDX 55 77 56 78 48 79 49 80 50 81 54 82 51 83 53 84 52 85
REMARK H PARENT 38 5 27 10 18 17 10 22 22 31 34 39 34 40 35 41 35 42 61 48
REMARK H PARENT 5 61 65 68
REMARK Flexibility Score:  369.900
ROOT
ATOM      1  C   UNL     1      -1.067   7.384   9.280  1.00  0.00     0.117 C 
ENDROOT
BRANCH   1   2
ATOM      2  N   UNL     1       0.207   8.060   9.037  1.00  0.00    -0.347 N 
ATOM      3  O   UNL     1       1.399   6.234   8.320  1.00  0.00    -0.273 OA
ATOM      4  C   UNL     1       1.316   7.446   8.488  1.00  0.00     0.243 C 
ATOM      5  H   UNL     1       0.288   9.047   9.230  1.00  0.00     0.164 HD
BRANCH   4   6
ATOM      6  C   UNL     1       2.510   8.408   8.256  1.00  0.00     0.171 C 
BRANCH   6   7
ATOM      7  N   UNL     1       3.394   7.885   7.202  1.00  0.00    -0.344 N 
ATOM      8  C   UNL     1       4.755   8.096   7.258  1.00  0.00     0.226 C 
ATOM      9  O   UNL     1       5.287   8.736   8.156  1.00  0.00    -0.275 OA
ATOM     10  H   UNL     1       2.984   7.409   6.409  1.00  0.00     0.164 HD
BRANCH   8  11
ATOM     11  C   UNL     1       5.535   7.448   6.128  1.00  0.00     0.109 C 
ATOM     12  C   UNL     1       4.952   6.071   5.808  1.00  0.00     0.021 C 
BRANCH  11  13
ATOM     13  C   UNL     1       5.614   8.413   4.928  1.00  0.00     0.204 C 
BRANCH  13  14
ATOM     14  N   UNL     1       4.411   8.354   4.092  1.00  0.00    -0.340 N 
ATOM     15  C   UNL     1       4.458   8.172   2.726  1.00  0.00     0.243 C 
ATOM     16  O   UNL     1       5.511   7.987   2.120  1.00  0.00    -0.273 OA
ATOM     17  H   UNL     1       3.523   8.650   4.505  1.00  0.00     0.164 HD
BRANCH  15  18
ATOM     18  C   UNL     1       3.085   8.352   2.032  1.00  0.00     0.171 C 
BRANCH  18  19
ATOM     19  N   UNL     1       3.331   8.274   0.593  1.00  0.00    -0.343 N 
ATOM     20  C   UNL     1       2.689   9.108  -0.302  1.00  0.00     0.242 CG0
ATOM     21  O   UNL     1       1.786   9.861   0.054  1.00  0.00    -0.273 OA
ATOM     22  H   UNL     1       3.985   7.586   0.237  1.00  0.00     0.164 HD
ATOM     23  G   UNL     1       3.135   8.931  -1.769  1.00  0.00     0.000 G0
ENDBRANCH  18  19
BRANCH  18  24
ATOM     24  C   UNL     1       2.100   7.271   2.493  1.00  0.00     0.038 C 
BRANCH  24  25
ATOM     25  C   UNL     1       2.039   6.024   1.585  1.00  0.00    -0.015 C 
ATOM     26  C   UNL     1       0.625   5.734   1.083  1.00  0.00     0.007 C 
ATOM     27  C   UNL     1       2.576   4.808   2.345  1.00  0.00     0.007 C 
ENDBRANCH  24  25
ENDBRANCH  18  24
ENDBRANCH  15  18
ENDBRANCH  13  14
BRANCH  13  28
ATOM     28  C   UNL     1       5.808   9.875   5.342  1.00  0.00     0.327 C 
ATOM     29  O   UNL     1       5.011  10.786   5.171  1.00  0.00    -0.250 OA
BRANCH  28  30
ATOM     30  O   UNL     1       7.037  10.127   5.836  1.00  0.00    -0.480 OA
ATOM     31  H   UNL     1       7.462  10.684   5.152  1.00  0.00     0.296 HD
ENDBRANCH  28  30
ENDBRANCH  13  28
ENDBRANCH  11  13
ENDBRANCH   8  11
ENDBRANCH   6   7
BRANCH   6  32
ATOM     32  C   UNL     1       1.974   9.794   7.883  1.00  0.00     0.037 C 
BRANCH  32  33
ATOM     33  C   UNL     1       1.696   9.922   6.379  1.00  0.00     0.026 C 
BRANCH  33  34
ATOM     34  C   UNL     1       1.372  11.358   5.963  1.00  0.00     0.146 C 
BRANCH  34  35
ATOM     35  N   UNL     1       0.222  11.820   6.729  1.00  0.00    -0.254 NA
ATOM     36  C   UNL     1      -0.719  12.434   6.114  1.00  0.00     0.185 C 
ATOM     37  N   UNL     1      -1.785  12.859   6.809  1.00  0.00    -0.370 N 
ATOM     38  N   UNL     1      -0.818  12.737   4.808  1.00  0.00    -0.370 N 
ATOM     39  H   UNL     1      -1.791  12.659   7.801  1.00  0.00     0.159 HD
ATOM     40  H   UNL     1      -2.634  13.188   6.381  1.00  0.00     0.159 HD
ATOM     41  H   UNL     1      -1.543  13.347   4.468  1.00  0.00     0.159 HD
ATOM     42  H   UNL     1      -0.079  12.491   4.167  1.00  0.00     0.159 HD
ENDBRANCH  34  35
ENDBRANCH  33  34
ENDBRANCH  32  33
ENDBRANCH   6  32
ENDBRANCH   4   6
ENDBRANCH   1   2
BRANCH   1  43
ATOM     43  C   UNL     1      -1.967   7.557   8.022  1.00  0.00     0.102 C 
ATOM     44  C   UNL     1      -2.047   9.010   7.522  1.00  0.00     0.020 C 
BRANCH  43  45
ATOM     45  C   UNL     1      -3.332   6.894   8.226  1.00  0.00     0.225 C 
ATOM     46  O   UNL     1      -4.249   7.424   8.848  1.00  0.00    -0.275 OA
ATOM     47  N   UNL     1      -3.445   5.610   7.746  1.00  0.00    -0.342 N 
ATOM     48  H   UNL     1      -2.746   5.249   7.112  1.00  0.00     0.164 HD
BRANCH  47  49
ATOM     49  C   UNL     1      -4.704   4.864   7.839  1.00  0.00     0.192 C 
BRANCH  49  50
ATOM     50  C   UNL     1      -4.440   3.481   8.439  1.00  0.00     0.047 C 
BRANCH  50  51
ATOM     51  C   UNL     1      -3.908   3.562   9.877  1.00  0.00     0.103 C 
BRANCH  51  52
ATOM     52  C   UNL     1      -4.948   3.111  10.900  1.00  0.00     0.226 C 
ATOM     53  O   UNL     1      -5.972   2.541  10.518  1.00  0.00    -0.275 OA
BRANCH  52  54
ATOM     54  N   UNL     1      -4.625   3.316  12.254  1.00  0.00    -0.311 N 
ATOM     55  C   UNL     1      -3.599   4.291  12.648  1.00  0.00     0.153 C 
BRANCH  54  56
ATOM     56  C   UNL     1      -5.273   2.604  13.277  1.00  0.00     0.102 C 
ATOM     57  C   UNL     1      -6.229   3.105  14.076  1.00  0.00     0.043 C 
BRANCH  56  58
ATOM     58  C   UNL     1      -4.954   1.149  13.530  1.00  0.00     0.268 C 
ATOM     59  O   UNL     1      -3.990   0.778  14.186  1.00  0.00    -0.268 OA
ATOM     60  N   UNL     1      -5.892   0.292  13.004  1.00  0.00    -0.339 N 
ATOM     61  H   UNL     1      -6.656   0.678  12.464  1.00  0.00     0.164 HD
BRANCH  60  62
ATOM     62  C   UNL     1      -5.811  -1.157  13.186  1.00  0.00     0.168 CG0
ATOM     63  C   UNL     1      -5.233  -1.832  11.949  1.00  0.00     0.041 C 
ATOM     64  G   UNL     1      -7.212  -1.716  13.509  1.00  0.00     0.000 G0
ENDBRANCH  60  62
ENDBRANCH  56  58
ENDBRANCH  54  56
ENDBRANCH  52  54
ENDBRANCH  51  52
ENDBRANCH  50  51
ENDBRANCH  49  50
BRANCH  49  65
ATOM     65  C   UNL     1      -5.371   4.704   6.464  1.00  0.00     0.326 C 
ATOM     66  O   UNL     1      -5.210   3.762   5.702  1.00  0.00    -0.250 OA
BRANCH  65  67
ATOM     67  O   UNL     1      -6.148   5.744   6.089  1.00  0.00    -0.480 OA
ATOM     68  H   UNL     1      -5.853   5.934   5.173  1.00  0.00     0.296 HD
ENDBRANCH  65  67
ENDBRANCH  49  65
ENDBRANCH  47  49
ENDBRANCH  43  45
ENDBRANCH   1  43
BRANCH   1  69
ATOM     69  C   UNL     1      -1.571   7.895  10.617  1.00  0.00    -0.001 C 
ATOM     70  C   UNL     1      -1.374   7.344  11.828  1.00  0.00     0.001 C 
BRANCH  70  71
ATOM     71  C   UNL     1      -1.847   7.858  13.115  1.00  0.00    -0.055 C 
ATOM     72  C   UNL     1      -3.159   7.725  13.400  1.00  0.00    -0.018 C 
ATOM     73  C   UNL     1      -0.834   8.492  14.033  1.00  0.00     0.044 C 
BRANCH  72  74
ATOM     74  C   UNL     1      -3.923   8.155  14.644  1.00  0.00     0.038 C 
ATOM     75  C   UNL     1      -4.287   6.881  15.416  1.00  0.00     0.015 C 
BRANCH  74  76
ATOM     76  C   UNL     1      -5.140   9.025  14.209  1.00  0.00     0.128 C 
BRANCH  76  77
ATOM     77  O   UNL     1      -6.218   8.865  15.147  1.00  0.00    -0.381 OA
ATOM     78  C   UNL     1      -7.464   9.360  14.674  1.00  0.00     0.195 C 
ENDBRANCH  76  77
BRANCH  76  79
ATOM     79  C   UNL     1      -4.789  10.511  13.947  1.00  0.00     0.068 C 
BRANCH  79  80
ATOM     80  C   UNL     1      -3.989  10.841  12.710  1.00  0.00    -0.045 A 
ATOM     81  C   UNL     1      -4.467  10.517  11.433  1.00  0.00     0.004 A 
ATOM     82  C   UNL     1      -2.733  11.456  12.824  1.00  0.00     0.004 A 
ATOM     83  C   UNL     1      -3.714  10.813  10.295  1.00  0.00     0.000 A 
ATOM     84  C   UNL     1      -1.980  11.751  11.685  1.00  0.00     0.000 A 
ATOM     85  C   UNL     1      -2.471  11.431  10.421  1.00  0.00     0.000 A 
ENDBRANCH  79  80
ENDBRANCH  76  79
ENDBRANCH  74  76
ENDBRANCH  72  74
ENDBRANCH  70  71
ENDBRANCH   1  69
TORSDOF 17
ENDMDL
MODEL 4
REMARK VINA RESULT:    -6.797      2.528     11.289
REMARK INTER + INTRA:         -27.535
REMARK INTER:                 -20.323
REMARK INTRA:                  -7.212
REMARK UNBOUND:                -7.229
REMARK SMILES C=C1C(=O)N[C@H](C)C(=O)N[C@@H](CC(C)C)C(=O)N[C@@H](C(=O)O)[C@H](C)C(=O)N[C@@H](CCCN=C(N)N)C(=O)N[C@@H](/C=C/C(C)=C/[C@H](C)[C@H](Cc2ccccc2)OC)[C@H](C)C(=O)N[C@@H](C(=O)O)CCC(=O)N1C
REMARK SMILES IDX 39 1 38 2 37 3 36 4 28 6 27 7 25 8 26 9 23 11 24 12 19 13
REMARK SMILES IDX 18 14 16 15 17 16 11 18 10 19 8 20 9 21 12 24 13 25 14 26
REMARK SMILES IDX 15 27 20 28 21 29 22 30 29 32 30 33 31 34 32 35 33 36 34 37
REMARK SMILES IDX 35 38 57 43 58 44 59 45 60 46 61 47 62 49 66 50 67 51 68 52
REMARK SMILES IDX 69 53 70 54 71 55 2 56 1 57 3 58 4 59 5 60 6 62 7 63 63 65
REMARK SMILES IDX 64 66 65 67 40 69 41 70 42 71 44 72 43 73 45 74 46 75 47 76
REMARK SMILES IDX 55 77 56 78 48 79 49 80 50 81 54 82 51 83 53 84 52 85
REMARK H PARENT 38 5 27 10 18 17 10 22 22 31 34 39 34 40 35 41 35 42 61 48
REMARK H PARENT 5 61 65 68
REMARK Flexibility Score:  369.900
ROOT
ATOM      1  C   UNL     1      -1.316   7.218   9.294  1.00  0.00     0.117 C 
ENDROOT
BRANCH   1   2
ATOM      2  N   UNL     1      -0.060   7.926   9.045  1.00  0.00    -0.347 N 
ATOM      3  O   UNL     1       1.186   6.124   8.362  1.00  0.00    -0.273 OA
ATOM      4  C   UNL     1       1.068   7.336   8.510  1.00  0.00     0.243 C 
ATOM      5  H   UNL     1      -0.008   8.918   9.223  1.00  0.00     0.164 HD
BRANCH   4   6
ATOM      6  C   UNL     1       2.235   8.327   8.267  1.00  0.00     0.171 C 
BRANCH   6   7
ATOM      7  N   UNL     1       3.466   7.598   7.922  1.00  0.00    -0.344 N 
ATOM      8  C   UNL     1       4.700   8.095   8.278  1.00  0.00     0.226 C 
ATOM      9  O   UNL     1       4.838   9.160   8.868  1.00  0.00    -0.275 OA
ATOM     10  H   UNL     1       3.396   6.749   7.375  1.00  0.00     0.164 HD
BRANCH   8  11
ATOM     11  C   UNL     1       5.868   7.201   7.898  1.00  0.00     0.109 C 
ATOM     12  C   UNL     1       5.369   5.792   7.580  1.00  0.00     0.021 C 
BRANCH  11  13
ATOM     13  C   UNL     1       6.691   7.866   6.777  1.00  0.00     0.204 C 
BRANCH  13  14
ATOM     14  N   UNL     1       5.856   8.679   5.887  1.00  0.00    -0.340 N 
ATOM     15  C   UNL     1       5.835   8.511   4.520  1.00  0.00     0.243 C 
ATOM     16  O   UNL     1       6.472   7.625   3.953  1.00  0.00    -0.273 OA
ATOM     17  H   UNL     1       5.424   9.523   6.273  1.00  0.00     0.164 HD
BRANCH  15  18
ATOM     18  C   UNL     1       5.044   9.613   3.773  1.00  0.00     0.171 C 
BRANCH  18  19
ATOM     19  N   UNL     1       5.938  10.763   3.654  1.00  0.00    -0.343 N 
ATOM     20  C   UNL     1       5.851  11.846   4.508  1.00  0.00     0.242 CG0
ATOM     21  O   UNL     1       4.934  11.953   5.320  1.00  0.00    -0.273 OA
ATOM     22  H   UNL     1       6.640  10.774   2.923  1.00  0.00     0.164 HD
ATOM     23  G   UNL     1       6.928  12.926   4.279  1.00  0.00     0.000 G0
ENDBRANCH  18  19
BRANCH  18  24
ATOM     24  C   UNL     1       4.586   9.113   2.398  1.00  0.00     0.038 C 
BRANCH  24  25
ATOM     25  C   UNL     1       3.302   8.257   2.418  1.00  0.00    -0.015 C 
ATOM     26  C   UNL     1       2.582   8.249   1.070  1.00  0.00     0.007 C 
ATOM     27  C   UNL     1       2.355   8.775   3.504  1.00  0.00     0.007 C 
ENDBRANCH  24  25
ENDBRANCH  18  24
ENDBRANCH  15  18
ENDBRANCH  13  14
BRANCH  13  28
ATOM     28  C   UNL     1       7.808   8.772   7.304  1.00  0.00     0.327 C 
ATOM     29  O   UNL     1       8.481   8.582   8.305  1.00  0.00    -0.250 OA
BRANCH  28  30
ATOM     30  O   UNL     1       7.930   9.920   6.608  1.00  0.00    -0.480 OA
ATOM     31  H   UNL     1       8.377   9.653   5.778  1.00  0.00     0.296 HD
ENDBRANCH  28  30
ENDBRANCH  13  28
ENDBRANCH  11  13
ENDBRANCH   8  11
ENDBRANCH   6   7
BRANCH   6  32
ATOM     32  C   UNL     1       1.844   9.301   7.150  1.00  0.00     0.037 C 
BRANCH  32  33
ATOM     33  C   UNL     1       1.550  10.709   7.686  1.00  0.00     0.026 C 
BRANCH  33  34
ATOM     34  C   UNL     1       0.525  11.458   6.833  1.00  0.00     0.146 C 
BRANCH  34  35
ATOM     35  N   UNL     1      -0.428  12.118   7.714  1.00  0.00    -0.254 NA
ATOM     36  C   UNL     1      -1.492  12.617   7.205  1.00  0.00     0.185 C 
ATOM     37  N   UNL     1      -2.379  13.223   8.009  1.00  0.00    -0.370 N 
ATOM     38  N   UNL     1      -1.887  12.632   5.920  1.00  0.00    -0.370 N 
ATOM     39  H   UNL     1      -2.157  13.244   8.997  1.00  0.00     0.159 HD
ATOM     40  H   UNL     1      -3.306  13.482   7.719  1.00  0.00     0.159 HD
ATOM     41  H   UNL     1      -2.679  13.179   5.625  1.00  0.00     0.159 HD
ATOM     42  H   UNL     1      -1.309  12.225   5.201  1.00  0.00     0.159 HD
ENDBRANCH  34  35
ENDBRANCH  33  34
ENDBRANCH  32  33
ENDBRANCH   6  32
ENDBRANCH   4   6
ENDBRANCH   1   2
BRANCH   1  43
ATOM     43  C   UNL     1      -2.227   7.370   8.042  1.00  0.00     0.102 C 
ATOM     44  C   UNL     1      -2.310   8.814   7.518  1.00  0.00     0.020 C 
BRANCH  43  45
ATOM     45  C   UNL     1      -3.591   6.713   8.270  1.00  0.00     0.225 C 
ATOM     46  O   UNL     1      -4.497   7.249   8.902  1.00  0.00    -0.275 OA
ATOM     47  N   UNL     1      -3.715   5.426   7.798  1.00  0.00    -0.342 N 
ATOM     48  H   UNL     1      -3.026   5.060   7.156  1.00  0.00     0.164 HD
BRANCH  47  49
ATOM     49  C   UNL     1      -4.975   4.685   7.914  1.00  0.00     0.192 C 
BRANCH  49  50
ATOM     50  C   UNL     1      -4.775   3.469   8.822  1.00  0.00     0.047 C 
BRANCH  50  51
ATOM     51  C   UNL     1      -4.522   3.869  10.283  1.00  0.00     0.103 C 
BRANCH  51  52
ATOM     52  C   UNL     1      -5.110   2.856  11.264  1.00  0.00     0.226 C 
ATOM     53  O   UNL     1      -5.865   1.975  10.851  1.00  0.00    -0.275 OA
BRANCH  52  54
ATOM     54  N   UNL     1      -4.678   2.955  12.600  1.00  0.00    -0.311 N 
ATOM     55  C   UNL     1      -3.352   3.496  12.928  1.00  0.00     0.153 C 
BRANCH  54  56
ATOM     56  C   UNL     1      -5.497   2.548  13.666  1.00  0.00     0.102 C 
ATOM     57  C   UNL     1      -6.484   3.284  14.202  1.00  0.00     0.043 C 
BRANCH  56  58
ATOM     58  C   UNL     1      -5.345   1.176  14.279  1.00  0.00     0.268 C 
ATOM     59  O   UNL     1      -5.031   0.996  15.448  1.00  0.00    -0.268 OA
ATOM     60  N   UNL     1      -5.661   0.158  13.411  1.00  0.00    -0.339 N 
ATOM     61  H   UNL     1      -5.902   0.391  12.455  1.00  0.00     0.164 HD
BRANCH  60  62
ATOM     62  C   UNL     1      -5.642  -1.247  13.817  1.00  0.00     0.168 CG0
ATOM     63  C   UNL     1      -4.313  -1.902  13.460  1.00  0.00     0.041 C 
ATOM     64  G   UNL     1      -6.815  -1.993  13.150  1.00  0.00     0.000 G0
ENDBRANCH  60  62
ENDBRANCH  56  58
ENDBRANCH  54  56
ENDBRANCH  52  54
ENDBRANCH  51  52
ENDBRANCH  50  51
ENDBRANCH  49  50
BRANCH  49  65
ATOM     65  C   UNL     1      -5.485   4.218   6.543  1.00  0.00     0.326 C 
ATOM     66  O   UNL     1      -6.436   4.692   5.939  1.00  0.00    -0.250 OA
BRANCH  65  67
ATOM     67  O   UNL     1      -4.829   3.154   6.029  1.00  0.00    -0.480 OA
ATOM     68  H   UNL     1      -3.886   3.423   6.068  1.00  0.00     0.296 HD
ENDBRANCH  65  67
ENDBRANCH  49  65
ENDBRANCH  47  49
ENDBRANCH  43  45
ENDBRANCH   1  43
BRANCH   1  69
ATOM     69  C   UNL     1      -1.824   7.713  10.635  1.00  0.00    -0.001 C 
ATOM     70  C   UNL     1      -1.784   7.067  11.814  1.00  0.00     0.001 C 
BRANCH  70  71
ATOM     71  C   UNL     1      -2.258   7.564  13.107  1.00  0.00    -0.055 C 
ATOM     72  C   UNL     1      -3.537   7.301  13.450  1.00  0.00    -0.018 C 
ATOM     73  C   UNL     1      -1.284   8.327  13.966  1.00  0.00     0.044 C 
BRANCH  72  74
ATOM     74  C   UNL     1      -4.293   7.683  14.714  1.00  0.00     0.038 C 
ATOM     75  C   UNL     1      -4.741   6.380  15.385  1.00  0.00     0.015 C 
BRANCH  74  76
ATOM     76  C   UNL     1      -5.451   8.652  14.331  1.00  0.00     0.128 C 
BRANCH  76  77
ATOM     77  O   UNL     1      -6.564   8.461  15.220  1.00  0.00    -0.381 OA
ATOM     78  C   UNL     1      -7.828   8.693  14.611  1.00  0.00     0.195 C 
ENDBRANCH  76  77
BRANCH  76  79
ATOM     79  C   UNL     1      -5.019  10.136  14.220  1.00  0.00     0.068 C 
BRANCH  79  80
ATOM     80  C   UNL     1      -4.197  10.545  13.022  1.00  0.00    -0.045 A 
ATOM     81  C   UNL     1      -3.032  11.309  13.173  1.00  0.00     0.004 A 
ATOM     82  C   UNL     1      -4.605  10.188  11.728  1.00  0.00     0.004 A 
ATOM     83  C   UNL     1      -2.284  11.696  12.059  1.00  0.00     0.000 A 
ATOM     84  C   UNL     1      -3.857  10.576  10.615  1.00  0.00     0.000 A 
ATOM     85  C   UNL     1      -2.696  11.328  10.780  1.00  0.00     0.000 A 
ENDBRANCH  79  80
ENDBRANCH  76  79
ENDBRANCH  74  76
ENDBRANCH  72  74
ENDBRANCH  70  71
ENDBRANCH   1  69
TORSDOF 17
ENDMDL
MODEL 5
REMARK VINA RESULT:    -6.753      3.370     11.757
REMARK INTER + INTRA:         -27.406
REMARK INTER:                 -17.937
REMARK INTRA:                  -9.469
REMARK UNBOUND:                -7.229
REMARK SMILES C=C1C(=O)N[C@H](C)C(=O)N[C@@H](CC(C)C)C(=O)N[C@@H](C(=O)O)[C@H](C)C(=O)N[C@@H](CCCN=C(N)N)C(=O)N[C@@H](/C=C/C(C)=C/[C@H](C)[C@H](Cc2ccccc2)OC)[C@H](C)C(=O)N[C@@H](C(=O)O)CCC(=O)N1C
REMARK SMILES IDX 39 1 38 2 37 3 36 4 28 6 27 7 25 8 26 9 23 11 24 12 19 13
REMARK SMILES IDX 18 14 16 15 17 16 11 18 10 19 8 20 9 21 12 24 13 25 14 26
REMARK SMILES IDX 15 27 20 28 21 29 22 30 29 32 30 33 31 34 32 35 33 36 34 37
REMARK SMILES IDX 35 38 57 43 58 44 59 45 60 46 61 47 62 49 66 50 67 51 68 52
REMARK SMILES IDX 69 53 70 54 71 55 2 56 1 57 3 58 4 59 5 60 6 62 7 63 63 65
REMARK SMILES IDX 64 66 65 67 40 69 41 70 42 71 44 72 43 73 45 74 46 75 47 76
REMARK SMILES IDX 55 77 56 78 48 79 49 80 50 81 54 82 51 83 53 84 52 85
REMARK H PARENT 38 5 27 10 18 17 10 22 22 31 34 39 34 40 35 41 35 42 61 48
REMARK H PARENT 5 61 65 68
REMARK Flexibility Score:  369.900
ROOT
ATOM      1  C   UNL     1       2.872   8.388   8.767  1.00  0.00     0.117 C 
ENDROOT
BRANCH   1   2
ATOM      2  N   UNL     1       1.869   8.029   7.765  1.00  0.00    -0.347 N 
ATOM      3  O   UNL     1       1.649   5.813   8.323  1.00  0.00    -0.273 OA
ATOM      4  C   UNL     1       1.268   6.787   7.683  1.00  0.00     0.243 C 
ATOM      5  H   UNL     1       1.545   8.729   7.115  1.00  0.00     0.164 HD
BRANCH   4   6
ATOM      6  C   UNL     1       0.176   6.694   6.586  1.00  0.00     0.171 C 
BRANCH   6   7
ATOM      7  N   UNL     1       0.785   6.410   5.277  1.00  0.00    -0.344 N 
ATOM      8  C   UNL     1       1.191   7.438   4.453  1.00  0.00     0.226 C 
ATOM      9  O   UNL     1       1.049   8.618   4.751  1.00  0.00    -0.275 OA
ATOM     10  H   UNL     1       0.857   5.449   4.967  1.00  0.00     0.164 HD
BRANCH   8  11
ATOM     11  C   UNL     1       1.849   6.982   3.163  1.00  0.00     0.109 C 
ATOM     12  C   UNL     1       0.920   6.034   2.405  1.00  0.00     0.021 C 
BRANCH  11  13
ATOM     13  C   UNL     1       2.322   8.209   2.357  1.00  0.00     0.204 C 
BRANCH  13  14
ATOM     14  N   UNL     1       3.532   7.925   1.579  1.00  0.00    -0.340 N 
ATOM     15  C   UNL     1       4.772   8.422   1.917  1.00  0.00     0.243 C 
ATOM     16  O   UNL     1       4.962   9.089   2.932  1.00  0.00    -0.273 OA
ATOM     17  H   UNL     1       3.419   7.509   0.651  1.00  0.00     0.164 HD
BRANCH  15  18
ATOM     18  C   UNL     1       5.855   8.165   0.840  1.00  0.00     0.171 C 
BRANCH  18  19
ATOM     19  N   UNL     1       7.068   8.839   1.298  1.00  0.00    -0.343 N 
ATOM     20  C   UNL     1       7.867   9.567   0.437  1.00  0.00     0.242 CG0
ATOM     21  O   UNL     1       7.668   9.571  -0.776  1.00  0.00    -0.273 OA
ATOM     22  H   UNL     1       7.339   8.769   2.272  1.00  0.00     0.164 HD
ATOM     23  G   UNL     1       9.059  10.271   1.116  1.00  0.00     0.000 G0
ENDBRANCH  18  19
BRANCH  18  24
ATOM     24  C   UNL     1       6.085   6.660   0.652  1.00  0.00     0.038 C 
BRANCH  24  25
ATOM     25  C   UNL     1       6.663   5.937   1.887  1.00  0.00    -0.015 C 
ATOM     26  C   UNL     1       8.009   5.271   1.598  1.00  0.00     0.007 C 
ATOM     27  C   UNL     1       5.665   4.888   2.383  1.00  0.00     0.007 C 
ENDBRANCH  24  25
ENDBRANCH  18  24
ENDBRANCH  15  18
ENDBRANCH  13  14
BRANCH  13  28
ATOM     28  C   UNL     1       1.265   8.732   1.379  1.00  0.00     0.327 C 
ATOM     29  O   UNL     1       1.305   8.650   0.161  1.00  0.00    -0.250 OA
BRANCH  28  30
ATOM     30  O   UNL     1       0.284   9.431   1.985  1.00  0.00    -0.480 OA
ATOM     31  H   UNL     1      -0.390   8.756   2.209  1.00  0.00     0.296 HD
ENDBRANCH  28  30
ENDBRANCH  13  28
ENDBRANCH  11  13
ENDBRANCH   8  11
ENDBRANCH   6   7
BRANCH   6  32
ATOM     32  C   UNL     1      -0.830   5.604   6.970  1.00  0.00     0.037 C 
BRANCH  32  33
ATOM     33  C   UNL     1      -2.263   5.967   6.556  1.00  0.00     0.026 C 
BRANCH  33  34
ATOM     34  C   UNL     1      -2.872   7.052   7.445  1.00  0.00     0.146 C 
BRANCH  34  35
ATOM     35  N   UNL     1      -2.716   6.660   8.839  1.00  0.00    -0.254 NA
ATOM     36  C   UNL     1      -3.644   6.960   9.669  1.00  0.00     0.185 C 
ATOM     37  N   UNL     1      -3.514   6.599  10.955  1.00  0.00    -0.370 N 
ATOM     38  N   UNL     1      -4.797   7.615   9.446  1.00  0.00    -0.370 N 
ATOM     39  H   UNL     1      -2.674   6.090  11.200  1.00  0.00     0.159 HD
ATOM     40  H   UNL     1      -4.264   6.640  11.623  1.00  0.00     0.159 HD
ATOM     41  H   UNL     1      -5.383   7.913  10.209  1.00  0.00     0.159 HD
ATOM     42  H   UNL     1      -5.021   7.961   8.526  1.00  0.00     0.159 HD
ENDBRANCH  34  35
ENDBRANCH  33  34
ENDBRANCH  32  33
ENDBRANCH   6  32
ENDBRANCH   4   6
ENDBRANCH   1   2
BRANCH   1  43
ATOM     43  C   UNL     1       2.521   9.793   9.337  1.00  0.00     0.102 C 
ATOM     44  C   UNL     1       1.731   9.739  10.656  1.00  0.00     0.020 C 
BRANCH  43  45
ATOM     45  C   UNL     1       1.879  10.677   8.264  1.00  0.00     0.225 C 
ATOM     46  O   UNL     1       2.443  10.977   7.216  1.00  0.00    -0.275 OA
ATOM     47  N   UNL     1       0.648  11.202   8.588  1.00  0.00    -0.342 N 
ATOM     48  H   UNL     1       0.137  10.829   9.375  1.00  0.00     0.164 HD
BRANCH  47  49
ATOM     49  C   UNL     1      -0.101  12.037   7.644  1.00  0.00     0.192 C 
BRANCH  49  50
ATOM     50  C   UNL     1      -1.298  12.671   8.356  1.00  0.00     0.047 C 
BRANCH  50  51
ATOM     51  C   UNL     1      -1.612  11.983   9.691  1.00  0.00     0.103 C 
BRANCH  51  52
ATOM     52  C   UNL     1      -3.012  11.371   9.706  1.00  0.00     0.226 C 
ATOM     53  O   UNL     1      -3.238  10.351   9.052  1.00  0.00    -0.275 OA
BRANCH  52  54
ATOM     54  N   UNL     1      -3.956  11.986  10.548  1.00  0.00    -0.311 N 
ATOM     55  C   UNL     1      -4.986  12.881  10.003  1.00  0.00     0.153 C 
BRANCH  54  56
ATOM     56  C   UNL     1      -3.954  11.764  11.936  1.00  0.00     0.102 C 
ATOM     57  C   UNL     1      -3.413  12.591  12.845  1.00  0.00     0.043 C 
BRANCH  56  58
ATOM     58  C   UNL     1      -4.631  10.550  12.527  1.00  0.00     0.268 C 
ATOM     59  O   UNL     1      -4.719   9.480  11.941  1.00  0.00    -0.268 OA
ATOM     60  N   UNL     1      -5.076  10.752  13.812  1.00  0.00    -0.339 N 
ATOM     61  H   UNL     1      -4.975  11.672  14.224  1.00  0.00     0.164 HD
BRANCH  60  62
ATOM     62  C   UNL     1      -5.705   9.689  14.595  1.00  0.00     0.168 CG0
ATOM     63  C   UNL     1      -7.218   9.864  14.639  1.00  0.00     0.041 C 
ATOM     64  G   UNL     1      -5.114   9.679  16.020  1.00  0.00     0.000 G0
ENDBRANCH  60  62
ENDBRANCH  56  58
ENDBRANCH  54  56
ENDBRANCH  52  54
ENDBRANCH  51  52
ENDBRANCH  50  51
ENDBRANCH  49  50
BRANCH  49  65
ATOM     65  C   UNL     1      -0.598  11.223   6.439  1.00  0.00     0.326 C 
ATOM     66  O   UNL     1      -1.501  10.400   6.461  1.00  0.00    -0.250 OA
BRANCH  65  67
ATOM     67  O   UNL     1       0.091  11.431   5.295  1.00  0.00    -0.480 OA
ATOM     68  H   UNL     1       0.745  10.700   5.282  1.00  0.00     0.296 HD
ENDBRANCH  65  67
ENDBRANCH  49  65
ENDBRANCH  47  49
ENDBRANCH  43  45
ENDBRANCH   1  43
BRANCH   1  69
ATOM     69  C   UNL     1       4.223   8.181   8.108  1.00  0.00    -0.001 C 
ATOM     70  C   UNL     1       5.437   8.376   8.653  1.00  0.00     0.001 C 
BRANCH  70  71
ATOM     71  C   UNL     1       6.735   8.152   8.013  1.00  0.00    -0.055 C 
ATOM     72  C   UNL     1       6.755   7.442   6.866  1.00  0.00    -0.018 C 
ATOM     73  C   UNL     1       7.955   8.736   8.676  1.00  0.00     0.044 C 
BRANCH  72  74
ATOM     74  C   UNL     1       7.939   7.060   5.990  1.00  0.00     0.038 C 
ATOM     75  C   UNL     1       8.069   8.138   4.908  1.00  0.00     0.015 C 
BRANCH  74  76
ATOM     76  C   UNL     1       7.718   5.616   5.450  1.00  0.00     0.128 C 
BRANCH  76  77
ATOM     77  O   UNL     1       8.940   5.109   4.888  1.00  0.00    -0.381 OA
ATOM     78  C   UNL     1       9.259   3.790   5.312  1.00  0.00     0.195 C 
ENDBRANCH  76  77
BRANCH  76  79
ATOM     79  C   UNL     1       7.085   4.648   6.481  1.00  0.00     0.068 C 
BRANCH  79  80
ATOM     80  C   UNL     1       5.767   4.001   6.128  1.00  0.00    -0.045 A 
ATOM     81  C   UNL     1       4.619   4.774   5.914  1.00  0.00     0.004 A 
ATOM     82  C   UNL     1       5.667   2.605   6.037  1.00  0.00     0.004 A 
ATOM     83  C   UNL     1       3.400   4.167   5.601  1.00  0.00     0.000 A 
ATOM     84  C   UNL     1       4.448   1.999   5.726  1.00  0.00     0.000 A 
ATOM     85  C   UNL     1       3.316   2.780   5.506  1.00  0.00     0.000 A 
ENDBRANCH  79  80
ENDBRANCH  76  79
ENDBRANCH  74  76
ENDBRANCH  72  74
ENDBRANCH  70  71
ENDBRANCH   1  69
TORSDOF 17
ENDMDL
MODEL 6
REMARK VINA RESULT:    -6.717      2.751      4.833
REMARK INTER + INTRA:         -27.298
REMARK INTER:                 -19.341
REMARK INTRA:                  -7.958
REMARK UNBOUND:                -7.229
REMARK SMILES C=C1C(=O)N[C@H](C)C(=O)N[C@@H](CC(C)C)C(=O)N[C@@H](C(=O)O)[C@H](C)C(=O)N[C@@H](CCCN=C(N)N)C(=O)N[C@@H](/C=C/C(C)=C/[C@H](C)[C@H](Cc2ccccc2)OC)[C@H](C)C(=O)N[C@@H](C(=O)O)CCC(=O)N1C
REMARK SMILES IDX 39 1 38 2 37 3 36 4 28 6 27 7 25 8 26 9 23 11 24 12 19 13
REMARK SMILES IDX 18 14 16 15 17 16 11 18 10 19 8 20 9 21 12 24 13 25 14 26
REMARK SMILES IDX 15 27 20 28 21 29 22 30 29 32 30 33 31 34 32 35 33 36 34 37
REMARK SMILES IDX 35 38 57 43 58 44 59 45 60 46 61 47 62 49 66 50 67 51 68 52
REMARK SMILES IDX 69 53 70 54 71 55 2 56 1 57 3 58 4 59 5 60 6 62 7 63 63 65
REMARK SMILES IDX 64 66 65 67 40 69 41 70 42 71 44 72 43 73 45 74 46 75 47 76
REMARK SMILES IDX 55 77 56 78 48 79 49 80 50 81 54 82 51 83 53 84 52 85
REMARK H PARENT 38 5 27 10 18 17 10 22 22 31 34 39 34 40 35 41 35 42 61 48
REMARK H PARENT 5 61 65 68
REMARK Flexibility Score:  369.900
ROOT
ATOM      1  C   UNL     1       0.127   7.046   7.368  1.00  0.00     0.117 C 
ENDROOT
BRANCH   1   2
ATOM      2  N   UNL     1      -0.975   6.144   7.705  1.00  0.00    -0.347 N 
ATOM      3  O   UNL     1      -2.458   6.848   6.100  1.00  0.00    -0.273 OA
ATOM      4  C   UNL     1      -2.149   6.054   6.983  1.00  0.00     0.243 C 
ATOM      5  H   UNL     1      -0.872   5.506   8.479  1.00  0.00     0.164 HD
BRANCH   4   6
ATOM      6  C   UNL     1      -3.117   4.959   7.500  1.00  0.00     0.171 C 
BRANCH   6   7
ATOM      7  N   UNL     1      -2.379   3.938   8.260  1.00  0.00    -0.344 N 
ATOM      8  C   UNL     1      -2.928   2.694   8.483  1.00  0.00     0.226 C 
ATOM      9  O   UNL     1      -4.046   2.386   8.088  1.00  0.00    -0.275 OA
ATOM     10  H   UNL     1      -1.480   4.178   8.660  1.00  0.00     0.164 HD
BRANCH   8  11
ATOM     11  C   UNL     1      -2.021   1.735   9.234  1.00  0.00     0.109 C 
ATOM     12  C   UNL     1      -0.708   2.428   9.597  1.00  0.00     0.021 C 
BRANCH  11  13
ATOM     13  C   UNL     1      -2.783   1.124  10.427  1.00  0.00     0.204 C 
BRANCH  13  14
ATOM     14  N   UNL     1      -3.654   2.103  11.085  1.00  0.00    -0.340 N 
ATOM     15  C   UNL     1      -3.726   2.238  12.455  1.00  0.00     0.243 C 
ATOM     16  O   UNL     1      -3.018   1.587  13.221  1.00  0.00    -0.273 OA
ATOM     17  H   UNL     1      -4.372   2.564  10.520  1.00  0.00     0.164 HD
BRANCH  15  18
ATOM     18  C   UNL     1      -4.860   3.183  12.924  1.00  0.00     0.171 C 
BRANCH  18  19
ATOM     19  N   UNL     1      -6.040   2.348  13.136  1.00  0.00    -0.343 N 
ATOM     20  C   UNL     1      -6.842   1.940  12.088  1.00  0.00     0.242 CG0
ATOM     21  O   UNL     1      -6.678   2.368  10.947  1.00  0.00    -0.273 OA
ATOM     22  H   UNL     1      -6.285   2.063  14.077  1.00  0.00     0.164 HD
ATOM     23  G   UNL     1      -7.995   1.000  12.496  1.00  0.00     0.000 G0
ENDBRANCH  18  19
BRANCH  18  24
ATOM     24  C   UNL     1      -4.454   3.920  14.207  1.00  0.00     0.038 C 
BRANCH  24  25
ATOM     25  C   UNL     1      -4.972   5.370  14.308  1.00  0.00    -0.015 C 
ATOM     26  C   UNL     1      -3.894   6.345  14.783  1.00  0.00     0.007 C 
ATOM     27  C   UNL     1      -6.171   5.424  15.259  1.00  0.00     0.007 C 
ENDBRANCH  24  25
ENDBRANCH  18  24
ENDBRANCH  15  18
ENDBRANCH  13  14
BRANCH  13  28
ATOM     28  C   UNL     1      -3.658  -0.071  10.037  1.00  0.00     0.327 C 
ATOM     29  O   UNL     1      -4.359  -0.730  10.789  1.00  0.00    -0.250 OA
BRANCH  28  30
ATOM     30  O   UNL     1      -3.505  -0.440   8.748  1.00  0.00    -0.480 OA
ATOM     31  H   UNL     1      -2.843  -1.161   8.780  1.00  0.00     0.296 HD
ENDBRANCH  28  30
ENDBRANCH  13  28
ENDBRANCH  11  13
ENDBRANCH   8  11
ENDBRANCH   6   7
BRANCH   6  32
ATOM     32  C   UNL     1      -4.198   5.612   8.368  1.00  0.00     0.037 C 
BRANCH  32  33
ATOM     33  C   UNL     1      -3.605   6.583   9.399  1.00  0.00     0.026 C 
BRANCH  33  34
ATOM     34  C   UNL     1      -4.352   7.917   9.444  1.00  0.00     0.146 C 
BRANCH  34  35
ATOM     35  N   UNL     1      -3.379   8.997   9.529  1.00  0.00    -0.254 NA
ATOM     36  C   UNL     1      -3.044   9.608   8.454  1.00  0.00     0.185 C 
ATOM     37  N   UNL     1      -2.152  10.608   8.521  1.00  0.00    -0.370 N 
ATOM     38  N   UNL     1      -3.467   9.396   7.195  1.00  0.00    -0.370 N 
ATOM     39  H   UNL     1      -1.793  10.836   9.440  1.00  0.00     0.159 HD
ATOM     40  H   UNL     1      -1.970  11.243   7.763  1.00  0.00     0.159 HD
ATOM     41  H   UNL     1      -3.023   9.850   6.413  1.00  0.00     0.159 HD
ATOM     42  H   UNL     1      -4.128   8.662   6.993  1.00  0.00     0.159 HD
ENDBRANCH  34  35
ENDBRANCH  33  34
ENDBRANCH  32  33
ENDBRANCH   6  32
ENDBRANCH   4   6
ENDBRANCH   1   2
BRANCH   1  43
ATOM     43  C   UNL     1       1.351   6.191   6.930  1.00  0.00     0.102 C 
ATOM     44  C   UNL     1       2.684   6.686   7.515  1.00  0.00     0.020 C 
BRANCH  43  45
ATOM     45  C   UNL     1       1.372   5.998   5.411  1.00  0.00     0.225 C 
ATOM     46  O   UNL     1       1.803   4.984   4.870  1.00  0.00    -0.275 OA
ATOM     47  N   UNL     1       0.958   7.081   4.670  1.00  0.00    -0.342 N 
ATOM     48  H   UNL     1       0.469   7.840   5.124  1.00  0.00     0.164 HD
BRANCH  47  49
ATOM     49  C   UNL     1       0.892   7.029   3.207  1.00  0.00     0.192 C 
BRANCH  49  50
ATOM     50  C   UNL     1       1.113   8.430   2.631  1.00  0.00     0.047 C 
BRANCH  50  51
ATOM     51  C   UNL     1       2.546   8.628   2.119  1.00  0.00     0.103 C 
BRANCH  51  52
ATOM     52  C   UNL     1       2.934   7.579   1.078  1.00  0.00     0.226 C 
ATOM     53  O   UNL     1       2.236   7.429   0.074  1.00  0.00    -0.275 OA
BRANCH  52  54
ATOM     54  N   UNL     1       4.138   6.886   1.306  1.00  0.00    -0.311 N 
ATOM     55  C   UNL     1       4.362   6.152   2.558  1.00  0.00     0.153 C 
BRANCH  54  56
ATOM     56  C   UNL     1       5.163   6.865   0.346  1.00  0.00     0.102 C 
ATOM     57  C   UNL     1       5.685   5.753  -0.197  1.00  0.00     0.043 C 
BRANCH  56  58
ATOM     58  C   UNL     1       5.742   8.150  -0.198  1.00  0.00     0.268 C 
ATOM     59  O   UNL     1       6.487   8.875   0.449  1.00  0.00    -0.268 OA
ATOM     60  N   UNL     1       5.401   8.385  -1.508  1.00  0.00    -0.339 N 
ATOM     61  H   UNL     1       4.770   7.741  -1.970  1.00  0.00     0.164 HD
BRANCH  60  62
ATOM     62  C   UNL     1       5.905   9.541  -2.249  1.00  0.00     0.168 CG0
ATOM     63  C   UNL     1       6.889   9.111  -3.330  1.00  0.00     0.041 C 
ATOM     64  G   UNL     1       6.567  10.534  -1.271  1.00  0.00     0.000 G0
ENDBRANCH  60  62
ENDBRANCH  56  58
ENDBRANCH  54  56
ENDBRANCH  52  54
ENDBRANCH  51  52
ENDBRANCH  50  51
ENDBRANCH  49  50
BRANCH  49  65
ATOM     65  C   UNL     1      -0.461   6.487   2.720  1.00  0.00     0.326 C 
ATOM     66  O   UNL     1      -0.972   6.722   1.635  1.00  0.00    -0.250 OA
BRANCH  65  67
ATOM     67  O   UNL     1      -1.127   5.736   3.626  1.00  0.00    -0.480 OA
ATOM     68  H   UNL     1      -0.476   5.047   3.878  1.00  0.00     0.296 HD
ENDBRANCH  65  67
ENDBRANCH  49  65
ENDBRANCH  47  49
ENDBRANCH  43  45
ENDBRANCH   1  43
BRANCH   1  69
ATOM     69  C   UNL     1       0.276   7.992   8.546  1.00  0.00    -0.001 C 
ATOM     70  C   UNL     1      -0.163   7.806   9.803  1.00  0.00     0.001 C 
BRANCH  70  71
ATOM     71  C   UNL     1       0.006   8.717  10.937  1.00  0.00    -0.055 C 
ATOM     72  C   UNL     1      -0.902   8.654  11.933  1.00  0.00    -0.018 C 
ATOM     73  C   UNL     1       1.186   9.653  10.916  1.00  0.00     0.044 C 
BRANCH  72  74
ATOM     74  C   UNL     1      -0.978   9.464  13.220  1.00  0.00     0.038 C 
ATOM     75  C   UNL     1      -1.158   8.468  14.372  1.00  0.00     0.015 C 
BRANCH  74  76
ATOM     76  C   UNL     1      -2.118  10.517  13.083  1.00  0.00     0.128 C 
BRANCH  76  77
ATOM     77  O   UNL     1      -1.608  11.716  12.476  1.00  0.00    -0.381 OA
ATOM     78  C   UNL     1      -2.566  12.410  11.688  1.00  0.00     0.195 C 
ENDBRANCH  76  77
BRANCH  76  79
ATOM     79  C   UNL     1      -3.388   9.981  12.375  1.00  0.00     0.068 C 
BRANCH  79  80
ATOM     80  C   UNL     1      -4.593   9.668  13.228  1.00  0.00    -0.045 A 
ATOM     81  C   UNL     1      -4.591   9.929  14.605  1.00  0.00     0.004 A 
ATOM     82  C   UNL     1      -5.731   9.080  12.656  1.00  0.00     0.004 A 
ATOM     83  C   UNL     1      -5.705   9.624  15.389  1.00  0.00     0.000 A 
ATOM     84  C   UNL     1      -6.845   8.774  13.441  1.00  0.00     0.000 A 
ATOM     85  C   UNL     1      -6.832   9.047  14.807  1.00  0.00     0.000 A 
ENDBRANCH  79  80
ENDBRANCH  76  79
ENDBRANCH  74  76
ENDBRANCH  72  74
ENDBRANCH  70  71
ENDBRANCH   1  69
TORSDOF 17
ENDMDL
MODEL 7
REMARK VINA RESULT:    -6.693      2.636      5.257
REMARK INTER + INTRA:         -27.225
REMARK INTER:                 -19.594
REMARK INTRA:                  -7.631
REMARK UNBOUND:                -7.229
REMARK SMILES C=C1C(=O)N[C@H](C)C(=O)N[C@@H](CC(C)C)C(=O)N[C@@H](C(=O)O)[C@H](C)C(=O)N[C@@H](CCCN=C(N)N)C(=O)N[C@@H](/C=C/C(C)=C/[C@H](C)[C@H](Cc2ccccc2)OC)[C@H](C)C(=O)N[C@@H](C(=O)O)CCC(=O)N1C
REMARK SMILES IDX 39 1 38 2 37 3 36 4 28 6 27 7 25 8 26 9 23 11 24 12 19 13
REMARK SMILES IDX 18 14 16 15 17 16 11 18 10 19 8 20 9 21 12 24 13 25 14 26
REMARK SMILES IDX 15 27 20 28 21 29 22 30 29 32 30 33 31 34 32 35 33 36 34 37
REMARK SMILES IDX 35 38 57 43 58 44 59 45 60 46 61 47 62 49 66 50 67 51 68 52
REMARK SMILES IDX 69 53 70 54 71 55 2 56 1 57 3 58 4 59 5 60 6 62 7 63 63 65
REMARK SMILES IDX 64 66 65 67 40 69 41 70 42 71 44 72 43 73 45 74 46 75 47 76
REMARK SMILES IDX 55 77 56 78 48 79 49 80 50 81 54 82 51 83 53 84 52 85
REMARK H PARENT 38 5 27 10 18 17 10 22 22 31 34 39 34 40 35 41 35 42 61 48
REMARK H PARENT 5 61 65 68
REMARK Flexibility Score:  369.900
ROOT
ATOM      1  C   UNL     1      -0.940   7.207   6.824  1.00  0.00     0.117 C 
ENDROOT
BRANCH   1   2
ATOM      2  N   UNL     1      -1.754   6.188   7.486  1.00  0.00    -0.347 N 
ATOM      3  O   UNL     1      -3.818   7.033   6.940  1.00  0.00    -0.273 OA
ATOM      4  C   UNL     1      -3.133   6.132   7.413  1.00  0.00     0.243 C 
ATOM      5  H   UNL     1      -1.299   5.443   7.991  1.00  0.00     0.164 HD
BRANCH   4   6
ATOM      6  C   UNL     1      -3.746   4.904   8.132  1.00  0.00     0.171 C 
BRANCH   6   7
ATOM      7  N   UNL     1      -3.875   5.163   9.575  1.00  0.00    -0.344 N 
ATOM      8  C   UNL     1      -2.898   4.748  10.454  1.00  0.00     0.226 C 
ATOM      9  O   UNL     1      -1.902   4.133  10.092  1.00  0.00    -0.275 OA
ATOM     10  H   UNL     1      -4.716   5.609   9.920  1.00  0.00     0.164 HD
BRANCH   8  11
ATOM     11  C   UNL     1      -3.151   5.139  11.900  1.00  0.00     0.109 C 
ATOM     12  C   UNL     1      -3.473   6.630  11.993  1.00  0.00     0.021 C 
BRANCH  11  13
ATOM     13  C   UNL     1      -4.214   4.207  12.514  1.00  0.00     0.204 C 
BRANCH  13  14
ATOM     14  N   UNL     1      -3.825   2.795  12.429  1.00  0.00    -0.340 N 
ATOM     15  C   UNL     1      -4.736   1.778  12.243  1.00  0.00     0.243 C 
ATOM     16  O   UNL     1      -5.936   1.989  12.074  1.00  0.00    -0.273 OA
ATOM     17  H   UNL     1      -2.875   2.541  12.711  1.00  0.00     0.164 HD
BRANCH  15  18
ATOM     18  C   UNL     1      -4.123   0.364  12.395  1.00  0.00     0.171 C 
BRANCH  18  19
ATOM     19  N   UNL     1      -5.114  -0.579  11.880  1.00  0.00    -0.343 N 
ATOM     20  C   UNL     1      -5.902  -1.341  12.721  1.00  0.00     0.242 CG0
ATOM     21  O   UNL     1      -5.714  -1.360  13.936  1.00  0.00    -0.273 OA
ATOM     22  H   UNL     1      -5.227  -0.684  10.878  1.00  0.00     0.164 HD
ATOM     23  G   UNL     1      -6.943  -2.219  11.997  1.00  0.00     0.000 G0
ENDBRANCH  18  19
BRANCH  18  24
ATOM     24  C   UNL     1      -2.799   0.262  11.629  1.00  0.00     0.038 C 
BRANCH  24  25
ATOM     25  C   UNL     1      -1.599  -0.211  12.476  1.00  0.00    -0.015 C 
ATOM     26  C   UNL     1      -1.027  -1.543  11.989  1.00  0.00     0.007 C 
ATOM     27  C   UNL     1      -2.021  -0.337  13.942  1.00  0.00     0.007 C 
ENDBRANCH  24  25
ENDBRANCH  18  24
ENDBRANCH  15  18
ENDBRANCH  13  14
BRANCH  13  28
ATOM     28  C   UNL     1      -4.504   4.510  13.987  1.00  0.00     0.327 C 
ATOM     29  O   UNL     1      -3.681   4.803  14.840  1.00  0.00    -0.250 OA
BRANCH  28  30
ATOM     30  O   UNL     1      -5.795   4.310  14.324  1.00  0.00    -0.480 OA
ATOM     31  H   UNL     1      -5.965   4.970  15.028  1.00  0.00     0.296 HD
ENDBRANCH  28  30
ENDBRANCH  13  28
ENDBRANCH  11  13
ENDBRANCH   8  11
ENDBRANCH   6   7
BRANCH   6  32
ATOM     32  C   UNL     1      -5.109   4.584   7.509  1.00  0.00     0.037 C 
BRANCH  32  33
ATOM     33  C   UNL     1      -4.975   3.858   6.163  1.00  0.00     0.026 C 
BRANCH  33  34
ATOM     34  C   UNL     1      -3.661   3.086   6.043  1.00  0.00     0.146 C 
BRANCH  34  35
ATOM     35  N   UNL     1      -3.832   1.772   6.649  1.00  0.00    -0.254 NA
ATOM     36  C   UNL     1      -2.943   1.354   7.471  1.00  0.00     0.185 C 
ATOM     37  N   UNL     1      -3.093   0.147   8.038  1.00  0.00    -0.370 N 
ATOM     38  N   UNL     1      -1.818   1.966   7.882  1.00  0.00    -0.370 N 
ATOM     39  H   UNL     1      -3.923  -0.373   7.786  1.00  0.00     0.159 HD
ATOM     40  H   UNL     1      -2.540  -0.175   8.814  1.00  0.00     0.159 HD
ATOM     41  H   UNL     1      -1.127   1.476   8.426  1.00  0.00     0.159 HD
ATOM     42  H   UNL     1      -1.569   2.875   7.525  1.00  0.00     0.159 HD
ENDBRANCH  34  35
ENDBRANCH  33  34
ENDBRANCH  32  33
ENDBRANCH   6  32
ENDBRANCH   4   6
ENDBRANCH   1   2
BRANCH   1  43
ATOM     43  C   UNL     1       0.236   6.501   6.088  1.00  0.00     0.102 C 
ATOM     44  C   UNL     1       1.559   7.282   6.157  1.00  0.00     0.020 C 
BRANCH  43  45
ATOM     45  C   UNL     1      -0.171   6.090   4.670  1.00  0.00     0.225 C 
ATOM     46  O   UNL     1      -1.279   5.641   4.393  1.00  0.00    -0.275 OA
ATOM     47  N   UNL     1       0.825   6.166   3.723  1.00  0.00    -0.342 N 
ATOM     48  H   UNL     1       1.673   6.674   3.929  1.00  0.00     0.164 HD
BRANCH  47  49
ATOM     49  C   UNL     1       0.571   5.839   2.316  1.00  0.00     0.192 C 
BRANCH  49  50
ATOM     50  C   UNL     1       1.902   5.648   1.585  1.00  0.00     0.047 C 
BRANCH  50  51
ATOM     51  C   UNL     1       3.091   6.198   2.385  1.00  0.00     0.103 C 
BRANCH  51  52
ATOM     52  C   UNL     1       3.334   7.679   2.106  1.00  0.00     0.226 C 
ATOM     53  O   UNL     1       2.912   8.527   2.894  1.00  0.00    -0.275 OA
BRANCH  52  54
ATOM     54  N   UNL     1       4.112   7.984   0.973  1.00  0.00    -0.311 N 
ATOM     55  C   UNL     1       5.455   7.413   0.802  1.00  0.00     0.153 C 
BRANCH  54  56
ATOM     56  C   UNL     1       3.634   8.836  -0.036  1.00  0.00     0.102 C 
ATOM     57  C   UNL     1       2.371   8.853  -0.494  1.00  0.00     0.043 C 
BRANCH  56  58
ATOM     58  C   UNL     1       4.536   9.868  -0.671  1.00  0.00     0.268 C 
ATOM     59  O   UNL     1       4.737  10.972  -0.185  1.00  0.00    -0.268 OA
ATOM     60  N   UNL     1       5.157   9.415  -1.811  1.00  0.00    -0.339 N 
ATOM     61  H   UNL     1       4.928   8.490  -2.155  1.00  0.00     0.164 HD
BRANCH  60  62
ATOM     62  C   UNL     1       6.120  10.229  -2.550  1.00  0.00     0.168 CG0
ATOM     63  C   UNL     1       7.484   9.552  -2.601  1.00  0.00     0.041 C 
ATOM     64  G   UNL     1       6.227  11.623  -1.897  1.00  0.00     0.000 G0
ENDBRANCH  60  62
ENDBRANCH  56  58
ENDBRANCH  54  56
ENDBRANCH  52  54
ENDBRANCH  51  52
ENDBRANCH  50  51
ENDBRANCH  49  50
BRANCH  49  65
ATOM     65  C   UNL     1      -0.241   6.939   1.616  1.00  0.00     0.326 C 
ATOM     66  O   UNL     1      -0.117   8.141   1.801  1.00  0.00    -0.250 OA
BRANCH  65  67
ATOM     67  O   UNL     1      -1.198   6.486   0.776  1.00  0.00    -0.480 OA
ATOM     68  H   UNL     1      -0.752   6.475  -0.098  1.00  0.00     0.296 HD
ENDBRANCH  65  67
ENDBRANCH  49  65
ENDBRANCH  47  49
ENDBRANCH  43  45
ENDBRANCH   1  43
BRANCH   1  69
ATOM     69  C   UNL     1      -0.623   8.249   7.881  1.00  0.00    -0.001 C 
ATOM     70  C   UNL     1      -0.336   8.037   9.177  1.00  0.00     0.001 C 
BRANCH  70  71
ATOM     71  C   UNL     1      -0.010   9.050  10.183  1.00  0.00    -0.055 C 
ATOM     72  C   UNL     1      -0.935   9.313  11.131  1.00  0.00    -0.018 C 
ATOM     73  C   UNL     1       1.336   9.721  10.095  1.00  0.00     0.044 C 
BRANCH  72  74
ATOM     74  C   UNL     1      -0.874  10.299  12.289  1.00  0.00     0.038 C 
ATOM     75  C   UNL     1      -1.212   9.520  13.565  1.00  0.00     0.015 C 
BRANCH  74  76
ATOM     76  C   UNL     1      -1.825  11.493  11.981  1.00  0.00     0.128 C 
BRANCH  76  77
ATOM     77  O   UNL     1      -2.222  12.132  13.206  1.00  0.00    -0.381 OA
ATOM     78  C   UNL     1      -3.558  12.618  13.190  1.00  0.00     0.195 C 
ENDBRANCH  76  77
BRANCH  76  79
ATOM     79  C   UNL     1      -1.265  12.492  10.938  1.00  0.00     0.068 C 
BRANCH  79  80
ATOM     80  C   UNL     1      -1.528  12.211   9.478  1.00  0.00    -0.045 A 
ATOM     81  C   UNL     1      -0.556  12.479   8.505  1.00  0.00     0.004 A 
ATOM     82  C   UNL     1      -2.768  11.699   9.068  1.00  0.00     0.004 A 
ATOM     83  C   UNL     1      -0.811  12.229   7.155  1.00  0.00     0.000 A 
ATOM     84  C   UNL     1      -3.023  11.450   7.718  1.00  0.00     0.000 A 
ATOM     85  C   UNL     1      -2.045  11.714   6.762  1.00  0.00     0.000 A 
ENDBRANCH  79  80
ENDBRANCH  76  79
ENDBRANCH  74  76
ENDBRANCH  72  74
ENDBRANCH  70  71
ENDBRANCH   1  69
TORSDOF 17
ENDMDL
MODEL 8
REMARK VINA RESULT:    -6.643      2.526      4.357
REMARK INTER + INTRA:         -27.075
REMARK INTER:                 -19.211
REMARK INTRA:                  -7.864
REMARK UNBOUND:                -7.229
REMARK SMILES C=C1C(=O)N[C@H](C)C(=O)N[C@@H](CC(C)C)C(=O)N[C@@H](C(=O)O)[C@H](C)C(=O)N[C@@H](CCCN=C(N)N)C(=O)N[C@@H](/C=C/C(C)=C/[C@H](C)[C@H](Cc2ccccc2)OC)[C@H](C)C(=O)N[C@@H](C(=O)O)CCC(=O)N1C
REMARK SMILES IDX 39 1 38 2 37 3 36 4 28 6 27 7 25 8 26 9 23 11 24 12 19 13
REMARK SMILES IDX 18 14 16 15 17 16 11 18 10 19 8 20 9 21 12 24 13 25 14 26
REMARK SMILES IDX 15 27 20 28 21 29 22 30 29 32 30 33 31 34 32 35 33 36 34 37
REMARK SMILES IDX 35 38 57 43 58 44 59 45 60 46 61 47 62 49 66 50 67 51 68 52
REMARK SMILES IDX 69 53 70 54 71 55 2 56 1 57 3 58 4 59 5 60 6 62 7 63 63 65
REMARK SMILES IDX 64 66 65 67 40 69 41 70 42 71 44 72 43 73 45 74 46 75 47 76
REMARK SMILES IDX 55 77 56 78 48 79 49 80 50 81 54 82 51 83 53 84 52 85
REMARK H PARENT 38 5 27 10 18 17 10 22 22 31 34 39 34 40 35 41 35 42 61 48
REMARK H PARENT 5 61 65 68
REMARK Flexibility Score:  369.900
ROOT
ATOM      1  C   UNL     1      -0.851   8.946   7.683  1.00  0.00     0.117 C 
ENDROOT
BRANCH   1   2
ATOM      2  N   UNL     1      -1.401   7.660   8.113  1.00  0.00    -0.347 N 
ATOM      3  O   UNL     1      -2.045   6.888   6.049  1.00  0.00    -0.273 OA
ATOM      4  C   UNL     1      -1.872   6.692   7.248  1.00  0.00     0.243 C 
ATOM      5  H   UNL     1      -1.399   7.425   9.094  1.00  0.00     0.164 HD
BRANCH   4   6
ATOM      6  C   UNL     1      -2.319   5.387   7.955  1.00  0.00     0.171 C 
BRANCH   6   7
ATOM      7  N   UNL     1      -1.180   4.468   8.106  1.00  0.00    -0.344 N 
ATOM      8  C   UNL     1      -1.024   3.397   7.253  1.00  0.00     0.226 C 
ATOM      9  O   UNL     1      -1.821   3.145   6.357  1.00  0.00    -0.275 OA
ATOM     10  H   UNL     1      -0.538   4.604   8.877  1.00  0.00     0.164 HD
BRANCH   8  11
ATOM     11  C   UNL     1       0.228   2.575   7.504  1.00  0.00     0.109 C 
ATOM     12  C   UNL     1       1.233   3.385   8.323  1.00  0.00     0.021 C 
BRANCH  11  13
ATOM     13  C   UNL     1      -0.156   1.212   8.114  1.00  0.00     0.204 C 
BRANCH  13  14
ATOM     14  N   UNL     1      -1.452   1.260   8.799  1.00  0.00    -0.340 N 
ATOM     15  C   UNL     1      -1.580   1.166  10.167  1.00  0.00     0.243 C 
ATOM     16  O   UNL     1      -0.608   1.097  10.918  1.00  0.00    -0.273 OA
ATOM     17  H   UNL     1      -2.299   1.163   8.231  1.00  0.00     0.164 HD
BRANCH  15  18
ATOM     18  C   UNL     1      -3.047   1.030  10.644  1.00  0.00     0.171 C 
BRANCH  18  19
ATOM     19  N   UNL     1      -3.204  -0.340  11.130  1.00  0.00    -0.343 N 
ATOM     20  C   UNL     1      -3.471  -1.390  10.273  1.00  0.00     0.242 CG0
ATOM     21  O   UNL     1      -3.720  -1.204   9.084  1.00  0.00    -0.273 OA
ATOM     22  H   UNL     1      -3.121  -0.528  12.122  1.00  0.00     0.164 HD
ATOM     23  G   UNL     1      -3.524  -2.772  10.957  1.00  0.00     0.000 G0
ENDBRANCH  18  19
BRANCH  18  24
ATOM     24  C   UNL     1      -3.356   2.054  11.743  1.00  0.00     0.038 C 
BRANCH  24  25
ATOM     25  C   UNL     1      -4.426   1.605  12.761  1.00  0.00    -0.015 C 
ATOM     26  C   UNL     1      -5.745   2.360  12.596  1.00  0.00     0.007 C 
ATOM     27  C   UNL     1      -3.895   1.798  14.184  1.00  0.00     0.007 C 
ENDBRANCH  24  25
ENDBRANCH  18  24
ENDBRANCH  15  18
ENDBRANCH  13  14
BRANCH  13  28
ATOM     28  C   UNL     1      -0.231   0.086   7.078  1.00  0.00     0.327 C 
ATOM     29  O   UNL     1      -0.675  -1.037   7.262  1.00  0.00    -0.250 OA
BRANCH  28  30
ATOM     30  O   UNL     1       0.364   0.403   5.910  1.00  0.00    -0.480 OA
ATOM     31  H   UNL     1       0.817  -0.422   5.639  1.00  0.00     0.296 HD
ENDBRANCH  28  30
ENDBRANCH  13  28
ENDBRANCH  11  13
ENDBRANCH   8  11
ENDBRANCH   6   7
BRANCH   6  32
ATOM     32  C   UNL     1      -2.925   5.737   9.319  1.00  0.00     0.037 C 
BRANCH  32  33
ATOM     33  C   UNL     1      -4.258   5.014   9.563  1.00  0.00     0.026 C 
BRANCH  33  34
ATOM     34  C   UNL     1      -4.539   3.937   8.515  1.00  0.00     0.146 C 
BRANCH  34  35
ATOM     35  N   UNL     1      -5.687   4.346   7.718  1.00  0.00    -0.254 NA
ATOM     36  C   UNL     1      -5.620   4.238   6.443  1.00  0.00     0.185 C 
ATOM     37  N   UNL     1      -6.674   4.608   5.699  1.00  0.00    -0.370 N 
ATOM     38  N   UNL     1      -4.604   3.788   5.686  1.00  0.00    -0.370 N 
ATOM     39  H   UNL     1      -7.485   4.949   6.199  1.00  0.00     0.159 HD
ATOM     40  H   UNL     1      -6.766   4.395   4.721  1.00  0.00     0.159 HD
ATOM     41  H   UNL     1      -4.619   3.883   4.684  1.00  0.00     0.159 HD
ATOM     42  H   UNL     1      -3.740   3.491   6.112  1.00  0.00     0.159 HD
ENDBRANCH  34  35
ENDBRANCH  33  34
ENDBRANCH  32  33
ENDBRANCH   6  32
ENDBRANCH   4   6
ENDBRANCH   1   2
BRANCH   1  43
ATOM     43  C   UNL     1       0.702   8.867   7.748  1.00  0.00     0.102 C 
ATOM     44  C   UNL     1       1.383  10.245   7.812  1.00  0.00     0.020 C 
BRANCH  43  45
ATOM     45  C   UNL     1       1.253   7.953   6.649  1.00  0.00     0.225 C 
ATOM     46  O   UNL     1       1.981   6.992   6.878  1.00  0.00    -0.275 OA
ATOM     47  N   UNL     1       0.955   8.331   5.360  1.00  0.00    -0.342 N 
ATOM     48  H   UNL     1       0.239   9.024   5.194  1.00  0.00     0.164 HD
BRANCH  47  49
ATOM     49  C   UNL     1       1.385   7.531   4.208  1.00  0.00     0.192 C 
BRANCH  49  50
ATOM     50  C   UNL     1       1.650   8.451   3.014  1.00  0.00     0.047 C 
BRANCH  50  51
ATOM     51  C   UNL     1       3.062   8.268   2.440  1.00  0.00     0.103 C 
BRANCH  51  52
ATOM     52  C   UNL     1       3.035   7.725   1.013  1.00  0.00     0.226 C 
ATOM     53  O   UNL     1       2.952   6.510   0.824  1.00  0.00    -0.275 OA
BRANCH  52  54
ATOM     54  N   UNL     1       3.032   8.680  -0.021  1.00  0.00    -0.311 N 
ATOM     55  C   UNL     1       1.780   9.079  -0.677  1.00  0.00     0.153 C 
BRANCH  54  56
ATOM     56  C   UNL     1       4.220   9.289  -0.459  1.00  0.00     0.102 C 
ATOM     57  C   UNL     1       4.786  10.366   0.109  1.00  0.00     0.043 C 
BRANCH  56  58
ATOM     58  C   UNL     1       4.999   8.720  -1.622  1.00  0.00     0.268 C 
ATOM     59  O   UNL     1       4.783   7.613  -2.095  1.00  0.00    -0.268 OA
ATOM     60  N   UNL     1       5.926   9.598  -2.131  1.00  0.00    -0.339 N 
ATOM     61  H   UNL     1       6.052  10.493  -1.675  1.00  0.00     0.164 HD
BRANCH  60  62
ATOM     62  C   UNL     1       6.746   9.274  -3.298  1.00  0.00     0.168 CG0
ATOM     63  C   UNL     1       8.228   9.279  -2.943  1.00  0.00     0.041 C 
ATOM     64  G   UNL     1       6.453  10.279  -4.431  1.00  0.00     0.000 G0
ENDBRANCH  60  62
ENDBRANCH  56  58
ENDBRANCH  54  56
ENDBRANCH  52  54
ENDBRANCH  51  52
ENDBRANCH  50  51
ENDBRANCH  49  50
BRANCH  49  65
ATOM     65  C   UNL     1       0.330   6.484   3.820  1.00  0.00     0.326 C 
ATOM     66  O   UNL     1      -0.459   6.580   2.891  1.00  0.00    -0.250 OA
BRANCH  65  67
ATOM     67  O   UNL     1       0.273   5.410   4.638  1.00  0.00    -0.480 OA
ATOM     68  H   UNL     1       1.212   5.139   4.730  1.00  0.00     0.296 HD
ENDBRANCH  65  67
ENDBRANCH  49  65
ENDBRANCH  47  49
ENDBRANCH  43  45
ENDBRANCH   1  43
BRANCH   1  69
ATOM     69  C   UNL     1      -1.565  10.007   8.499  1.00  0.00    -0.001 C 
ATOM     70  C   UNL     1      -2.804   9.941   9.019  1.00  0.00     0.001 C 
BRANCH  70  71
ATOM     71  C   UNL     1      -3.475  10.964   9.824  1.00  0.00    -0.055 C 
ATOM     72  C   UNL     1      -3.835  10.636  11.083  1.00  0.00    -0.018 C 
ATOM     73  C   UNL     1      -3.710  12.312   9.193  1.00  0.00     0.044 C 
BRANCH  72  74
ATOM     74  C   UNL     1      -4.535  11.483  12.136  1.00  0.00     0.038 C 
ATOM     75  C   UNL     1      -3.458  12.329  12.826  1.00  0.00     0.015 C 
BRANCH  74  76
ATOM     76  C   UNL     1      -5.334  10.542  13.086  1.00  0.00     0.128 C 
BRANCH  76  77
ATOM     77  O   UNL     1      -6.140   9.635  12.314  1.00  0.00    -0.381 OA
ATOM     78  C   UNL     1      -7.537   9.860  12.446  1.00  0.00     0.195 C 
ENDBRANCH  76  77
BRANCH  76  79
ATOM     79  C   UNL     1      -4.457   9.818  14.138  1.00  0.00     0.068 C 
BRANCH  79  80
ATOM     80  C   UNL     1      -4.329   8.317  14.039  1.00  0.00    -0.045 A 
ATOM     81  C   UNL     1      -3.377   7.727  13.197  1.00  0.00     0.004 A 
ATOM     82  C   UNL     1      -5.187   7.484  14.774  1.00  0.00     0.004 A 
ATOM     83  C   UNL     1      -3.274   6.338  13.101  1.00  0.00     0.000 A 
ATOM     84  C   UNL     1      -5.084   6.095  14.676  1.00  0.00     0.000 A 
ATOM     85  C   UNL     1      -4.127   5.522  13.841  1.00  0.00     0.000 A 
ENDBRANCH  79  80
ENDBRANCH  76  79
ENDBRANCH  74  76
ENDBRANCH  72  74
ENDBRANCH  70  71
ENDBRANCH   1  69
TORSDOF 17
ENDMDL
MODEL 9
REMARK VINA RESULT:    -6.619      3.197      7.981
REMARK INTER + INTRA:         -27.005
REMARK INTER:                 -18.325
REMARK INTRA:                  -8.680
REMARK UNBOUND:                -7.229
REMARK SMILES C=C1C(=O)N[C@H](C)C(=O)N[C@@H](CC(C)C)C(=O)N[C@@H](C(=O)O)[C@H](C)C(=O)N[C@@H](CCCN=C(N)N)C(=O)N[C@@H](/C=C/C(C)=C/[C@H](C)[C@H](Cc2ccccc2)OC)[C@H](C)C(=O)N[C@@H](C(=O)O)CCC(=O)N1C
REMARK SMILES IDX 39 1 38 2 37 3 36 4 28 6 27 7 25 8 26 9 23 11 24 12 19 13
REMARK SMILES IDX 18 14 16 15 17 16 11 18 10 19 8 20 9 21 12 24 13 25 14 26
REMARK SMILES IDX 15 27 20 28 21 29 22 30 29 32 30 33 31 34 32 35 33 36 34 37
REMARK SMILES IDX 35 38 57 43 58 44 59 45 60 46 61 47 62 49 66 50 67 51 68 52
REMARK SMILES IDX 69 53 70 54 71 55 2 56 1 57 3 58 4 59 5 60 6 62 7 63 63 65
REMARK SMILES IDX 64 66 65 67 40 69 41 70 42 71 44 72 43 73 45 74 46 75 47 76
REMARK SMILES IDX 55 77 56 78 48 79 49 80 50 81 54 82 51 83 53 84 52 85
REMARK H PARENT 38 5 27 10 18 17 10 22 22 31 34 39 34 40 35 41 35 42 61 48
REMARK H PARENT 5 61 65 68
REMARK Flexibility Score:  369.900
ROOT
ATOM      1  C   UNL     1       2.223   9.873   6.786  1.00  0.00     0.117 C 
ENDROOT
BRANCH   1   2
ATOM      2  N   UNL     1       1.052   9.243   7.397  1.00  0.00    -0.347 N 
ATOM      3  O   UNL     1       1.934   8.904   9.489  1.00  0.00    -0.273 OA
ATOM      4  C   UNL     1       0.970   8.891   8.730  1.00  0.00     0.243 C 
ATOM      5  H   UNL     1       0.225   9.093   6.840  1.00  0.00     0.164 HD
BRANCH   4   6
ATOM      6  C   UNL     1      -0.411   8.321   9.141  1.00  0.00     0.171 C 
BRANCH   6   7
ATOM      7  N   UNL     1      -1.445   9.364   9.051  1.00  0.00    -0.344 N 
ATOM      8  C   UNL     1      -1.560  10.326  10.031  1.00  0.00     0.226 C 
ATOM      9  O   UNL     1      -0.837  10.351  11.020  1.00  0.00    -0.275 OA
ATOM     10  H   UNL     1      -2.104   9.336   8.283  1.00  0.00     0.164 HD
BRANCH   8  11
ATOM     11  C   UNL     1      -2.639  11.362   9.766  1.00  0.00     0.109 C 
ATOM     12  C   UNL     1      -3.113  11.270   8.316  1.00  0.00     0.021 C 
BRANCH  11  13
ATOM     13  C   UNL     1      -3.755  11.234  10.823  1.00  0.00     0.204 C 
BRANCH  13  14
ATOM     14  N   UNL     1      -3.496  10.145  11.769  1.00  0.00    -0.340 N 
ATOM     15  C   UNL     1      -4.167   8.942  11.728  1.00  0.00     0.243 C 
ATOM     16  O   UNL     1      -4.989   8.674  10.853  1.00  0.00    -0.273 OA
ATOM     17  H   UNL     1      -2.942  10.355  12.604  1.00  0.00     0.164 HD
BRANCH  15  18
ATOM     18  C   UNL     1      -3.879   8.030  12.946  1.00  0.00     0.171 C 
BRANCH  18  19
ATOM     19  N   UNL     1      -5.125   7.936  13.703  1.00  0.00    -0.343 N 
ATOM     20  C   UNL     1      -5.605   8.994  14.451  1.00  0.00     0.242 CG0
ATOM     21  O   UNL     1      -4.941  10.014  14.623  1.00  0.00    -0.273 OA
ATOM     22  H   UNL     1      -5.653   7.071  13.686  1.00  0.00     0.164 HD
ATOM     23  G   UNL     1      -6.973   8.736  15.116  1.00  0.00     0.000 G0
ENDBRANCH  18  19
BRANCH  18  24
ATOM     24  C   UNL     1      -3.395   6.649  12.486  1.00  0.00     0.038 C 
BRANCH  24  25
ATOM     25  C   UNL     1      -2.047   6.656  11.734  1.00  0.00    -0.015 C 
ATOM     26  C   UNL     1      -1.598   5.253  11.325  1.00  0.00     0.007 C 
ATOM     27  C   UNL     1      -0.973   7.307  12.608  1.00  0.00     0.007 C 
ENDBRANCH  24  25
ENDBRANCH  18  24
ENDBRANCH  15  18
ENDBRANCH  13  14
BRANCH  13  28
ATOM     28  C   UNL     1      -3.958  12.511  11.644  1.00  0.00     0.327 C 
ATOM     29  O   UNL     1      -3.693  12.659  12.827  1.00  0.00    -0.250 OA
BRANCH  28  30
ATOM     30  O   UNL     1      -4.590  13.485  10.959  1.00  0.00    -0.480 OA
ATOM     31  H   UNL     1      -3.865  14.030  10.589  1.00  0.00     0.296 HD
ENDBRANCH  28  30
ENDBRANCH  13  28
ENDBRANCH  11  13
ENDBRANCH   8  11
ENDBRANCH   6   7
BRANCH   6  32
ATOM     32  C   UNL     1      -0.753   7.131   8.237  1.00  0.00     0.037 C 
BRANCH  32  33
ATOM     33  C   UNL     1      -2.252   7.062   7.914  1.00  0.00     0.026 C 
BRANCH  33  34
ATOM     34  C   UNL     1      -2.543   6.229   6.664  1.00  0.00     0.146 C 
BRANCH  34  35
ATOM     35  N   UNL     1      -3.922   6.461   6.256  1.00  0.00    -0.254 NA
ATOM     36  C   UNL     1      -4.783   5.531   6.442  1.00  0.00     0.185 C 
ATOM     37  N   UNL     1      -6.057   5.736   6.074  1.00  0.00    -0.370 N 
ATOM     38  N   UNL     1      -4.605   4.311   6.979  1.00  0.00    -0.370 N 
ATOM     39  H   UNL     1      -6.273   6.638   5.669  1.00  0.00     0.159 HD
ATOM     40  H   UNL     1      -6.817   5.134   6.341  1.00  0.00     0.159 HD
ATOM     41  H   UNL     1      -5.332   3.616   6.944  1.00  0.00     0.159 HD
ATOM     42  H   UNL     1      -3.692   4.014   7.287  1.00  0.00     0.159 HD
ENDBRANCH  34  35
ENDBRANCH  33  34
ENDBRANCH  32  33
ENDBRANCH   6  32
ENDBRANCH   4   6
ENDBRANCH   1   2
BRANCH   1  43
ATOM     43  C   UNL     1       1.842  10.342   5.352  1.00  0.00     0.102 C 
ATOM     44  C   UNL     1       0.657  11.323   5.324  1.00  0.00     0.020 C 
BRANCH  43  45
ATOM     45  C   UNL     1       1.682   9.148   4.407  1.00  0.00     0.225 C 
ATOM     46  O   UNL     1       0.830   8.278   4.563  1.00  0.00    -0.275 OA
ATOM     47  N   UNL     1       2.624   9.053   3.408  1.00  0.00    -0.342 N 
ATOM     48  H   UNL     1       3.216   9.846   3.202  1.00  0.00     0.164 HD
BRANCH  47  49
ATOM     49  C   UNL     1       2.575   7.982   2.408  1.00  0.00     0.192 C 
BRANCH  49  50
ATOM     50  C   UNL     1       3.969   7.375   2.236  1.00  0.00     0.047 C 
BRANCH  50  51
ATOM     51  C   UNL     1       5.038   8.138   3.030  1.00  0.00     0.103 C 
BRANCH  51  52
ATOM     52  C   UNL     1       6.159   8.656   2.131  1.00  0.00     0.226 C 
ATOM     53  O   UNL     1       6.639   7.919   1.267  1.00  0.00    -0.275 OA
BRANCH  52  54
ATOM     54  N   UNL     1       6.528  10.003   2.303  1.00  0.00    -0.311 N 
ATOM     55  C   UNL     1       7.192  10.454   3.534  1.00  0.00     0.153 C 
BRANCH  54  56
ATOM     56  C   UNL     1       6.283  10.963   1.307  1.00  0.00     0.102 C 
ATOM     57  C   UNL     1       6.740  12.226   1.327  1.00  0.00     0.043 C 
BRANCH  56  58
ATOM     58  C   UNL     1       5.492  10.611   0.069  1.00  0.00     0.268 C 
ATOM     59  O   UNL     1       4.303  10.867  -0.061  1.00  0.00    -0.268 OA
ATOM     60  N   UNL     1       6.259  10.035  -0.916  1.00  0.00    -0.339 N 
ATOM     61  H   UNL     1       7.235   9.846  -0.726  1.00  0.00     0.164 HD
BRANCH  60  62
ATOM     62  C   UNL     1       5.706   9.672  -2.221  1.00  0.00     0.168 CG0
ATOM     63  C   UNL     1       6.507   8.544  -2.859  1.00  0.00     0.041 C 
ATOM     64  G   UNL     1       5.686  10.913  -3.137  1.00  0.00     0.000 G0
ENDBRANCH  60  62
ENDBRANCH  56  58
ENDBRANCH  54  56
ENDBRANCH  52  54
ENDBRANCH  51  52
ENDBRANCH  50  51
ENDBRANCH  49  50
BRANCH  49  65
ATOM     65  C   UNL     1       2.074   8.498   1.050  1.00  0.00     0.326 C 
ATOM     66  O   UNL     1       1.033   9.111   0.862  1.00  0.00    -0.250 OA
BRANCH  65  67
ATOM     67  O   UNL     1       2.858   8.171  -0.001  1.00  0.00    -0.480 OA
ATOM     68  H   UNL     1       2.219   7.859  -0.678  1.00  0.00     0.296 HD
ENDBRANCH  65  67
ENDBRANCH  49  65
ENDBRANCH  47  49
ENDBRANCH  43  45
ENDBRANCH   1  43
BRANCH   1  69
ATOM     69  C   UNL     1       3.369   8.893   6.956  1.00  0.00    -0.001 C 
ATOM     70  C   UNL     1       4.675   9.114   6.725  1.00  0.00     0.001 C 
BRANCH  70  71
ATOM     71  C   UNL     1       5.775   8.166   6.914  1.00  0.00    -0.055 C 
ATOM     72  C   UNL     1       6.331   7.622   5.811  1.00  0.00    -0.018 C 
ATOM     73  C   UNL     1       6.214   7.871   8.324  1.00  0.00     0.044 C 
BRANCH  72  74
ATOM     74  C   UNL     1       7.474   6.624   5.701  1.00  0.00     0.038 C 
ATOM     75  C   UNL     1       8.499   7.215   4.725  1.00  0.00     0.015 C 
BRANCH  74  76
ATOM     76  C   UNL     1       6.894   5.242   5.280  1.00  0.00     0.128 C 
BRANCH  76  77
ATOM     77  O   UNL     1       7.952   4.385   4.818  1.00  0.00    -0.381 OA
ATOM     78  C   UNL     1       8.534   3.592   5.844  1.00  0.00     0.195 C 
ENDBRANCH  76  77
BRANCH  76  79
ATOM     79  C   UNL     1       6.011   4.573   6.364  1.00  0.00     0.068 C 
BRANCH  79  80
ATOM     80  C   UNL     1       4.536   4.893   6.371  1.00  0.00    -0.045 A 
ATOM     81  C   UNL     1       3.835   5.041   7.575  1.00  0.00     0.004 A 
ATOM     82  C   UNL     1       3.835   5.021   5.163  1.00  0.00     0.004 A 
ATOM     83  C   UNL     1       2.467   5.323   7.573  1.00  0.00     0.000 A 
ATOM     84  C   UNL     1       2.467   5.303   5.162  1.00  0.00     0.000 A 
ATOM     85  C   UNL     1       1.784   5.455   6.366  1.00  0.00     0.000 A 
ENDBRANCH  79  80
ENDBRANCH  76  79
ENDBRANCH  74  76
ENDBRANCH  72  74
ENDBRANCH  70  71
ENDBRANCH   1  69
TORSDOF 17
ENDMDL
MODEL 10
REMARK VINA RESULT:    -6.600      2.356      4.189
REMARK INTER + INTRA:         -26.948
REMARK INTER:                 -19.746
REMARK INTRA:                  -7.202
REMARK UNBOUND:                -7.229
REMARK SMILES C=C1C(=O)N[C@H](C)C(=O)N[C@@H](CC(C)C)C(=O)N[C@@H](C(=O)O)[C@H](C)C(=O)N[C@@H](CCCN=C(N)N)C(=O)N[C@@H](/C=C/C(C)=C/[C@H](C)[C@H](Cc2ccccc2)OC)[C@H](C)C(=O)N[C@@H](C(=O)O)CCC(=O)N1C
REMARK SMILES IDX 39 1 38 2 37 3 36 4 28 6 27 7 25 8 26 9 23 11 24 12 19 13
REMARK SMILES IDX 18 14 16 15 17 16 11 18 10 19 8 20 9 21 12 24 13 25 14 26
REMARK SMILES IDX 15 27 20 28 21 29 22 30 29 32 30 33 31 34 32 35 33 36 34 37
REMARK SMILES IDX 35 38 57 43 58 44 59 45 60 46 61 47 62 49 66 50 67 51 68 52
REMARK SMILES IDX 69 53 70 54 71 55 2 56 1 57 3 58 4 59 5 60 6 62 7 63 63 65
REMARK SMILES IDX 64 66 65 67 40 69 41 70 42 71 44 72 43 73 45 74 46 75 47 76
REMARK SMILES IDX 55 77 56 78 48 79 49 80 50 81 54 82 51 83 53 84 52 85
REMARK H PARENT 38 5 27 10 18 17 10 22 22 31 34 39 34 40 35 41 35 42 61 48
REMARK H PARENT 5 61 65 68
REMARK Flexibility Score:  369.900
ROOT
ATOM      1  C   UNL     1       1.629   9.230   5.181  1.00  0.00     0.117 C 
ENDROOT
BRANCH   1   2
ATOM      2  N   UNL     1       1.153   8.043   5.892  1.00  0.00    -0.347 N 
ATOM      3  O   UNL     1       0.066   7.041   4.135  1.00  0.00    -0.273 OA
ATOM      4  C   UNL     1       0.485   6.996   5.287  1.00  0.00     0.243 C 
ATOM      5  H   UNL     1       1.357   7.940   6.874  1.00  0.00     0.164 HD
BRANCH   4   6
ATOM      6  C   UNL     1       0.168   5.821   6.247  1.00  0.00     0.171 C 
BRANCH   6   7
ATOM      7  N   UNL     1      -1.123   5.207   5.900  1.00  0.00    -0.344 N 
ATOM      8  C   UNL     1      -1.699   4.266   6.727  1.00  0.00     0.226 C 
ATOM      9  O   UNL     1      -1.166   3.882   7.761  1.00  0.00    -0.275 OA
ATOM     10  H   UNL     1      -1.561   5.449   5.020  1.00  0.00     0.164 HD
BRANCH   8  11
ATOM     11  C   UNL     1      -3.055   3.768   6.258  1.00  0.00     0.109 C 
ATOM     12  C   UNL     1      -3.089   2.240   6.275  1.00  0.00     0.021 C 
BRANCH  11  13
ATOM     13  C   UNL     1      -4.171   4.451   7.074  1.00  0.00     0.204 C 
BRANCH  13  14
ATOM     14  N   UNL     1      -3.731   4.797   8.429  1.00  0.00    -0.340 N 
ATOM     15  C   UNL     1      -4.339   4.303   9.563  1.00  0.00     0.243 C 
ATOM     16  O   UNL     1      -5.258   3.487   9.517  1.00  0.00    -0.273 OA
ATOM     17  H   UNL     1      -3.080   5.579   8.538  1.00  0.00     0.164 HD
BRANCH  15  18
ATOM     18  C   UNL     1      -3.842   4.966  10.871  1.00  0.00     0.171 C 
BRANCH  18  19
ATOM     19  N   UNL     1      -4.121   4.022  11.951  1.00  0.00    -0.343 N 
ATOM     20  C   UNL     1      -4.346   4.444  13.248  1.00  0.00     0.242 CG0
ATOM     21  O   UNL     1      -4.191   5.617  13.578  1.00  0.00    -0.273 OA
ATOM     22  H   UNL     1      -4.146   3.029  11.750  1.00  0.00     0.164 HD
ATOM     23  G   UNL     1      -4.703   3.312  14.233  1.00  0.00     0.000 G0
ENDBRANCH  18  19
BRANCH  18  24
ATOM     24  C   UNL     1      -2.345   5.288  10.780  1.00  0.00     0.038 C 
BRANCH  24  25
ATOM     25  C   UNL     1      -2.007   6.793  10.807  1.00  0.00    -0.015 C 
ATOM     26  C   UNL     1      -1.155   7.224   9.613  1.00  0.00     0.007 C 
ATOM     27  C   UNL     1      -1.278   7.133  12.110  1.00  0.00     0.007 C 
ENDBRANCH  24  25
ENDBRANCH  18  24
ENDBRANCH  15  18
ENDBRANCH  13  14
BRANCH  13  28
ATOM     28  C   UNL     1      -4.694   5.735   6.425  1.00  0.00     0.327 C 
ATOM     29  O   UNL     1      -5.721   5.849   5.773  1.00  0.00    -0.250 OA
BRANCH  28  30
ATOM     30  O   UNL     1      -3.836   6.770   6.534  1.00  0.00    -0.480 OA
ATOM     31  H   UNL     1      -4.116   7.390   5.829  1.00  0.00     0.296 HD
ENDBRANCH  28  30
ENDBRANCH  13  28
ENDBRANCH  11  13
ENDBRANCH   8  11
ENDBRANCH   6   7
BRANCH   6  32
ATOM     32  C   UNL     1       1.301   4.792   6.175  1.00  0.00     0.037 C 
BRANCH  32  33
ATOM     33  C   UNL     1       2.030   4.637   7.517  1.00  0.00     0.026 C 
BRANCH  33  34
ATOM     34  C   UNL     1       3.393   5.332   7.526  1.00  0.00     0.146 C 
BRANCH  34  35
ATOM     35  N   UNL     1       4.406   4.374   7.946  1.00  0.00    -0.254 NA
ATOM     36  C   UNL     1       5.635   4.735   7.934  1.00  0.00     0.185 C 
ATOM     37  N   UNL     1       6.576   3.861   8.324  1.00  0.00    -0.370 N 
ATOM     38  N   UNL     1       6.165   5.917   7.575  1.00  0.00    -0.370 N 
ATOM     39  H   UNL     1       6.255   2.949   8.621  1.00  0.00     0.159 HD
ATOM     40  H   UNL     1       7.531   4.118   8.509  1.00  0.00     0.159 HD
ATOM     41  H   UNL     1       7.160   6.034   7.477  1.00  0.00     0.159 HD
ATOM     42  H   UNL     1       5.574   6.664   7.245  1.00  0.00     0.159 HD
ENDBRANCH  34  35
ENDBRANCH  33  34
ENDBRANCH  32  33
ENDBRANCH   6  32
ENDBRANCH   4   6
ENDBRANCH   1   2
BRANCH   1  43
ATOM     43  C   UNL     1       3.164   9.096   4.965  1.00  0.00     0.102 C 
ATOM     44  C   UNL     1       3.947  10.369   5.329  1.00  0.00     0.020 C 
BRANCH  43  45
ATOM     45  C   UNL     1       3.477   8.552   3.567  1.00  0.00     0.225 C 
ATOM     46  O   UNL     1       4.607   8.232   3.210  1.00  0.00    -0.275 OA
ATOM     47  N   UNL     1       2.418   8.530   2.689  1.00  0.00    -0.342 N 
ATOM     48  H   UNL     1       1.477   8.650   3.037  1.00  0.00     0.164 HD
BRANCH  47  49
ATOM     49  C   UNL     1       2.561   8.003   1.329  1.00  0.00     0.192 C 
BRANCH  49  50
ATOM     50  C   UNL     1       2.323   9.124   0.314  1.00  0.00     0.047 C 
BRANCH  50  51
ATOM     51  C   UNL     1       3.187   8.964  -0.944  1.00  0.00     0.103 C 
BRANCH  51  52
ATOM     52  C   UNL     1       4.454   9.815  -0.881  1.00  0.00     0.226 C 
ATOM     53  O   UNL     1       4.430  10.902  -0.301  1.00  0.00    -0.275 OA
BRANCH  52  54
ATOM     54  N   UNL     1       5.616   9.252  -1.440  1.00  0.00    -0.311 N 
ATOM     55  C   UNL     1       5.533   8.294  -2.551  1.00  0.00     0.153 C 
BRANCH  54  56
ATOM     56  C   UNL     1       6.894   9.586  -0.964  1.00  0.00     0.102 C 
ATOM     57  C   UNL     1       7.492   9.018   0.096  1.00  0.00     0.043 C 
BRANCH  56  58
ATOM     58  C   UNL     1       7.738  10.622  -1.669  1.00  0.00     0.268 C 
ATOM     59  O   UNL     1       7.394  11.788  -1.802  1.00  0.00    -0.268 OA
ATOM     60  N   UNL     1       8.954  10.135  -2.085  1.00  0.00    -0.339 N 
ATOM     61  H   UNL     1       9.159   9.153  -1.947  1.00  0.00     0.164 HD
BRANCH  60  62
ATOM     62  C   UNL     1       9.952  10.984  -2.735  1.00  0.00     0.168 CG0
ATOM     63  C   UNL     1      10.207  10.531  -4.167  1.00  0.00     0.041 C 
ATOM     64  G   UNL     1      11.259  10.966  -1.916  1.00  0.00     0.000 G0
ENDBRANCH  60  62
ENDBRANCH  56  58
ENDBRANCH  54  56
ENDBRANCH  52  54
ENDBRANCH  51  52
ENDBRANCH  50  51
ENDBRANCH  49  50
BRANCH  49  65
ATOM     65  C   UNL     1       1.576   6.854   1.060  1.00  0.00     0.326 C 
ATOM     66  O   UNL     1       1.884   5.695   0.824  1.00  0.00    -0.250 OA
BRANCH  65  67
ATOM     67  O   UNL     1       0.276   7.221   1.039  1.00  0.00    -0.480 OA
ATOM     68  H   UNL     1       0.308   8.177   0.820  1.00  0.00     0.296 HD
ENDBRANCH  65  67
ENDBRANCH  49  65
ENDBRANCH  47  49
ENDBRANCH  43  45
ENDBRANCH   1  43
BRANCH   1  69
ATOM     69  C   UNL     1       1.098  10.426   5.950  1.00  0.00    -0.001 C 
ATOM     70  C   UNL     1       0.016  10.470   6.747  1.00  0.00     0.001 C 
BRANCH  70  71
ATOM     71  C   UNL     1      -0.474  11.625   7.502  1.00  0.00    -0.055 C 
ATOM     72  C   UNL     1      -0.522  11.522   8.847  1.00  0.00    -0.018 C 
ATOM     73  C   UNL     1      -0.881  12.850   6.726  1.00  0.00     0.044 C 
BRANCH  72  74
ATOM     74  C   UNL     1      -0.977  12.546   9.876  1.00  0.00     0.038 C 
ATOM     75  C   UNL     1       0.116  12.626  10.949  1.00  0.00     0.015 C 
BRANCH  74  76
ATOM     76  C   UNL     1      -2.383  12.135  10.405  1.00  0.00     0.128 C 
BRANCH  76  77
ATOM     77  O   UNL     1      -3.404  12.862   9.702  1.00  0.00    -0.381 OA
ATOM     78  C   UNL     1      -3.977  12.139   8.620  1.00  0.00     0.195 C 
ENDBRANCH  76  77
BRANCH  76  79
ATOM     79  C   UNL     1      -2.631  10.605  10.410  1.00  0.00     0.068 C 
BRANCH  79  80
ATOM     80  C   UNL     1      -3.479  10.030  11.518  1.00  0.00    -0.045 A 
ATOM     81  C   UNL     1      -4.591   9.227  11.233  1.00  0.00     0.004 A 
ATOM     82  C   UNL     1      -3.181  10.317  12.859  1.00  0.00     0.004 A 
ATOM     83  C   UNL     1      -5.380   8.710  12.263  1.00  0.00     0.000 A 
ATOM     84  C   UNL     1      -3.971   9.800  13.888  1.00  0.00     0.000 A 
ATOM     85  C   UNL     1      -5.068   8.996  13.591  1.00  0.00     0.000 A 
ENDBRANCH  79  80
ENDBRANCH  76  79
ENDBRANCH  74  76
ENDBRANCH  72  74
ENDBRANCH  70  71
ENDBRANCH   1  69
TORSDOF 17
ENDMDL
MODEL 11
REMARK VINA RESULT:    -6.536      2.663      4.864
REMARK INTER + INTRA:         -26.758
REMARK INTER:                 -19.195
REMARK INTRA:                  -7.563
REMARK UNBOUND:                -7.229
REMARK SMILES C=C1C(=O)N[C@H](C)C(=O)N[C@@H](CC(C)C)C(=O)N[C@@H](C(=O)O)[C@H](C)C(=O)N[C@@H](CCCN=C(N)N)C(=O)N[C@@H](/C=C/C(C)=C/[C@H](C)[C@H](Cc2ccccc2)OC)[C@H](C)C(=O)N[C@@H](C(=O)O)CCC(=O)N1C
REMARK SMILES IDX 39 1 38 2 37 3 36 4 28 6 27 7 25 8 26 9 23 11 24 12 19 13
REMARK SMILES IDX 18 14 16 15 17 16 11 18 10 19 8 20 9 21 12 24 13 25 14 26
REMARK SMILES IDX 15 27 20 28 21 29 22 30 29 32 30 33 31 34 32 35 33 36 34 37
REMARK SMILES IDX 35 38 57 43 58 44 59 45 60 46 61 47 62 49 66 50 67 51 68 52
REMARK SMILES IDX 69 53 70 54 71 55 2 56 1 57 3 58 4 59 5 60 6 62 7 63 63 65
REMARK SMILES IDX 64 66 65 67 40 69 41 70 42 71 44 72 43 73 45 74 46 75 47 76
REMARK SMILES IDX 55 77 56 78 48 79 49 80 50 81 54 82 51 83 53 84 52 85
REMARK H PARENT 38 5 27 10 18 17 10 22 22 31 34 39 34 40 35 41 35 42 61 48
REMARK H PARENT 5 61 65 68
REMARK Flexibility Score:  369.900
ROOT
ATOM      1  C   UNL     1      -1.746   7.381   7.135  1.00  0.00     0.117 C 
ENDROOT
BRANCH   1   2
ATOM      2  N   UNL     1      -2.212   6.192   7.850  1.00  0.00    -0.347 N 
ATOM      3  O   UNL     1      -4.372   6.186   7.073  1.00  0.00    -0.273 OA
ATOM      4  C   UNL     1      -3.466   5.635   7.690  1.00  0.00     0.243 C 
ATOM      5  H   UNL     1      -1.578   5.705   8.465  1.00  0.00     0.164 HD
BRANCH   4   6
ATOM      6  C   UNL     1      -3.676   4.330   8.498  1.00  0.00     0.171 C 
BRANCH   6   7
ATOM      7  N   UNL     1      -2.733   3.291   8.052  1.00  0.00    -0.344 N 
ATOM      8  C   UNL     1      -3.100   2.375   7.091  1.00  0.00     0.226 C 
ATOM      9  O   UNL     1      -4.215   2.361   6.583  1.00  0.00    -0.275 OA
ATOM     10  H   UNL     1      -1.826   3.229   8.497  1.00  0.00     0.164 HD
BRANCH   8  11
ATOM     11  C   UNL     1      -2.000   1.404   6.699  1.00  0.00     0.109 C 
ATOM     12  C   UNL     1      -0.648   1.911   7.201  1.00  0.00     0.021 C 
BRANCH  11  13
ATOM     13  C   UNL     1      -2.371  -0.019   7.163  1.00  0.00     0.204 C 
BRANCH  13  14
ATOM     14  N   UNL     1      -2.898  -0.034   8.531  1.00  0.00    -0.340 N 
ATOM     15  C   UNL     1      -2.149  -0.430   9.617  1.00  0.00     0.243 C 
ATOM     16  O   UNL     1      -0.963  -0.742   9.524  1.00  0.00    -0.273 OA
ATOM     17  H   UNL     1      -3.909   0.066   8.657  1.00  0.00     0.164 HD
BRANCH  15  18
ATOM     18  C   UNL     1      -2.973  -0.563  10.921  1.00  0.00     0.171 C 
BRANCH  18  19
ATOM     19  N   UNL     1      -3.069  -1.992  11.213  1.00  0.00    -0.343 N 
ATOM     20  C   UNL     1      -4.270  -2.672  11.140  1.00  0.00     0.242 CG0
ATOM     21  O   UNL     1      -5.332  -2.082  10.959  1.00  0.00    -0.273 OA
ATOM     22  H   UNL     1      -2.235  -2.501  11.481  1.00  0.00     0.164 HD
ATOM     23  G   UNL     1      -4.160  -4.187  11.404  1.00  0.00     0.000 G0
ENDBRANCH  18  19
BRANCH  18  24
ATOM     24  C   UNL     1      -2.299   0.201  12.068  1.00  0.00     0.038 C 
BRANCH  24  25
ATOM     25  C   UNL     1      -3.194   0.429  13.305  1.00  0.00    -0.015 C 
ATOM     26  C   UNL     1      -3.082   1.851  13.854  1.00  0.00     0.007 C 
ATOM     27  C   UNL     1      -2.826  -0.577  14.399  1.00  0.00     0.007 C 
ENDBRANCH  24  25
ENDBRANCH  18  24
ENDBRANCH  15  18
ENDBRANCH  13  14
BRANCH  13  28
ATOM     28  C   UNL     1      -3.414  -0.692   6.266  1.00  0.00     0.327 C 
ATOM     29  O   UNL     1      -4.232  -1.532   6.613  1.00  0.00    -0.250 OA
BRANCH  28  30
ATOM     30  O   UNL     1      -3.289  -0.358   4.966  1.00  0.00    -0.480 OA
ATOM     31  H   UNL     1      -2.459   0.161   4.929  1.00  0.00     0.296 HD
ENDBRANCH  28  30
ENDBRANCH  13  28
ENDBRANCH  11  13
ENDBRANCH   8  11
ENDBRANCH   6   7
BRANCH   6  32
ATOM     32  C   UNL     1      -3.496   4.627   9.991  1.00  0.00     0.037 C 
BRANCH  32  33
ATOM     33  C   UNL     1      -4.262   3.635  10.876  1.00  0.00     0.026 C 
BRANCH  33  34
ATOM     34  C   UNL     1      -5.526   3.102  10.199  1.00  0.00     0.146 C 
BRANCH  34  35
ATOM     35  N   UNL     1      -5.724   1.716  10.600  1.00  0.00    -0.254 NA
ATOM     36  C   UNL     1      -6.333   1.476  11.702  1.00  0.00     0.185 C 
ATOM     37  N   UNL     1      -6.526   0.203  12.079  1.00  0.00    -0.370 N 
ATOM     38  N   UNL     1      -6.840   2.346  12.593  1.00  0.00    -0.370 N 
ATOM     39  H   UNL     1      -6.181  -0.513  11.453  1.00  0.00     0.159 HD
ATOM     40  H   UNL     1      -7.138  -0.068  12.829  1.00  0.00     0.159 HD
ATOM     41  H   UNL     1      -7.173   2.037  13.492  1.00  0.00     0.159 HD
ATOM     42  H   UNL     1      -6.753   3.340  12.447  1.00  0.00     0.159 HD
ENDBRANCH  34  35
ENDBRANCH  33  34
ENDBRANCH  32  33
ENDBRANCH   6  32
ENDBRANCH   4   6
ENDBRANCH   1   2
BRANCH   1  43
ATOM     43  C   UNL     1      -0.335   7.086   6.550  1.00  0.00     0.102 C 
ATOM     44  C   UNL     1       0.594   8.312   6.544  1.00  0.00     0.020 C 
BRANCH  43  45
ATOM     45  C   UNL     1      -0.438   6.378   5.196  1.00  0.00     0.225 C 
ATOM     46  O   UNL     1      -1.351   5.610   4.908  1.00  0.00    -0.275 OA
ATOM     47  N   UNL     1       0.620   6.582   4.339  1.00  0.00    -0.342 N 
ATOM     48  H   UNL     1       1.278   7.325   4.525  1.00  0.00     0.164 HD
BRANCH  47  49
ATOM     49  C   UNL     1       0.641   5.996   2.995  1.00  0.00     0.192 C 
BRANCH  49  50
ATOM     50  C   UNL     1       2.065   6.042   2.436  1.00  0.00     0.047 C 
BRANCH  50  51
ATOM     51  C   UNL     1       3.013   6.858   3.325  1.00  0.00     0.103 C 
BRANCH  51  52
ATOM     52  C   UNL     1       3.002   8.343   2.965  1.00  0.00     0.226 C 
ATOM     53  O   UNL     1       2.243   9.109   3.561  1.00  0.00    -0.275 OA
BRANCH  52  54
ATOM     54  N   UNL     1       3.938   8.761   2.001  1.00  0.00    -0.311 N 
ATOM     55  C   UNL     1       5.285   9.195   2.394  1.00  0.00     0.153 C 
BRANCH  54  56
ATOM     56  C   UNL     1       3.624   8.774   0.632  1.00  0.00     0.102 C 
ATOM     57  C   UNL     1       2.627   9.484   0.079  1.00  0.00     0.043 C 
BRANCH  56  58
ATOM     58  C   UNL     1       4.450   7.990  -0.361  1.00  0.00     0.268 C 
ATOM     59  O   UNL     1       4.740   6.812  -0.207  1.00  0.00    -0.268 OA
ATOM     60  N   UNL     1       4.784   8.717  -1.479  1.00  0.00    -0.339 N 
ATOM     61  H   UNL     1       4.514   9.692  -1.524  1.00  0.00     0.164 HD
BRANCH  60  62
ATOM     62  C   UNL     1       5.528   8.133  -2.594  1.00  0.00     0.168 CG0
ATOM     63  C   UNL     1       6.573   9.107  -3.123  1.00  0.00     0.041 C 
ATOM     64  G   UNL     1       4.547   7.723  -3.712  1.00  0.00     0.000 G0
ENDBRANCH  60  62
ENDBRANCH  56  58
ENDBRANCH  54  56
ENDBRANCH  52  54
ENDBRANCH  51  52
ENDBRANCH  50  51
ENDBRANCH  49  50
BRANCH  49  65
ATOM     65  C   UNL     1      -0.305   6.739   2.038  1.00  0.00     0.326 C 
ATOM     66  O   UNL     1      -0.093   7.833   1.537  1.00  0.00    -0.250 OA
BRANCH  65  67
ATOM     67  O   UNL     1      -1.480   6.112   1.808  1.00  0.00    -0.480 OA
ATOM     68  H   UNL     1      -1.557   6.117   0.829  1.00  0.00     0.296 HD
ENDBRANCH  65  67
ENDBRANCH  49  65
ENDBRANCH  47  49
ENDBRANCH  43  45
ENDBRANCH   1  43
BRANCH   1  69
ATOM     69  C   UNL     1      -1.914   8.545   8.094  1.00  0.00    -0.001 C 
ATOM     70  C   UNL     1      -2.931   9.424   8.142  1.00  0.00     0.001 C 
BRANCH  70  71
ATOM     71  C   UNL     1      -3.093  10.531   9.087  1.00  0.00    -0.055 C 
ATOM     72  C   UNL     1      -3.203  10.227  10.397  1.00  0.00    -0.018 C 
ATOM     73  C   UNL     1      -3.116  11.931   8.530  1.00  0.00     0.044 C 
BRANCH  72  74
ATOM     74  C   UNL     1      -3.375  11.157  11.590  1.00  0.00     0.038 C 
ATOM     75  C   UNL     1      -2.059  11.132  12.376  1.00  0.00     0.015 C 
BRANCH  74  76
ATOM     76  C   UNL     1      -4.628  10.707  12.399  1.00  0.00     0.128 C 
BRANCH  76  77
ATOM     77  O   UNL     1      -5.676  11.681  12.262  1.00  0.00    -0.381 OA
ATOM     78  C   UNL     1      -6.961  11.192  12.623  1.00  0.00     0.195 C 
ENDBRANCH  76  77
BRANCH  76  79
ATOM     79  C   UNL     1      -5.101   9.267  12.077  1.00  0.00     0.068 C 
BRANCH  79  80
ATOM     80  C   UNL     1      -4.624   8.149  12.972  1.00  0.00    -0.045 A 
ATOM     81  C   UNL     1      -5.211   7.926  14.224  1.00  0.00     0.004 A 
ATOM     82  C   UNL     1      -3.558   7.329  12.572  1.00  0.00     0.004 A 
ATOM     83  C   UNL     1      -4.755   6.899  15.053  1.00  0.00     0.000 A 
ATOM     84  C   UNL     1      -3.102   6.302  13.401  1.00  0.00     0.000 A 
ATOM     85  C   UNL     1      -3.701   6.086  14.640  1.00  0.00     0.000 A 
ENDBRANCH  79  80
ENDBRANCH  76  79
ENDBRANCH  74  76
ENDBRANCH  72  74
ENDBRANCH  70  71
ENDBRANCH   1  69
TORSDOF 17
ENDMDL
MODEL 12
REMARK VINA RESULT:    -6.526      2.598     11.087
REMARK INTER + INTRA:         -26.726
REMARK INTER:                 -18.499
REMARK INTRA:                  -8.227
REMARK UNBOUND:                -7.229
REMARK SMILES C=C1C(=O)N[C@H](C)C(=O)N[C@@H](CC(C)C)C(=O)N[C@@H](C(=O)O)[C@H](C)C(=O)N[C@@H](CCCN=C(N)N)C(=O)N[C@@H](/C=C/C(C)=C/[C@H](C)[C@H](Cc2ccccc2)OC)[C@H](C)C(=O)N[C@@H](C(=O)O)CCC(=O)N1C
REMARK SMILES IDX 39 1 38 2 37 3 36 4 28 6 27 7 25 8 26 9 23 11 24 12 19 13
REMARK SMILES IDX 18 14 16 15 17 16 11 18 10 19 8 20 9 21 12 24 13 25 14 26
REMARK SMILES IDX 15 27 20 28 21 29 22 30 29 32 30 33 31 34 32 35 33 36 34 37
REMARK SMILES IDX 35 38 57 43 58 44 59 45 60 46 61 47 62 49 66 50 67 51 68 52
REMARK SMILES IDX 69 53 70 54 71 55 2 56 1 57 3 58 4 59 5 60 6 62 7 63 63 65
REMARK SMILES IDX 64 66 65 67 40 69 41 70 42 71 44 72 43 73 45 74 46 75 47 76
REMARK SMILES IDX 55 77 56 78 48 79 49 80 50 81 54 82 51 83 53 84 52 85
REMARK H PARENT 38 5 27 10 18 17 10 22 22 31 34 39 34 40 35 41 35 42 61 48
REMARK H PARENT 5 61 65 68
REMARK Flexibility Score:  369.900
ROOT
ATOM      1  C   UNL     1      -0.898   7.694   9.155  1.00  0.00     0.117 C 
ENDROOT
BRANCH   1   2
ATOM      2  N   UNL     1       0.393   8.346   8.930  1.00  0.00    -0.347 N 
ATOM      3  O   UNL     1       1.577   6.486   8.292  1.00  0.00    -0.273 OA
ATOM      4  C   UNL     1       1.507   7.703   8.427  1.00  0.00     0.243 C 
ATOM      5  H   UNL     1       0.482   9.337   9.099  1.00  0.00     0.164 HD
BRANCH   4   6
ATOM      6  C   UNL     1       2.720   8.642   8.202  1.00  0.00     0.171 C 
BRANCH   6   7
ATOM      7  N   UNL     1       3.875   7.880   7.701  1.00  0.00    -0.344 N 
ATOM      8  C   UNL     1       5.142   8.129   8.180  1.00  0.00     0.226 C 
ATOM      9  O   UNL     1       5.374   8.995   9.015  1.00  0.00    -0.275 OA
ATOM     10  H   UNL     1       3.732   7.202   6.963  1.00  0.00     0.164 HD
BRANCH   8  11
ATOM     11  C   UNL     1       6.217   7.223   7.606  1.00  0.00     0.109 C 
ATOM     12  C   UNL     1       5.576   6.050   6.864  1.00  0.00     0.021 C 
BRANCH  11  13
ATOM     13  C   UNL     1       7.208   8.056   6.768  1.00  0.00     0.204 C 
BRANCH  13  14
ATOM     14  N   UNL     1       6.522   8.959   5.839  1.00  0.00    -0.340 N 
ATOM     15  C   UNL     1       6.556   8.793   4.472  1.00  0.00     0.243 C 
ATOM     16  O   UNL     1       7.115   7.838   3.936  1.00  0.00    -0.273 OA
ATOM     17  H   UNL     1       6.171   9.849   6.205  1.00  0.00     0.164 HD
BRANCH  15  18
ATOM     18  C   UNL     1       5.940   9.979   3.689  1.00  0.00     0.171 C 
BRANCH  18  19
ATOM     19  N   UNL     1       7.042  10.880   3.358  1.00  0.00    -0.343 N 
ATOM     20  C   UNL     1       7.481  11.848   4.240  1.00  0.00     0.242 CG0
ATOM     21  O   UNL     1       6.882  12.085   5.287  1.00  0.00    -0.273 OA
ATOM     22  H   UNL     1       7.495  10.800   2.455  1.00  0.00     0.164 HD
ATOM     23  G   UNL     1       8.704  12.650   3.748  1.00  0.00     0.000 G0
ENDBRANCH  18  19
BRANCH  18  24
ATOM     24  C   UNL     1       5.223   9.481   2.428  1.00  0.00     0.038 C 
BRANCH  24  25
ATOM     25  C   UNL     1       5.977   9.750   1.109  1.00  0.00    -0.015 C 
ATOM     26  C   UNL     1       5.151  10.573   0.120  1.00  0.00     0.007 C 
ATOM     27  C   UNL     1       6.378   8.421   0.465  1.00  0.00     0.007 C 
ENDBRANCH  24  25
ENDBRANCH  18  24
ENDBRANCH  15  18
ENDBRANCH  13  14
BRANCH  13  28
ATOM     28  C   UNL     1       8.149   8.912   7.622  1.00  0.00     0.327 C 
ATOM     29  O   UNL     1       8.747   8.549   8.624  1.00  0.00    -0.250 OA
BRANCH  28  30
ATOM     30  O   UNL     1       8.189  10.202   7.233  1.00  0.00    -0.480 OA
ATOM     31  H   UNL     1       8.044  10.708   8.060  1.00  0.00     0.296 HD
ENDBRANCH  28  30
ENDBRANCH  13  28
ENDBRANCH  11  13
ENDBRANCH   8  11
ENDBRANCH   6   7
BRANCH   6  32
ATOM     32  C   UNL     1       2.325   9.748   7.217  1.00  0.00     0.037 C 
BRANCH  32  33
ATOM     33  C   UNL     1       3.004   9.576   5.851  1.00  0.00     0.026 C 
BRANCH  33  34
ATOM     34  C   UNL     1       2.144   8.785   4.865  1.00  0.00     0.146 C 
BRANCH  34  35
ATOM     35  N   UNL     1       2.737   7.468   4.677  1.00  0.00    -0.254 NA
ATOM     36  C   UNL     1       2.009   6.433   4.876  1.00  0.00     0.185 C 
ATOM     37  N   UNL     1       2.543   5.214   4.701  1.00  0.00    -0.370 N 
ATOM     38  N   UNL     1       0.720   6.366   5.254  1.00  0.00    -0.370 N 
ATOM     39  H   UNL     1       3.510   5.180   4.405  1.00  0.00     0.159 HD
ATOM     40  H   UNL     1       2.000   4.369   4.667  1.00  0.00     0.159 HD
ATOM     41  H   UNL     1       0.297   5.490   5.513  1.00  0.00     0.159 HD
ATOM     42  H   UNL     1       0.195   7.208   5.437  1.00  0.00     0.159 HD
ENDBRANCH  34  35
ENDBRANCH  33  34
ENDBRANCH  32  33
ENDBRANCH   6  32
ENDBRANCH   4   6
ENDBRANCH   1   2
BRANCH   1  43
ATOM     43  C   UNL     1      -1.827   8.003   7.946  1.00  0.00     0.102 C 
ATOM     44  C   UNL     1      -1.914   9.501   7.608  1.00  0.00     0.020 C 
BRANCH  43  45
ATOM     45  C   UNL     1      -3.189   7.323   8.111  1.00  0.00     0.225 C 
ATOM     46  O   UNL     1      -4.071   7.757   8.847  1.00  0.00    -0.275 OA
ATOM     47  N   UNL     1      -3.338   6.126   7.447  1.00  0.00    -0.342 N 
ATOM     48  H   UNL     1      -2.673   5.863   6.734  1.00  0.00     0.164 HD
BRANCH  47  49
ATOM     49  C   UNL     1      -4.601   5.382   7.485  1.00  0.00     0.192 C 
BRANCH  49  50
ATOM     50  C   UNL     1      -4.336   3.944   7.941  1.00  0.00     0.047 C 
BRANCH  50  51
ATOM     51  C   UNL     1      -4.797   3.698   9.384  1.00  0.00     0.103 C 
BRANCH  51  52
ATOM     52  C   UNL     1      -3.644   3.806  10.380  1.00  0.00     0.226 C 
ATOM     53  O   UNL     1      -2.787   4.678  10.229  1.00  0.00    -0.275 OA
BRANCH  52  54
ATOM     54  N   UNL     1      -3.679   2.925  11.478  1.00  0.00    -0.311 N 
ATOM     55  C   UNL     1      -3.271   3.369  12.817  1.00  0.00     0.153 C 
BRANCH  54  56
ATOM     56  C   UNL     1      -4.110   1.596  11.336  1.00  0.00     0.102 C 
ATOM     57  C   UNL     1      -3.578   0.702  10.486  1.00  0.00     0.043 C 
BRANCH  56  58
ATOM     58  C   UNL     1      -5.220   1.044  12.200  1.00  0.00     0.268 C 
ATOM     59  O   UNL     1      -6.393   1.367  12.069  1.00  0.00    -0.268 OA
ATOM     60  N   UNL     1      -4.786   0.099  13.098  1.00  0.00    -0.339 N 
ATOM     61  H   UNL     1      -3.795  -0.104  13.151  1.00  0.00     0.164 HD
BRANCH  60  62
ATOM     62  C   UNL     1      -5.705  -0.608  13.989  1.00  0.00     0.168 CG0
ATOM     63  C   UNL     1      -5.323  -0.396  15.449  1.00  0.00     0.041 C 
ATOM     64  G   UNL     1      -5.710  -2.111  13.639  1.00  0.00     0.000 G0
ENDBRANCH  60  62
ENDBRANCH  56  58
ENDBRANCH  54  56
ENDBRANCH  52  54
ENDBRANCH  51  52
ENDBRANCH  50  51
ENDBRANCH  49  50
BRANCH  49  65
ATOM     65  C   UNL     1      -5.288   5.361   6.111  1.00  0.00     0.326 C 
ATOM     66  O   UNL     1      -4.872   4.784   5.117  1.00  0.00    -0.250 OA
BRANCH  65  67
ATOM     67  O   UNL     1      -6.415   6.104   6.033  1.00  0.00    -0.480 OA
ATOM     68  H   UNL     1      -6.171   6.942   6.481  1.00  0.00     0.296 HD
ENDBRANCH  65  67
ENDBRANCH  49  65
ENDBRANCH  47  49
ENDBRANCH  43  45
ENDBRANCH   1  43
BRANCH   1  69
ATOM     69  C   UNL     1      -1.344   8.105  10.546  1.00  0.00    -0.001 C 
ATOM     70  C   UNL     1      -1.433   7.326  11.639  1.00  0.00     0.001 C 
BRANCH  70  71
ATOM     71  C   UNL     1      -1.845   7.739  12.982  1.00  0.00    -0.055 C 
ATOM     72  C   UNL     1      -3.132   7.538  13.334  1.00  0.00    -0.018 C 
ATOM     73  C   UNL     1      -0.801   8.352  13.879  1.00  0.00     0.044 C 
BRANCH  72  74
ATOM     74  C   UNL     1      -3.834   7.860  14.645  1.00  0.00     0.038 C 
ATOM     75  C   UNL     1      -4.123   6.525  15.343  1.00  0.00     0.015 C 
BRANCH  74  76
ATOM     76  C   UNL     1      -5.093   8.724  14.341  1.00  0.00     0.128 C 
BRANCH  76  77
ATOM     77  O   UNL     1      -6.122   8.450  15.307  1.00  0.00    -0.381 OA
ATOM     78  C   UNL     1      -7.219   9.351  15.244  1.00  0.00     0.195 C 
ENDBRANCH  76  77
BRANCH  76  79
ATOM     79  C   UNL     1      -4.797  10.238  14.195  1.00  0.00     0.068 C 
BRANCH  79  80
ATOM     80  C   UNL     1      -4.052  10.697  12.965  1.00  0.00    -0.045 A 
ATOM     81  C   UNL     1      -4.537  10.416  11.681  1.00  0.00     0.004 A 
ATOM     82  C   UNL     1      -2.840  11.394  13.090  1.00  0.00     0.004 A 
ATOM     83  C   UNL     1      -3.834  10.832  10.548  1.00  0.00     0.000 A 
ATOM     84  C   UNL     1      -2.139  11.809  11.956  1.00  0.00     0.000 A 
ATOM     85  C   UNL     1      -2.636  11.529  10.686  1.00  0.00     0.000 A 
ENDBRANCH  79  80
ENDBRANCH  76  79
ENDBRANCH  74  76
ENDBRANCH  72  74
ENDBRANCH  70  71
ENDBRANCH   1  69
TORSDOF 17
ENDMDL
MODEL 13
REMARK VINA RESULT:    -6.517      2.590     10.893
REMARK INTER + INTRA:         -26.701
REMARK INTER:                 -20.454
REMARK INTRA:                  -6.247
REMARK UNBOUND:                -7.229
REMARK SMILES C=C1C(=O)N[C@H](C)C(=O)N[C@@H](CC(C)C)C(=O)N[C@@H](C(=O)O)[C@H](C)C(=O)N[C@@H](CCCN=C(N)N)C(=O)N[C@@H](/C=C/C(C)=C/[C@H](C)[C@H](Cc2ccccc2)OC)[C@H](C)C(=O)N[C@@H](C(=O)O)CCC(=O)N1C
REMARK SMILES IDX 39 1 38 2 37 3 36 4 28 6 27 7 25 8 26 9 23 11 24 12 19 13
REMARK SMILES IDX 18 14 16 15 17 16 11 18 10 19 8 20 9 21 12 24 13 25 14 26
REMARK SMILES IDX 15 27 20 28 21 29 22 30 29 32 30 33 31 34 32 35 33 36 34 37
REMARK SMILES IDX 35 38 57 43 58 44 59 45 60 46 61 47 62 49 66 50 67 51 68 52
REMARK SMILES IDX 69 53 70 54 71 55 2 56 1 57 3 58 4 59 5 60 6 62 7 63 63 65
REMARK SMILES IDX 64 66 65 67 40 69 41 70 42 71 44 72 43 73 45 74 46 75 47 76
REMARK SMILES IDX 55 77 56 78 48 79 49 80 50 81 54 82 51 83 53 84 52 85
REMARK H PARENT 38 5 27 10 18 17 10 22 22 31 34 39 34 40 35 41 35 42 61 48
REMARK H PARENT 5 61 65 68
REMARK Flexibility Score:  369.900
ROOT
ATOM      1  C   UNL     1      -0.651   6.648   7.637  1.00  0.00     0.117 C 
ENDROOT
BRANCH   1   2
ATOM      2  N   UNL     1       0.237   7.634   7.019  1.00  0.00    -0.347 N 
ATOM      3  O   UNL     1       2.084   7.256   8.329  1.00  0.00    -0.273 OA
ATOM      4  C   UNL     1       1.567   7.795   7.356  1.00  0.00     0.243 C 
ATOM      5  H   UNL     1      -0.110   8.207   6.265  1.00  0.00     0.164 HD
BRANCH   4   6
ATOM      6  C   UNL     1       2.305   8.848   6.491  1.00  0.00     0.171 C 
BRANCH   6   7
ATOM      7  N   UNL     1       2.253   8.474   5.069  1.00  0.00    -0.344 N 
ATOM      8  C   UNL     1       3.206   7.641   4.526  1.00  0.00     0.226 C 
ATOM      9  O   UNL     1       4.142   7.195   5.179  1.00  0.00    -0.275 OA
ATOM     10  H   UNL     1       1.533   8.877   4.482  1.00  0.00     0.164 HD
BRANCH   8  11
ATOM     11  C   UNL     1       2.983   7.306   3.061  1.00  0.00     0.109 C 
ATOM     12  C   UNL     1       2.164   6.022   2.935  1.00  0.00     0.021 C 
BRANCH  11  13
ATOM     13  C   UNL     1       2.391   8.528   2.331  1.00  0.00     0.204 C 
BRANCH  13  14
ATOM     14  N   UNL     1       3.338   9.113   1.377  1.00  0.00    -0.340 N 
ATOM     15  C   UNL     1       4.118   8.352   0.534  1.00  0.00     0.243 C 
ATOM     16  O   UNL     1       4.030   7.126   0.480  1.00  0.00    -0.273 OA
ATOM     17  H   UNL     1       3.568  10.105   1.476  1.00  0.00     0.164 HD
BRANCH  15  18
ATOM     18  C   UNL     1       5.186   9.172  -0.230  1.00  0.00     0.171 C 
BRANCH  18  19
ATOM     19  N   UNL     1       4.824   9.115  -1.645  1.00  0.00    -0.343 N 
ATOM     20  C   UNL     1       5.536   8.350  -2.549  1.00  0.00     0.242 CG0
ATOM     21  O   UNL     1       6.583   7.790  -2.233  1.00  0.00    -0.273 OA
ATOM     22  H   UNL     1       4.033   9.654  -1.979  1.00  0.00     0.164 HD
ATOM     23  G   UNL     1       4.959   8.352  -3.979  1.00  0.00     0.000 G0
ENDBRANCH  18  19
BRANCH  18  24
ATOM     24  C   UNL     1       5.226  10.617   0.281  1.00  0.00     0.038 C 
BRANCH  24  25
ATOM     25  C   UNL     1       6.571  11.040   0.911  1.00  0.00    -0.015 C 
ATOM     26  C   UNL     1       6.499  12.416   1.573  1.00  0.00     0.007 C 
ATOM     27  C   UNL     1       7.664  11.040  -0.161  1.00  0.00     0.007 C 
ENDBRANCH  24  25
ENDBRANCH  18  24
ENDBRANCH  15  18
ENDBRANCH  13  14
BRANCH  13  28
ATOM     28  C   UNL     1       1.108   8.205   1.558  1.00  0.00     0.327 C 
ATOM     29  O   UNL     1       1.019   8.009   0.356  1.00  0.00    -0.250 OA
BRANCH  28  30
ATOM     30  O   UNL     1      -0.000   8.267   2.323  1.00  0.00    -0.480 OA
ATOM     31  H   UNL     1      -0.671   8.684   1.743  1.00  0.00     0.296 HD
ENDBRANCH  28  30
ENDBRANCH  13  28
ENDBRANCH  11  13
ENDBRANCH   8  11
ENDBRANCH   6   7
BRANCH   6  32
ATOM     32  C   UNL     1       1.668  10.223   6.720  1.00  0.00     0.037 C 
BRANCH  32  33
ATOM     33  C   UNL     1       1.040  10.791   5.439  1.00  0.00     0.026 C 
BRANCH  33  34
ATOM     34  C   UNL     1       0.106  11.970   5.718  1.00  0.00     0.146 C 
BRANCH  34  35
ATOM     35  N   UNL     1      -1.223  11.456   6.018  1.00  0.00    -0.254 NA
ATOM     36  C   UNL     1      -2.236  12.212   5.811  1.00  0.00     0.185 C 
ATOM     37  N   UNL     1      -3.465  11.747   6.080  1.00  0.00    -0.370 N 
ATOM     38  N   UNL     1      -2.267  13.471   5.339  1.00  0.00    -0.370 N 
ATOM     39  H   UNL     1      -3.526  10.799   6.430  1.00  0.00     0.159 HD
ATOM     40  H   UNL     1      -4.310  12.206   5.785  1.00  0.00     0.159 HD
ATOM     41  H   UNL     1      -3.117  14.011   5.352  1.00  0.00     0.159 HD
ATOM     42  H   UNL     1      -1.412  13.954   5.109  1.00  0.00     0.159 HD
ENDBRANCH  34  35
ENDBRANCH  33  34
ENDBRANCH  32  33
ENDBRANCH   6  32
ENDBRANCH   4   6
ENDBRANCH   1   2
BRANCH   1  43
ATOM     43  C   UNL     1      -1.333   5.821   6.509  1.00  0.00     0.102 C 
ATOM     44  C   UNL     1      -0.762   6.107   5.109  1.00  0.00     0.020 C 
BRANCH  43  45
ATOM     45  C   UNL     1      -2.859   5.931   6.592  1.00  0.00     0.225 C 
ATOM     46  O   UNL     1      -3.494   6.846   6.077  1.00  0.00    -0.275 OA
ATOM     47  N   UNL     1      -3.480   4.980   7.369  1.00  0.00    -0.342 N 
ATOM     48  H   UNL     1      -2.969   4.157   7.656  1.00  0.00     0.164 HD
BRANCH  47  49
ATOM     49  C   UNL     1      -4.938   4.940   7.511  1.00  0.00     0.192 C 
BRANCH  49  50
ATOM     50  C   UNL     1      -5.309   4.236   8.819  1.00  0.00     0.047 C 
BRANCH  50  51
ATOM     51  C   UNL     1      -4.574   4.829  10.028  1.00  0.00     0.103 C 
BRANCH  51  52
ATOM     52  C   UNL     1      -3.513   3.878  10.578  1.00  0.00     0.226 C 
ATOM     53  O   UNL     1      -2.951   3.086   9.819  1.00  0.00    -0.275 OA
BRANCH  52  54
ATOM     54  N   UNL     1      -3.185   4.024  11.939  1.00  0.00    -0.311 N 
ATOM     55  C   UNL     1      -3.099   2.856  12.826  1.00  0.00     0.153 C 
BRANCH  54  56
ATOM     56  C   UNL     1      -2.923   5.286  12.497  1.00  0.00     0.102 C 
ATOM     57  C   UNL     1      -1.981   6.139  12.061  1.00  0.00     0.043 C 
BRANCH  56  58
ATOM     58  C   UNL     1      -3.748   5.811  13.649  1.00  0.00     0.268 C 
ATOM     59  O   UNL     1      -3.683   5.353  14.782  1.00  0.00    -0.268 OA
ATOM     60  N   UNL     1      -4.525   6.892  13.308  1.00  0.00    -0.339 N 
ATOM     61  H   UNL     1      -4.530   7.204  12.345  1.00  0.00     0.164 HD
BRANCH  60  62
ATOM     62  C   UNL     1      -5.354   7.594  14.287  1.00  0.00     0.168 CG0
ATOM     63  C   UNL     1      -4.588   8.742  14.930  1.00  0.00     0.041 C 
ATOM     64  G   UNL     1      -5.846   6.598  15.357  1.00  0.00     0.000 G0
ENDBRANCH  60  62
ENDBRANCH  56  58
ENDBRANCH  54  56
ENDBRANCH  52  54
ENDBRANCH  51  52
ENDBRANCH  50  51
ENDBRANCH  49  50
BRANCH  49  65
ATOM     65  C   UNL     1      -5.603   4.210   6.333  1.00  0.00     0.326 C 
ATOM     66  O   UNL     1      -6.571   4.610   5.704  1.00  0.00    -0.250 OA
BRANCH  65  67
ATOM     67  O   UNL     1      -5.068   3.003   6.045  1.00  0.00    -0.480 OA
ATOM     68  H   UNL     1      -4.234   3.225   5.577  1.00  0.00     0.296 HD
ENDBRANCH  65  67
ENDBRANCH  49  65
ENDBRANCH  47  49
ENDBRANCH  43  45
ENDBRANCH   1  43
BRANCH   1  69
ATOM     69  C   UNL     1      -1.523   7.415   8.613  1.00  0.00    -0.001 C 
ATOM     70  C   UNL     1      -2.055   8.639   8.446  1.00  0.00     0.001 C 
BRANCH  70  71
ATOM     71  C   UNL     1      -2.913   9.361   9.388  1.00  0.00    -0.055 C 
ATOM     72  C   UNL     1      -2.731  10.693   9.508  1.00  0.00    -0.018 C 
ATOM     73  C   UNL     1      -3.943   8.568  10.149  1.00  0.00     0.044 C 
BRANCH  72  74
ATOM     74  C   UNL     1      -3.467  11.689  10.393  1.00  0.00     0.038 C 
ATOM     75  C   UNL     1      -4.018  12.788   9.476  1.00  0.00     0.015 C 
BRANCH  74  76
ATOM     76  C   UNL     1      -2.494  12.191  11.500  1.00  0.00     0.128 C 
BRANCH  76  77
ATOM     77  O   UNL     1      -3.223  12.921  12.501  1.00  0.00    -0.381 OA
ATOM     78  C   UNL     1      -4.170  12.131  13.208  1.00  0.00     0.195 C 
ENDBRANCH  76  77
BRANCH  76  79
ATOM     79  C   UNL     1      -1.599  11.078  12.103  1.00  0.00     0.068 C 
BRANCH  79  80
ATOM     80  C   UNL     1      -0.239  10.854  11.488  1.00  0.00    -0.045 A 
ATOM     81  C   UNL     1       0.338   9.578  11.457  1.00  0.00     0.004 A 
ATOM     82  C   UNL     1       0.485  11.934  10.960  1.00  0.00     0.004 A 
ATOM     83  C   UNL     1       1.603   9.381  10.900  1.00  0.00     0.000 A 
ATOM     84  C   UNL     1       1.751  11.736  10.403  1.00  0.00     0.000 A 
ATOM     85  C   UNL     1       2.309  10.461  10.372  1.00  0.00     0.000 A 
ENDBRANCH  79  80
ENDBRANCH  76  79
ENDBRANCH  74  76
ENDBRANCH  72  74
ENDBRANCH  70  71
ENDBRANCH   1  69
TORSDOF 17
ENDMDL
MODEL 14
REMARK VINA RESULT:    -6.513      3.972     10.447
REMARK INTER + INTRA:         -26.687
REMARK INTER:                 -18.560
REMARK INTRA:                  -8.128
REMARK UNBOUND:                -7.229
REMARK SMILES C=C1C(=O)N[C@H](C)C(=O)N[C@@H](CC(C)C)C(=O)N[C@@H](C(=O)O)[C@H](C)C(=O)N[C@@H](CCCN=C(N)N)C(=O)N[C@@H](/C=C/C(C)=C/[C@H](C)[C@H](Cc2ccccc2)OC)[C@H](C)C(=O)N[C@@H](C(=O)O)CCC(=O)N1C
REMARK SMILES IDX 39 1 38 2 37 3 36 4 28 6 27 7 25 8 26 9 23 11 24 12 19 13
REMARK SMILES IDX 18 14 16 15 17 16 11 18 10 19 8 20 9 21 12 24 13 25 14 26
REMARK SMILES IDX 15 27 20 28 21 29 22 30 29 32 30 33 31 34 32 35 33 36 34 37
REMARK SMILES IDX 35 38 57 43 58 44 59 45 60 46 61 47 62 49 66 50 67 51 68 52
REMARK SMILES IDX 69 53 70 54 71 55 2 56 1 57 3 58 4 59 5 60 6 62 7 63 63 65
REMARK SMILES IDX 64 66 65 67 40 69 41 70 42 71 44 72 43 73 45 74 46 75 47 76
REMARK SMILES IDX 55 77 56 78 48 79 49 80 50 81 54 82 51 83 53 84 52 85
REMARK H PARENT 38 5 27 10 18 17 10 22 22 31 34 39 34 40 35 41 35 42 61 48
REMARK H PARENT 5 61 65 68
REMARK Flexibility Score:  369.900
ROOT
ATOM      1  C   UNL     1      -3.647   5.743   7.306  1.00  0.00     0.117 C 
ENDROOT
BRANCH   1   2
ATOM      2  N   UNL     1      -3.381   5.810   8.744  1.00  0.00    -0.347 N 
ATOM      3  O   UNL     1      -4.081   7.968   9.092  1.00  0.00    -0.273 OA
ATOM      4  C   UNL     1      -3.706   6.890   9.541  1.00  0.00     0.243 C 
ATOM      5  H   UNL     1      -2.982   5.009   9.210  1.00  0.00     0.164 HD
BRANCH   4   6
ATOM      6  C   UNL     1      -3.396   6.671  11.044  1.00  0.00     0.171 C 
BRANCH   6   7
ATOM      7  N   UNL     1      -4.336   7.435  11.880  1.00  0.00    -0.344 N 
ATOM      8  C   UNL     1      -3.914   8.547  12.575  1.00  0.00     0.226 C 
ATOM      9  O   UNL     1      -2.753   8.937  12.554  1.00  0.00    -0.275 OA
ATOM     10  H   UNL     1      -5.288   7.104  11.976  1.00  0.00     0.164 HD
BRANCH   8  11
ATOM     11  C   UNL     1      -5.013   9.257  13.346  1.00  0.00     0.109 C 
ATOM     12  C   UNL     1      -4.741   9.171  14.848  1.00  0.00     0.021 C 
BRANCH  11  13
ATOM     13  C   UNL     1      -5.192  10.688  12.801  1.00  0.00     0.204 C 
BRANCH  13  14
ATOM     14  N   UNL     1      -4.738  10.810  11.412  1.00  0.00    -0.340 N 
ATOM     15  C   UNL     1      -3.924  11.834  10.978  1.00  0.00     0.243 C 
ATOM     16  O   UNL     1      -3.472  12.686  11.740  1.00  0.00    -0.273 OA
ATOM     17  H   UNL     1      -5.195  10.229  10.705  1.00  0.00     0.164 HD
BRANCH  15  18
ATOM     18  C   UNL     1      -3.748  11.874   9.440  1.00  0.00     0.171 C 
BRANCH  18  19
ATOM     19  N   UNL     1      -4.043  13.242   9.020  1.00  0.00    -0.343 N 
ATOM     20  C   UNL     1      -4.602  13.522   7.788  1.00  0.00     0.242 CG0
ATOM     21  O   UNL     1      -4.753  12.649   6.937  1.00  0.00    -0.273 OA
ATOM     22  H   UNL     1      -3.828  14.011   9.645  1.00  0.00     0.164 HD
ATOM     23  G   UNL     1      -4.914  15.015   7.555  1.00  0.00     0.000 G0
ENDBRANCH  18  19
BRANCH  18  24
ATOM     24  C   UNL     1      -2.324  11.460   9.047  1.00  0.00     0.038 C 
BRANCH  24  25
ATOM     25  C   UNL     1      -1.382  12.635   8.710  1.00  0.00    -0.015 C 
ATOM     26  C   UNL     1      -0.767  12.510   7.315  1.00  0.00     0.007 C 
ATOM     27  C   UNL     1      -0.269  12.720   9.758  1.00  0.00     0.007 C 
ENDBRANCH  24  25
ENDBRANCH  18  24
ENDBRANCH  15  18
ENDBRANCH  13  14
BRANCH  13  28
ATOM     28  C   UNL     1      -6.643  11.175  12.848  1.00  0.00     0.327 C 
ATOM     29  O   UNL     1      -7.481  10.871  13.684  1.00  0.00    -0.250 OA
BRANCH  28  30
ATOM     30  O   UNL     1      -6.987  11.919  11.777  1.00  0.00    -0.480 OA
ATOM     31  H   UNL     1      -7.301  12.763  12.161  1.00  0.00     0.296 HD
ENDBRANCH  28  30
ENDBRANCH  13  28
ENDBRANCH  11  13
ENDBRANCH   8  11
ENDBRANCH   6   7
BRANCH   6  32
ATOM     32  C   UNL     1      -3.475   5.173  11.361  1.00  0.00     0.037 C 
BRANCH  32  33
ATOM     33  C   UNL     1      -3.812   4.910  12.835  1.00  0.00     0.026 C 
BRANCH  33  34
ATOM     34  C   UNL     1      -3.751   3.424  13.193  1.00  0.00     0.146 C 
BRANCH  34  35
ATOM     35  N   UNL     1      -4.729   2.706  12.386  1.00  0.00    -0.254 NA
ATOM     36  C   UNL     1      -5.933   2.618  12.815  1.00  0.00     0.185 C 
ATOM     37  N   UNL     1      -6.843   1.963  12.077  1.00  0.00    -0.370 N 
ATOM     38  N   UNL     1      -6.463   3.106  13.950  1.00  0.00    -0.370 N 
ATOM     39  H   UNL     1      -6.522   1.575  11.199  1.00  0.00     0.159 HD
ATOM     40  H   UNL     1      -7.832   1.999  12.254  1.00  0.00     0.159 HD
ATOM     41  H   UNL     1      -7.392   2.850  14.243  1.00  0.00     0.159 HD
ATOM     42  H   UNL     1      -5.890   3.608  14.610  1.00  0.00     0.159 HD
ENDBRANCH  34  35
ENDBRANCH  33  34
ENDBRANCH  32  33
ENDBRANCH   6  32
ENDBRANCH   4   6
ENDBRANCH   1   2
BRANCH   1  43
ATOM     43  C   UNL     1      -4.155   4.313   6.962  1.00  0.00     0.102 C 
ATOM     44  C   UNL     1      -5.489   4.306   6.196  1.00  0.00     0.020 C 
BRANCH  43  45
ATOM     45  C   UNL     1      -4.146   3.413   8.201  1.00  0.00     0.225 C 
ATOM     46  O   UNL     1      -5.041   3.418   9.041  1.00  0.00    -0.275 OA
ATOM     47  N   UNL     1      -3.012   2.652   8.372  1.00  0.00    -0.342 N 
ATOM     48  H   UNL     1      -2.362   2.544   7.606  1.00  0.00     0.164 HD
BRANCH  47  49
ATOM     49  C   UNL     1      -2.878   1.717   9.493  1.00  0.00     0.192 C 
BRANCH  49  50
ATOM     50  C   UNL     1      -1.419   1.674   9.955  1.00  0.00     0.047 C 
BRANCH  50  51
ATOM     51  C   UNL     1      -0.467   1.234   8.834  1.00  0.00     0.103 C 
BRANCH  51  52
ATOM     52  C   UNL     1       0.374   0.025   9.238  1.00  0.00     0.226 C 
ATOM     53  O   UNL     1      -0.183  -1.006   9.620  1.00  0.00    -0.275 OA
BRANCH  52  54
ATOM     54  N   UNL     1       1.766   0.146   9.070  1.00  0.00    -0.311 N 
ATOM     55  C   UNL     1       2.523   1.195   9.765  1.00  0.00     0.153 C 
BRANCH  54  56
ATOM     56  C   UNL     1       2.483  -0.733   8.241  1.00  0.00     0.102 C 
ATOM     57  C   UNL     1       2.623  -0.592   6.912  1.00  0.00     0.043 C 
BRANCH  56  58
ATOM     58  C   UNL     1       3.214  -1.922   8.818  1.00  0.00     0.268 C 
ATOM     59  O   UNL     1       4.226  -1.819   9.499  1.00  0.00    -0.268 OA
ATOM     60  N   UNL     1       2.591  -3.118   8.557  1.00  0.00    -0.339 N 
ATOM     61  H   UNL     1       1.761  -3.119   7.976  1.00  0.00     0.164 HD
BRANCH  60  62
ATOM     62  C   UNL     1       3.095  -4.389   9.076  1.00  0.00     0.168 CG0
ATOM     63  C   UNL     1       4.039  -5.051   8.079  1.00  0.00     0.041 C 
ATOM     64  G   UNL     1       1.910  -5.320   9.406  1.00  0.00     0.000 G0
ENDBRANCH  60  62
ENDBRANCH  56  58
ENDBRANCH  54  56
ENDBRANCH  52  54
ENDBRANCH  51  52
ENDBRANCH  50  51
ENDBRANCH  49  50
BRANCH  49  65
ATOM     65  C   UNL     1      -3.332   0.301   9.108  1.00  0.00     0.326 C 
ATOM     66  O   UNL     1      -3.821  -0.021   8.034  1.00  0.00    -0.250 OA
BRANCH  65  67
ATOM     67  O   UNL     1      -3.211  -0.618  10.091  1.00  0.00    -0.480 OA
ATOM     68  H   UNL     1      -2.338  -1.030   9.916  1.00  0.00     0.296 HD
ENDBRANCH  65  67
ENDBRANCH  49  65
ENDBRANCH  47  49
ENDBRANCH  43  45
ENDBRANCH   1  43
BRANCH   1  69
ATOM     69  C   UNL     1      -2.398   6.263   6.619  1.00  0.00    -0.001 C 
ATOM     70  C   UNL     1      -1.632   5.619   5.721  1.00  0.00     0.001 C 
BRANCH  70  71
ATOM     71  C   UNL     1      -0.439   6.139   5.048  1.00  0.00    -0.055 C 
ATOM     72  C   UNL     1       0.556   6.624   5.821  1.00  0.00    -0.018 C 
ATOM     73  C   UNL     1      -0.404   6.089   3.543  1.00  0.00     0.044 C 
BRANCH  72  74
ATOM     74  C   UNL     1       1.895   7.217   5.406  1.00  0.00     0.038 C 
ATOM     75  C   UNL     1       2.964   6.600   6.316  1.00  0.00     0.015 C 
BRANCH  74  76
ATOM     76  C   UNL     1       1.797   8.770   5.474  1.00  0.00     0.128 C 
BRANCH  76  77
ATOM     77  O   UNL     1       1.671   9.312   4.148  1.00  0.00    -0.381 OA
ATOM     78  C   UNL     1       2.577   8.744   3.211  1.00  0.00     0.195 C 
ENDBRANCH  76  77
BRANCH  76  79
ATOM     79  C   UNL     1       0.703   9.290   6.440  1.00  0.00     0.068 C 
BRANCH  79  80
ATOM     80  C   UNL     1       1.053   9.412   7.904  1.00  0.00    -0.045 A 
ATOM     81  C   UNL     1       0.230   8.855   8.891  1.00  0.00     0.004 A 
ATOM     82  C   UNL     1       2.201  10.115   8.300  1.00  0.00     0.004 A 
ATOM     83  C   UNL     1       0.553   8.985  10.244  1.00  0.00     0.000 A 
ATOM     84  C   UNL     1       2.522  10.245   9.653  1.00  0.00     0.000 A 
ATOM     85  C   UNL     1       1.700   9.679  10.624  1.00  0.00     0.000 A 
ENDBRANCH  79  80
ENDBRANCH  76  79
ENDBRANCH  74  76
ENDBRANCH  72  74
ENDBRANCH  70  71
ENDBRANCH   1  69
TORSDOF 17
ENDMDL
MODEL 15
REMARK VINA RESULT:    -6.510      2.416      3.717
REMARK INTER + INTRA:         -26.679
REMARK INTER:                 -18.643
REMARK INTRA:                  -8.036
REMARK UNBOUND:                -7.229
REMARK SMILES C=C1C(=O)N[C@H](C)C(=O)N[C@@H](CC(C)C)C(=O)N[C@@H](C(=O)O)[C@H](C)C(=O)N[C@@H](CCCN=C(N)N)C(=O)N[C@@H](/C=C/C(C)=C/[C@H](C)[C@H](Cc2ccccc2)OC)[C@H](C)C(=O)N[C@@H](C(=O)O)CCC(=O)N1C
REMARK SMILES IDX 39 1 38 2 37 3 36 4 28 6 27 7 25 8 26 9 23 11 24 12 19 13
REMARK SMILES IDX 18 14 16 15 17 16 11 18 10 19 8 20 9 21 12 24 13 25 14 26
REMARK SMILES IDX 15 27 20 28 21 29 22 30 29 32 30 33 31 34 32 35 33 36 34 37
REMARK SMILES IDX 35 38 57 43 58 44 59 45 60 46 61 47 62 49 66 50 67 51 68 52
REMARK SMILES IDX 69 53 70 54 71 55 2 56 1 57 3 58 4 59 5 60 6 62 7 63 63 65
REMARK SMILES IDX 64 66 65 67 40 69 41 70 42 71 44 72 43 73 45 74 46 75 47 76
REMARK SMILES IDX 55 77 56 78 48 79 49 80 50 81 54 82 51 83 53 84 52 85
REMARK H PARENT 38 5 27 10 18 17 10 22 22 31 34 39 34 40 35 41 35 42 61 48
REMARK H PARENT 5 61 65 68
REMARK Flexibility Score:  369.900
ROOT
ATOM      1  C   UNL     1       0.737   9.211   6.376  1.00  0.00     0.117 C 
ENDROOT
BRANCH   1   2
ATOM      2  N   UNL     1       0.714   7.913   7.050  1.00  0.00    -0.347 N 
ATOM      3  O   UNL     1      -0.642   6.811   5.561  1.00  0.00    -0.273 OA
ATOM      4  C   UNL     1       0.098   6.787   6.538  1.00  0.00     0.243 C 
ATOM      5  H   UNL     1       1.213   7.798   7.919  1.00  0.00     0.164 HD
BRANCH   4   6
ATOM      6  C   UNL     1       0.295   5.519   7.408  1.00  0.00     0.171 C 
BRANCH   6   7
ATOM      7  N   UNL     1      -0.948   4.733   7.460  1.00  0.00    -0.344 N 
ATOM      8  C   UNL     1      -1.382   4.183   8.647  1.00  0.00     0.226 C 
ATOM      9  O   UNL     1      -0.758   4.297   9.695  1.00  0.00    -0.275 OA
ATOM     10  H   UNL     1      -1.455   4.560   6.602  1.00  0.00     0.164 HD
BRANCH   8  11
ATOM     11  C   UNL     1      -2.707   3.448   8.548  1.00  0.00     0.109 C 
ATOM     12  C   UNL     1      -2.608   2.089   9.241  1.00  0.00     0.021 C 
BRANCH  11  13
ATOM     13  C   UNL     1      -3.846   4.354   9.057  1.00  0.00     0.204 C 
BRANCH  13  14
ATOM     14  N   UNL     1      -3.509   4.999  10.330  1.00  0.00    -0.340 N 
ATOM     15  C   UNL     1      -3.951   4.528  11.548  1.00  0.00     0.243 C 
ATOM     16  O   UNL     1      -4.609   3.496  11.657  1.00  0.00    -0.273 OA
ATOM     17  H   UNL     1      -3.098   5.936  10.299  1.00  0.00     0.164 HD
BRANCH  15  18
ATOM     18  C   UNL     1      -3.647   5.484  12.727  1.00  0.00     0.171 C 
BRANCH  18  19
ATOM     19  N   UNL     1      -3.472   4.645  13.911  1.00  0.00    -0.343 N 
ATOM     20  C   UNL     1      -4.235   4.824  15.050  1.00  0.00     0.242 CG0
ATOM     21  O   UNL     1      -5.000   5.777  15.168  1.00  0.00    -0.273 OA
ATOM     22  H   UNL     1      -2.769   3.915  13.904  1.00  0.00     0.164 HD
ATOM     23  G   UNL     1      -3.963   3.794  16.166  1.00  0.00     0.000 G0
ENDBRANCH  18  19
BRANCH  18  24
ATOM     24  C   UNL     1      -2.392   6.318  12.439  1.00  0.00     0.038 C 
BRANCH  24  25
ATOM     25  C   UNL     1      -2.491   7.798  12.865  1.00  0.00    -0.015 C 
ATOM     26  C   UNL     1      -1.968   8.035  14.283  1.00  0.00     0.007 C 
ATOM     27  C   UNL     1      -3.945   8.267  12.767  1.00  0.00     0.007 C 
ENDBRANCH  24  25
ENDBRANCH  18  24
ENDBRANCH  15  18
ENDBRANCH  13  14
BRANCH  13  28
ATOM     28  C   UNL     1      -4.222   5.463   8.071  1.00  0.00     0.327 C 
ATOM     29  O   UNL     1      -4.115   5.416   6.855  1.00  0.00    -0.250 OA
BRANCH  28  30
ATOM     30  O   UNL     1      -4.596   6.607   8.679  1.00  0.00    -0.480 OA
ATOM     31  H   UNL     1      -4.756   7.231   7.941  1.00  0.00     0.296 HD
ENDBRANCH  28  30
ENDBRANCH  13  28
ENDBRANCH  11  13
ENDBRANCH   8  11
ENDBRANCH   6   7
BRANCH   6  32
ATOM     32  C   UNL     1       1.446   4.687   6.832  1.00  0.00     0.037 C 
BRANCH  32  33
ATOM     33  C   UNL     1       2.143   5.395   5.662  1.00  0.00     0.026 C 
BRANCH  33  34
ATOM     34  C   UNL     1       3.568   4.887   5.436  1.00  0.00     0.146 C 
BRANCH  34  35
ATOM     35  N   UNL     1       4.306   4.985   6.688  1.00  0.00    -0.254 NA
ATOM     36  C   UNL     1       5.213   5.883   6.797  1.00  0.00     0.185 C 
ATOM     37  N   UNL     1       5.896   5.986   7.948  1.00  0.00    -0.370 N 
ATOM     38  N   UNL     1       5.614   6.793   5.892  1.00  0.00    -0.370 N 
ATOM     39  H   UNL     1       5.643   5.340   8.685  1.00  0.00     0.159 HD
ATOM     40  H   UNL     1       6.492   6.764   8.173  1.00  0.00     0.159 HD
ATOM     41  H   UNL     1       6.435   7.356   6.048  1.00  0.00     0.159 HD
ATOM     42  H   UNL     1       5.198   6.822   4.974  1.00  0.00     0.159 HD
ENDBRANCH  34  35
ENDBRANCH  33  34
ENDBRANCH  32  33
ENDBRANCH   6  32
ENDBRANCH   4   6
ENDBRANCH   1   2
BRANCH   1  43
ATOM     43  C   UNL     1       2.196   9.510   5.926  1.00  0.00     0.102 C 
ATOM     44  C   UNL     1       2.528  11.011   5.883  1.00  0.00     0.020 C 
BRANCH  43  45
ATOM     45  C   UNL     1       2.538   8.760   4.635  1.00  0.00     0.225 C 
ATOM     46  O   UNL     1       3.680   8.419   4.340  1.00  0.00    -0.275 OA
ATOM     47  N   UNL     1       1.489   8.569   3.765  1.00  0.00    -0.342 N 
ATOM     48  H   UNL     1       0.542   8.716   4.084  1.00  0.00     0.164 HD
BRANCH  47  49
ATOM     49  C   UNL     1       1.661   7.836   2.507  1.00  0.00     0.192 C 
BRANCH  49  50
ATOM     50  C   UNL     1       1.609   8.815   1.331  1.00  0.00     0.047 C 
BRANCH  50  51
ATOM     51  C   UNL     1       2.326   8.269   0.088  1.00  0.00     0.103 C 
BRANCH  51  52
ATOM     52  C   UNL     1       3.635   7.567   0.443  1.00  0.00     0.226 C 
ATOM     53  O   UNL     1       3.639   6.352   0.649  1.00  0.00    -0.275 OA
BRANCH  52  54
ATOM     54  N   UNL     1       4.795   8.364   0.437  1.00  0.00    -0.311 N 
ATOM     55  C   UNL     1       5.581   8.563   1.662  1.00  0.00     0.153 C 
BRANCH  54  56
ATOM     56  C   UNL     1       5.246   8.992  -0.735  1.00  0.00     0.102 C 
ATOM     57  C   UNL     1       5.159   8.469  -1.969  1.00  0.00     0.043 C 
BRANCH  56  58
ATOM     58  C   UNL     1       5.847  10.377  -0.691  1.00  0.00     0.268 C 
ATOM     59  O   UNL     1       5.233  11.361  -0.299  1.00  0.00    -0.268 OA
ATOM     60  N   UNL     1       7.167  10.406  -1.071  1.00  0.00    -0.339 N 
ATOM     61  H   UNL     1       7.601   9.549  -1.392  1.00  0.00     0.164 HD
BRANCH  60  62
ATOM     62  C   UNL     1       7.959  11.635  -1.042  1.00  0.00     0.168 CG0
ATOM     63  C   UNL     1       9.450  11.324  -0.980  1.00  0.00     0.041 C 
ATOM     64  G   UNL     1       7.531  12.498   0.163  1.00  0.00     0.000 G0
ENDBRANCH  60  62
ENDBRANCH  56  58
ENDBRANCH  54  56
ENDBRANCH  52  54
ENDBRANCH  51  52
ENDBRANCH  50  51
ENDBRANCH  49  50
BRANCH  49  65
ATOM     65  C   UNL     1       0.576   6.763   2.324  1.00  0.00     0.326 C 
ATOM     66  O   UNL     1       0.742   5.558   2.446  1.00  0.00    -0.250 OA
BRANCH  65  67
ATOM     67  O   UNL     1      -0.630   7.239   1.943  1.00  0.00    -0.480 OA
ATOM     68  H   UNL     1      -1.248   6.510   2.169  1.00  0.00     0.296 HD
ENDBRANCH  65  67
ENDBRANCH  49  65
ENDBRANCH  47  49
ENDBRANCH  43  45
ENDBRANCH   1  43
BRANCH   1  69
ATOM     69  C   UNL     1       0.043  10.186   7.309  1.00  0.00    -0.001 C 
ATOM     70  C   UNL     1      -1.270  10.470   7.365  1.00  0.00     0.001 C 
BRANCH  70  71
ATOM     71  C   UNL     1      -1.931  11.397   8.285  1.00  0.00    -0.055 C 
ATOM     72  C   UNL     1      -2.725  10.873   9.243  1.00  0.00    -0.018 C 
ATOM     73  C   UNL     1      -1.673  12.870   8.104  1.00  0.00     0.044 C 
BRANCH  72  74
ATOM     74  C   UNL     1      -3.526  11.582  10.326  1.00  0.00     0.038 C 
ATOM     75  C   UNL     1      -4.413  12.618   9.626  1.00  0.00     0.015 C 
BRANCH  74  76
ATOM     76  C   UNL     1      -2.537  12.171  11.375  1.00  0.00     0.128 C 
BRANCH  76  77
ATOM     77  O   UNL     1      -3.261  12.927  12.361  1.00  0.00    -0.381 OA
ATOM     78  C   UNL     1      -4.092  12.130  13.195  1.00  0.00     0.195 C 
ENDBRANCH  76  77
BRANCH  76  79
ATOM     79  C   UNL     1      -1.588  11.120  12.004  1.00  0.00     0.068 C 
BRANCH  79  80
ATOM     80  C   UNL     1      -0.235  10.919  11.366  1.00  0.00    -0.045 A 
ATOM     81  C   UNL     1       0.302   9.635  11.202  1.00  0.00     0.004 A 
ATOM     82  C   UNL     1       0.523  12.024  10.950  1.00  0.00     0.004 A 
ATOM     83  C   UNL     1       1.561   9.458  10.623  1.00  0.00     0.000 A 
ATOM     84  C   UNL     1       1.782  11.846  10.373  1.00  0.00     0.000 A 
ATOM     85  C   UNL     1       2.300  10.563  10.208  1.00  0.00     0.000 A 
ENDBRANCH  79  80
ENDBRANCH  76  79
ENDBRANCH  74  76
ENDBRANCH  72  74
ENDBRANCH  70  71
ENDBRANCH   1  69
TORSDOF 17
ENDMDL
MODEL 16
REMARK VINA RESULT:    -6.508      3.136     11.265
REMARK INTER + INTRA:         -26.672
REMARK INTER:                 -19.244
REMARK INTRA:                  -7.428
REMARK UNBOUND:                -7.229
REMARK SMILES C=C1C(=O)N[C@H](C)C(=O)N[C@@H](CC(C)C)C(=O)N[C@@H](C(=O)O)[C@H](C)C(=O)N[C@@H](CCCN=C(N)N)C(=O)N[C@@H](/C=C/C(C)=C/[C@H](C)[C@H](Cc2ccccc2)OC)[C@H](C)C(=O)N[C@@H](C(=O)O)CCC(=O)N1C
REMARK SMILES IDX 39 1 38 2 37 3 36 4 28 6 27 7 25 8 26 9 23 11 24 12 19 13
REMARK SMILES IDX 18 14 16 15 17 16 11 18 10 19 8 20 9 21 12 24 13 25 14 26
REMARK SMILES IDX 15 27 20 28 21 29 22 30 29 32 30 33 31 34 32 35 33 36 34 37
REMARK SMILES IDX 35 38 57 43 58 44 59 45 60 46 61 47 62 49 66 50 67 51 68 52
REMARK SMILES IDX 69 53 70 54 71 55 2 56 1 57 3 58 4 59 5 60 6 62 7 63 63 65
REMARK SMILES IDX 64 66 65 67 40 69 41 70 42 71 44 72 43 73 45 74 46 75 47 76
REMARK SMILES IDX 55 77 56 78 48 79 49 80 50 81 54 82 51 83 53 84 52 85
REMARK H PARENT 38 5 27 10 18 17 10 22 22 31 34 39 34 40 35 41 35 42 61 48
REMARK H PARENT 5 61 65 68
REMARK Flexibility Score:  369.900
ROOT
ATOM      1  C   UNL     1      -1.030   7.584   9.420  1.00  0.00     0.117 C 
ENDROOT
BRANCH   1   2
ATOM      2  N   UNL     1       0.298   8.186   9.293  1.00  0.00    -0.347 N 
ATOM      3  O   UNL     1       1.360   6.400   8.317  1.00  0.00    -0.273 OA
ATOM      4  C   UNL     1       1.367   7.576   8.666  1.00  0.00     0.243 C 
ATOM      5  H   UNL     1       0.450   9.124   9.633  1.00  0.00     0.164 HD
BRANCH   4   6
ATOM      6  C   UNL     1       2.635   8.464   8.591  1.00  0.00     0.171 C 
BRANCH   6   7
ATOM      7  N   UNL     1       3.742   7.728   7.959  1.00  0.00    -0.344 N 
ATOM      8  C   UNL     1       5.050   8.001   8.296  1.00  0.00     0.226 C 
ATOM      9  O   UNL     1       5.356   8.869   9.105  1.00  0.00    -0.275 OA
ATOM     10  H   UNL     1       3.532   7.051   7.237  1.00  0.00     0.164 HD
BRANCH   8  11
ATOM     11  C   UNL     1       6.072   7.121   7.599  1.00  0.00     0.109 C 
ATOM     12  C   UNL     1       5.411   5.832   7.112  1.00  0.00     0.021 C 
BRANCH  11  13
ATOM     13  C   UNL     1       6.799   7.930   6.507  1.00  0.00     0.204 C 
BRANCH  13  14
ATOM     14  N   UNL     1       7.554   7.068   5.592  1.00  0.00    -0.340 N 
ATOM     15  C   UNL     1       8.521   7.549   4.736  1.00  0.00     0.243 C 
ATOM     16  O   UNL     1       8.862   8.731   4.723  1.00  0.00    -0.273 OA
ATOM     17  H   UNL     1       7.218   6.112   5.446  1.00  0.00     0.164 HD
BRANCH  15  18
ATOM     18  C   UNL     1       9.032   6.495   3.724  1.00  0.00     0.171 C 
BRANCH  18  19
ATOM     19  N   UNL     1      10.433   6.815   3.458  1.00  0.00    -0.343 N 
ATOM     20  C   UNL     1      10.858   7.246   2.216  1.00  0.00     0.242 CG0
ATOM     21  O   UNL     1      10.106   7.253   1.245  1.00  0.00    -0.273 OA
ATOM     22  H   UNL     1      11.116   6.714   4.199  1.00  0.00     0.164 HD
ATOM     23  G   UNL     1      12.356   7.611   2.147  1.00  0.00     0.000 G0
ENDBRANCH  18  19
BRANCH  18  24
ATOM     24  C   UNL     1       8.878   5.079   4.293  1.00  0.00     0.038 C 
BRANCH  24  25
ATOM     25  C   UNL     1       8.054   4.116   3.411  1.00  0.00    -0.015 C 
ATOM     26  C   UNL     1       6.589   4.039   3.840  1.00  0.00     0.007 C 
ATOM     27  C   UNL     1       8.678   2.719   3.453  1.00  0.00     0.007 C 
ENDBRANCH  24  25
ENDBRANCH  18  24
ENDBRANCH  15  18
ENDBRANCH  13  14
BRANCH  13  28
ATOM     28  C   UNL     1       5.852   8.778   5.653  1.00  0.00     0.327 C 
ATOM     29  O   UNL     1       4.981   8.359   4.906  1.00  0.00    -0.250 OA
BRANCH  28  30
ATOM     30  O   UNL     1       6.136  10.096   5.699  1.00  0.00    -0.480 OA
ATOM     31  H   UNL     1       7.115  10.131   5.722  1.00  0.00     0.296 HD
ENDBRANCH  28  30
ENDBRANCH  13  28
ENDBRANCH  11  13
ENDBRANCH   8  11
ENDBRANCH   6   7
BRANCH   6  32
ATOM     32  C   UNL     1       2.310   9.741   7.808  1.00  0.00     0.037 C 
BRANCH  32  33
ATOM     33  C   UNL     1       2.141   9.472   6.306  1.00  0.00     0.026 C 
BRANCH  33  34
ATOM     34  C   UNL     1       1.411  10.607   5.587  1.00  0.00     0.146 C 
BRANCH  34  35
ATOM     35  N   UNL     1       0.634  11.359   6.563  1.00  0.00    -0.254 NA
ATOM     36  C   UNL     1      -0.263  12.170   6.141  1.00  0.00     0.185 C 
ATOM     37  N   UNL     1      -0.988  12.864   7.032  1.00  0.00    -0.370 N 
ATOM     38  N   UNL     1      -0.618  12.454   4.875  1.00  0.00    -0.370 N 
ATOM     39  H   UNL     1      -0.787  12.698   8.010  1.00  0.00     0.159 HD
ATOM     40  H   UNL     1      -1.817  13.381   6.793  1.00  0.00     0.159 HD
ATOM     41  H   UNL     1      -1.244  13.214   4.668  1.00  0.00     0.159 HD
ATOM     42  H   UNL     1      -0.145  12.016   4.100  1.00  0.00     0.159 HD
ENDBRANCH  34  35
ENDBRANCH  33  34
ENDBRANCH  32  33
ENDBRANCH   6  32
ENDBRANCH   4   6
ENDBRANCH   1   2
BRANCH   1  43
ATOM     43  C   UNL     1      -1.821   7.847   8.107  1.00  0.00     0.102 C 
ATOM     44  C   UNL     1      -1.815   9.323   7.674  1.00  0.00     0.020 C 
BRANCH  43  45
ATOM     45  C   UNL     1      -3.219   7.225   8.173  1.00  0.00     0.225 C 
ATOM     46  O   UNL     1      -4.156   7.743   8.774  1.00  0.00    -0.275 OA
ATOM     47  N   UNL     1      -3.344   5.985   7.589  1.00  0.00    -0.342 N 
ATOM     48  H   UNL     1      -2.617   5.646   6.975  1.00  0.00     0.164 HD
BRANCH  47  49
ATOM     49  C   UNL     1      -4.631   5.285   7.545  1.00  0.00     0.192 C 
BRANCH  49  50
ATOM     50  C   UNL     1      -4.488   3.903   8.187  1.00  0.00     0.047 C 
BRANCH  50  51
ATOM     51  C   UNL     1      -4.590   3.958   9.717  1.00  0.00     0.103 C 
BRANCH  51  52
ATOM     52  C   UNL     1      -3.250   3.675  10.392  1.00  0.00     0.226 C 
ATOM     53  O   UNL     1      -2.236   4.258  10.004  1.00  0.00    -0.275 OA
BRANCH  52  54
ATOM     54  N   UNL     1      -3.276   2.798  11.493  1.00  0.00    -0.311 N 
ATOM     55  C   UNL     1      -2.758   1.428  11.380  1.00  0.00     0.153 C 
BRANCH  54  56
ATOM     56  C   UNL     1      -3.789   3.200  12.737  1.00  0.00     0.102 C 
ATOM     57  C   UNL     1      -3.315   4.220  13.471  1.00  0.00     0.043 C 
BRANCH  56  58
ATOM     58  C   UNL     1      -4.990   2.509  13.339  1.00  0.00     0.268 C 
ATOM     59  O   UNL     1      -6.116   2.593  12.868  1.00  0.00    -0.268 OA
ATOM     60  N   UNL     1      -4.676   1.729  14.426  1.00  0.00    -0.339 N 
ATOM     61  H   UNL     1      -3.720   1.722  14.761  1.00  0.00     0.164 HD
BRANCH  60  62
ATOM     62  C   UNL     1      -5.679   0.924  15.123  1.00  0.00     0.168 CG0
ATOM     63  C   UNL     1      -5.147  -0.472  15.422  1.00  0.00     0.041 C 
ATOM     64  G   UNL     1      -6.963   0.849  14.272  1.00  0.00     0.000 G0
ENDBRANCH  60  62
ENDBRANCH  56  58
ENDBRANCH  54  56
ENDBRANCH  52  54
ENDBRANCH  51  52
ENDBRANCH  50  51
ENDBRANCH  49  50
BRANCH  49  65
ATOM     65  C   UNL     1      -5.141   5.127   6.104  1.00  0.00     0.326 C 
ATOM     66  O   UNL     1      -4.443   5.116   5.100  1.00  0.00    -0.250 OA
BRANCH  65  67
ATOM     67  O   UNL     1      -6.485   5.052   5.986  1.00  0.00    -0.480 OA
ATOM     68  H   UNL     1      -6.762   4.571   6.796  1.00  0.00     0.296 HD
ENDBRANCH  65  67
ENDBRANCH  49  65
ENDBRANCH  47  49
ENDBRANCH  43  45
ENDBRANCH   1  43
BRANCH   1  69
ATOM     69  C   UNL     1      -1.600   8.088  10.734  1.00  0.00    -0.001 C 
ATOM     70  C   UNL     1      -1.401   7.576  11.961  1.00  0.00     0.001 C 
BRANCH  70  71
ATOM     71  C   UNL     1      -1.940   8.084  13.224  1.00  0.00    -0.055 C 
ATOM     72  C   UNL     1      -3.263   7.937  13.446  1.00  0.00    -0.018 C 
ATOM     73  C   UNL     1      -0.978   8.727  14.189  1.00  0.00     0.044 C 
BRANCH  72  74
ATOM     74  C   UNL     1      -4.089   8.359  14.653  1.00  0.00     0.038 C 
ATOM     75  C   UNL     1      -4.480   7.081  15.404  1.00  0.00     0.015 C 
BRANCH  74  76
ATOM     76  C   UNL     1      -5.290   9.220  14.161  1.00  0.00     0.128 C 
BRANCH  76  77
ATOM     77  O   UNL     1      -6.412   9.047  15.043  1.00  0.00    -0.381 OA
ATOM     78  C   UNL     1      -7.624   8.733  14.371  1.00  0.00     0.195 C 
ENDBRANCH  76  77
BRANCH  76  79
ATOM     79  C   UNL     1      -4.940  10.710  13.921  1.00  0.00     0.068 C 
BRANCH  79  80
ATOM     80  C   UNL     1      -4.131  11.058  12.696  1.00  0.00    -0.045 A 
ATOM     81  C   UNL     1      -4.595  10.746  11.411  1.00  0.00     0.004 A 
ATOM     82  C   UNL     1      -2.879  11.678  12.828  1.00  0.00     0.004 A 
ATOM     83  C   UNL     1      -3.833  11.058  10.283  1.00  0.00     0.000 A 
ATOM     84  C   UNL     1      -2.118  11.990  11.699  1.00  0.00     0.000 A 
ATOM     85  C   UNL     1      -2.596  11.681  10.427  1.00  0.00     0.000 A 
ENDBRANCH  79  80
ENDBRANCH  76  79
ENDBRANCH  74  76
ENDBRANCH  72  74
ENDBRANCH  70  71
ENDBRANCH   1  69
TORSDOF 17
ENDMDL
MODEL 17
REMARK VINA RESULT:    -6.472      3.432     10.823
REMARK INTER + INTRA:         -26.565
REMARK INTER:                 -19.641
REMARK INTRA:                  -6.925
REMARK UNBOUND:                -7.229
REMARK SMILES C=C1C(=O)N[C@H](C)C(=O)N[C@@H](CC(C)C)C(=O)N[C@@H](C(=O)O)[C@H](C)C(=O)N[C@@H](CCCN=C(N)N)C(=O)N[C@@H](/C=C/C(C)=C/[C@H](C)[C@H](Cc2ccccc2)OC)[C@H](C)C(=O)N[C@@H](C(=O)O)CCC(=O)N1C
REMARK SMILES IDX 39 1 38 2 37 3 36 4 28 6 27 7 25 8 26 9 23 11 24 12 19 13
REMARK SMILES IDX 18 14 16 15 17 16 11 18 10 19 8 20 9 21 12 24 13 25 14 26
REMARK SMILES IDX 15 27 20 28 21 29 22 30 29 32 30 33 31 34 32 35 33 36 34 37
REMARK SMILES IDX 35 38 57 43 58 44 59 45 60 46 61 47 62 49 66 50 67 51 68 52
REMARK SMILES IDX 69 53 70 54 71 55 2 56 1 57 3 58 4 59 5 60 6 62 7 63 63 65
REMARK SMILES IDX 64 66 65 67 40 69 41 70 42 71 44 72 43 73 45 74 46 75 47 76
REMARK SMILES IDX 55 77 56 78 48 79 49 80 50 81 54 82 51 83 53 84 52 85
REMARK H PARENT 38 5 27 10 18 17 10 22 22 31 34 39 34 40 35 41 35 42 61 48
REMARK H PARENT 5 61 65 68
REMARK Flexibility Score:  369.900
ROOT
ATOM      1  C   UNL     1      -0.792   7.839   8.769  1.00  0.00     0.117 C 
ENDROOT
BRANCH   1   2
ATOM      2  N   UNL     1       0.544   8.415   8.613  1.00  0.00    -0.347 N 
ATOM      3  O   UNL     1       1.700   6.452   8.325  1.00  0.00    -0.273 OA
ATOM      4  C   UNL     1       1.674   7.678   8.311  1.00  0.00     0.243 C 
ATOM      5  H   UNL     1       0.663   9.415   8.677  1.00  0.00     0.164 HD
BRANCH   4   6
ATOM      6  C   UNL     1       2.946   8.541   8.115  1.00  0.00     0.171 C 
BRANCH   6   7
ATOM      7  N   UNL     1       3.757   8.016   7.004  1.00  0.00    -0.344 N 
ATOM      8  C   UNL     1       4.820   7.174   7.247  1.00  0.00     0.226 C 
ATOM      9  O   UNL     1       5.154   6.842   8.378  1.00  0.00    -0.275 OA
ATOM     10  H   UNL     1       3.553   8.321   6.061  1.00  0.00     0.164 HD
BRANCH   8  11
ATOM     11  C   UNL     1       5.522   6.675   5.996  1.00  0.00     0.109 C 
ATOM     12  C   UNL     1       5.273   7.637   4.834  1.00  0.00     0.021 C 
BRANCH  11  13
ATOM     13  C   UNL     1       7.008   6.403   6.305  1.00  0.00     0.204 C 
BRANCH  13  14
ATOM     14  N   UNL     1       7.732   5.901   5.133  1.00  0.00    -0.340 N 
ATOM     15  C   UNL     1       8.475   4.740   5.153  1.00  0.00     0.243 C 
ATOM     16  O   UNL     1       8.533   4.010   6.141  1.00  0.00    -0.273 OA
ATOM     17  H   UNL     1       7.849   6.530   4.335  1.00  0.00     0.164 HD
BRANCH  15  18
ATOM     18  C   UNL     1       9.315   4.521   3.871  1.00  0.00     0.171 C 
BRANCH  18  19
ATOM     19  N   UNL     1      10.195   5.682   3.744  1.00  0.00    -0.343 N 
ATOM     20  C   UNL     1      10.337   6.361   2.549  1.00  0.00     0.242 CG0
ATOM     21  O   UNL     1       9.836   5.943   1.508  1.00  0.00    -0.273 OA
ATOM     22  H   UNL     1      10.722   5.997   4.550  1.00  0.00     0.164 HD
ATOM     23  G   UNL     1      11.246   7.605   2.628  1.00  0.00     0.000 G0
ENDBRANCH  18  19
BRANCH  18  24
ATOM     24  C   UNL     1      10.116   3.217   3.964  1.00  0.00     0.038 C 
BRANCH  24  25
ATOM     25  C   UNL     1       9.588   2.072   3.074  1.00  0.00    -0.015 C 
ATOM     26  C   UNL     1      10.714   1.231   2.473  1.00  0.00     0.007 C 
ATOM     27  C   UNL     1       8.721   2.649   1.953  1.00  0.00     0.007 C 
ENDBRANCH  24  25
ENDBRANCH  18  24
ENDBRANCH  15  18
ENDBRANCH  13  14
BRANCH  13  28
ATOM     28  C   UNL     1       7.757   7.642   6.805  1.00  0.00     0.327 C 
ATOM     29  O   UNL     1       8.228   8.531   6.112  1.00  0.00    -0.250 OA
BRANCH  28  30
ATOM     30  O   UNL     1       7.973   7.628   8.136  1.00  0.00    -0.480 OA
ATOM     31  H   UNL     1       8.430   6.776   8.297  1.00  0.00     0.296 HD
ENDBRANCH  28  30
ENDBRANCH  13  28
ENDBRANCH  11  13
ENDBRANCH   8  11
ENDBRANCH   6   7
BRANCH   6  32
ATOM     32  C   UNL     1       2.534   9.994   7.852  1.00  0.00     0.037 C 
BRANCH  32  33
ATOM     33  C   UNL     1       2.762  10.406   6.391  1.00  0.00     0.026 C 
BRANCH  33  34
ATOM     34  C   UNL     1       1.464  10.436   5.583  1.00  0.00     0.146 C 
BRANCH  34  35
ATOM     35  N   UNL     1       1.042   9.067   5.320  1.00  0.00    -0.254 NA
ATOM     36  C   UNL     1       1.299   8.555   4.174  1.00  0.00     0.185 C 
ATOM     37  N   UNL     1       0.919   7.293   3.922  1.00  0.00    -0.370 N 
ATOM     38  N   UNL     1       1.925   9.110   3.122  1.00  0.00    -0.370 N 
ATOM     39  H   UNL     1       0.449   6.802   4.672  1.00  0.00     0.159 HD
ATOM     40  H   UNL     1       1.232   6.766   3.125  1.00  0.00     0.159 HD
ATOM     41  H   UNL     1       1.943   8.652   2.225  1.00  0.00     0.159 HD
ATOM     42  H   UNL     1       2.252  10.063   3.164  1.00  0.00     0.159 HD
ENDBRANCH  34  35
ENDBRANCH  33  34
ENDBRANCH  32  33
ENDBRANCH   6  32
ENDBRANCH   4   6
ENDBRANCH   1   2
BRANCH   1  43
ATOM     43  C   UNL     1      -1.641   8.214   7.520  1.00  0.00     0.102 C 
ATOM     44  C   UNL     1      -2.713   9.279   7.807  1.00  0.00     0.020 C 
BRANCH  43  45
ATOM     45  C   UNL     1      -2.181   6.960   6.826  1.00  0.00     0.225 C 
ATOM     46  O   UNL     1      -1.815   6.600   5.711  1.00  0.00    -0.275 OA
ATOM     47  N   UNL     1      -3.186   6.299   7.495  1.00  0.00    -0.342 N 
ATOM     48  H   UNL     1      -3.368   6.515   8.465  1.00  0.00     0.164 HD
BRANCH  47  49
ATOM     49  C   UNL     1      -3.774   5.064   6.967  1.00  0.00     0.192 C 
BRANCH  49  50
ATOM     50  C   UNL     1      -2.659   4.105   6.541  1.00  0.00     0.047 C 
BRANCH  50  51
ATOM     51  C   UNL     1      -2.015   3.392   7.738  1.00  0.00     0.103 C 
BRANCH  51  52
ATOM     52  C   UNL     1      -3.052   2.690   8.613  1.00  0.00     0.226 C 
ATOM     53  O   UNL     1      -3.901   1.965   8.090  1.00  0.00    -0.275 OA
BRANCH  52  54
ATOM     54  N   UNL     1      -2.920   2.864  10.003  1.00  0.00    -0.311 N 
ATOM     55  C   UNL     1      -1.849   2.192  10.751  1.00  0.00     0.153 C 
BRANCH  54  56
ATOM     56  C   UNL     1      -3.799   3.689  10.725  1.00  0.00     0.102 C 
ATOM     57  C   UNL     1      -3.838   5.028  10.642  1.00  0.00     0.043 C 
BRANCH  56  58
ATOM     58  C   UNL     1      -4.836   3.094  11.649  1.00  0.00     0.268 C 
ATOM     59  O   UNL     1      -4.912   3.374  12.838  1.00  0.00    -0.268 OA
ATOM     60  N   UNL     1      -5.721   2.263  11.005  1.00  0.00    -0.339 N 
ATOM     61  H   UNL     1      -5.583   2.074  10.019  1.00  0.00     0.164 HD
BRANCH  60  62
ATOM     62  C   UNL     1      -6.842   1.630  11.699  1.00  0.00     0.168 CG0
ATOM     63  C   UNL     1      -6.446   0.263  12.244  1.00  0.00     0.041 C 
ATOM     64  G   UNL     1      -8.042   1.509  10.738  1.00  0.00     0.000 G0
ENDBRANCH  60  62
ENDBRANCH  56  58
ENDBRANCH  54  56
ENDBRANCH  52  54
ENDBRANCH  51  52
ENDBRANCH  50  51
ENDBRANCH  49  50
BRANCH  49  65
ATOM     65  C   UNL     1      -4.694   5.341   5.768  1.00  0.00     0.326 C 
ATOM     66  O   UNL     1      -5.828   5.793   5.831  1.00  0.00    -0.250 OA
BRANCH  65  67
ATOM     67  O   UNL     1      -4.180   4.987   4.569  1.00  0.00    -0.480 OA
ATOM     68  H   UNL     1      -4.914   4.500   4.137  1.00  0.00     0.296 HD
ENDBRANCH  65  67
ENDBRANCH  49  65
ENDBRANCH  47  49
ENDBRANCH  43  45
ENDBRANCH   1  43
BRANCH   1  69
ATOM     69  C   UNL     1      -1.279   8.264  10.142  1.00  0.00    -0.001 C 
ATOM     70  C   UNL     1      -1.203   7.566  11.288  1.00  0.00     0.001 C 
BRANCH  70  71
ATOM     71  C   UNL     1      -1.658   7.995  12.612  1.00  0.00    -0.055 C 
ATOM     72  C   UNL     1      -2.716   7.354  13.151  1.00  0.00    -0.018 C 
ATOM     73  C   UNL     1      -0.907   9.117  13.282  1.00  0.00     0.044 C 
BRANCH  72  74
ATOM     74  C   UNL     1      -3.397   7.580  14.493  1.00  0.00     0.038 C 
ATOM     75  C   UNL     1      -3.467   6.220  15.200  1.00  0.00     0.015 C 
BRANCH  74  76
ATOM     76  C   UNL     1      -4.777   8.259  14.247  1.00  0.00     0.128 C 
BRANCH  76  77
ATOM     77  O   UNL     1      -5.769   7.684  15.114  1.00  0.00    -0.381 OA
ATOM     78  C   UNL     1      -7.102   8.037  14.770  1.00  0.00     0.195 C 
ENDBRANCH  76  77
BRANCH  76  79
ATOM     79  C   UNL     1      -4.739   9.806  14.324  1.00  0.00     0.068 C 
BRANCH  79  80
ATOM     80  C   UNL     1      -4.325  10.565  13.086  1.00  0.00    -0.045 A 
ATOM     81  C   UNL     1      -4.616  10.074  11.807  1.00  0.00     0.004 A 
ATOM     82  C   UNL     1      -3.612  11.769  13.200  1.00  0.00     0.004 A 
ATOM     83  C   UNL     1      -4.217  10.775  10.667  1.00  0.00     0.000 A 
ATOM     84  C   UNL     1      -3.213  12.469  12.059  1.00  0.00     0.000 A 
ATOM     85  C   UNL     1      -3.517  11.973  10.793  1.00  0.00     0.000 A 
ENDBRANCH  79  80
ENDBRANCH  76  79
ENDBRANCH  74  76
ENDBRANCH  72  74
ENDBRANCH  70  71
ENDBRANCH   1  69
TORSDOF 17
ENDMDL
MODEL 18
REMARK VINA RESULT:    -6.471      3.033     10.827
REMARK INTER + INTRA:         -26.561
REMARK INTER:                 -18.359
REMARK INTRA:                  -8.202
REMARK UNBOUND:                -7.229
REMARK SMILES C=C1C(=O)N[C@H](C)C(=O)N[C@@H](CC(C)C)C(=O)N[C@@H](C(=O)O)[C@H](C)C(=O)N[C@@H](CCCN=C(N)N)C(=O)N[C@@H](/C=C/C(C)=C/[C@H](C)[C@H](Cc2ccccc2)OC)[C@H](C)C(=O)N[C@@H](C(=O)O)CCC(=O)N1C
REMARK SMILES IDX 39 1 38 2 37 3 36 4 28 6 27 7 25 8 26 9 23 11 24 12 19 13
REMARK SMILES IDX 18 14 16 15 17 16 11 18 10 19 8 20 9 21 12 24 13 25 14 26
REMARK SMILES IDX 15 27 20 28 21 29 22 30 29 32 30 33 31 34 32 35 33 36 34 37
REMARK SMILES IDX 35 38 57 43 58 44 59 45 60 46 61 47 62 49 66 50 67 51 68 52
REMARK SMILES IDX 69 53 70 54 71 55 2 56 1 57 3 58 4 59 5 60 6 62 7 63 63 65
REMARK SMILES IDX 64 66 65 67 40 69 41 70 42 71 44 72 43 73 45 74 46 75 47 76
REMARK SMILES IDX 55 77 56 78 48 79 49 80 50 81 54 82 51 83 53 84 52 85
REMARK H PARENT 38 5 27 10 18 17 10 22 22 31 34 39 34 40 35 41 35 42 61 48
REMARK H PARENT 5 61 65 68
REMARK Flexibility Score:  369.900
ROOT
ATOM      1  C   UNL     1      -0.805   6.008   8.816  1.00  0.00     0.117 C 
ENDROOT
BRANCH   1   2
ATOM      2  N   UNL     1       0.644   6.095   8.628  1.00  0.00    -0.347 N 
ATOM      3  O   UNL     1       1.006   3.926   7.969  1.00  0.00    -0.273 OA
ATOM      4  C   UNL     1       1.423   5.068   8.130  1.00  0.00     0.243 C 
ATOM      5  H   UNL     1       1.116   6.965   8.821  1.00  0.00     0.164 HD
BRANCH   4   6
ATOM      6  C   UNL     1       2.914   5.449   7.948  1.00  0.00     0.171 C 
BRANCH   6   7
ATOM      7  N   UNL     1       3.616   4.417   7.168  1.00  0.00    -0.344 N 
ATOM      8  C   UNL     1       4.928   4.097   7.447  1.00  0.00     0.226 C 
ATOM      9  O   UNL     1       5.572   4.659   8.325  1.00  0.00    -0.275 OA
ATOM     10  H   UNL     1       3.138   3.979   6.391  1.00  0.00     0.164 HD
BRANCH   8  11
ATOM     11  C   UNL     1       5.493   2.977   6.592  1.00  0.00     0.109 C 
ATOM     12  C   UNL     1       4.360   2.107   6.049  1.00  0.00     0.021 C 
BRANCH  11  13
ATOM     13  C   UNL     1       6.432   3.563   5.519  1.00  0.00     0.204 C 
BRANCH  13  14
ATOM     14  N   UNL     1       6.182   4.989   5.286  1.00  0.00    -0.340 N 
ATOM     15  C   UNL     1       5.312   5.448   4.322  1.00  0.00     0.243 C 
ATOM     16  O   UNL     1       4.636   4.691   3.627  1.00  0.00    -0.273 OA
ATOM     17  H   UNL     1       6.818   5.665   5.719  1.00  0.00     0.164 HD
BRANCH  15  18
ATOM     18  C   UNL     1       5.367   6.982   4.119  1.00  0.00     0.171 C 
BRANCH  18  19
ATOM     19  N   UNL     1       6.774   7.328   3.923  1.00  0.00    -0.343 N 
ATOM     20  C   UNL     1       7.413   8.258   4.720  1.00  0.00     0.242 CG0
ATOM     21  O   UNL     1       6.798   8.933   5.542  1.00  0.00    -0.273 OA
ATOM     22  H   UNL     1       7.297   6.880   3.179  1.00  0.00     0.164 HD
ATOM     23  G   UNL     1       8.915   8.433   4.415  1.00  0.00     0.000 G0
ENDBRANCH  18  19
BRANCH  18  24
ATOM     24  C   UNL     1       4.513   7.400   2.915  1.00  0.00     0.038 C 
BRANCH  24  25
ATOM     25  C   UNL     1       3.273   8.247   3.269  1.00  0.00    -0.015 C 
ATOM     26  C   UNL     1       3.525   9.195   4.442  1.00  0.00     0.007 C 
ATOM     27  C   UNL     1       2.096   7.325   3.596  1.00  0.00     0.007 C 
ENDBRANCH  24  25
ENDBRANCH  18  24
ENDBRANCH  15  18
ENDBRANCH  13  14
BRANCH  13  28
ATOM     28  C   UNL     1       7.916   3.413   5.869  1.00  0.00     0.327 C 
ATOM     29  O   UNL     1       8.818   3.139   5.092  1.00  0.00    -0.250 OA
BRANCH  28  30
ATOM     30  O   UNL     1       8.159   3.501   7.192  1.00  0.00    -0.480 OA
ATOM     31  H   UNL     1       8.184   2.570   7.495  1.00  0.00     0.296 HD
ENDBRANCH  28  30
ENDBRANCH  13  28
ENDBRANCH  11  13
ENDBRANCH   8  11
ENDBRANCH   6   7
BRANCH   6  32
ATOM     32  C   UNL     1       3.004   6.814   7.257  1.00  0.00     0.037 C 
BRANCH  32  33
ATOM     33  C   UNL     1       4.093   7.704   7.872  1.00  0.00     0.026 C 
BRANCH  33  34
ATOM     34  C   UNL     1       3.546   9.048   8.355  1.00  0.00     0.146 C 
BRANCH  34  35
ATOM     35  N   UNL     1       4.312   9.476   9.517  1.00  0.00    -0.254 NA
ATOM     36  C   UNL     1       3.697   9.653  10.627  1.00  0.00     0.185 C 
ATOM     37  N   UNL     1       4.393  10.043  11.706  1.00  0.00    -0.370 N 
ATOM     38  N   UNL     1       2.389   9.501  10.902  1.00  0.00    -0.370 N 
ATOM     39  H   UNL     1       5.389  10.169  11.582  1.00  0.00     0.159 HD
ATOM     40  H   UNL     1       4.022  10.034  12.640  1.00  0.00     0.159 HD
ATOM     41  H   UNL     1       2.002   9.806  11.780  1.00  0.00     0.159 HD
ATOM     42  H   UNL     1       1.742   9.226  10.179  1.00  0.00     0.159 HD
ENDBRANCH  34  35
ENDBRANCH  33  34
ENDBRANCH  32  33
ENDBRANCH   6  32
ENDBRANCH   4   6
ENDBRANCH   1   2
BRANCH   1  43
ATOM     43  C   UNL     1      -1.501   6.369   7.472  1.00  0.00     0.102 C 
ATOM     44  C   UNL     1      -0.975   7.669   6.840  1.00  0.00     0.020 C 
BRANCH  43  45
ATOM     45  C   UNL     1      -3.025   6.319   7.612  1.00  0.00     0.225 C 
ATOM     46  O   UNL     1      -3.738   7.316   7.543  1.00  0.00    -0.275 OA
ATOM     47  N   UNL     1      -3.552   5.085   7.917  1.00  0.00    -0.342 N 
ATOM     48  H   UNL     1      -2.979   4.258   7.821  1.00  0.00     0.164 HD
BRANCH  47  49
ATOM     49  C   UNL     1      -4.998   4.879   8.046  1.00  0.00     0.192 C 
BRANCH  49  50
ATOM     50  C   UNL     1      -5.268   3.689   8.969  1.00  0.00     0.047 C 
BRANCH  50  51
ATOM     51  C   UNL     1      -4.331   3.670  10.184  1.00  0.00     0.103 C 
BRANCH  51  52
ATOM     52  C   UNL     1      -4.674   2.542  11.156  1.00  0.00     0.226 C 
ATOM     53  O   UNL     1      -5.093   1.468  10.720  1.00  0.00    -0.275 OA
BRANCH  52  54
ATOM     54  N   UNL     1      -4.411   2.786  12.517  1.00  0.00    -0.311 N 
ATOM     55  C   UNL     1      -3.187   3.481  12.938  1.00  0.00     0.153 C 
BRANCH  54  56
ATOM     56  C   UNL     1      -5.308   2.381  13.520  1.00  0.00     0.102 C 
ATOM     57  C   UNL     1      -6.358   3.101  13.948  1.00  0.00     0.043 C 
BRANCH  56  58
ATOM     58  C   UNL     1      -5.171   1.030  14.182  1.00  0.00     0.268 C 
ATOM     59  O   UNL     1      -4.708   0.879  15.304  1.00  0.00    -0.268 OA
ATOM     60  N   UNL     1      -5.679   0.003  13.423  1.00  0.00    -0.339 N 
ATOM     61  H   UNL     1      -6.036   0.211  12.498  1.00  0.00     0.164 HD
BRANCH  60  62
ATOM     62  C   UNL     1      -5.705  -1.379  13.901  1.00  0.00     0.168 CG0
ATOM     63  C   UNL     1      -5.008  -2.311  12.918  1.00  0.00     0.041 C 
ATOM     64  G   UNL     1      -7.166  -1.819  14.128  1.00  0.00     0.000 G0
ENDBRANCH  60  62
ENDBRANCH  56  58
ENDBRANCH  54  56
ENDBRANCH  52  54
ENDBRANCH  51  52
ENDBRANCH  50  51
ENDBRANCH  49  50
BRANCH  49  65
ATOM     65  C   UNL     1      -5.657   4.625   6.681  1.00  0.00     0.326 C 
ATOM     66  O   UNL     1      -5.720   3.545   6.112  1.00  0.00    -0.250 OA
BRANCH  65  67
ATOM     67  O   UNL     1      -6.146   5.730   6.076  1.00  0.00    -0.480 OA
ATOM     68  H   UNL     1      -6.308   5.437   5.154  1.00  0.00     0.296 HD
ENDBRANCH  65  67
ENDBRANCH  49  65
ENDBRANCH  47  49
ENDBRANCH  43  45
ENDBRANCH   1  43
BRANCH   1  69
ATOM     69  C   UNL     1      -1.122   6.831  10.051  1.00  0.00    -0.001 C 
ATOM     70  C   UNL     1      -1.176   6.404  11.325  1.00  0.00     0.001 C 
BRANCH  70  71
ATOM     71  C   UNL     1      -1.463   7.213  12.512  1.00  0.00    -0.055 C 
ATOM     72  C   UNL     1      -2.711   7.157  13.023  1.00  0.00    -0.018 C 
ATOM     73  C   UNL     1      -0.343   8.044  13.083  1.00  0.00     0.044 C 
BRANCH  72  74
ATOM     74  C   UNL     1      -3.289   7.875  14.234  1.00  0.00     0.038 C 
ATOM     75  C   UNL     1      -3.539   6.814  15.313  1.00  0.00     0.015 C 
BRANCH  74  76
ATOM     76  C   UNL     1      -4.554   8.666  13.790  1.00  0.00     0.128 C 
BRANCH  76  77
ATOM     77  O   UNL     1      -5.560   8.599  14.816  1.00  0.00    -0.381 OA
ATOM     78  C   UNL     1      -6.862   8.317  14.321  1.00  0.00     0.195 C 
ENDBRANCH  76  77
BRANCH  76  79
ATOM     79  C   UNL     1      -4.261  10.117  13.332  1.00  0.00     0.068 C 
BRANCH  79  80
ATOM     80  C   UNL     1      -3.350  10.313  12.145  1.00  0.00    -0.045 A 
ATOM     81  C   UNL     1      -2.129  10.989  12.275  1.00  0.00     0.004 A 
ATOM     82  C   UNL     1      -3.727   9.842  10.878  1.00  0.00     0.004 A 
ATOM     83  C   UNL     1      -1.299  11.178  11.169  1.00  0.00     0.000 A 
ATOM     84  C   UNL     1      -2.896  10.033   9.772  1.00  0.00     0.000 A 
ATOM     85  C   UNL     1      -1.681  10.699   9.918  1.00  0.00     0.000 A 
ENDBRANCH  79  80
ENDBRANCH  76  79
ENDBRANCH  74  76
ENDBRANCH  72  74
ENDBRANCH  70  71
ENDBRANCH   1  69
TORSDOF 17
ENDMDL
MODEL 19
REMARK VINA RESULT:    -6.438      2.293      3.373
REMARK INTER + INTRA:         -26.462
REMARK INTER:                 -18.702
REMARK INTRA:                  -7.760
REMARK UNBOUND:                -7.229
REMARK SMILES C=C1C(=O)N[C@H](C)C(=O)N[C@@H](CC(C)C)C(=O)N[C@@H](C(=O)O)[C@H](C)C(=O)N[C@@H](CCCN=C(N)N)C(=O)N[C@@H](/C=C/C(C)=C/[C@H](C)[C@H](Cc2ccccc2)OC)[C@H](C)C(=O)N[C@@H](C(=O)O)CCC(=O)N1C
REMARK SMILES IDX 39 1 38 2 37 3 36 4 28 6 27 7 25 8 26 9 23 11 24 12 19 13
REMARK SMILES IDX 18 14 16 15 17 16 11 18 10 19 8 20 9 21 12 24 13 25 14 26
REMARK SMILES IDX 15 27 20 28 21 29 22 30 29 32 30 33 31 34 32 35 33 36 34 37
REMARK SMILES IDX 35 38 57 43 58 44 59 45 60 46 61 47 62 49 66 50 67 51 68 52
REMARK SMILES IDX 69 53 70 54 71 55 2 56 1 57 3 58 4 59 5 60 6 62 7 63 63 65
REMARK SMILES IDX 64 66 65 67 40 69 41 70 42 71 44 72 43 73 45 74 46 75 47 76
REMARK SMILES IDX 55 77 56 78 48 79 49 80 50 81 54 82 51 83 53 84 52 85
REMARK H PARENT 38 5 27 10 18 17 10 22 22 31 34 39 34 40 35 41 35 42 61 48
REMARK H PARENT 5 61 65 68
REMARK Flexibility Score:  369.900
ROOT
ATOM      1  C   UNL     1      -1.213   8.560   7.505  1.00  0.00     0.117 C 
ENDROOT
BRANCH   1   2
ATOM      2  N   UNL     1      -2.122   7.448   7.783  1.00  0.00    -0.347 N 
ATOM      3  O   UNL     1      -2.095   6.492   5.696  1.00  0.00    -0.273 OA
ATOM      4  C   UNL     1      -2.419   6.447   6.878  1.00  0.00     0.243 C 
ATOM      5  H   UNL     1      -2.528   7.360   8.702  1.00  0.00     0.164 HD
BRANCH   4   6
ATOM      6  C   UNL     1      -3.341   5.341   7.453  1.00  0.00     0.171 C 
BRANCH   6   7
ATOM      7  N   UNL     1      -2.668   4.033   7.401  1.00  0.00    -0.344 N 
ATOM      8  C   UNL     1      -3.385   2.884   7.148  1.00  0.00     0.226 C 
ATOM      9  O   UNL     1      -4.599   2.887   6.978  1.00  0.00    -0.275 OA
ATOM     10  H   UNL     1      -1.677   3.983   7.603  1.00  0.00     0.164 HD
BRANCH   8  11
ATOM     11  C   UNL     1      -2.541   1.624   7.073  1.00  0.00     0.109 C 
ATOM     12  C   UNL     1      -1.077   1.986   6.821  1.00  0.00     0.021 C 
BRANCH  11  13
ATOM     13  C   UNL     1      -2.788   0.755   8.322  1.00  0.00     0.204 C 
BRANCH  13  14
ATOM     14  N   UNL     1      -3.835   1.313   9.184  1.00  0.00    -0.340 N 
ATOM     15  C   UNL     1      -3.783   1.254  10.559  1.00  0.00     0.243 C 
ATOM     16  O   UNL     1      -2.822   0.781  11.164  1.00  0.00    -0.273 OA
ATOM     17  H   UNL     1      -4.723   1.581   8.749  1.00  0.00     0.164 HD
BRANCH  15  18
ATOM     18  C   UNL     1      -5.089   1.718  11.249  1.00  0.00     0.171 C 
BRANCH  18  19
ATOM     19  N   UNL     1      -5.508   0.628  12.128  1.00  0.00    -0.343 N 
ATOM     20  C   UNL     1      -6.770   0.071  12.047  1.00  0.00     0.242 CG0
ATOM     21  O   UNL     1      -7.641   0.553  11.327  1.00  0.00    -0.273 OA
ATOM     22  H   UNL     1      -4.861   0.272  12.822  1.00  0.00     0.164 HD
ATOM     23  G   UNL     1      -7.003  -1.119  13.001  1.00  0.00     0.000 G0
ENDBRANCH  18  19
BRANCH  18  24
ATOM     24  C   UNL     1      -4.856   3.015  12.034  1.00  0.00     0.038 C 
BRANCH  24  25
ATOM     25  C   UNL     1      -4.620   2.819  13.546  1.00  0.00    -0.015 C 
ATOM     26  C   UNL     1      -5.534   3.700  14.400  1.00  0.00     0.007 C 
ATOM     27  C   UNL     1      -3.157   3.118  13.882  1.00  0.00     0.007 C 
ENDBRANCH  24  25
ENDBRANCH  18  24
ENDBRANCH  15  18
ENDBRANCH  13  14
BRANCH  13  28
ATOM     28  C   UNL     1      -3.196  -0.683   7.986  1.00  0.00     0.327 C 
ATOM     29  O   UNL     1      -3.803  -1.049   6.991  1.00  0.00    -0.250 OA
BRANCH  28  30
ATOM     30  O   UNL     1      -2.920  -1.555   8.977  1.00  0.00    -0.480 OA
ATOM     31  H   UNL     1      -2.735  -2.397   8.512  1.00  0.00     0.296 HD
ENDBRANCH  28  30
ENDBRANCH  13  28
ENDBRANCH  11  13
ENDBRANCH   8  11
ENDBRANCH   6   7
BRANCH   6  32
ATOM     32  C   UNL     1      -3.724   5.703   8.892  1.00  0.00     0.037 C 
BRANCH  32  33
ATOM     33  C   UNL     1      -3.045   4.788   9.920  1.00  0.00     0.026 C 
BRANCH  33  34
ATOM     34  C   UNL     1      -1.877   5.473  10.631  1.00  0.00     0.146 C 
BRANCH  34  35
ATOM     35  N   UNL     1      -0.663   5.256   9.856  1.00  0.00    -0.254 NA
ATOM     36  C   UNL     1      -0.176   4.072   9.795  1.00  0.00     0.185 C 
ATOM     37  N   UNL     1       0.939   3.860   9.079  1.00  0.00    -0.370 N 
ATOM     38  N   UNL     1      -0.630   2.942  10.364  1.00  0.00    -0.370 N 
ATOM     39  H   UNL     1       1.337   4.663   8.610  1.00  0.00     0.159 HD
ATOM     40  H   UNL     1       1.281   2.945   8.841  1.00  0.00     0.159 HD
ATOM     41  H   UNL     1      -0.081   2.098  10.357  1.00  0.00     0.159 HD
ATOM     42  H   UNL     1      -1.454   2.955  10.945  1.00  0.00     0.159 HD
ENDBRANCH  34  35
ENDBRANCH  33  34
ENDBRANCH  32  33
ENDBRANCH   6  32
ENDBRANCH   4   6
ENDBRANCH   1   2
BRANCH   1  43
ATOM     43  C   UNL     1       0.248   8.075   7.733  1.00  0.00     0.102 C 
ATOM     44  C   UNL     1       0.949   8.775   8.910  1.00  0.00     0.020 C 
BRANCH  43  45
ATOM     45  C   UNL     1       1.048   8.104   6.428  1.00  0.00     0.225 C 
ATOM     46  O   UNL     1       1.770   9.043   6.104  1.00  0.00    -0.275 OA
ATOM     47  N   UNL     1       0.836   7.042   5.579  1.00  0.00    -0.342 N 
ATOM     48  H   UNL     1       0.366   6.215   5.920  1.00  0.00     0.164 HD
BRANCH  47  49
ATOM     49  C   UNL     1       1.560   6.918   4.310  1.00  0.00     0.192 C 
BRANCH  49  50
ATOM     50  C   UNL     1       0.764   7.603   3.196  1.00  0.00     0.047 C 
BRANCH  50  51
ATOM     51  C   UNL     1       1.547   8.750   2.542  1.00  0.00     0.103 C 
BRANCH  51  52
ATOM     52  C   UNL     1       2.171   8.333   1.212  1.00  0.00     0.226 C 
ATOM     53  O   UNL     1       1.479   8.313   0.192  1.00  0.00    -0.275 OA
BRANCH  52  54
ATOM     54  N   UNL     1       3.553   8.064   1.225  1.00  0.00    -0.311 N 
ATOM     55  C   UNL     1       4.055   6.686   1.152  1.00  0.00     0.153 C 
BRANCH  54  56
ATOM     56  C   UNL     1       4.500   9.099   1.302  1.00  0.00     0.102 C 
ATOM     57  C   UNL     1       5.215   9.406   2.397  1.00  0.00     0.043 C 
BRANCH  56  58
ATOM     58  C   UNL     1       4.824   9.944   0.093  1.00  0.00     0.268 C 
ATOM     59  O   UNL     1       4.110  10.858  -0.296  1.00  0.00    -0.268 OA
ATOM     60  N   UNL     1       6.031   9.625  -0.481  1.00  0.00    -0.339 N 
ATOM     61  H   UNL     1       6.559   8.846  -0.105  1.00  0.00     0.164 HD
BRANCH  60  62
ATOM     62  C   UNL     1       6.568  10.360  -1.626  1.00  0.00     0.168 CG0
ATOM     63  C   UNL     1       6.183   9.687  -2.938  1.00  0.00     0.041 C 
ATOM     64  G   UNL     1       8.102  10.468  -1.497  1.00  0.00     0.000 G0
ENDBRANCH  60  62
ENDBRANCH  56  58
ENDBRANCH  54  56
ENDBRANCH  52  54
ENDBRANCH  51  52
ENDBRANCH  50  51
ENDBRANCH  49  50
BRANCH  49  65
ATOM     65  C   UNL     1       1.799   5.448   3.935  1.00  0.00     0.326 C 
ATOM     66  O   UNL     1       2.364   4.619   4.634  1.00  0.00    -0.250 OA
BRANCH  65  67
ATOM     67  O   UNL     1       1.380   5.106   2.697  1.00  0.00    -0.480 OA
ATOM     68  H   UNL     1       2.171   5.257   2.135  1.00  0.00     0.296 HD
ENDBRANCH  65  67
ENDBRANCH  49  65
ENDBRANCH  47  49
ENDBRANCH  43  45
ENDBRANCH   1  43
BRANCH   1  69
ATOM     69  C   UNL     1      -1.728   9.740   8.309  1.00  0.00    -0.001 C 
ATOM     70  C   UNL     1      -2.978   9.935   8.765  1.00  0.00     0.001 C 
BRANCH  70  71
ATOM     71  C   UNL     1      -3.458  11.068   9.558  1.00  0.00    -0.055 C 
ATOM     72  C   UNL     1      -3.813  10.831  10.839  1.00  0.00    -0.018 C 
ATOM     73  C   UNL     1      -3.516  12.418   8.892  1.00  0.00     0.044 C 
BRANCH  72  74
ATOM     74  C   UNL     1      -4.337  11.801  11.888  1.00  0.00     0.038 C 
ATOM     75  C   UNL     1      -3.118  12.453  12.552  1.00  0.00     0.015 C 
BRANCH  74  76
ATOM     76  C   UNL     1      -5.275  11.028  12.861  1.00  0.00     0.128 C 
BRANCH  76  77
ATOM     77  O   UNL     1      -6.534  11.713  12.977  1.00  0.00    -0.381 OA
ATOM     78  C   UNL     1      -7.540  11.207  12.111  1.00  0.00     0.195 C 
ENDBRANCH  76  77
BRANCH  76  79
ATOM     79  C   UNL     1      -5.438   9.526  12.517  1.00  0.00     0.068 C 
BRANCH  79  80
ATOM     80  C   UNL     1      -4.750   8.518  13.406  1.00  0.00    -0.045 A 
ATOM     81  C   UNL     1      -5.315   8.126  14.626  1.00  0.00     0.004 A 
ATOM     82  C   UNL     1      -3.510   7.977  13.032  1.00  0.00     0.004 A 
ATOM     83  C   UNL     1      -4.665   7.204  15.449  1.00  0.00     0.000 A 
ATOM     84  C   UNL     1      -2.860   7.055  13.856  1.00  0.00     0.000 A 
ATOM     85  C   UNL     1      -3.438   6.668  15.063  1.00  0.00     0.000 A 
ENDBRANCH  79  80
ENDBRANCH  76  79
ENDBRANCH  74  76
ENDBRANCH  72  74
ENDBRANCH  70  71
ENDBRANCH   1  69
TORSDOF 17
ENDMDL
MODEL 20
REMARK VINA RESULT:    -6.436      3.194      8.001
REMARK INTER + INTRA:         -26.459
REMARK INTER:                 -18.601
REMARK INTRA:                  -7.857
REMARK UNBOUND:                -7.229
REMARK SMILES C=C1C(=O)N[C@H](C)C(=O)N[C@@H](CC(C)C)C(=O)N[C@@H](C(=O)O)[C@H](C)C(=O)N[C@@H](CCCN=C(N)N)C(=O)N[C@@H](/C=C/C(C)=C/[C@H](C)[C@H](Cc2ccccc2)OC)[C@H](C)C(=O)N[C@@H](C(=O)O)CCC(=O)N1C
REMARK SMILES IDX 39 1 38 2 37 3 36 4 28 6 27 7 25 8 26 9 23 11 24 12 19 13
REMARK SMILES IDX 18 14 16 15 17 16 11 18 10 19 8 20 9 21 12 24 13 25 14 26
REMARK SMILES IDX 15 27 20 28 21 29 22 30 29 32 30 33 31 34 32 35 33 36 34 37
REMARK SMILES IDX 35 38 57 43 58 44 59 45 60 46 61 47 62 49 66 50 67 51 68 52
REMARK SMILES IDX 69 53 70 54 71 55 2 56 1 57 3 58 4 59 5 60 6 62 7 63 63 65
REMARK SMILES IDX 64 66 65 67 40 69 41 70 42 71 44 72 43 73 45 74 46 75 47 76
REMARK SMILES IDX 55 77 56 78 48 79 49 80 50 81 54 82 51 83 53 84 52 85
REMARK H PARENT 38 5 27 10 18 17 10 22 22 31 34 39 34 40 35 41 35 42 61 48
REMARK H PARENT 5 61 65 68
REMARK Flexibility Score:  369.900
ROOT
ATOM      1  C   UNL     1       1.431   8.190   6.104  1.00  0.00     0.117 C 
ENDROOT
BRANCH   1   2
ATOM      2  N   UNL     1       0.886   8.797   7.319  1.00  0.00    -0.347 N 
ATOM      3  O   UNL     1      -0.351  10.449   6.315  1.00  0.00    -0.273 OA
ATOM      4  C   UNL     1      -0.037   9.825   7.323  1.00  0.00     0.243 C 
ATOM      5  H   UNL     1       1.150   8.425   8.218  1.00  0.00     0.164 HD
BRANCH   4   6
ATOM      6  C   UNL     1      -0.516  10.226   8.741  1.00  0.00     0.171 C 
BRANCH   6   7
ATOM      7  N   UNL     1      -1.296   9.136   9.348  1.00  0.00    -0.344 N 
ATOM      8  C   UNL     1      -2.673   9.173   9.350  1.00  0.00     0.226 C 
ATOM      9  O   UNL     1      -3.309  10.107   8.876  1.00  0.00    -0.275 OA
ATOM     10  H   UNL     1      -0.805   8.380   9.809  1.00  0.00     0.164 HD
BRANCH   8  11
ATOM     11  C   UNL     1      -3.331   7.950   9.964  1.00  0.00     0.109 C 
ATOM     12  C   UNL     1      -3.314   6.789   8.970  1.00  0.00     0.021 C 
BRANCH  11  13
ATOM     13  C   UNL     1      -2.688   7.643  11.331  1.00  0.00     0.204 C 
BRANCH  13  14
ATOM     14  N   UNL     1      -3.692   7.399  12.371  1.00  0.00    -0.340 N 
ATOM     15  C   UNL     1      -4.484   8.398  12.896  1.00  0.00     0.243 C 
ATOM     16  O   UNL     1      -4.446   9.556  12.484  1.00  0.00    -0.273 OA
ATOM     17  H   UNL     1      -3.669   6.500  12.860  1.00  0.00     0.164 HD
BRANCH  15  18
ATOM     18  C   UNL     1      -5.318   7.947  14.120  1.00  0.00     0.171 C 
BRANCH  18  19
ATOM     19  N   UNL     1      -4.591   6.840  14.737  1.00  0.00    -0.343 N 
ATOM     20  C   UNL     1      -5.234   5.697  15.171  1.00  0.00     0.242 CG0
ATOM     21  O   UNL     1      -6.460   5.613  15.181  1.00  0.00    -0.273 OA
ATOM     22  H   UNL     1      -3.586   6.910  14.858  1.00  0.00     0.164 HD
ATOM     23  G   UNL     1      -4.292   4.606  15.723  1.00  0.00     0.000 G0
ENDBRANCH  18  19
BRANCH  18  24
ATOM     24  C   UNL     1      -5.511   9.109  15.102  1.00  0.00     0.038 C 
BRANCH  24  25
ATOM     25  C   UNL     1      -6.943   9.681  15.150  1.00  0.00    -0.015 C 
ATOM     26  C   UNL     1      -7.973   8.735  14.531  1.00  0.00     0.007 C 
ATOM     27  C   UNL     1      -6.984  11.030  14.427  1.00  0.00     0.007 C 
ENDBRANCH  24  25
ENDBRANCH  18  24
ENDBRANCH  15  18
ENDBRANCH  13  14
BRANCH  13  28
ATOM     28  C   UNL     1      -1.760   6.425  11.302  1.00  0.00     0.327 C 
ATOM     29  O   UNL     1      -0.669   6.361  10.757  1.00  0.00    -0.250 OA
BRANCH  28  30
ATOM     30  O   UNL     1      -2.312   5.327  11.856  1.00  0.00    -0.480 OA
ATOM     31  H   UNL     1      -2.212   5.467  12.821  1.00  0.00     0.296 HD
ENDBRANCH  28  30
ENDBRANCH  13  28
ENDBRANCH  11  13
ENDBRANCH   8  11
ENDBRANCH   6   7
BRANCH   6  32
ATOM     32  C   UNL     1       0.701  10.575   9.604  1.00  0.00     0.037 C 
BRANCH  32  33
ATOM     33  C   UNL     1       0.803  12.082   9.880  1.00  0.00     0.026 C 
BRANCH  33  34
ATOM     34  C   UNL     1      -0.512  12.673  10.393  1.00  0.00     0.146 C 
BRANCH  34  35
ATOM     35  N   UNL     1      -0.806  12.101  11.699  1.00  0.00    -0.254 NA
ATOM     36  C   UNL     1      -2.026  11.854  12.002  1.00  0.00     0.185 C 
ATOM     37  N   UNL     1      -2.308  11.323  13.201  1.00  0.00    -0.370 N 
ATOM     38  N   UNL     1      -3.135  12.053  11.267  1.00  0.00    -0.370 N 
ATOM     39  H   UNL     1      -1.522  11.133  13.810  1.00  0.00     0.159 HD
ATOM     40  H   UNL     1      -3.207  10.943  13.444  1.00  0.00     0.159 HD
ATOM     41  H   UNL     1      -4.052  11.948  11.670  1.00  0.00     0.159 HD
ATOM     42  H   UNL     1      -3.075  12.463  10.348  1.00  0.00     0.159 HD
ENDBRANCH  34  35
ENDBRANCH  33  34
ENDBRANCH  32  33
ENDBRANCH   6  32
ENDBRANCH   4   6
ENDBRANCH   1   2
BRANCH   1  43
ATOM     43  C   UNL     1       0.584   6.931   5.757  1.00  0.00     0.102 C 
ATOM     44  C   UNL     1       0.911   5.712   6.636  1.00  0.00     0.020 C 
BRANCH  43  45
ATOM     45  C   UNL     1       0.621   6.641   4.253  1.00  0.00     0.225 C 
ATOM     46  O   UNL     1      -0.105   5.812   3.712  1.00  0.00    -0.275 OA
ATOM     47  N   UNL     1       1.595   7.307   3.545  1.00  0.00    -0.342 N 
ATOM     48  H   UNL     1       2.076   8.088   3.969  1.00  0.00     0.164 HD
BRANCH  47  49
ATOM     49  C   UNL     1       1.726   7.155   2.093  1.00  0.00     0.192 C 
BRANCH  49  50
ATOM     50  C   UNL     1       3.196   6.936   1.729  1.00  0.00     0.047 C 
BRANCH  50  51
ATOM     51  C   UNL     1       4.137   7.231   2.905  1.00  0.00     0.103 C 
BRANCH  51  52
ATOM     52  C   UNL     1       4.587   8.690   2.928  1.00  0.00     0.226 C 
ATOM     53  O   UNL     1       4.009   9.495   3.662  1.00  0.00    -0.275 OA
BRANCH  52  54
ATOM     54  N   UNL     1       5.709   9.013   2.144  1.00  0.00    -0.311 N 
ATOM     55  C   UNL     1       6.810   8.055   1.968  1.00  0.00     0.153 C 
BRANCH  54  56
ATOM     56  C   UNL     1       5.818  10.255   1.497  1.00  0.00     0.102 C 
ATOM     57  C   UNL     1       6.323  11.369   2.052  1.00  0.00     0.043 C 
BRANCH  56  58
ATOM     58  C   UNL     1       5.398  10.417   0.055  1.00  0.00     0.268 C 
ATOM     59  O   UNL     1       4.237  10.596  -0.288  1.00  0.00    -0.268 OA
ATOM     60  N   UNL     1       6.458  10.410  -0.821  1.00  0.00    -0.339 N 
ATOM     61  H   UNL     1       7.389  10.245  -0.457  1.00  0.00     0.164 HD
BRANCH  60  62
ATOM     62  C   UNL     1       6.282  10.614  -2.258  1.00  0.00     0.168 CG0
ATOM     63  C   UNL     1       6.273   9.285  -3.002  1.00  0.00     0.041 C 
ATOM     64  G   UNL     1       7.403  11.530  -2.791  1.00  0.00     0.000 G0
ENDBRANCH  60  62
ENDBRANCH  56  58
ENDBRANCH  54  56
ENDBRANCH  52  54
ENDBRANCH  51  52
ENDBRANCH  50  51
ENDBRANCH  49  50
BRANCH  49  65
ATOM     65  C   UNL     1       1.195   8.387   1.344  1.00  0.00     0.326 C 
ATOM     66  O   UNL     1       1.565   8.762   0.241  1.00  0.00    -0.250 OA
BRANCH  65  67
ATOM     67  O   UNL     1       0.284   9.114   2.028  1.00  0.00    -0.480 OA
ATOM     68  H   UNL     1      -0.568   8.675   1.817  1.00  0.00     0.296 HD
ENDBRANCH  65  67
ENDBRANCH  49  65
ENDBRANCH  47  49
ENDBRANCH  43  45
ENDBRANCH   1  43
BRANCH   1  69
ATOM     69  C   UNL     1       2.921   8.028   6.342  1.00  0.00    -0.001 C 
ATOM     70  C   UNL     1       3.621   8.405   7.427  1.00  0.00     0.001 C 
BRANCH  70  71
ATOM     71  C   UNL     1       5.056   8.224   7.655  1.00  0.00    -0.055 C 
ATOM     72  C   UNL     1       5.832   7.952   6.584  1.00  0.00    -0.018 C 
ATOM     73  C   UNL     1       5.566   8.363   9.065  1.00  0.00     0.044 C 
BRANCH  72  74
ATOM     74  C   UNL     1       7.335   7.721   6.518  1.00  0.00     0.038 C 
ATOM     75  C   UNL     1       7.993   9.087   6.290  1.00  0.00     0.015 C 
BRANCH  74  76
ATOM     76  C   UNL     1       7.631   6.662   5.416  1.00  0.00     0.128 C 
BRANCH  76  77
ATOM     77  O   UNL     1       8.847   6.997   4.727  1.00  0.00    -0.381 OA
ATOM     78  C   UNL     1       9.291   5.988   3.829  1.00  0.00     0.195 C 
ENDBRANCH  76  77
BRANCH  76  79
ATOM     79  C   UNL     1       7.615   5.199   5.928  1.00  0.00     0.068 C 
BRANCH  79  80
ATOM     80  C   UNL     1       6.312   4.649   6.456  1.00  0.00    -0.045 A 
ATOM     81  C   UNL     1       5.223   4.430   5.603  1.00  0.00     0.004 A 
ATOM     82  C   UNL     1       6.164   4.373   7.823  1.00  0.00     0.004 A 
ATOM     83  C   UNL     1       4.016   3.934   6.101  1.00  0.00     0.000 A 
ATOM     84  C   UNL     1       4.956   3.877   8.321  1.00  0.00     0.000 A 
ATOM     85  C   UNL     1       3.884   3.657   7.460  1.00  0.00     0.000 A 
ENDBRANCH  79  80
ENDBRANCH  76  79
ENDBRANCH  74  76
ENDBRANCH  72  74
ENDBRANCH  70  71
ENDBRANCH   1  69
TORSDOF 17
ENDMDL
MODEL 21
REMARK VINA RESULT:    -6.427      2.587     11.251
REMARK INTER + INTRA:         -26.432
REMARK INTER:                 -20.101
REMARK INTRA:                  -6.331
REMARK UNBOUND:                -7.229
REMARK SMILES C=C1C(=O)N[C@H](C)C(=O)N[C@@H](CC(C)C)C(=O)N[C@@H](C(=O)O)[C@H](C)C(=O)N[C@@H](CCCN=C(N)N)C(=O)N[C@@H](/C=C/C(C)=C/[C@H](C)[C@H](Cc2ccccc2)OC)[C@H](C)C(=O)N[C@@H](C(=O)O)CCC(=O)N1C
REMARK SMILES IDX 39 1 38 2 37 3 36 4 28 6 27 7 25 8 26 9 23 11 24 12 19 13
REMARK SMILES IDX 18 14 16 15 17 16 11 18 10 19 8 20 9 21 12 24 13 25 14 26
REMARK SMILES IDX 15 27 20 28 21 29 22 30 29 32 30 33 31 34 32 35 33 36 34 37
REMARK SMILES IDX 35 38 57 43 58 44 59 45 60 46 61 47 62 49 66 50 67 51 68 52
REMARK SMILES IDX 69 53 70 54 71 55 2 56 1 57 3 58 4 59 5 60 6 62 7 63 63 65
REMARK SMILES IDX 64 66 65 67 40 69 41 70 42 71 44 72 43 73 45 74 46 75 47 76
REMARK SMILES IDX 55 77 56 78 48 79 49 80 50 81 54 82 51 83 53 84 52 85
REMARK H PARENT 38 5 27 10 18 17 10 22 22 31 34 39 34 40 35 41 35 42 61 48
REMARK H PARENT 5 61 65 68
REMARK Flexibility Score:  369.900
ROOT
ATOM      1  C   UNL     1      -0.024   6.243   7.363  1.00  0.00     0.117 C 
ENDROOT
BRANCH   1   2
ATOM      2  N   UNL     1       1.177   6.738   6.688  1.00  0.00    -0.347 N 
ATOM      3  O   UNL     1       2.730   5.595   7.934  1.00  0.00    -0.273 OA
ATOM      4  C   UNL     1       2.457   6.302   6.970  1.00  0.00     0.243 C 
ATOM      5  H   UNL     1       1.082   7.402   5.935  1.00  0.00     0.164 HD
BRANCH   4   6
ATOM      6  C   UNL     1       3.542   6.921   6.053  1.00  0.00     0.171 C 
BRANCH   6   7
ATOM      7  N   UNL     1       3.009   7.138   4.698  1.00  0.00    -0.344 N 
ATOM      8  C   UNL     1       3.723   6.738   3.590  1.00  0.00     0.226 C 
ATOM      9  O   UNL     1       4.827   6.213   3.670  1.00  0.00    -0.275 OA
ATOM     10  H   UNL     1       2.130   7.629   4.589  1.00  0.00     0.164 HD
BRANCH   8  11
ATOM     11  C   UNL     1       3.015   6.981   2.268  1.00  0.00     0.109 C 
ATOM     12  C   UNL     1       1.847   6.007   2.111  1.00  0.00     0.021 C 
BRANCH  11  13
ATOM     13  C   UNL     1       2.638   8.470   2.144  1.00  0.00     0.204 C 
BRANCH  13  14
ATOM     14  N   UNL     1       3.722   9.267   1.560  1.00  0.00    -0.340 N 
ATOM     15  C   UNL     1       4.539   8.795   0.555  1.00  0.00     0.243 C 
ATOM     16  O   UNL     1       4.377   7.693   0.035  1.00  0.00    -0.273 OA
ATOM     17  H   UNL     1       4.005  10.122   2.045  1.00  0.00     0.164 HD
BRANCH  15  18
ATOM     18  C   UNL     1       5.737   9.726   0.244  1.00  0.00     0.171 C 
BRANCH  18  19
ATOM     19  N   UNL     1       6.273  10.163   1.532  1.00  0.00    -0.343 N 
ATOM     20  C   UNL     1       6.339  11.498   1.878  1.00  0.00     0.242 CG0
ATOM     21  O   UNL     1       6.075  12.386   1.071  1.00  0.00    -0.273 OA
ATOM     22  H   UNL     1       6.612   9.470   2.190  1.00  0.00     0.164 HD
ATOM     23  G   UNL     1       6.859  11.761   3.307  1.00  0.00     0.000 G0
ENDBRANCH  18  19
BRANCH  18  24
ATOM     24  C   UNL     1       6.796   8.987  -0.583  1.00  0.00     0.038 C 
BRANCH  24  25
ATOM     25  C   UNL     1       6.931   9.476  -2.041  1.00  0.00    -0.015 C 
ATOM     26  C   UNL     1       6.738  10.987  -2.172  1.00  0.00     0.007 C 
ATOM     27  C   UNL     1       5.915   8.748  -2.925  1.00  0.00     0.007 C 
ENDBRANCH  24  25
ENDBRANCH  18  24
ENDBRANCH  15  18
ENDBRANCH  13  14
BRANCH  13  28
ATOM     28  C   UNL     1       1.389   8.708   1.290  1.00  0.00     0.327 C 
ATOM     29  O   UNL     1       1.327   8.658   0.071  1.00  0.00    -0.250 OA
BRANCH  28  30
ATOM     30  O   UNL     1       0.324   9.111   2.012  1.00  0.00    -0.480 OA
ATOM     31  H   UNL     1       0.694   9.759   2.647  1.00  0.00     0.296 HD
ENDBRANCH  28  30
ENDBRANCH  13  28
ENDBRANCH  11  13
ENDBRANCH   8  11
ENDBRANCH   6   7
BRANCH   6  32
ATOM     32  C   UNL     1       4.027   8.239   6.666  1.00  0.00     0.037 C 
BRANCH  32  33
ATOM     33  C   UNL     1       4.981   8.012   7.848  1.00  0.00     0.026 C 
BRANCH  33  34
ATOM     34  C   UNL     1       5.991   6.896   7.578  1.00  0.00     0.146 C 
BRANCH  34  35
ATOM     35  N   UNL     1       7.114   7.449   6.833  1.00  0.00    -0.254 NA
ATOM     36  C   UNL     1       7.595   6.773   5.857  1.00  0.00     0.185 C 
ATOM     37  N   UNL     1       8.627   7.276   5.160  1.00  0.00    -0.370 N 
ATOM     38  N   UNL     1       7.211   5.572   5.390  1.00  0.00    -0.370 N 
ATOM     39  H   UNL     1       8.967   8.185   5.445  1.00  0.00     0.159 HD
ATOM     40  H   UNL     1       8.944   6.896   4.285  1.00  0.00     0.159 HD
ATOM     41  H   UNL     1       7.760   5.080   4.703  1.00  0.00     0.159 HD
ATOM     42  H   UNL     1       6.456   5.069   5.829  1.00  0.00     0.159 HD
ENDBRANCH  34  35
ENDBRANCH  33  34
ENDBRANCH  32  33
ENDBRANCH   6  32
ENDBRANCH   4   6
ENDBRANCH   1   2
BRANCH   1  43
ATOM     43  C   UNL     1      -1.019   5.724   6.285  1.00  0.00     0.102 C 
ATOM     44  C   UNL     1      -0.622   6.109   4.850  1.00  0.00     0.020 C 
BRANCH  43  45
ATOM     45  C   UNL     1      -2.462   6.087   6.649  1.00  0.00     0.225 C 
ATOM     46  O   UNL     1      -2.960   7.183   6.407  1.00  0.00    -0.275 OA
ATOM     47  N   UNL     1      -3.152   5.130   7.358  1.00  0.00    -0.342 N 
ATOM     48  H   UNL     1      -2.788   4.190   7.415  1.00  0.00     0.164 HD
BRANCH  47  49
ATOM     49  C   UNL     1      -4.553   5.325   7.744  1.00  0.00     0.192 C 
BRANCH  49  50
ATOM     50  C   UNL     1      -4.881   4.443   8.951  1.00  0.00     0.047 C 
BRANCH  50  51
ATOM     51  C   UNL     1      -4.219   4.950  10.239  1.00  0.00     0.103 C 
BRANCH  51  52
ATOM     52  C   UNL     1      -4.213   3.889  11.337  1.00  0.00     0.226 C 
ATOM     53  O   UNL     1      -4.989   2.933  11.267  1.00  0.00    -0.275 OA
BRANCH  52  54
ATOM     54  N   UNL     1      -3.244   4.036  12.347  1.00  0.00    -0.311 N 
ATOM     55  C   UNL     1      -1.962   4.699  12.073  1.00  0.00     0.153 C 
BRANCH  54  56
ATOM     56  C   UNL     1      -3.466   3.562  13.650  1.00  0.00     0.102 C 
ATOM     57  C   UNL     1      -3.593   4.339  14.739  1.00  0.00     0.043 C 
BRANCH  56  58
ATOM     58  C   UNL     1      -3.627   2.085  13.921  1.00  0.00     0.268 C 
ATOM     59  O   UNL     1      -2.688   1.301  13.939  1.00  0.00    -0.268 OA
ATOM     60  N   UNL     1      -4.923   1.727  14.208  1.00  0.00    -0.339 N 
ATOM     61  H   UNL     1      -5.646   2.435  14.162  1.00  0.00     0.164 HD
BRANCH  60  62
ATOM     62  C   UNL     1      -5.292   0.357  14.561  1.00  0.00     0.168 CG0
ATOM     63  C   UNL     1      -5.717  -0.430  13.328  1.00  0.00     0.041 C 
ATOM     64  G   UNL     1      -6.424   0.381  15.610  1.00  0.00     0.000 G0
ENDBRANCH  60  62
ENDBRANCH  56  58
ENDBRANCH  54  56
ENDBRANCH  52  54
ENDBRANCH  51  52
ENDBRANCH  50  51
ENDBRANCH  49  50
BRANCH  49  65
ATOM     65  C   UNL     1      -5.510   4.986   6.590  1.00  0.00     0.326 C 
ATOM     66  O   UNL     1      -5.757   3.861   6.179  1.00  0.00    -0.250 OA
BRANCH  65  67
ATOM     67  O   UNL     1      -6.058   6.059   5.978  1.00  0.00    -0.480 OA
ATOM     68  H   UNL     1      -5.752   6.816   6.521  1.00  0.00     0.296 HD
ENDBRANCH  65  67
ENDBRANCH  49  65
ENDBRANCH  47  49
ENDBRANCH  43  45
ENDBRANCH   1  43
BRANCH   1  69
ATOM     69  C   UNL     1      -0.469   7.349   8.301  1.00  0.00    -0.001 C 
ATOM     70  C   UNL     1      -0.741   7.247   9.614  1.00  0.00     0.001 C 
BRANCH  70  71
ATOM     71  C   UNL     1      -1.150   8.327  10.515  1.00  0.00    -0.055 C 
ATOM     72  C   UNL     1      -2.033   9.234  10.046  1.00  0.00    -0.018 C 
ATOM     73  C   UNL     1      -0.563   8.345  11.902  1.00  0.00     0.044 C 
BRANCH  72  74
ATOM     74  C   UNL     1      -2.632  10.446  10.746  1.00  0.00     0.038 C 
ATOM     75  C   UNL     1      -4.056  10.065  11.170  1.00  0.00     0.015 C 
BRANCH  74  76
ATOM     76  C   UNL     1      -2.541  11.672   9.791  1.00  0.00     0.128 C 
BRANCH  76  77
ATOM     77  O   UNL     1      -3.720  12.484   9.921  1.00  0.00    -0.381 OA
ATOM     78  C   UNL     1      -4.291  12.865   8.676  1.00  0.00     0.195 C 
ENDBRANCH  76  77
BRANCH  76  79
ATOM     79  C   UNL     1      -1.232  12.488   9.938  1.00  0.00     0.068 C 
BRANCH  79  80
ATOM     80  C   UNL     1       0.078  11.766   9.736  1.00  0.00    -0.045 A 
ATOM     81  C   UNL     1       0.457  11.298   8.471  1.00  0.00     0.004 A 
ATOM     82  C   UNL     1       0.929  11.527  10.826  1.00  0.00     0.004 A 
ATOM     83  C   UNL     1       1.664  10.619   8.295  1.00  0.00     0.000 A 
ATOM     84  C   UNL     1       2.136  10.847  10.649  1.00  0.00     0.000 A 
ATOM     85  C   UNL     1       2.504  10.395   9.384  1.00  0.00     0.000 A 
ENDBRANCH  79  80
ENDBRANCH  76  79
ENDBRANCH  74  76
ENDBRANCH  72  74
ENDBRANCH  70  71
ENDBRANCH   1  69
TORSDOF 17
ENDMDL
MODEL 22
REMARK VINA RESULT:    -6.422      2.530     11.085
REMARK INTER + INTRA:         -26.417
REMARK INTER:                 -19.904
REMARK INTRA:                  -6.513
REMARK UNBOUND:                -7.229
REMARK SMILES C=C1C(=O)N[C@H](C)C(=O)N[C@@H](CC(C)C)C(=O)N[C@@H](C(=O)O)[C@H](C)C(=O)N[C@@H](CCCN=C(N)N)C(=O)N[C@@H](/C=C/C(C)=C/[C@H](C)[C@H](Cc2ccccc2)OC)[C@H](C)C(=O)N[C@@H](C(=O)O)CCC(=O)N1C
REMARK SMILES IDX 39 1 38 2 37 3 36 4 28 6 27 7 25 8 26 9 23 11 24 12 19 13
REMARK SMILES IDX 18 14 16 15 17 16 11 18 10 19 8 20 9 21 12 24 13 25 14 26
REMARK SMILES IDX 15 27 20 28 21 29 22 30 29 32 30 33 31 34 32 35 33 36 34 37
REMARK SMILES IDX 35 38 57 43 58 44 59 45 60 46 61 47 62 49 66 50 67 51 68 52
REMARK SMILES IDX 69 53 70 54 71 55 2 56 1 57 3 58 4 59 5 60 6 62 7 63 63 65
REMARK SMILES IDX 64 66 65 67 40 69 41 70 42 71 44 72 43 73 45 74 46 75 47 76
REMARK SMILES IDX 55 77 56 78 48 79 49 80 50 81 54 82 51 83 53 84 52 85
REMARK H PARENT 38 5 27 10 18 17 10 22 22 31 34 39 34 40 35 41 35 42 61 48
REMARK H PARENT 5 61 65 68
REMARK Flexibility Score:  369.900
ROOT
ATOM      1  C   UNL     1      -0.171   6.532   7.417  1.00  0.00     0.117 C 
ENDROOT
BRANCH   1   2
ATOM      2  N   UNL     1       1.051   7.017   6.775  1.00  0.00    -0.347 N 
ATOM      3  O   UNL     1       2.551   5.735   7.949  1.00  0.00    -0.273 OA
ATOM      4  C   UNL     1       2.311   6.511   7.030  1.00  0.00     0.243 C 
ATOM      5  H   UNL     1       0.987   7.729   6.063  1.00  0.00     0.164 HD
BRANCH   4   6
ATOM      6  C   UNL     1       3.424   7.139   6.153  1.00  0.00     0.171 C 
BRANCH   6   7
ATOM      7  N   UNL     1       2.947   7.327   4.773  1.00  0.00    -0.344 N 
ATOM      8  C   UNL     1       3.410   6.522   3.754  1.00  0.00     0.226 C 
ATOM      9  O   UNL     1       4.243   5.641   3.935  1.00  0.00    -0.275 OA
ATOM     10  H   UNL     1       2.311   8.088   4.573  1.00  0.00     0.164 HD
BRANCH   8  11
ATOM     11  C   UNL     1       2.783   6.804   2.400  1.00  0.00     0.109 C 
ATOM     12  C   UNL     1       1.466   6.041   2.262  1.00  0.00     0.021 C 
BRANCH  11  13
ATOM     13  C   UNL     1       2.676   8.327   2.182  1.00  0.00     0.204 C 
BRANCH  13  14
ATOM     14  N   UNL     1       3.847   8.867   1.485  1.00  0.00    -0.340 N 
ATOM     15  C   UNL     1       4.913   9.441   2.145  1.00  0.00     0.243 C 
ATOM     16  O   UNL     1       4.983   9.484   3.371  1.00  0.00    -0.273 OA
ATOM     17  H   UNL     1       3.784   9.000   0.472  1.00  0.00     0.164 HD
BRANCH  15  18
ATOM     18  C   UNL     1       5.930  10.126   1.199  1.00  0.00     0.171 C 
BRANCH  18  19
ATOM     19  N   UNL     1       5.577   9.719  -0.160  1.00  0.00    -0.343 N 
ATOM     20  C   UNL     1       6.541   9.458  -1.115  1.00  0.00     0.242 CG0
ATOM     21  O   UNL     1       7.731   9.682  -0.907  1.00  0.00    -0.273 OA
ATOM     22  H   UNL     1       4.600   9.632  -0.415  1.00  0.00     0.164 HD
ATOM     23  G   UNL     1       5.981   8.966  -2.466  1.00  0.00     0.000 G0
ENDBRANCH  18  19
BRANCH  18  24
ATOM     24  C   UNL     1       5.879  11.650   1.361  1.00  0.00     0.038 C 
BRANCH  24  25
ATOM     25  C   UNL     1       6.924  12.229   2.338  1.00  0.00    -0.015 C 
ATOM     26  C   UNL     1       6.283  12.861   3.574  1.00  0.00     0.007 C 
ATOM     27  C   UNL     1       7.783  13.270   1.614  1.00  0.00     0.007 C 
ENDBRANCH  24  25
ENDBRANCH  18  24
ENDBRANCH  15  18
ENDBRANCH  13  14
BRANCH  13  28
ATOM     28  C   UNL     1       1.439   8.736   1.377  1.00  0.00     0.327 C 
ATOM     29  O   UNL     1       1.368   8.834   0.161  1.00  0.00    -0.250 OA
BRANCH  28  30
ATOM     30  O   UNL     1       0.403   9.111   2.154  1.00  0.00    -0.480 OA
ATOM     31  H   UNL     1       0.744   9.879   2.657  1.00  0.00     0.296 HD
ENDBRANCH  28  30
ENDBRANCH  13  28
ENDBRANCH  11  13
ENDBRANCH   8  11
ENDBRANCH   6   7
BRANCH   6  32
ATOM     32  C   UNL     1       3.857   8.474   6.768  1.00  0.00     0.037 C 
BRANCH  32  33
ATOM     33  C   UNL     1       5.191   8.361   7.519  1.00  0.00     0.026 C 
BRANCH  33  34
ATOM     34  C   UNL     1       5.026   8.513   9.032  1.00  0.00     0.146 C 
BRANCH  34  35
ATOM     35  N   UNL     1       3.938   9.445   9.294  1.00  0.00    -0.254 NA
ATOM     36  C   UNL     1       3.735   9.829  10.500  1.00  0.00     0.185 C 
ATOM     37  N   UNL     1       2.739  10.691  10.752  1.00  0.00    -0.370 N 
ATOM     38  N   UNL     1       4.399   9.487  11.618  1.00  0.00    -0.370 N 
ATOM     39  H   UNL     1       2.197  11.005   9.957  1.00  0.00     0.159 HD
ATOM     40  H   UNL     1       2.626  11.169  11.630  1.00  0.00     0.159 HD
ATOM     41  H   UNL     1       4.056   9.747  12.528  1.00  0.00     0.159 HD
ATOM     42  H   UNL     1       5.164   8.831  11.580  1.00  0.00     0.159 HD
ENDBRANCH  34  35
ENDBRANCH  33  34
ENDBRANCH  32  33
ENDBRANCH   6  32
ENDBRANCH   4   6
ENDBRANCH   1   2
BRANCH   1  43
ATOM     43  C   UNL     1      -1.052   5.834   6.341  1.00  0.00     0.102 C 
ATOM     44  C   UNL     1      -0.593   6.111   4.900  1.00  0.00     0.020 C 
BRANCH  43  45
ATOM     45  C   UNL     1      -2.539   6.110   6.584  1.00  0.00     0.225 C 
ATOM     46  O   UNL     1      -3.132   7.068   6.096  1.00  0.00    -0.275 OA
ATOM     47  N   UNL     1      -3.162   5.262   7.470  1.00  0.00    -0.342 N 
ATOM     48  H   UNL     1      -2.710   4.400   7.741  1.00  0.00     0.164 HD
BRANCH  47  49
ATOM     49  C   UNL     1      -4.592   5.384   7.772  1.00  0.00     0.192 C 
BRANCH  49  50
ATOM     50  C   UNL     1      -4.878   4.794   9.155  1.00  0.00     0.047 C 
BRANCH  50  51
ATOM     51  C   UNL     1      -3.678   4.020   9.717  1.00  0.00     0.103 C 
BRANCH  51  52
ATOM     52  C   UNL     1      -4.067   2.619  10.185  1.00  0.00     0.226 C 
ATOM     53  O   UNL     1      -4.913   1.979   9.557  1.00  0.00    -0.275 OA
BRANCH  52  54
ATOM     54  N   UNL     1      -3.361   2.108  11.290  1.00  0.00    -0.311 N 
ATOM     55  C   UNL     1      -2.250   1.165  11.106  1.00  0.00     0.153 C 
BRANCH  54  56
ATOM     56  C   UNL     1      -3.686   2.484  12.604  1.00  0.00     0.102 C 
ATOM     57  C   UNL     1      -3.092   3.476  13.288  1.00  0.00     0.043 C 
BRANCH  56  58
ATOM     58  C   UNL     1      -4.804   1.798  13.352  1.00  0.00     0.268 C 
ATOM     59  O   UNL     1      -5.980   1.885  13.027  1.00  0.00    -0.268 OA
ATOM     60  N   UNL     1      -4.358   1.016  14.392  1.00  0.00    -0.339 N 
ATOM     61  H   UNL     1      -3.367   1.006  14.604  1.00  0.00     0.164 HD
BRANCH  60  62
ATOM     62  C   UNL     1      -5.267   0.215  15.209  1.00  0.00     0.168 CG0
ATOM     63  C   UNL     1      -5.342  -1.219  14.699  1.00  0.00     0.041 C 
ATOM     64  G   UNL     1      -6.666   0.865  15.216  1.00  0.00     0.000 G0
ENDBRANCH  60  62
ENDBRANCH  56  58
ENDBRANCH  54  56
ENDBRANCH  52  54
ENDBRANCH  51  52
ENDBRANCH  50  51
ENDBRANCH  49  50
BRANCH  49  65
ATOM     65  C   UNL     1      -5.456   4.667   6.723  1.00  0.00     0.326 C 
ATOM     66  O   UNL     1      -5.368   3.486   6.417  1.00  0.00    -0.250 OA
BRANCH  65  67
ATOM     67  O   UNL     1      -6.333   5.463   6.074  1.00  0.00    -0.480 OA
ATOM     68  H   UNL     1      -6.443   5.025   5.203  1.00  0.00     0.296 HD
ENDBRANCH  65  67
ENDBRANCH  49  65
ENDBRANCH  47  49
ENDBRANCH  43  45
ENDBRANCH   1  43
BRANCH   1  69
ATOM     69  C   UNL     1      -0.744   7.712   8.182  1.00  0.00    -0.001 C 
ATOM     70  C   UNL     1      -0.769   9.000   7.798  1.00  0.00     0.001 C 
BRANCH  70  71
ATOM     71  C   UNL     1      -1.344  10.127   8.535  1.00  0.00    -0.055 C 
ATOM     72  C   UNL     1      -0.655  10.601   9.594  1.00  0.00    -0.018 C 
ATOM     73  C   UNL     1      -2.659  10.682   8.055  1.00  0.00     0.044 C 
BRANCH  72  74
ATOM     74  C   UNL     1      -1.001  11.749  10.533  1.00  0.00     0.038 C 
ATOM     75  C   UNL     1      -0.121  12.940  10.134  1.00  0.00     0.015 C 
BRANCH  74  76
ATOM     76  C   UNL     1      -0.820  11.266  12.002  1.00  0.00     0.128 C 
BRANCH  76  77
ATOM     77  O   UNL     1      -1.943  11.682  12.797  1.00  0.00    -0.381 OA
ATOM     78  C   UNL     1      -3.001  12.249  12.038  1.00  0.00     0.195 C 
ENDBRANCH  76  77
BRANCH  76  79
ATOM     79  C   UNL     1      -0.519   9.751  12.134  1.00  0.00     0.068 C 
BRANCH  79  80
ATOM     80  C   UNL     1      -1.638   8.846  12.589  1.00  0.00    -0.045 A 
ATOM     81  C   UNL     1      -1.686   8.361  13.902  1.00  0.00     0.004 A 
ATOM     82  C   UNL     1      -2.638   8.451  11.688  1.00  0.00     0.004 A 
ATOM     83  C   UNL     1      -2.717   7.512  14.311  1.00  0.00     0.000 A 
ATOM     84  C   UNL     1      -3.669   7.601  12.097  1.00  0.00     0.000 A 
ATOM     85  C   UNL     1      -3.709   7.133  13.409  1.00  0.00     0.000 A 
ENDBRANCH  79  80
ENDBRANCH  76  79
ENDBRANCH  74  76
ENDBRANCH  72  74
ENDBRANCH  70  71
ENDBRANCH   1  69
TORSDOF 17
ENDMDL
MODEL 23
REMARK VINA RESULT:    -6.422      2.449      4.453
REMARK INTER + INTRA:         -26.416
REMARK INTER:                 -20.048
REMARK INTRA:                  -6.368
REMARK UNBOUND:                -7.229
REMARK SMILES C=C1C(=O)N[C@H](C)C(=O)N[C@@H](CC(C)C)C(=O)N[C@@H](C(=O)O)[C@H](C)C(=O)N[C@@H](CCCN=C(N)N)C(=O)N[C@@H](/C=C/C(C)=C/[C@H](C)[C@H](Cc2ccccc2)OC)[C@H](C)C(=O)N[C@@H](C(=O)O)CCC(=O)N1C
REMARK SMILES IDX 39 1 38 2 37 3 36 4 28 6 27 7 25 8 26 9 23 11 24 12 19 13
REMARK SMILES IDX 18 14 16 15 17 16 11 18 10 19 8 20 9 21 12 24 13 25 14 26
REMARK SMILES IDX 15 27 20 28 21 29 22 30 29 32 30 33 31 34 32 35 33 36 34 37
REMARK SMILES IDX 35 38 57 43 58 44 59 45 60 46 61 47 62 49 66 50 67 51 68 52
REMARK SMILES IDX 69 53 70 54 71 55 2 56 1 57 3 58 4 59 5 60 6 62 7 63 63 65
REMARK SMILES IDX 64 66 65 67 40 69 41 70 42 71 44 72 43 73 45 74 46 75 47 76
REMARK SMILES IDX 55 77 56 78 48 79 49 80 50 81 54 82 51 83 53 84 52 85
REMARK H PARENT 38 5 27 10 18 17 10 22 22 31 34 39 34 40 35 41 35 42 61 48
REMARK H PARENT 5 61 65 68
REMARK Flexibility Score:  369.900
ROOT
ATOM      1  C   UNL     1      -0.647   7.538   6.895  1.00  0.00     0.117 C 
ENDROOT
BRANCH   1   2
ATOM      2  N   UNL     1      -1.635   6.660   7.523  1.00  0.00    -0.347 N 
ATOM      3  O   UNL     1      -3.486   7.416   6.395  1.00  0.00    -0.273 OA
ATOM      4  C   UNL     1      -2.966   6.606   7.155  1.00  0.00     0.243 C 
ATOM      5  H   UNL     1      -1.338   6.011   8.236  1.00  0.00     0.164 HD
BRANCH   4   6
ATOM      6  C   UNL     1      -3.780   5.531   7.918  1.00  0.00     0.171 C 
BRANCH   6   7
ATOM      7  N   UNL     1      -2.914   4.403   8.296  1.00  0.00    -0.344 N 
ATOM      8  C   UNL     1      -3.387   3.109   8.254  1.00  0.00     0.226 C 
ATOM      9  O   UNL     1      -4.537   2.836   7.928  1.00  0.00    -0.275 OA
ATOM     10  H   UNL     1      -1.980   4.593   8.636  1.00  0.00     0.164 HD
BRANCH   8  11
ATOM     11  C   UNL     1      -2.358   2.054   8.621  1.00  0.00     0.109 C 
ATOM     12  C   UNL     1      -0.959   2.671   8.645  1.00  0.00     0.021 C 
BRANCH  11  13
ATOM     13  C   UNL     1      -2.778   1.347   9.925  1.00  0.00     0.204 C 
BRANCH  13  14
ATOM     14  N   UNL     1      -3.679   2.173  10.735  1.00  0.00    -0.340 N 
ATOM     15  C   UNL     1      -3.597   2.244  12.109  1.00  0.00     0.243 C 
ATOM     16  O   UNL     1      -2.721   1.665  12.749  1.00  0.00    -0.273 OA
ATOM     17  H   UNL     1      -4.515   2.554  10.285  1.00  0.00     0.164 HD
BRANCH  15  18
ATOM     18  C   UNL     1      -4.776   3.008  12.760  1.00  0.00     0.171 C 
BRANCH  18  19
ATOM     19  N   UNL     1      -5.839   2.029  12.979  1.00  0.00    -0.343 N 
ATOM     20  C   UNL     1      -6.766   1.728  12.000  1.00  0.00     0.242 CG0
ATOM     21  O   UNL     1      -6.821   2.363  10.949  1.00  0.00    -0.273 OA
ATOM     22  H   UNL     1      -5.906   1.560  13.876  1.00  0.00     0.164 HD
ATOM     23  G   UNL     1      -7.762   0.615  12.387  1.00  0.00     0.000 G0
ENDBRANCH  18  19
BRANCH  18  24
ATOM     24  C   UNL     1      -4.335   3.664  14.075  1.00  0.00     0.038 C 
BRANCH  24  25
ATOM     25  C   UNL     1      -4.731   5.149  14.218  1.00  0.00    -0.015 C 
ATOM     26  C   UNL     1      -3.617   5.994  14.836  1.00  0.00     0.007 C 
ATOM     27  C   UNL     1      -5.998   5.263  15.070  1.00  0.00     0.007 C 
ENDBRANCH  24  25
ENDBRANCH  18  24
ENDBRANCH  15  18
ENDBRANCH  13  14
BRANCH  13  28
ATOM     28  C   UNL     1      -3.481   0.008   9.686  1.00  0.00     0.327 C 
ATOM     29  O   UNL     1      -3.666  -0.870  10.515  1.00  0.00    -0.250 OA
BRANCH  28  30
ATOM     30  O   UNL     1      -3.804  -0.196   8.393  1.00  0.00    -0.480 OA
ATOM     31  H   UNL     1      -4.014  -1.152   8.345  1.00  0.00     0.296 HD
ENDBRANCH  28  30
ENDBRANCH  13  28
ENDBRANCH  11  13
ENDBRANCH   8  11
ENDBRANCH   6   7
BRANCH   6  32
ATOM     32  C   UNL     1      -4.421   6.168   9.156  1.00  0.00     0.037 C 
BRANCH  32  33
ATOM     33  C   UNL     1      -3.711   5.756  10.453  1.00  0.00     0.026 C 
BRANCH  33  34
ATOM     34  C   UNL     1      -3.301   6.959  11.304  1.00  0.00     0.146 C 
BRANCH  34  35
ATOM     35  N   UNL     1      -2.160   7.612  10.676  1.00  0.00    -0.254 NA
ATOM     36  C   UNL     1      -1.127   7.864  11.391  1.00  0.00     0.185 C 
ATOM     37  N   UNL     1      -0.068   8.461  10.822  1.00  0.00    -0.370 N 
ATOM     38  N   UNL     1      -0.921   7.612  12.696  1.00  0.00    -0.370 N 
ATOM     39  H   UNL     1      -0.143   8.674   9.835  1.00  0.00     0.159 HD
ATOM     40  H   UNL     1       0.832   8.534  11.263  1.00  0.00     0.159 HD
ATOM     41  H   UNL     1      -0.119   7.985  13.178  1.00  0.00     0.159 HD
ATOM     42  H   UNL     1      -1.640   7.181  13.255  1.00  0.00     0.159 HD
ENDBRANCH  34  35
ENDBRANCH  33  34
ENDBRANCH  32  33
ENDBRANCH   6  32
ENDBRANCH   4   6
ENDBRANCH   1   2
BRANCH   1  43
ATOM     43  C   UNL     1       0.722   6.798   6.863  1.00  0.00     0.102 C 
ATOM     44  C   UNL     1       1.916   7.706   7.204  1.00  0.00     0.020 C 
BRANCH  43  45
ATOM     45  C   UNL     1       0.892   6.012   5.559  1.00  0.00     0.225 C 
ATOM     46  O   UNL     1       1.282   4.849   5.523  1.00  0.00    -0.275 OA
ATOM     47  N   UNL     1       0.668   6.726   4.404  1.00  0.00    -0.342 N 
ATOM     48  H   UNL     1       0.207   7.623   4.452  1.00  0.00     0.164 HD
BRANCH  47  49
ATOM     49  C   UNL     1       0.759   6.095   3.084  1.00  0.00     0.192 C 
BRANCH  49  50
ATOM     50  C   UNL     1       2.024   6.577   2.369  1.00  0.00     0.047 C 
BRANCH  50  51
ATOM     51  C   UNL     1       2.506   7.936   2.893  1.00  0.00     0.103 C 
BRANCH  51  52
ATOM     52  C   UNL     1       3.794   8.390   2.209  1.00  0.00     0.226 C 
ATOM     53  O   UNL     1       4.588   9.110   2.819  1.00  0.00    -0.275 OA
BRANCH  52  54
ATOM     54  N   UNL     1       4.032   7.881   0.919  1.00  0.00    -0.311 N 
ATOM     55  C   UNL     1       4.775   6.629   0.725  1.00  0.00     0.153 C 
BRANCH  54  56
ATOM     56  C   UNL     1       3.566   8.545  -0.228  1.00  0.00     0.102 C 
ATOM     57  C   UNL     1       2.344   9.089  -0.358  1.00  0.00     0.043 C 
BRANCH  56  58
ATOM     58  C   UNL     1       4.461   8.741  -1.429  1.00  0.00     0.268 C 
ATOM     59  O   UNL     1       4.408   8.034  -2.426  1.00  0.00    -0.268 OA
ATOM     60  N   UNL     1       5.291   9.830  -1.312  1.00  0.00    -0.339 N 
ATOM     61  H   UNL     1       5.282  10.359  -0.448  1.00  0.00     0.164 HD
BRANCH  60  62
ATOM     62  C   UNL     1       6.196  10.239  -2.386  1.00  0.00     0.168 CG0
ATOM     63  C   UNL     1       7.393  11.001  -1.831  1.00  0.00     0.041 C 
ATOM     64  G   UNL     1       5.428  11.099  -3.410  1.00  0.00     0.000 G0
ENDBRANCH  60  62
ENDBRANCH  56  58
ENDBRANCH  54  56
ENDBRANCH  52  54
ENDBRANCH  51  52
ENDBRANCH  50  51
ENDBRANCH  49  50
BRANCH  49  65
ATOM     65  C   UNL     1      -0.469   6.415   2.217  1.00  0.00     0.326 C 
ATOM     66  O   UNL     1      -0.505   7.234   1.310  1.00  0.00    -0.250 OA
BRANCH  65  67
ATOM     67  O   UNL     1      -1.592   5.747   2.562  1.00  0.00    -0.480 OA
ATOM     68  H   UNL     1      -2.214   6.460   2.821  1.00  0.00     0.296 HD
ENDBRANCH  65  67
ENDBRANCH  49  65
ENDBRANCH  47  49
ENDBRANCH  43  45
ENDBRANCH   1  43
BRANCH   1  69
ATOM     69  C   UNL     1      -0.744   8.870   7.616  1.00  0.00    -0.001 C 
ATOM     70  C   UNL     1      -1.458   9.948   7.247  1.00  0.00     0.001 C 
BRANCH  70  71
ATOM     71  C   UNL     1      -1.561  11.221   7.963  1.00  0.00    -0.055 C 
ATOM     72  C   UNL     1      -1.803  11.178   9.290  1.00  0.00    -0.018 C 
ATOM     73  C   UNL     1      -1.382  12.489   7.169  1.00  0.00     0.044 C 
BRANCH  72  74
ATOM     74  C   UNL     1      -1.955  12.324  10.279  1.00  0.00     0.038 C 
ATOM     75  C   UNL     1      -0.549  12.862  10.569  1.00  0.00     0.015 C 
BRANCH  74  76
ATOM     76  C   UNL     1      -2.727  11.808  11.530  1.00  0.00     0.128 C 
BRANCH  76  77
ATOM     77  O   UNL     1      -1.973  12.088  12.721  1.00  0.00    -0.381 OA
ATOM     78  C   UNL     1      -1.592  10.923  13.442  1.00  0.00     0.195 C 
ENDBRANCH  76  77
BRANCH  76  79
ATOM     79  C   UNL     1      -4.191  12.306  11.616  1.00  0.00     0.068 C 
BRANCH  79  80
ATOM     80  C   UNL     1      -5.249  11.321  12.051  1.00  0.00    -0.045 A 
ATOM     81  C   UNL     1      -4.907  10.019  12.440  1.00  0.00     0.004 A 
ATOM     82  C   UNL     1      -6.603  11.688  12.045  1.00  0.00     0.004 A 
ATOM     83  C   UNL     1      -5.893   9.109  12.827  1.00  0.00     0.000 A 
ATOM     84  C   UNL     1      -7.588  10.777  12.432  1.00  0.00     0.000 A 
ATOM     85  C   UNL     1      -7.233   9.489  12.824  1.00  0.00     0.000 A 
ENDBRANCH  79  80
ENDBRANCH  76  79
ENDBRANCH  74  76
ENDBRANCH  72  74
ENDBRANCH  70  71
ENDBRANCH   1  69
TORSDOF 17
ENDMDL
MODEL 24
REMARK VINA RESULT:    -6.412      3.254     11.948
REMARK INTER + INTRA:         -26.386
REMARK INTER:                 -18.980
REMARK INTRA:                  -7.406
REMARK UNBOUND:                -7.229
REMARK SMILES C=C1C(=O)N[C@H](C)C(=O)N[C@@H](CC(C)C)C(=O)N[C@@H](C(=O)O)[C@H](C)C(=O)N[C@@H](CCCN=C(N)N)C(=O)N[C@@H](/C=C/C(C)=C/[C@H](C)[C@H](Cc2ccccc2)OC)[C@H](C)C(=O)N[C@@H](C(=O)O)CCC(=O)N1C
REMARK SMILES IDX 39 1 38 2 37 3 36 4 28 6 27 7 25 8 26 9 23 11 24 12 19 13
REMARK SMILES IDX 18 14 16 15 17 16 11 18 10 19 8 20 9 21 12 24 13 25 14 26
REMARK SMILES IDX 15 27 20 28 21 29 22 30 29 32 30 33 31 34 32 35 33 36 34 37
REMARK SMILES IDX 35 38 57 43 58 44 59 45 60 46 61 47 62 49 66 50 67 51 68 52
REMARK SMILES IDX 69 53 70 54 71 55 2 56 1 57 3 58 4 59 5 60 6 62 7 63 63 65
REMARK SMILES IDX 64 66 65 67 40 69 41 70 42 71 44 72 43 73 45 74 46 75 47 76
REMARK SMILES IDX 55 77 56 78 48 79 49 80 50 81 54 82 51 83 53 84 52 85
REMARK H PARENT 38 5 27 10 18 17 10 22 22 31 34 39 34 40 35 41 35 42 61 48
REMARK H PARENT 5 61 65 68
REMARK Flexibility Score:  369.900
ROOT
ATOM      1  C   UNL     1       1.769   9.308   8.082  1.00  0.00     0.117 C 
ENDROOT
BRANCH   1   2
ATOM      2  N   UNL     1       1.208   8.507   6.994  1.00  0.00    -0.347 N 
ATOM      3  O   UNL     1       0.710   6.627   8.214  1.00  0.00    -0.273 OA
ATOM      4  C   UNL     1       0.638   7.260   7.166  1.00  0.00     0.243 C 
ATOM      5  H   UNL     1       1.182   8.889   6.061  1.00  0.00     0.164 HD
BRANCH   4   6
ATOM      6  C   UNL     1       0.041   6.663   5.866  1.00  0.00     0.171 C 
BRANCH   6   7
ATOM      7  N   UNL     1       1.096   6.459   4.862  1.00  0.00    -0.344 N 
ATOM      8  C   UNL     1       0.784   6.373   3.522  1.00  0.00     0.226 C 
ATOM      9  O   UNL     1      -0.366   6.437   3.107  1.00  0.00    -0.275 OA
ATOM     10  H   UNL     1       2.052   6.334   5.172  1.00  0.00     0.164 HD
BRANCH   8  11
ATOM     11  C   UNL     1       1.988   6.217   2.609  1.00  0.00     0.109 C 
ATOM     12  C   UNL     1       1.582   5.494   1.324  1.00  0.00     0.021 C 
BRANCH  11  13
ATOM     13  C   UNL     1       2.663   7.586   2.397  1.00  0.00     0.204 C 
BRANCH  13  14
ATOM     14  N   UNL     1       3.459   7.624   1.167  1.00  0.00    -0.340 N 
ATOM     15  C   UNL     1       4.763   7.181   1.105  1.00  0.00     0.243 C 
ATOM     16  O   UNL     1       5.331   6.665   2.066  1.00  0.00    -0.273 OA
ATOM     17  H   UNL     1       3.103   8.175   0.381  1.00  0.00     0.164 HD
BRANCH  15  18
ATOM     18  C   UNL     1       5.466   7.511  -0.235  1.00  0.00     0.171 C 
BRANCH  18  19
ATOM     19  N   UNL     1       5.792   6.232  -0.862  1.00  0.00    -0.343 N 
ATOM     20  C   UNL     1       7.090   5.763  -0.929  1.00  0.00     0.242 CG0
ATOM     21  O   UNL     1       8.043   6.458  -0.584  1.00  0.00    -0.273 OA
ATOM     22  H   UNL     1       5.050   5.672  -1.266  1.00  0.00     0.164 HD
ATOM     23  G   UNL     1       7.229   4.360  -1.556  1.00  0.00     0.000 G0
ENDBRANCH  18  19
BRANCH  18  24
ATOM     24  C   UNL     1       4.554   8.360  -1.130  1.00  0.00     0.038 C 
BRANCH  24  25
ATOM     25  C   UNL     1       5.165   9.703  -1.582  1.00  0.00    -0.015 C 
ATOM     26  C   UNL     1       6.361   9.516  -2.517  1.00  0.00     0.007 C 
ATOM     27  C   UNL     1       5.592  10.514  -0.356  1.00  0.00     0.007 C 
ENDBRANCH  24  25
ENDBRANCH  18  24
ENDBRANCH  15  18
ENDBRANCH  13  14
BRANCH  13  28
ATOM     28  C   UNL     1       1.665   8.747   2.328  1.00  0.00     0.327 C 
ATOM     29  O   UNL     1       1.029   9.095   1.345  1.00  0.00    -0.250 OA
BRANCH  28  30
ATOM     30  O   UNL     1       1.617   9.471   3.464  1.00  0.00    -0.480 OA
ATOM     31  H   UNL     1       2.510   9.866   3.536  1.00  0.00     0.296 HD
ENDBRANCH  28  30
ENDBRANCH  13  28
ENDBRANCH  11  13
ENDBRANCH   8  11
ENDBRANCH   6   7
BRANCH   6  32
ATOM     32  C   UNL     1      -0.664   5.343   6.196  1.00  0.00     0.037 C 
BRANCH  32  33
ATOM     33  C   UNL     1      -2.057   5.254   5.557  1.00  0.00     0.026 C 
BRANCH  33  34
ATOM     34  C   UNL     1      -2.988   4.306   6.314  1.00  0.00     0.146 C 
BRANCH  34  35
ATOM     35  N   UNL     1      -4.354   4.524   5.855  1.00  0.00    -0.254 NA
ATOM     36  C   UNL     1      -5.089   5.359   6.491  1.00  0.00     0.185 C 
ATOM     37  N   UNL     1      -6.347   5.571   6.074  1.00  0.00    -0.370 N 
ATOM     38  N   UNL     1      -4.786   6.100   7.571  1.00  0.00    -0.370 N 
ATOM     39  H   UNL     1      -6.648   5.055   5.257  1.00  0.00     0.159 HD
ATOM     40  H   UNL     1      -6.922   6.326   6.405  1.00  0.00     0.159 HD
ATOM     41  H   UNL     1      -5.495   6.617   8.064  1.00  0.00     0.159 HD
ATOM     42  H   UNL     1      -3.877   6.031   8.002  1.00  0.00     0.159 HD
ENDBRANCH  34  35
ENDBRANCH  33  34
ENDBRANCH  32  33
ENDBRANCH   6  32
ENDBRANCH   4   6
ENDBRANCH   1   2
BRANCH   1  43
ATOM     43  C   UNL     1       1.227  10.761   7.958  1.00  0.00     0.102 C 
ATOM     44  C   UNL     1       1.184  11.515   9.298  1.00  0.00     0.020 C 
BRANCH  43  45
ATOM     45  C   UNL     1      -0.095  10.790   7.186  1.00  0.00     0.225 C 
ATOM     46  O   UNL     1      -0.162  10.989   5.976  1.00  0.00    -0.275 OA
ATOM     47  N   UNL     1      -1.232  10.672   7.953  1.00  0.00    -0.342 N 
ATOM     48  H   UNL     1      -1.158  10.360   8.911  1.00  0.00     0.164 HD
BRANCH  47  49
ATOM     49  C   UNL     1      -2.566  10.647   7.346  1.00  0.00     0.192 C 
BRANCH  49  50
ATOM     50  C   UNL     1      -3.470  11.664   8.049  1.00  0.00     0.047 C 
BRANCH  50  51
ATOM     51  C   UNL     1      -2.816  12.251   9.307  1.00  0.00     0.103 C 
BRANCH  51  52
ATOM     52  C   UNL     1      -3.711  12.114  10.536  1.00  0.00     0.226 C 
ATOM     53  O   UNL     1      -4.884  12.490  10.482  1.00  0.00    -0.275 OA
BRANCH  52  54
ATOM     54  N   UNL     1      -3.143  11.482  11.658  1.00  0.00    -0.311 N 
ATOM     55  C   UNL     1      -1.687  11.351  11.796  1.00  0.00     0.153 C 
BRANCH  54  56
ATOM     56  C   UNL     1      -3.944  10.959  12.687  1.00  0.00     0.102 C 
ATOM     57  C   UNL     1      -4.633  11.695  13.574  1.00  0.00     0.043 C 
BRANCH  56  58
ATOM     58  C   UNL     1      -4.127   9.468  12.845  1.00  0.00     0.268 C 
ATOM     59  O   UNL     1      -4.233   8.702  11.896  1.00  0.00    -0.268 OA
ATOM     60  N   UNL     1      -4.095   9.055  14.156  1.00  0.00    -0.339 N 
ATOM     61  H   UNL     1      -4.015   9.754  14.885  1.00  0.00     0.164 HD
BRANCH  60  62
ATOM     62  C   UNL     1      -4.192   7.645  14.531  1.00  0.00     0.168 CG0
ATOM     63  C   UNL     1      -5.639   7.171  14.509  1.00  0.00     0.041 C 
ATOM     64  G   UNL     1      -3.571   7.439  15.928  1.00  0.00     0.000 G0
ENDBRANCH  60  62
ENDBRANCH  56  58
ENDBRANCH  54  56
ENDBRANCH  52  54
ENDBRANCH  51  52
ENDBRANCH  50  51
ENDBRANCH  49  50
BRANCH  49  65
ATOM     65  C   UNL     1      -3.204   9.252   7.436  1.00  0.00     0.326 C 
ATOM     66  O   UNL     1      -3.462   8.526   6.486  1.00  0.00    -0.250 OA
BRANCH  65  67
ATOM     67  O   UNL     1      -3.539   8.864   8.686  1.00  0.00    -0.480 OA
ATOM     68  H   UNL     1      -4.517   8.948   8.700  1.00  0.00     0.296 HD
ENDBRANCH  65  67
ENDBRANCH  49  65
ENDBRANCH  47  49
ENDBRANCH  43  45
ENDBRANCH   1  43
BRANCH   1  69
ATOM     69  C   UNL     1       3.270   9.080   8.047  1.00  0.00    -0.001 C 
ATOM     70  C   UNL     1       3.970   8.390   7.129  1.00  0.00     0.001 C 
BRANCH  70  71
ATOM     71  C   UNL     1       5.420   8.195   7.094  1.00  0.00    -0.055 C 
ATOM     72  C   UNL     1       6.071   8.528   5.959  1.00  0.00    -0.018 C 
ATOM     73  C   UNL     1       6.085   7.643   8.328  1.00  0.00     0.044 C 
BRANCH  72  74
ATOM     74  C   UNL     1       7.556   8.438   5.639  1.00  0.00     0.038 C 
ATOM     75  C   UNL     1       8.095   9.872   5.582  1.00  0.00     0.015 C 
BRANCH  74  76
ATOM     76  C   UNL     1       7.737   7.620   4.326  1.00  0.00     0.128 C 
BRANCH  76  77
ATOM     77  O   UNL     1       8.647   8.301   3.445  1.00  0.00    -0.381 OA
ATOM     78  C   UNL     1       8.089   8.610   2.176  1.00  0.00     0.195 C 
ENDBRANCH  76  77
BRANCH  76  79
ATOM     79  C   UNL     1       8.122   6.137   4.556  1.00  0.00     0.068 C 
BRANCH  79  80
ATOM     80  C   UNL     1       7.250   5.315   5.474  1.00  0.00    -0.045 A 
ATOM     81  C   UNL     1       5.905   5.071   5.166  1.00  0.00     0.004 A 
ATOM     82  C   UNL     1       7.770   4.803   6.673  1.00  0.00     0.004 A 
ATOM     83  C   UNL     1       5.102   4.321   6.028  1.00  0.00     0.000 A 
ATOM     84  C   UNL     1       6.966   4.054   7.534  1.00  0.00     0.000 A 
ATOM     85  C   UNL     1       5.633   3.812   7.211  1.00  0.00     0.000 A 
ENDBRANCH  79  80
ENDBRANCH  76  79
ENDBRANCH  74  76
ENDBRANCH  72  74
ENDBRANCH  70  71
ENDBRANCH   1  69
TORSDOF 17
ENDMDL
MODEL 25
REMARK VINA RESULT:    -6.389      4.591     11.477
REMARK INTER + INTRA:         -26.317
REMARK INTER:                 -17.393
REMARK INTRA:                  -8.924
REMARK UNBOUND:                -7.229
REMARK SMILES C=C1C(=O)N[C@H](C)C(=O)N[C@@H](CC(C)C)C(=O)N[C@@H](C(=O)O)[C@H](C)C(=O)N[C@@H](CCCN=C(N)N)C(=O)N[C@@H](/C=C/C(C)=C/[C@H](C)[C@H](Cc2ccccc2)OC)[C@H](C)C(=O)N[C@@H](C(=O)O)CCC(=O)N1C
REMARK SMILES IDX 39 1 38 2 37 3 36 4 28 6 27 7 25 8 26 9 23 11 24 12 19 13
REMARK SMILES IDX 18 14 16 15 17 16 11 18 10 19 8 20 9 21 12 24 13 25 14 26
REMARK SMILES IDX 15 27 20 28 21 29 22 30 29 32 30 33 31 34 32 35 33 36 34 37
REMARK SMILES IDX 35 38 57 43 58 44 59 45 60 46 61 47 62 49 66 50 67 51 68 52
REMARK SMILES IDX 69 53 70 54 71 55 2 56 1 57 3 58 4 59 5 60 6 62 7 63 63 65
REMARK SMILES IDX 64 66 65 67 40 69 41 70 42 71 44 72 43 73 45 74 46 75 47 76
REMARK SMILES IDX 55 77 56 78 48 79 49 80 50 81 54 82 51 83 53 84 52 85
REMARK H PARENT 38 5 27 10 18 17 10 22 22 31 34 39 34 40 35 41 35 42 61 48
REMARK H PARENT 5 61 65 68
REMARK Flexibility Score:  369.900
ROOT
ATOM      1  C   UNL     1      -4.003   2.881  13.252  1.00  0.00     0.117 C 
ENDROOT
BRANCH   1   2
ATOM      2  N   UNL     1      -3.433   2.662  11.922  1.00  0.00    -0.347 N 
ATOM      3  O   UNL     1      -5.325   3.096  10.696  1.00  0.00    -0.273 OA
ATOM      4  C   UNL     1      -4.119   2.877  10.742  1.00  0.00     0.243 C 
ATOM      5  H   UNL     1      -2.467   2.383  11.838  1.00  0.00     0.164 HD
BRANCH   4   6
ATOM      6  C   UNL     1      -3.259   2.652   9.472  1.00  0.00     0.171 C 
BRANCH   6   7
ATOM      7  N   UNL     1      -2.310   3.762   9.291  1.00  0.00    -0.344 N 
ATOM      8  C   UNL     1      -2.605   4.808   8.443  1.00  0.00     0.226 C 
ATOM      9  O   UNL     1      -3.641   4.856   7.790  1.00  0.00    -0.275 OA
ATOM     10  H   UNL     1      -1.415   3.724   9.761  1.00  0.00     0.164 HD
BRANCH   8  11
ATOM     11  C   UNL     1      -1.551   5.900   8.406  1.00  0.00     0.109 C 
ATOM     12  C   UNL     1      -0.157   5.282   8.292  1.00  0.00     0.021 C 
BRANCH  11  13
ATOM     13  C   UNL     1      -1.899   6.924   7.307  1.00  0.00     0.204 C 
BRANCH  13  14
ATOM     14  N   UNL     1      -1.506   8.287   7.678  1.00  0.00    -0.340 N 
ATOM     15  C   UNL     1      -2.402   9.222   8.149  1.00  0.00     0.243 C 
ATOM     16  O   UNL     1      -3.586   8.959   8.348  1.00  0.00    -0.273 OA
ATOM     17  H   UNL     1      -0.577   8.613   7.396  1.00  0.00     0.164 HD
BRANCH  15  18
ATOM     18  C   UNL     1      -1.802  10.644   8.275  1.00  0.00     0.171 C 
BRANCH  18  19
ATOM     19  N   UNL     1      -2.891  11.582   8.012  1.00  0.00    -0.343 N 
ATOM     20  C   UNL     1      -2.667  12.814   7.428  1.00  0.00     0.242 CG0
ATOM     21  O   UNL     1      -1.530  13.232   7.224  1.00  0.00    -0.273 OA
ATOM     22  H   UNL     1      -3.839  11.329   8.269  1.00  0.00     0.164 HD
ATOM     23  G   UNL     1      -3.946  13.633   7.156  1.00  0.00     0.000 G0
ENDBRANCH  18  19
BRANCH  18  24
ATOM     24  C   UNL     1      -1.203  10.856   9.671  1.00  0.00     0.038 C 
BRANCH  24  25
ATOM     25  C   UNL     1       0.329  11.048   9.692  1.00  0.00    -0.015 C 
ATOM     26  C   UNL     1       1.086   9.722   9.617  1.00  0.00     0.007 C 
ATOM     27  C   UNL     1       0.736  11.802  10.960  1.00  0.00     0.007 C 
ENDBRANCH  24  25
ENDBRANCH  18  24
ENDBRANCH  15  18
ENDBRANCH  13  14
BRANCH  13  28
ATOM     28  C   UNL     1      -1.238   6.612   5.961  1.00  0.00     0.327 C 
ATOM     29  O   UNL     1      -0.267   7.179   5.483  1.00  0.00    -0.250 OA
BRANCH  28  30
ATOM     30  O   UNL     1      -1.909   5.687   5.244  1.00  0.00    -0.480 OA
ATOM     31  H   UNL     1      -1.987   4.922   5.851  1.00  0.00     0.296 HD
ENDBRANCH  28  30
ENDBRANCH  13  28
ENDBRANCH  11  13
ENDBRANCH   8  11
ENDBRANCH   6   7
BRANCH   6  32
ATOM     32  C   UNL     1      -2.521   1.315   9.594  1.00  0.00     0.037 C 
BRANCH  32  33
ATOM     33  C   UNL     1      -3.380   0.133   9.123  1.00  0.00     0.026 C 
BRANCH  33  34
ATOM     34  C   UNL     1      -2.772  -0.590   7.921  1.00  0.00     0.146 C 
BRANCH  34  35
ATOM     35  N   UNL     1      -3.842  -0.960   7.005  1.00  0.00    -0.254 NA
ATOM     36  C   UNL     1      -4.152  -2.197   6.889  1.00  0.00     0.185 C 
ATOM     37  N   UNL     1      -5.140  -2.549   6.051  1.00  0.00    -0.370 N 
ATOM     38  N   UNL     1      -3.617  -3.264   7.510  1.00  0.00    -0.370 N 
ATOM     39  H   UNL     1      -5.601  -1.798   5.553  1.00  0.00     0.159 HD
ATOM     40  H   UNL     1      -5.555  -3.464   6.034  1.00  0.00     0.159 HD
ATOM     41  H   UNL     1      -3.853  -4.202   7.230  1.00  0.00     0.159 HD
ATOM     42  H   UNL     1      -2.852  -3.150   8.157  1.00  0.00     0.159 HD
ENDBRANCH  34  35
ENDBRANCH  33  34
ENDBRANCH  32  33
ENDBRANCH   6  32
ENDBRANCH   4   6
ENDBRANCH   1   2
BRANCH   1  43
ATOM     43  C   UNL     1      -5.286   2.012  13.391  1.00  0.00     0.102 C 
ATOM     44  C   UNL     1      -6.505   2.798  13.902  1.00  0.00     0.020 C 
BRANCH  43  45
ATOM     45  C   UNL     1      -4.998   0.730  14.178  1.00  0.00     0.225 C 
ATOM     46  O   UNL     1      -4.647   0.729  15.355  1.00  0.00    -0.275 OA
ATOM     47  N   UNL     1      -5.067  -0.438  13.454  1.00  0.00    -0.342 N 
ATOM     48  H   UNL     1      -5.500  -0.436  12.541  1.00  0.00     0.164 HD
BRANCH  47  49
ATOM     49  C   UNL     1      -4.852  -1.744  14.083  1.00  0.00     0.192 C 
BRANCH  49  50
ATOM     50  C   UNL     1      -3.550  -2.358  13.562  1.00  0.00     0.047 C 
BRANCH  50  51
ATOM     51  C   UNL     1      -3.232  -1.917  12.127  1.00  0.00     0.103 C 
BRANCH  51  52
ATOM     52  C   UNL     1      -3.605  -2.987  11.103  1.00  0.00     0.226 C 
ATOM     53  O   UNL     1      -4.691  -2.923  10.522  1.00  0.00    -0.275 OA
BRANCH  52  54
ATOM     54  N   UNL     1      -2.627  -3.959  10.827  1.00  0.00    -0.311 N 
ATOM     55  C   UNL     1      -1.266  -3.572  10.431  1.00  0.00     0.153 C 
BRANCH  54  56
ATOM     56  C   UNL     1      -2.910  -5.332  10.925  1.00  0.00     0.102 C 
ATOM     57  C   UNL     1      -3.437  -5.933  12.004  1.00  0.00     0.043 C 
BRANCH  56  58
ATOM     58  C   UNL     1      -2.673  -6.257   9.755  1.00  0.00     0.268 C 
ATOM     59  O   UNL     1      -3.023  -5.995   8.612  1.00  0.00    -0.268 OA
ATOM     60  N   UNL     1      -1.969  -7.388  10.094  1.00  0.00    -0.339 N 
ATOM     61  H   UNL     1      -1.725  -7.536  11.066  1.00  0.00     0.164 HD
BRANCH  60  62
ATOM     62  C   UNL     1      -1.576  -8.388   9.102  1.00  0.00     0.168 CG0
ATOM     63  C   UNL     1      -0.139  -8.172   8.647  1.00  0.00     0.041 C 
ATOM     64  G   UNL     1      -2.544  -8.334   7.902  1.00  0.00     0.000 G0
ENDBRANCH  60  62
ENDBRANCH  56  58
ENDBRANCH  54  56
ENDBRANCH  52  54
ENDBRANCH  51  52
ENDBRANCH  50  51
ENDBRANCH  49  50
BRANCH  49  65
ATOM     65  C   UNL     1      -6.016  -2.708  13.803  1.00  0.00     0.326 C 
ATOM     66  O   UNL     1      -6.174  -3.802  14.324  1.00  0.00    -0.250 OA
BRANCH  65  67
ATOM     67  O   UNL     1      -6.880  -2.287  12.853  1.00  0.00    -0.480 OA
ATOM     68  H   UNL     1      -7.290  -3.117  12.528  1.00  0.00     0.296 HD
ENDBRANCH  65  67
ENDBRANCH  49  65
ENDBRANCH  47  49
ENDBRANCH  43  45
ENDBRANCH   1  43
BRANCH   1  69
ATOM     69  C   UNL     1      -4.114   4.385  13.423  1.00  0.00    -0.001 C 
ATOM     70  C   UNL     1      -3.880   5.101  14.537  1.00  0.00     0.001 C 
BRANCH  70  71
ATOM     71  C   UNL     1      -3.970   6.555  14.684  1.00  0.00    -0.055 C 
ATOM     72  C   UNL     1      -5.032   7.177  14.130  1.00  0.00    -0.018 C 
ATOM     73  C   UNL     1      -2.876   7.253  15.449  1.00  0.00     0.044 C 
BRANCH  72  74
ATOM     74  C   UNL     1      -5.386   8.657  14.124  1.00  0.00     0.038 C 
ATOM     75  C   UNL     1      -6.570   8.843  15.081  1.00  0.00     0.015 C 
BRANCH  74  76
ATOM     76  C   UNL     1      -5.657   9.102  12.657  1.00  0.00     0.128 C 
BRANCH  76  77
ATOM     77  O   UNL     1      -6.872   9.867  12.592  1.00  0.00    -0.381 OA
ATOM     78  C   UNL     1      -6.666  11.246  12.319  1.00  0.00     0.195 C 
ENDBRANCH  76  77
BRANCH  76  79
ATOM     79  C   UNL     1      -4.459   9.822  11.986  1.00  0.00     0.068 C 
BRANCH  79  80
ATOM     80  C   UNL     1      -3.081   9.243  12.193  1.00  0.00    -0.045 A 
ATOM     81  C   UNL     1      -2.700   8.045  11.574  1.00  0.00     0.004 A 
ATOM     82  C   UNL     1      -2.163   9.887  13.037  1.00  0.00     0.004 A 
ATOM     83  C   UNL     1      -1.427   7.509  11.783  1.00  0.00     0.000 A 
ATOM     84  C   UNL     1      -0.891   9.350  13.245  1.00  0.00     0.000 A 
ATOM     85  C   UNL     1      -0.523   8.162  12.617  1.00  0.00     0.000 A 
ENDBRANCH  79  80
ENDBRANCH  76  79
ENDBRANCH  74  76
ENDBRANCH  72  74
ENDBRANCH  70  71
ENDBRANCH   1  69
TORSDOF 17
ENDMDL
MODEL 26
REMARK VINA RESULT:    -6.385      2.302     10.507
REMARK INTER + INTRA:         -26.306
REMARK INTER:                 -18.952
REMARK INTRA:                  -7.354
REMARK UNBOUND:                -7.229
REMARK SMILES C=C1C(=O)N[C@H](C)C(=O)N[C@@H](CC(C)C)C(=O)N[C@@H](C(=O)O)[C@H](C)C(=O)N[C@@H](CCCN=C(N)N)C(=O)N[C@@H](/C=C/C(C)=C/[C@H](C)[C@H](Cc2ccccc2)OC)[C@H](C)C(=O)N[C@@H](C(=O)O)CCC(=O)N1C
REMARK SMILES IDX 39 1 38 2 37 3 36 4 28 6 27 7 25 8 26 9 23 11 24 12 19 13
REMARK SMILES IDX 18 14 16 15 17 16 11 18 10 19 8 20 9 21 12 24 13 25 14 26
REMARK SMILES IDX 15 27 20 28 21 29 22 30 29 32 30 33 31 34 32 35 33 36 34 37
REMARK SMILES IDX 35 38 57 43 58 44 59 45 60 46 61 47 62 49 66 50 67 51 68 52
REMARK SMILES IDX 69 53 70 54 71 55 2 56 1 57 3 58 4 59 5 60 6 62 7 63 63 65
REMARK SMILES IDX 64 66 65 67 40 69 41 70 42 71 44 72 43 73 45 74 46 75 47 76
REMARK SMILES IDX 55 77 56 78 48 79 49 80 50 81 54 82 51 83 53 84 52 85
REMARK H PARENT 38 5 27 10 18 17 10 22 22 31 34 39 34 40 35 41 35 42 61 48
REMARK H PARENT 5 61 65 68
REMARK Flexibility Score:  369.900
ROOT
ATOM      1  C   UNL     1      -1.070   6.724   8.317  1.00  0.00     0.117 C 
ENDROOT
BRANCH   1   2
ATOM      2  N   UNL     1       0.294   6.894   7.815  1.00  0.00    -0.347 N 
ATOM      3  O   UNL     1       1.154   4.902   8.565  1.00  0.00    -0.273 OA
ATOM      4  C   UNL     1       1.275   5.926   7.900  1.00  0.00     0.243 C 
ATOM      5  H   UNL     1       0.540   7.743   7.329  1.00  0.00     0.164 HD
BRANCH   4   6
ATOM      6  C   UNL     1       2.606   6.325   7.213  1.00  0.00     0.171 C 
BRANCH   6   7
ATOM      7  N   UNL     1       2.364   6.732   5.820  1.00  0.00    -0.344 N 
ATOM      8  C   UNL     1       2.836   5.970   4.773  1.00  0.00     0.226 C 
ATOM      9  O   UNL     1       3.488   4.947   4.943  1.00  0.00    -0.275 OA
ATOM     10  H   UNL     1       1.888   7.607   5.640  1.00  0.00     0.164 HD
BRANCH   8  11
ATOM     11  C   UNL     1       2.458   6.493   3.398  1.00  0.00     0.109 C 
ATOM     12  C   UNL     1       1.044   6.038   3.033  1.00  0.00     0.021 C 
BRANCH  11  13
ATOM     13  C   UNL     1       2.684   8.017   3.340  1.00  0.00     0.204 C 
BRANCH  13  14
ATOM     14  N   UNL     1       4.034   8.357   2.879  1.00  0.00    -0.340 N 
ATOM     15  C   UNL     1       4.770   9.389   3.418  1.00  0.00     0.243 C 
ATOM     16  O   UNL     1       4.370  10.061   4.367  1.00  0.00    -0.273 OA
ATOM     17  H   UNL     1       4.361   7.942   2.002  1.00  0.00     0.164 HD
BRANCH  15  18
ATOM     18  C   UNL     1       6.073   9.693   2.638  1.00  0.00     0.171 C 
BRANCH  18  19
ATOM     19  N   UNL     1       6.214  11.147   2.609  1.00  0.00    -0.343 N 
ATOM     20  C   UNL     1       5.940  11.885   1.473  1.00  0.00     0.242 CG0
ATOM     21  O   UNL     1       5.693  11.342   0.399  1.00  0.00    -0.273 OA
ATOM     22  H   UNL     1       6.528  11.633   3.442  1.00  0.00     0.164 HD
ATOM     23  G   UNL     1       6.070  13.411   1.658  1.00  0.00     0.000 G0
ENDBRANCH  18  19
BRANCH  18  24
ATOM     24  C   UNL     1       7.277   9.024   3.312  1.00  0.00     0.038 C 
BRANCH  24  25
ATOM     25  C   UNL     1       6.916   7.894   4.299  1.00  0.00    -0.015 C 
ATOM     26  C   UNL     1       7.638   8.035   5.640  1.00  0.00     0.007 C 
ATOM     27  C   UNL     1       7.252   6.538   3.674  1.00  0.00     0.007 C 
ENDBRANCH  24  25
ENDBRANCH  18  24
ENDBRANCH  15  18
ENDBRANCH  13  14
BRANCH  13  28
ATOM     28  C   UNL     1       1.695   8.739   2.419  1.00  0.00     0.327 C 
ATOM     29  O   UNL     1       1.785   8.849   1.206  1.00  0.00    -0.250 OA
BRANCH  28  30
ATOM     30  O   UNL     1       0.717   9.379   3.092  1.00  0.00    -0.480 OA
ATOM     31  H   UNL     1       0.837   9.093   4.022  1.00  0.00     0.296 HD
ENDBRANCH  28  30
ENDBRANCH  13  28
ENDBRANCH  11  13
ENDBRANCH   8  11
ENDBRANCH   6   7
BRANCH   6  32
ATOM     32  C   UNL     1       3.262   7.459   8.009  1.00  0.00     0.037 C 
BRANCH  32  33
ATOM     33  C   UNL     1       3.391   8.747   7.183  1.00  0.00     0.026 C 
BRANCH  33  34
ATOM     34  C   UNL     1       2.603   9.910   7.786  1.00  0.00     0.146 C 
BRANCH  34  35
ATOM     35  N   UNL     1       1.391  10.113   7.003  1.00  0.00    -0.254 NA
ATOM     36  C   UNL     1       1.405  10.984   6.064  1.00  0.00     0.185 C 
ATOM     37  N   UNL     1       0.296  11.176   5.333  1.00  0.00    -0.370 N 
ATOM     38  N   UNL     1       2.412  11.783   5.668  1.00  0.00    -0.370 N 
ATOM     39  H   UNL     1      -0.505  10.602   5.564  1.00  0.00     0.159 HD
ATOM     40  H   UNL     1       0.278  11.705   4.479  1.00  0.00     0.159 HD
ATOM     41  H   UNL     1       2.258  12.527   5.007  1.00  0.00     0.159 HD
ATOM     42  H   UNL     1       3.303  11.758   6.140  1.00  0.00     0.159 HD
ENDBRANCH  34  35
ENDBRANCH  33  34
ENDBRANCH  32  33
ENDBRANCH   6  32
ENDBRANCH   4   6
ENDBRANCH   1   2
BRANCH   1  43
ATOM     43  C   UNL     1      -2.066   7.133   7.194  1.00  0.00     0.102 C 
ATOM     44  C   UNL     1      -2.941   8.343   7.563  1.00  0.00     0.020 C 
BRANCH  43  45
ATOM     45  C   UNL     1      -2.859   5.922   6.694  1.00  0.00     0.225 C 
ATOM     46  O   UNL     1      -2.328   4.881   6.318  1.00  0.00    -0.275 OA
ATOM     47  N   UNL     1      -4.220   6.102   6.602  1.00  0.00    -0.342 N 
ATOM     48  H   UNL     1      -4.651   6.897   7.053  1.00  0.00     0.164 HD
BRANCH  47  49
ATOM     49  C   UNL     1      -5.110   5.019   6.173  1.00  0.00     0.192 C 
BRANCH  49  50
ATOM     50  C   UNL     1      -5.345   4.055   7.339  1.00  0.00     0.047 C 
BRANCH  50  51
ATOM     51  C   UNL     1      -4.918   4.655   8.686  1.00  0.00     0.103 C 
BRANCH  51  52
ATOM     52  C   UNL     1      -4.909   3.612   9.801  1.00  0.00     0.226 C 
ATOM     53  O   UNL     1      -5.882   2.872   9.953  1.00  0.00    -0.275 OA
BRANCH  52  54
ATOM     54  N   UNL     1      -3.725   3.512  10.556  1.00  0.00    -0.311 N 
ATOM     55  C   UNL     1      -2.408   3.579   9.908  1.00  0.00     0.153 C 
BRANCH  54  56
ATOM     56  C   UNL     1      -3.757   3.352  11.951  1.00  0.00     0.102 C 
ATOM     57  C   UNL     1      -3.783   4.358  12.840  1.00  0.00     0.043 C 
BRANCH  56  58
ATOM     58  C   UNL     1      -3.812   1.976  12.571  1.00  0.00     0.268 C 
ATOM     59  O   UNL     1      -2.826   1.397  13.006  1.00  0.00    -0.268 OA
ATOM     60  N   UNL     1      -5.088   1.472  12.656  1.00  0.00    -0.339 N 
ATOM     61  H   UNL     1      -5.851   2.010  12.263  1.00  0.00     0.164 HD
BRANCH  60  62
ATOM     62  C   UNL     1      -5.376   0.181  13.280  1.00  0.00     0.168 CG0
ATOM     63  C   UNL     1      -6.358  -0.625  12.439  1.00  0.00     0.041 C 
ATOM     64  G   UNL     1      -5.932   0.406  14.701  1.00  0.00     0.000 G0
ENDBRANCH  60  62
ENDBRANCH  56  58
ENDBRANCH  54  56
ENDBRANCH  52  54
ENDBRANCH  51  52
ENDBRANCH  50  51
ENDBRANCH  49  50
BRANCH  49  65
ATOM     65  C   UNL     1      -4.524   4.243   4.982  1.00  0.00     0.326 C 
ATOM     66  O   UNL     1      -4.381   4.682   3.850  1.00  0.00    -0.250 OA
BRANCH  65  67
ATOM     67  O   UNL     1      -4.209   2.956   5.248  1.00  0.00    -0.480 OA
ATOM     68  H   UNL     1      -4.554   2.816   6.156  1.00  0.00     0.296 HD
ENDBRANCH  65  67
ENDBRANCH  49  65
ENDBRANCH  47  49
ENDBRANCH  43  45
ENDBRANCH   1  43
BRANCH   1  69
ATOM     69  C   UNL     1      -1.125   7.453   9.648  1.00  0.00    -0.001 C 
ATOM     70  C   UNL     1      -1.352   6.920  10.862  1.00  0.00     0.001 C 
BRANCH  70  71
ATOM     71  C   UNL     1      -1.382   7.631  12.142  1.00  0.00    -0.055 C 
ATOM     72  C   UNL     1      -2.559   7.691  12.799  1.00  0.00    -0.018 C 
ATOM     73  C   UNL     1      -0.095   8.236  12.639  1.00  0.00     0.044 C 
BRANCH  72  74
ATOM     74  C   UNL     1      -2.886   8.350  14.132  1.00  0.00     0.038 C 
ATOM     75  C   UNL     1      -2.879   7.245  15.196  1.00  0.00     0.015 C 
BRANCH  74  76
ATOM     76  C   UNL     1      -4.234   9.117  13.994  1.00  0.00     0.128 C 
BRANCH  76  77
ATOM     77  O   UNL     1      -5.017   8.950  15.188  1.00  0.00    -0.381 OA
ATOM     78  C   UNL     1      -5.898  10.035  15.449  1.00  0.00     0.195 C 
ENDBRANCH  76  77
BRANCH  76  79
ATOM     79  C   UNL     1      -4.074  10.602  13.584  1.00  0.00     0.068 C 
BRANCH  79  80
ATOM     80  C   UNL     1      -3.256  10.912  12.354  1.00  0.00    -0.045 A 
ATOM     81  C   UNL     1      -1.959  11.432  12.461  1.00  0.00     0.004 A 
ATOM     82  C   UNL     1      -3.797  10.709  11.075  1.00  0.00     0.004 A 
ATOM     83  C   UNL     1      -1.215  11.730  11.317  1.00  0.00     0.000 A 
ATOM     84  C   UNL     1      -3.052  11.007   9.933  1.00  0.00     0.000 A 
ATOM     85  C   UNL     1      -1.761  11.515  10.054  1.00  0.00     0.000 A 
ENDBRANCH  79  80
ENDBRANCH  76  79
ENDBRANCH  74  76
ENDBRANCH  72  74
ENDBRANCH  70  71
ENDBRANCH   1  69
TORSDOF 17
ENDMDL
MODEL 27
REMARK VINA RESULT:    -6.382      3.623     10.957
REMARK INTER + INTRA:         -26.296
REMARK INTER:                 -18.935
REMARK INTRA:                  -7.361
REMARK UNBOUND:                -7.229
REMARK SMILES C=C1C(=O)N[C@H](C)C(=O)N[C@@H](CC(C)C)C(=O)N[C@@H](C(=O)O)[C@H](C)C(=O)N[C@@H](CCCN=C(N)N)C(=O)N[C@@H](/C=C/C(C)=C/[C@H](C)[C@H](Cc2ccccc2)OC)[C@H](C)C(=O)N[C@@H](C(=O)O)CCC(=O)N1C
REMARK SMILES IDX 39 1 38 2 37 3 36 4 28 6 27 7 25 8 26 9 23 11 24 12 19 13
REMARK SMILES IDX 18 14 16 15 17 16 11 18 10 19 8 20 9 21 12 24 13 25 14 26
REMARK SMILES IDX 15 27 20 28 21 29 22 30 29 32 30 33 31 34 32 35 33 36 34 37
REMARK SMILES IDX 35 38 57 43 58 44 59 45 60 46 61 47 62 49 66 50 67 51 68 52
REMARK SMILES IDX 69 53 70 54 71 55 2 56 1 57 3 58 4 59 5 60 6 62 7 63 63 65
REMARK SMILES IDX 64 66 65 67 40 69 41 70 42 71 44 72 43 73 45 74 46 75 47 76
REMARK SMILES IDX 55 77 56 78 48 79 49 80 50 81 54 82 51 83 53 84 52 85
REMARK H PARENT 38 5 27 10 18 17 10 22 22 31 34 39 34 40 35 41 35 42 61 48
REMARK H PARENT 5 61 65 68
REMARK Flexibility Score:  369.900
ROOT
ATOM      1  C   UNL     1      -0.943   7.511   9.227  1.00  0.00     0.117 C 
ENDROOT
BRANCH   1   2
ATOM      2  N   UNL     1       0.382   8.109   9.065  1.00  0.00    -0.347 N 
ATOM      3  O   UNL     1       1.447   6.276   8.183  1.00  0.00    -0.273 OA
ATOM      4  C   UNL     1       1.452   7.469   8.469  1.00  0.00     0.243 C 
ATOM      5  H   UNL     1       0.533   9.064   9.354  1.00  0.00     0.164 HD
BRANCH   4   6
ATOM      6  C   UNL     1       2.718   8.355   8.344  1.00  0.00     0.171 C 
BRANCH   6   7
ATOM      7  N   UNL     1       3.848   7.567   7.829  1.00  0.00    -0.344 N 
ATOM      8  C   UNL     1       5.146   7.981   8.036  1.00  0.00     0.226 C 
ATOM      9  O   UNL     1       5.422   9.017   8.629  1.00  0.00    -0.275 OA
ATOM     10  H   UNL     1       3.659   6.740   7.276  1.00  0.00     0.164 HD
BRANCH   8  11
ATOM     11  C   UNL     1       6.200   7.033   7.492  1.00  0.00     0.109 C 
ATOM     12  C   UNL     1       5.532   5.824   6.837  1.00  0.00     0.021 C 
BRANCH  11  13
ATOM     13  C   UNL     1       7.177   7.805   6.582  1.00  0.00     0.204 C 
BRANCH  13  14
ATOM     14  N   UNL     1       8.392   8.210   7.296  1.00  0.00    -0.340 N 
ATOM     15  C   UNL     1       8.796   9.523   7.402  1.00  0.00     0.243 C 
ATOM     16  O   UNL     1       8.131  10.456   6.957  1.00  0.00    -0.273 OA
ATOM     17  H   UNL     1       9.062   7.480   7.555  1.00  0.00     0.164 HD
BRANCH  15  18
ATOM     18  C   UNL     1      10.208   9.688   8.015  1.00  0.00     0.171 C 
BRANCH  18  19
ATOM     19  N   UNL     1      10.939  10.604   7.141  1.00  0.00    -0.343 N 
ATOM     20  C   UNL     1      11.298  10.253   5.854  1.00  0.00     0.242 CG0
ATOM     21  O   UNL     1      11.138   9.111   5.431  1.00  0.00    -0.273 OA
ATOM     22  H   UNL     1      11.197  11.522   7.487  1.00  0.00     0.164 HD
ATOM     23  G   UNL     1      11.993  11.377   5.058  1.00  0.00     0.000 G0
ENDBRANCH  18  19
BRANCH  18  24
ATOM     24  C   UNL     1      10.117  10.230   9.447  1.00  0.00     0.038 C 
BRANCH  24  25
ATOM     25  C   UNL     1      10.515  11.713   9.601  1.00  0.00    -0.015 C 
ATOM     26  C   UNL     1      11.711  11.904  10.533  1.00  0.00     0.007 C 
ATOM     27  C   UNL     1       9.320  12.514  10.125  1.00  0.00     0.007 C 
ENDBRANCH  24  25
ENDBRANCH  18  24
ENDBRANCH  15  18
ENDBRANCH  13  14
BRANCH  13  28
ATOM     28  C   UNL     1       7.617   7.006   5.352  1.00  0.00     0.327 C 
ATOM     29  O   UNL     1       7.151   7.096   4.227  1.00  0.00    -0.250 OA
BRANCH  28  30
ATOM     30  O   UNL     1       8.534   6.059   5.638  1.00  0.00    -0.480 OA
ATOM     31  H   UNL     1       8.083   5.473   6.280  1.00  0.00     0.296 HD
ENDBRANCH  28  30
ENDBRANCH  13  28
ENDBRANCH  11  13
ENDBRANCH   8  11
ENDBRANCH   6   7
BRANCH   6  32
ATOM     32  C   UNL     1       2.413   9.542   7.424  1.00  0.00     0.037 C 
BRANCH  32  33
ATOM     33  C   UNL     1       1.564   9.132   6.212  1.00  0.00     0.026 C 
BRANCH  33  34
ATOM     34  C   UNL     1       2.412   8.866   4.967  1.00  0.00     0.146 C 
BRANCH  34  35
ATOM     35  N   UNL     1       3.738   9.432   5.172  1.00  0.00    -0.254 NA
ATOM     36  C   UNL     1       4.537   9.502   4.173  1.00  0.00     0.185 C 
ATOM     37  N   UNL     1       5.760  10.026   4.350  1.00  0.00    -0.370 N 
ATOM     38  N   UNL     1       4.337   9.113   2.902  1.00  0.00    -0.370 N 
ATOM     39  H   UNL     1       5.984  10.353   5.281  1.00  0.00     0.159 HD
ATOM     40  H   UNL     1       6.373  10.274   3.593  1.00  0.00     0.159 HD
ATOM     41  H   UNL     1       5.093   9.093   2.238  1.00  0.00     0.159 HD
ATOM     42  H   UNL     1       3.466   8.686   2.628  1.00  0.00     0.159 HD
ENDBRANCH  34  35
ENDBRANCH  33  34
ENDBRANCH  32  33
ENDBRANCH   6  32
ENDBRANCH   4   6
ENDBRANCH   1   2
BRANCH   1  43
ATOM     43  C   UNL     1      -1.806   7.876   7.984  1.00  0.00     0.102 C 
ATOM     44  C   UNL     1      -1.840   9.384   7.685  1.00  0.00     0.020 C 
BRANCH  43  45
ATOM     45  C   UNL     1      -3.191   7.228   8.067  1.00  0.00     0.225 C 
ATOM     46  O   UNL     1      -4.129   7.726   8.684  1.00  0.00    -0.275 OA
ATOM     47  N   UNL     1      -3.302   5.989   7.479  1.00  0.00    -0.342 N 
ATOM     48  H   UNL     1      -2.577   5.666   6.853  1.00  0.00     0.164 HD
BRANCH  47  49
ATOM     49  C   UNL     1      -4.577   5.265   7.450  1.00  0.00     0.192 C 
BRANCH  49  50
ATOM     50  C   UNL     1      -4.341   3.794   7.800  1.00  0.00     0.047 C 
BRANCH  50  51
ATOM     51  C   UNL     1      -2.852   3.470   7.980  1.00  0.00     0.103 C 
BRANCH  51  52
ATOM     52  C   UNL     1      -2.463   3.364   9.454  1.00  0.00     0.226 C 
ATOM     53  O   UNL     1      -2.395   4.385  10.141  1.00  0.00    -0.275 OA
BRANCH  52  54
ATOM     54  N   UNL     1      -2.274   2.065   9.961  1.00  0.00    -0.311 N 
ATOM     55  C   UNL     1      -0.925   1.511  10.137  1.00  0.00     0.153 C 
BRANCH  54  56
ATOM     56  C   UNL     1      -3.363   1.255  10.322  1.00  0.00     0.102 C 
ATOM     57  C   UNL     1      -3.443  -0.068  10.102  1.00  0.00     0.043 C 
BRANCH  56  58
ATOM     58  C   UNL     1      -4.552   1.834  11.053  1.00  0.00     0.268 C 
ATOM     59  O   UNL     1      -5.707   1.674  10.685  1.00  0.00    -0.268 OA
ATOM     60  N   UNL     1      -4.205   2.499  12.205  1.00  0.00    -0.339 N 
ATOM     61  H   UNL     1      -3.224   2.597  12.434  1.00  0.00     0.164 HD
BRANCH  60  62
ATOM     62  C   UNL     1      -5.205   3.083  13.097  1.00  0.00     0.168 CG0
ATOM     63  C   UNL     1      -4.935   2.701  14.547  1.00  0.00     0.041 C 
ATOM     64  G   UNL     1      -6.614   2.626  12.666  1.00  0.00     0.000 G0
ENDBRANCH  60  62
ENDBRANCH  56  58
ENDBRANCH  54  56
ENDBRANCH  52  54
ENDBRANCH  51  52
ENDBRANCH  50  51
ENDBRANCH  49  50
BRANCH  49  65
ATOM     65  C   UNL     1      -5.250   5.360   6.072  1.00  0.00     0.326 C 
ATOM     66  O   UNL     1      -4.760   4.990   5.015  1.00  0.00    -0.250 OA
BRANCH  65  67
ATOM     67  O   UNL     1      -6.461   5.958   6.076  1.00  0.00    -0.480 OA
ATOM     68  H   UNL     1      -6.932   5.522   6.818  1.00  0.00     0.296 HD
ENDBRANCH  65  67
ENDBRANCH  49  65
ENDBRANCH  47  49
ENDBRANCH  43  45
ENDBRANCH   1  43
BRANCH   1  69
ATOM     69  C   UNL     1      -1.429   7.924  10.604  1.00  0.00    -0.001 C 
ATOM     70  C   UNL     1      -1.337   7.221  11.747  1.00  0.00     0.001 C 
BRANCH  70  71
ATOM     71  C   UNL     1      -1.791   7.639  13.075  1.00  0.00    -0.055 C 
ATOM     72  C   UNL     1      -3.049   7.315  13.439  1.00  0.00    -0.018 C 
ATOM     73  C   UNL     1      -0.818   8.393  13.944  1.00  0.00     0.044 C 
BRANCH  72  74
ATOM     74  C   UNL     1      -3.781   7.609  14.741  1.00  0.00     0.038 C 
ATOM     75  C   UNL     1      -4.003   6.268  15.449  1.00  0.00     0.015 C 
BRANCH  74  76
ATOM     76  C   UNL     1      -5.083   8.399  14.415  1.00  0.00     0.128 C 
BRANCH  76  77
ATOM     77  O   UNL     1      -6.112   8.062  15.361  1.00  0.00    -0.381 OA
ATOM     78  C   UNL     1      -7.407   8.502  14.977  1.00  0.00     0.195 C 
ENDBRANCH  76  77
BRANCH  76  79
ATOM     79  C   UNL     1      -4.874   9.929  14.278  1.00  0.00     0.068 C 
BRANCH  79  80
ATOM     80  C   UNL     1      -4.129  10.434  13.066  1.00  0.00    -0.045 A 
ATOM     81  C   UNL     1      -3.000  11.252  13.201  1.00  0.00     0.004 A 
ATOM     82  C   UNL     1      -4.578  10.112  11.776  1.00  0.00     0.004 A 
ATOM     83  C   UNL     1      -2.326  11.727  12.075  1.00  0.00     0.000 A 
ATOM     84  C   UNL     1      -3.903  10.589  10.650  1.00  0.00     0.000 A 
ATOM     85  C   UNL     1      -2.776  11.394  10.799  1.00  0.00     0.000 A 
ENDBRANCH  79  80
ENDBRANCH  76  79
ENDBRANCH  74  76
ENDBRANCH  72  74
ENDBRANCH  70  71
ENDBRANCH   1  69
TORSDOF 17
ENDMDL
MODEL 28
REMARK VINA RESULT:    -6.376      2.362     11.108
REMARK INTER + INTRA:         -26.280
REMARK INTER:                 -20.857
REMARK INTRA:                  -5.423
REMARK UNBOUND:                -7.229
REMARK SMILES C=C1C(=O)N[C@H](C)C(=O)N[C@@H](CC(C)C)C(=O)N[C@@H](C(=O)O)[C@H](C)C(=O)N[C@@H](CCCN=C(N)N)C(=O)N[C@@H](/C=C/C(C)=C/[C@H](C)[C@H](Cc2ccccc2)OC)[C@H](C)C(=O)N[C@@H](C(=O)O)CCC(=O)N1C
REMARK SMILES IDX 39 1 38 2 37 3 36 4 28 6 27 7 25 8 26 9 23 11 24 12 19 13
REMARK SMILES IDX 18 14 16 15 17 16 11 18 10 19 8 20 9 21 12 24 13 25 14 26
REMARK SMILES IDX 15 27 20 28 21 29 22 30 29 32 30 33 31 34 32 35 33 36 34 37
REMARK SMILES IDX 35 38 57 43 58 44 59 45 60 46 61 47 62 49 66 50 67 51 68 52
REMARK SMILES IDX 69 53 70 54 71 55 2 56 1 57 3 58 4 59 5 60 6 62 7 63 63 65
REMARK SMILES IDX 64 66 65 67 40 69 41 70 42 71 44 72 43 73 45 74 46 75 47 76
REMARK SMILES IDX 55 77 56 78 48 79 49 80 50 81 54 82 51 83 53 84 52 85
REMARK H PARENT 38 5 27 10 18 17 10 22 22 31 34 39 34 40 35 41 35 42 61 48
REMARK H PARENT 5 61 65 68
REMARK Flexibility Score:  369.900
ROOT
ATOM      1  C   UNL     1      -0.474   6.198   7.732  1.00  0.00     0.117 C 
ENDROOT
BRANCH   1   2
ATOM      2  N   UNL     1       0.745   6.770   7.160  1.00  0.00    -0.347 N 
ATOM      3  O   UNL     1       2.257   5.400   8.213  1.00  0.00    -0.273 OA
ATOM      4  C   UNL     1       2.012   6.263   7.376  1.00  0.00     0.243 C 
ATOM      5  H   UNL     1       0.675   7.551   6.526  1.00  0.00     0.164 HD
BRANCH   4   6
ATOM      6  C   UNL     1       3.122   7.000   6.584  1.00  0.00     0.171 C 
BRANCH   6   7
ATOM      7  N   UNL     1       2.713   7.193   5.184  1.00  0.00    -0.344 N 
ATOM      8  C   UNL     1       3.350   6.516   4.166  1.00  0.00     0.226 C 
ATOM      9  O   UNL     1       4.287   5.752   4.367  1.00  0.00    -0.275 OA
ATOM     10  H   UNL     1       1.988   7.867   4.973  1.00  0.00     0.164 HD
BRANCH   8  11
ATOM     11  C   UNL     1       2.777   6.780   2.785  1.00  0.00     0.109 C 
ATOM     12  C   UNL     1       1.704   5.743   2.454  1.00  0.00     0.021 C 
BRANCH  11  13
ATOM     13  C   UNL     1       2.314   8.247   2.684  1.00  0.00     0.204 C 
BRANCH  13  14
ATOM     14  N   UNL     1       3.277   9.080   1.956  1.00  0.00    -0.340 N 
ATOM     15  C   UNL     1       3.864   8.686   0.774  1.00  0.00     0.243 C 
ATOM     16  O   UNL     1       3.576   7.630   0.213  1.00  0.00    -0.273 OA
ATOM     17  H   UNL     1       3.670   9.893   2.439  1.00  0.00     0.164 HD
BRANCH  15  18
ATOM     18  C   UNL     1       4.996   9.630   0.301  1.00  0.00     0.171 C 
BRANCH  18  19
ATOM     19  N   UNL     1       6.248   9.070   0.807  1.00  0.00    -0.343 N 
ATOM     20  C   UNL     1       6.728   9.378   2.065  1.00  0.00     0.242 CG0
ATOM     21  O   UNL     1       6.196  10.237   2.764  1.00  0.00    -0.273 OA
ATOM     22  H   UNL     1       6.786   8.443   0.219  1.00  0.00     0.164 HD
ATOM     23  G   UNL     1       8.020   8.630   2.455  1.00  0.00     0.000 G0
ENDBRANCH  18  19
BRANCH  18  24
ATOM     24  C   UNL     1       5.007   9.738  -1.229  1.00  0.00     0.038 C 
BRANCH  24  25
ATOM     25  C   UNL     1       6.408   9.647  -1.872  1.00  0.00    -0.015 C 
ATOM     26  C   UNL     1       7.133  10.993  -1.888  1.00  0.00     0.007 C 
ATOM     27  C   UNL     1       6.284   9.111  -3.300  1.00  0.00     0.007 C 
ENDBRANCH  24  25
ENDBRANCH  18  24
ENDBRANCH  15  18
ENDBRANCH  13  14
BRANCH  13  28
ATOM     28  C   UNL     1       0.959   8.406   1.988  1.00  0.00     0.327 C 
ATOM     29  O   UNL     1      -0.093   7.887   2.328  1.00  0.00    -0.250 OA
BRANCH  28  30
ATOM     30  O   UNL     1       1.033   9.111   0.841  1.00  0.00    -0.480 OA
ATOM     31  H   UNL     1       0.914   8.439   0.137  1.00  0.00     0.296 HD
ENDBRANCH  28  30
ENDBRANCH  13  28
ENDBRANCH  11  13
ENDBRANCH   8  11
ENDBRANCH   6   7
BRANCH   6  32
ATOM     32  C   UNL     1       3.413   8.345   7.259  1.00  0.00     0.037 C 
BRANCH  32  33
ATOM     33  C   UNL     1       4.395   9.200   6.447  1.00  0.00     0.026 C 
BRANCH  33  34
ATOM     34  C   UNL     1       3.703  10.349   5.713  1.00  0.00     0.146 C 
BRANCH  34  35
ATOM     35  N   UNL     1       2.726  10.956   6.606  1.00  0.00    -0.254 NA
ATOM     36  C   UNL     1       1.542  11.170   6.167  1.00  0.00     0.185 C 
ATOM     37  N   UNL     1       0.632  11.724   6.984  1.00  0.00    -0.370 N 
ATOM     38  N   UNL     1       1.033  10.912   4.950  1.00  0.00    -0.370 N 
ATOM     39  H   UNL     1       0.937  11.939   7.925  1.00  0.00     0.159 HD
ATOM     40  H   UNL     1      -0.351  11.763   6.776  1.00  0.00     0.159 HD
ATOM     41  H   UNL     1       0.124  11.255   4.681  1.00  0.00     0.159 HD
ATOM     42  H   UNL     1       1.609  10.509   4.228  1.00  0.00     0.159 HD
ENDBRANCH  34  35
ENDBRANCH  33  34
ENDBRANCH  32  33
ENDBRANCH   6  32
ENDBRANCH   4   6
ENDBRANCH   1   2
BRANCH   1  43
ATOM     43  C   UNL     1      -1.297   5.539   6.587  1.00  0.00     0.102 C 
ATOM     44  C   UNL     1      -0.765   5.869   5.183  1.00  0.00     0.020 C 
BRANCH  43  45
ATOM     45  C   UNL     1      -2.795   5.805   6.763  1.00  0.00     0.225 C 
ATOM     46  O   UNL     1      -3.334   6.855   6.423  1.00  0.00    -0.275 OA
ATOM     47  N   UNL     1      -3.499   4.821   7.419  1.00  0.00    -0.342 N 
ATOM     48  H   UNL     1      -3.080   3.912   7.553  1.00  0.00     0.164 HD
BRANCH  47  49
ATOM     49  C   UNL     1      -4.946   4.924   7.627  1.00  0.00     0.192 C 
BRANCH  49  50
ATOM     50  C   UNL     1      -5.342   4.144   8.883  1.00  0.00     0.047 C 
BRANCH  50  51
ATOM     51  C   UNL     1      -4.200   4.068   9.905  1.00  0.00     0.103 C 
BRANCH  51  52
ATOM     52  C   UNL     1      -4.067   2.674  10.515  1.00  0.00     0.226 C 
ATOM     53  O   UNL     1      -3.804   1.714   9.789  1.00  0.00    -0.275 OA
BRANCH  52  54
ATOM     54  N   UNL     1      -4.184   2.589  11.915  1.00  0.00    -0.311 N 
ATOM     55  C   UNL     1      -3.018   2.793  12.785  1.00  0.00     0.153 C 
BRANCH  54  56
ATOM     56  C   UNL     1      -5.416   2.312  12.531  1.00  0.00     0.102 C 
ATOM     57  C   UNL     1      -6.027   3.111  13.421  1.00  0.00     0.043 C 
BRANCH  56  58
ATOM     58  C   UNL     1      -6.192   1.063  12.185  1.00  0.00     0.268 C 
ATOM     59  O   UNL     1      -7.061   1.031  11.324  1.00  0.00    -0.268 OA
ATOM     60  N   UNL     1      -5.776  -0.043  12.888  1.00  0.00    -0.339 N 
ATOM     61  H   UNL     1      -5.057   0.069  13.592  1.00  0.00     0.164 HD
BRANCH  60  62
ATOM     62  C   UNL     1      -6.350  -1.370  12.664  1.00  0.00     0.168 CG0
ATOM     63  C   UNL     1      -5.494  -2.180  11.699  1.00  0.00     0.041 C 
ATOM     64  G   UNL     1      -7.789  -1.226  12.127  1.00  0.00     0.000 G0
ENDBRANCH  60  62
ENDBRANCH  56  58
ENDBRANCH  54  56
ENDBRANCH  52  54
ENDBRANCH  51  52
ENDBRANCH  50  51
ENDBRANCH  49  50
BRANCH  49  65
ATOM     65  C   UNL     1      -5.732   4.381   6.422  1.00  0.00     0.326 C 
ATOM     66  O   UNL     1      -6.613   4.978   5.821  1.00  0.00    -0.250 OA
BRANCH  65  67
ATOM     67  O   UNL     1      -5.423   3.112   6.073  1.00  0.00    -0.480 OA
ATOM     68  H   UNL     1      -5.177   3.186   5.126  1.00  0.00     0.296 HD
ENDBRANCH  65  67
ENDBRANCH  49  65
ENDBRANCH  47  49
ENDBRANCH  43  45
ENDBRANCH   1  43
BRANCH   1  69
ATOM     69  C   UNL     1      -1.115   7.302   8.554  1.00  0.00    -0.001 C 
ATOM     70  C   UNL     1      -0.967   8.629   8.395  1.00  0.00     0.001 C 
BRANCH  70  71
ATOM     71  C   UNL     1      -1.607   9.686   9.181  1.00  0.00    -0.055 C 
ATOM     72  C   UNL     1      -0.838  10.378  10.047  1.00  0.00    -0.018 C 
ATOM     73  C   UNL     1      -3.078   9.930   8.962  1.00  0.00     0.044 C 
BRANCH  72  74
ATOM     74  C   UNL     1      -1.223  11.517  10.980  1.00  0.00     0.038 C 
ATOM     75  C   UNL     1      -0.078  12.536  10.947  1.00  0.00     0.015 C 
BRANCH  74  76
ATOM     76  C   UNL     1      -1.533  10.929  12.388  1.00  0.00     0.128 C 
BRANCH  76  77
ATOM     77  O   UNL     1      -2.948  10.971  12.636  1.00  0.00    -0.381 OA
ATOM     78  C   UNL     1      -3.530  12.248  12.407  1.00  0.00     0.195 C 
ENDBRANCH  76  77
BRANCH  76  79
ATOM     79  C   UNL     1      -0.924   9.525  12.631  1.00  0.00     0.068 C 
BRANCH  79  80
ATOM     80  C   UNL     1      -1.854   8.414  13.054  1.00  0.00    -0.045 A 
ATOM     81  C   UNL     1      -2.147   8.193  14.407  1.00  0.00     0.004 A 
ATOM     82  C   UNL     1      -2.421   7.562  12.095  1.00  0.00     0.004 A 
ATOM     83  C   UNL     1      -2.997   7.155  14.791  1.00  0.00     0.000 A 
ATOM     84  C   UNL     1      -3.271   6.523  12.480  1.00  0.00     0.000 A 
ATOM     85  C   UNL     1      -3.560   6.321  13.828  1.00  0.00     0.000 A 
ENDBRANCH  79  80
ENDBRANCH  76  79
ENDBRANCH  74  76
ENDBRANCH  72  74
ENDBRANCH  70  71
ENDBRANCH   1  69
TORSDOF 17
ENDMDL
MODEL 29
REMARK VINA RESULT:    -6.351      2.615     11.444
REMARK INTER + INTRA:         -26.205
REMARK INTER:                 -18.072
REMARK INTRA:                  -8.133
REMARK UNBOUND:                -7.229
REMARK SMILES C=C1C(=O)N[C@H](C)C(=O)N[C@@H](CC(C)C)C(=O)N[C@@H](C(=O)O)[C@H](C)C(=O)N[C@@H](CCCN=C(N)N)C(=O)N[C@@H](/C=C/C(C)=C/[C@H](C)[C@H](Cc2ccccc2)OC)[C@H](C)C(=O)N[C@@H](C(=O)O)CCC(=O)N1C
REMARK SMILES IDX 39 1 38 2 37 3 36 4 28 6 27 7 25 8 26 9 23 11 24 12 19 13
REMARK SMILES IDX 18 14 16 15 17 16 11 18 10 19 8 20 9 21 12 24 13 25 14 26
REMARK SMILES IDX 15 27 20 28 21 29 22 30 29 32 30 33 31 34 32 35 33 36 34 37
REMARK SMILES IDX 35 38 57 43 58 44 59 45 60 46 61 47 62 49 66 50 67 51 68 52
REMARK SMILES IDX 69 53 70 54 71 55 2 56 1 57 3 58 4 59 5 60 6 62 7 63 63 65
REMARK SMILES IDX 64 66 65 67 40 69 41 70 42 71 44 72 43 73 45 74 46 75 47 76
REMARK SMILES IDX 55 77 56 78 48 79 49 80 50 81 54 82 51 83 53 84 52 85
REMARK H PARENT 38 5 27 10 18 17 10 22 22 31 34 39 34 40 35 41 35 42 61 48
REMARK H PARENT 5 61 65 68
REMARK Flexibility Score:  369.900
ROOT
ATOM      1  C   UNL     1      -1.050   5.423   9.072  1.00  0.00     0.117 C 
ENDROOT
BRANCH   1   2
ATOM      2  N   UNL     1       0.039   5.935   8.239  1.00  0.00    -0.347 N 
ATOM      3  O   UNL     1       1.383   4.075   8.302  1.00  0.00    -0.273 OA
ATOM      4  C   UNL     1       1.130   5.185   7.844  1.00  0.00     0.243 C 
ATOM      5  H   UNL     1      -0.014   6.876   7.879  1.00  0.00     0.164 HD
BRANCH   4   6
ATOM      6  C   UNL     1       2.094   5.939   6.894  1.00  0.00     0.171 C 
BRANCH   6   7
ATOM      7  N   UNL     1       1.469   6.133   5.576  1.00  0.00    -0.344 N 
ATOM      8  C   UNL     1       2.184   5.910   4.419  1.00  0.00     0.226 C 
ATOM      9  O   UNL     1       3.360   5.566   4.426  1.00  0.00    -0.275 OA
ATOM     10  H   UNL     1       0.520   6.482   5.529  1.00  0.00     0.164 HD
BRANCH   8  11
ATOM     11  C   UNL     1       1.385   6.101   3.142  1.00  0.00     0.109 C 
ATOM     12  C   UNL     1      -0.112   6.116   3.456  1.00  0.00     0.021 C 
BRANCH  11  13
ATOM     13  C   UNL     1       1.901   7.340   2.384  1.00  0.00     0.204 C 
BRANCH  13  14
ATOM     14  N   UNL     1       3.074   7.034   1.560  1.00  0.00    -0.340 N 
ATOM     15  C   UNL     1       4.040   7.968   1.256  1.00  0.00     0.243 C 
ATOM     16  O   UNL     1       4.016   9.113   1.705  1.00  0.00    -0.273 OA
ATOM     17  H   UNL     1       3.076   6.155   1.035  1.00  0.00     0.164 HD
BRANCH  15  18
ATOM     18  C   UNL     1       5.067   7.477   0.206  1.00  0.00     0.171 C 
BRANCH  18  19
ATOM     19  N   UNL     1       5.394   8.630  -0.631  1.00  0.00    -0.343 N 
ATOM     20  C   UNL     1       5.155   8.633  -1.992  1.00  0.00     0.242 CG0
ATOM     21  O   UNL     1       4.782   7.622  -2.582  1.00  0.00    -0.273 OA
ATOM     22  H   UNL     1       5.813   9.450  -0.207  1.00  0.00     0.164 HD
ATOM     23  G   UNL     1       5.492   9.965  -2.694  1.00  0.00     0.000 G0
ENDBRANCH  18  19
BRANCH  18  24
ATOM     24  C   UNL     1       6.315   6.910   0.895  1.00  0.00     0.038 C 
BRANCH  24  25
ATOM     25  C   UNL     1       7.173   7.957   1.636  1.00  0.00    -0.015 C 
ATOM     26  C   UNL     1       8.449   8.314   0.874  1.00  0.00     0.007 C 
ATOM     27  C   UNL     1       7.534   7.433   3.029  1.00  0.00     0.007 C 
ENDBRANCH  24  25
ENDBRANCH  18  24
ENDBRANCH  15  18
ENDBRANCH  13  14
BRANCH  13  28
ATOM     28  C   UNL     1       0.849   7.965   1.462  1.00  0.00     0.327 C 
ATOM     29  O   UNL     1       0.543   7.575   0.346  1.00  0.00    -0.250 OA
BRANCH  28  30
ATOM     30  O   UNL     1       0.332   9.111   1.951  1.00  0.00    -0.480 OA
ATOM     31  H   UNL     1      -0.058   8.852   2.811  1.00  0.00     0.296 HD
ENDBRANCH  28  30
ENDBRANCH  13  28
ENDBRANCH  11  13
ENDBRANCH   8  11
ENDBRANCH   6   7
BRANCH   6  32
ATOM     32  C   UNL     1       2.473   7.284   7.524  1.00  0.00     0.037 C 
BRANCH  32  33
ATOM     33  C   UNL     1       3.941   7.650   7.268  1.00  0.00     0.026 C 
BRANCH  33  34
ATOM     34  C   UNL     1       4.171   9.162   7.245  1.00  0.00     0.146 C 
BRANCH  34  35
ATOM     35  N   UNL     1       5.051   9.487   6.131  1.00  0.00    -0.254 NA
ATOM     36  C   UNL     1       4.527   9.849   5.020  1.00  0.00     0.185 C 
ATOM     37  N   UNL     1       5.329  10.155   3.988  1.00  0.00    -0.370 N 
ATOM     38  N   UNL     1       3.227   9.979   4.702  1.00  0.00    -0.370 N 
ATOM     39  H   UNL     1       6.325  10.091   4.153  1.00  0.00     0.159 HD
ATOM     40  H   UNL     1       5.008  10.609   3.150  1.00  0.00     0.159 HD
ATOM     41  H   UNL     1       2.937  10.137   3.750  1.00  0.00     0.159 HD
ATOM     42  H   UNL     1       2.510   9.766   5.377  1.00  0.00     0.159 HD
ENDBRANCH  34  35
ENDBRANCH  33  34
ENDBRANCH  32  33
ENDBRANCH   6  32
ENDBRANCH   4   6
ENDBRANCH   1   2
BRANCH   1  43
ATOM     43  C   UNL     1      -2.253   5.070   8.151  1.00  0.00     0.102 C 
ATOM     44  C   UNL     1      -2.396   6.010   6.942  1.00  0.00     0.020 C 
BRANCH  43  45
ATOM     45  C   UNL     1      -3.540   4.906   8.966  1.00  0.00     0.225 C 
ATOM     46  O   UNL     1      -4.438   5.744   8.978  1.00  0.00    -0.275 OA
ATOM     47  N   UNL     1      -3.593   3.792   9.771  1.00  0.00    -0.342 N 
ATOM     48  H   UNL     1      -2.926   3.045   9.637  1.00  0.00     0.164 HD
BRANCH  47  49
ATOM     49  C   UNL     1      -4.778   3.487  10.580  1.00  0.00     0.192 C 
BRANCH  49  50
ATOM     50  C   UNL     1      -4.584   4.027  11.999  1.00  0.00     0.047 C 
BRANCH  50  51
ATOM     51  C   UNL     1      -3.325   3.463  12.670  1.00  0.00     0.103 C 
BRANCH  51  52
ATOM     52  C   UNL     1      -3.562   3.122  14.140  1.00  0.00     0.226 C 
ATOM     53  O   UNL     1      -3.093   3.849  15.018  1.00  0.00    -0.275 OA
BRANCH  52  54
ATOM     54  N   UNL     1      -4.386   2.011  14.401  1.00  0.00    -0.311 N 
ATOM     55  C   UNL     1      -5.728   2.183  14.973  1.00  0.00     0.153 C 
BRANCH  54  56
ATOM     56  C   UNL     1      -3.961   0.702  14.119  1.00  0.00     0.102 C 
ATOM     57  C   UNL     1      -2.682   0.330  13.949  1.00  0.00     0.043 C 
BRANCH  56  58
ATOM     58  C   UNL     1      -4.954  -0.433  14.030  1.00  0.00     0.268 C 
ATOM     59  O   UNL     1      -5.343  -1.060  15.006  1.00  0.00    -0.268 OA
ATOM     60  N   UNL     1      -5.422  -0.642  12.755  1.00  0.00    -0.339 N 
ATOM     61  H   UNL     1      -5.041  -0.086  11.999  1.00  0.00     0.164 HD
BRANCH  60  62
ATOM     62  C   UNL     1      -6.437  -1.650  12.453  1.00  0.00     0.168 CG0
ATOM     63  C   UNL     1      -5.846  -2.794  11.639  1.00  0.00     0.041 C 
ATOM     64  G   UNL     1      -7.611  -0.992  11.699  1.00  0.00     0.000 G0
ENDBRANCH  60  62
ENDBRANCH  56  58
ENDBRANCH  54  56
ENDBRANCH  52  54
ENDBRANCH  51  52
ENDBRANCH  50  51
ENDBRANCH  49  50
BRANCH  49  65
ATOM     65  C   UNL     1      -5.047   1.975  10.644  1.00  0.00     0.326 C 
ATOM     66  O   UNL     1      -4.267   1.099  10.297  1.00  0.00    -0.250 OA
BRANCH  65  67
ATOM     67  O   UNL     1      -6.283   1.640  11.075  1.00  0.00    -0.480 OA
ATOM     68  H   UNL     1      -6.307   1.980  11.995  1.00  0.00     0.296 HD
ENDBRANCH  65  67
ENDBRANCH  49  65
ENDBRANCH  47  49
ENDBRANCH  43  45
ENDBRANCH   1  43
BRANCH   1  69
ATOM     69  C   UNL     1      -1.248   6.438  10.182  1.00  0.00    -0.001 C 
ATOM     70  C   UNL     1      -1.221   6.215  11.508  1.00  0.00     0.001 C 
BRANCH  70  71
ATOM     71  C   UNL     1      -1.393   7.208  12.570  1.00  0.00    -0.055 C 
ATOM     72  C   UNL     1      -2.587   7.254  13.199  1.00  0.00    -0.018 C 
ATOM     73  C   UNL     1      -0.225   8.103  12.892  1.00  0.00     0.044 C 
BRANCH  72  74
ATOM     74  C   UNL     1      -3.046   8.166  14.328  1.00  0.00     0.038 C 
ATOM     75  C   UNL     1      -3.580   7.266  15.449  1.00  0.00     0.015 C 
BRANCH  74  76
ATOM     76  C   UNL     1      -4.079   9.184  13.760  1.00  0.00     0.128 C 
BRANCH  76  77
ATOM     77  O   UNL     1      -4.993   9.585  14.795  1.00  0.00    -0.381 OA
ATOM     78  C   UNL     1      -6.207  10.134  14.303  1.00  0.00     0.195 C 
ENDBRANCH  76  77
BRANCH  76  79
ATOM     79  C   UNL     1      -3.438  10.388  13.027  1.00  0.00     0.068 C 
BRANCH  79  80
ATOM     80  C   UNL     1      -3.042  10.207  11.581  1.00  0.00    -0.045 A 
ATOM     81  C   UNL     1      -1.909  10.843  11.058  1.00  0.00     0.004 A 
ATOM     82  C   UNL     1      -3.826   9.416  10.727  1.00  0.00     0.004 A 
ATOM     83  C   UNL     1      -1.558  10.681   9.716  1.00  0.00     0.000 A 
ATOM     84  C   UNL     1      -3.475   9.256   9.385  1.00  0.00     0.000 A 
ATOM     85  C   UNL     1      -2.340   9.887   8.880  1.00  0.00     0.000 A 
ENDBRANCH  79  80
ENDBRANCH  76  79
ENDBRANCH  74  76
ENDBRANCH  72  74
ENDBRANCH  70  71
ENDBRANCH   1  69
TORSDOF 17
ENDMDL
MODEL 30
REMARK VINA RESULT:    -6.347      3.315     12.077
REMARK INTER + INTRA:         -26.192
REMARK INTER:                 -18.062
REMARK INTRA:                  -8.130
REMARK UNBOUND:                -7.229
REMARK SMILES C=C1C(=O)N[C@H](C)C(=O)N[C@@H](CC(C)C)C(=O)N[C@@H](C(=O)O)[C@H](C)C(=O)N[C@@H](CCCN=C(N)N)C(=O)N[C@@H](/C=C/C(C)=C/[C@H](C)[C@H](Cc2ccccc2)OC)[C@H](C)C(=O)N[C@@H](C(=O)O)CCC(=O)N1C
REMARK SMILES IDX 39 1 38 2 37 3 36 4 28 6 27 7 25 8 26 9 23 11 24 12 19 13
REMARK SMILES IDX 18 14 16 15 17 16 11 18 10 19 8 20 9 21 12 24 13 25 14 26
REMARK SMILES IDX 15 27 20 28 21 29 22 30 29 32 30 33 31 34 32 35 33 36 34 37
REMARK SMILES IDX 35 38 57 43 58 44 59 45 60 46 61 47 62 49 66 50 67 51 68 52
REMARK SMILES IDX 69 53 70 54 71 55 2 56 1 57 3 58 4 59 5 60 6 62 7 63 63 65
REMARK SMILES IDX 64 66 65 67 40 69 41 70 42 71 44 72 43 73 45 74 46 75 47 76
REMARK SMILES IDX 55 77 56 78 48 79 49 80 50 81 54 82 51 83 53 84 52 85
REMARK H PARENT 38 5 27 10 18 17 10 22 22 31 34 39 34 40 35 41 35 42 61 48
REMARK H PARENT 5 61 65 68
REMARK Flexibility Score:  369.900
ROOT
ATOM      1  C   UNL     1       2.199   9.634   7.372  1.00  0.00     0.117 C 
ENDROOT
BRANCH   1   2
ATOM      2  N   UNL     1       1.476   8.670   6.541  1.00  0.00    -0.347 N 
ATOM      3  O   UNL     1       0.912   7.187   8.199  1.00  0.00    -0.273 OA
ATOM      4  C   UNL     1       0.810   7.567   7.037  1.00  0.00     0.243 C 
ATOM      5  H   UNL     1       1.406   8.829   5.547  1.00  0.00     0.164 HD
BRANCH   4   6
ATOM      6  C   UNL     1       0.053   6.756   5.955  1.00  0.00     0.171 C 
BRANCH   6   7
ATOM      7  N   UNL     1       0.917   6.528   4.785  1.00  0.00    -0.344 N 
ATOM      8  C   UNL     1       0.370   6.349   3.533  1.00  0.00     0.226 C 
ATOM      9  O   UNL     1      -0.838   6.347   3.334  1.00  0.00    -0.275 OA
ATOM     10  H   UNL     1       1.917   6.456   4.921  1.00  0.00     0.164 HD
BRANCH   8  11
ATOM     11  C   UNL     1       1.393   6.179   2.423  1.00  0.00     0.109 C 
ATOM     12  C   UNL     1       0.695   5.793   1.119  1.00  0.00     0.021 C 
BRANCH  11  13
ATOM     13  C   UNL     1       2.280   7.437   2.335  1.00  0.00     0.204 C 
BRANCH  13  14
ATOM     14  N   UNL     1       3.190   7.391   1.186  1.00  0.00    -0.340 N 
ATOM     15  C   UNL     1       4.532   7.100   1.306  1.00  0.00     0.243 C 
ATOM     16  O   UNL     1       5.049   6.797   2.380  1.00  0.00    -0.273 OA
ATOM     17  H   UNL     1       2.862   7.778   0.297  1.00  0.00     0.164 HD
BRANCH  15  18
ATOM     18  C   UNL     1       5.330   7.314  -0.004  1.00  0.00     0.171 C 
BRANCH  18  19
ATOM     19  N   UNL     1       5.533   5.991  -0.592  1.00  0.00    -0.343 N 
ATOM     20  C   UNL     1       6.748   5.339  -0.516  1.00  0.00     0.242 CG0
ATOM     21  O   UNL     1       7.750   5.893  -0.070  1.00  0.00    -0.273 OA
ATOM     22  H   UNL     1       4.765   5.538  -1.074  1.00  0.00     0.164 HD
ATOM     23  G   UNL     1       6.748   3.921  -1.124  1.00  0.00     0.000 G0
ENDBRANCH  18  19
BRANCH  18  24
ATOM     24  C   UNL     1       4.568   8.242  -0.957  1.00  0.00     0.038 C 
BRANCH  24  25
ATOM     25  C   UNL     1       5.285   9.571  -1.274  1.00  0.00    -0.015 C 
ATOM     26  C   UNL     1       6.763   9.372  -1.614  1.00  0.00     0.007 C 
ATOM     27  C   UNL     1       5.155  10.523  -0.083  1.00  0.00     0.007 C 
ENDBRANCH  24  25
ENDBRANCH  18  24
ENDBRANCH  15  18
ENDBRANCH  13  14
BRANCH  13  28
ATOM     28  C   UNL     1       1.476   8.736   2.226  1.00  0.00     0.327 C 
ATOM     29  O   UNL     1       1.032   9.227   1.199  1.00  0.00    -0.250 OA
BRANCH  28  30
ATOM     30  O   UNL     1       1.382   9.400   3.396  1.00  0.00    -0.480 OA
ATOM     31  H   UNL     1       0.422   9.412   3.589  1.00  0.00     0.296 HD
ENDBRANCH  28  30
ENDBRANCH  13  28
ENDBRANCH  11  13
ENDBRANCH   8  11
ENDBRANCH   6   7
BRANCH   6  32
ATOM     32  C   UNL     1      -0.416   5.427   6.557  1.00  0.00     0.037 C 
BRANCH  32  33
ATOM     33  C   UNL     1      -1.865   5.097   6.175  1.00  0.00     0.026 C 
BRANCH  33  34
ATOM     34  C   UNL     1      -2.554   4.205   7.209  1.00  0.00     0.146 C 
BRANCH  34  35
ATOM     35  N   UNL     1      -3.945   4.020   6.818  1.00  0.00    -0.254 NA
ATOM     36  C   UNL     1      -4.807   4.893   7.185  1.00  0.00     0.185 C 
ATOM     37  N   UNL     1      -6.091   4.736   6.826  1.00  0.00    -0.370 N 
ATOM     38  N   UNL     1      -4.623   6.008   7.914  1.00  0.00    -0.370 N 
ATOM     39  H   UNL     1      -6.309   3.922   6.265  1.00  0.00     0.159 HD
ATOM     40  H   UNL     1      -6.787   5.454   6.923  1.00  0.00     0.159 HD
ATOM     41  H   UNL     1      -5.405   6.542   8.256  1.00  0.00     0.159 HD
ATOM     42  H   UNL     1      -3.709   6.245   8.266  1.00  0.00     0.159 HD
ENDBRANCH  34  35
ENDBRANCH  33  34
ENDBRANCH  32  33
ENDBRANCH   6  32
ENDBRANCH   4   6
ENDBRANCH   1   2
BRANCH   1  43
ATOM     43  C   UNL     1       1.284  10.871   7.606  1.00  0.00     0.102 C 
ATOM     44  C   UNL     1       1.131  11.248   9.089  1.00  0.00     0.020 C 
BRANCH  43  45
ATOM     45  C   UNL     1      -0.048  10.718   6.864  1.00  0.00     0.225 C 
ATOM     46  O   UNL     1      -0.144  10.770   5.641  1.00  0.00    -0.275 OA
ATOM     47  N   UNL     1      -1.162  10.609   7.663  1.00  0.00    -0.342 N 
ATOM     48  H   UNL     1      -1.054  10.416   8.649  1.00  0.00     0.164 HD
BRANCH  47  49
ATOM     49  C   UNL     1      -2.500  10.421   7.092  1.00  0.00     0.192 C 
BRANCH  49  50
ATOM     50  C   UNL     1      -3.430  11.533   7.585  1.00  0.00     0.047 C 
BRANCH  50  51
ATOM     51  C   UNL     1      -2.844  12.294   8.782  1.00  0.00     0.103 C 
BRANCH  51  52
ATOM     52  C   UNL     1      -3.803  12.319   9.971  1.00  0.00     0.226 C 
ATOM     53  O   UNL     1      -4.907  12.856   9.853  1.00  0.00    -0.275 OA
BRANCH  52  54
ATOM     54  N   UNL     1      -3.382  11.643  11.131  1.00  0.00    -0.311 N 
ATOM     55  C   UNL     1      -2.231  10.731  11.098  1.00  0.00     0.153 C 
BRANCH  54  56
ATOM     56  C   UNL     1      -4.038  11.819  12.360  1.00  0.00     0.102 C 
ATOM     57  C   UNL     1      -3.841  12.851  13.196  1.00  0.00     0.043 C 
BRANCH  56  58
ATOM     58  C   UNL     1      -5.089  10.838  12.824  1.00  0.00     0.268 C 
ATOM     59  O   UNL     1      -5.938  10.364  12.081  1.00  0.00    -0.268 OA
ATOM     60  N   UNL     1      -4.953  10.484  14.145  1.00  0.00    -0.339 N 
ATOM     61  H   UNL     1      -4.229  10.930  14.697  1.00  0.00     0.164 HD
BRANCH  60  62
ATOM     62  C   UNL     1      -5.826   9.500  14.783  1.00  0.00     0.168 CG0
ATOM     63  C   UNL     1      -5.087   8.191  15.030  1.00  0.00     0.041 C 
ATOM     64  G   UNL     1      -7.071   9.266  13.902  1.00  0.00     0.000 G0
ENDBRANCH  60  62
ENDBRANCH  56  58
ENDBRANCH  54  56
ENDBRANCH  52  54
ENDBRANCH  51  52
ENDBRANCH  50  51
ENDBRANCH  49  50
BRANCH  49  65
ATOM     65  C   UNL     1      -3.092   9.056   7.474  1.00  0.00     0.326 C 
ATOM     66  O   UNL     1      -3.477   8.734   8.588  1.00  0.00    -0.250 OA
BRANCH  65  67
ATOM     67  O   UNL     1      -3.116   8.152   6.469  1.00  0.00    -0.480 OA
ATOM     68  H   UNL     1      -3.922   8.391   5.962  1.00  0.00     0.296 HD
ENDBRANCH  65  67
ENDBRANCH  49  65
ENDBRANCH  47  49
ENDBRANCH  43  45
ENDBRANCH   1  43
BRANCH   1  69
ATOM     69  C   UNL     1       3.550   9.836   6.710  1.00  0.00    -0.001 C 
ATOM     70  C   UNL     1       4.058   9.157   5.667  1.00  0.00     0.001 C 
BRANCH  70  71
ATOM     71  C   UNL     1       5.355   9.375   5.023  1.00  0.00    -0.055 C 
ATOM     72  C   UNL     1       6.464   9.050   5.720  1.00  0.00    -0.018 C 
ATOM     73  C   UNL     1       5.359   9.939   3.626  1.00  0.00     0.044 C 
BRANCH  72  74
ATOM     74  C   UNL     1       7.926   9.163   5.311  1.00  0.00     0.038 C 
ATOM     75  C   UNL     1       8.501   7.742   5.291  1.00  0.00     0.015 C 
BRANCH  74  76
ATOM     76  C   UNL     1       8.644  10.144   6.284  1.00  0.00     0.128 C 
BRANCH  76  77
ATOM     77  O   UNL     1       9.673   9.451   7.010  1.00  0.00    -0.381 OA
ATOM     78  C   UNL     1       9.522   9.520   8.421  1.00  0.00     0.195 C 
ENDBRANCH  76  77
BRANCH  76  79
ATOM     79  C   UNL     1       9.157  11.440   5.606  1.00  0.00     0.068 C 
BRANCH  79  80
ATOM     80  C   UNL     1       8.279  12.087   4.563  1.00  0.00    -0.045 A 
ATOM     81  C   UNL     1       8.545  11.930   3.197  1.00  0.00     0.004 A 
ATOM     82  C   UNL     1       7.191  12.885   4.950  1.00  0.00     0.004 A 
ATOM     83  C   UNL     1       7.737  12.544   2.238  1.00  0.00     0.000 A 
ATOM     84  C   UNL     1       6.383  13.499   3.990  1.00  0.00     0.000 A 
ATOM     85  C   UNL     1       6.655  13.327   2.635  1.00  0.00     0.000 A 
ENDBRANCH  79  80
ENDBRANCH  76  79
ENDBRANCH  74  76
ENDBRANCH  72  74
ENDBRANCH  70  71
ENDBRANCH   1  69
TORSDOF 17
ENDMDL
MODEL 31
REMARK VINA RESULT:    -6.336      2.732     11.794
REMARK INTER + INTRA:         -26.160
REMARK INTER:                 -18.150
REMARK INTRA:                  -8.010
REMARK UNBOUND:                -7.229
REMARK SMILES C=C1C(=O)N[C@H](C)C(=O)N[C@@H](CC(C)C)C(=O)N[C@@H](C(=O)O)[C@H](C)C(=O)N[C@@H](CCCN=C(N)N)C(=O)N[C@@H](/C=C/C(C)=C/[C@H](C)[C@H](Cc2ccccc2)OC)[C@H](C)C(=O)N[C@@H](C(=O)O)CCC(=O)N1C
REMARK SMILES IDX 39 1 38 2 37 3 36 4 28 6 27 7 25 8 26 9 23 11 24 12 19 13
REMARK SMILES IDX 18 14 16 15 17 16 11 18 10 19 8 20 9 21 12 24 13 25 14 26
REMARK SMILES IDX 15 27 20 28 21 29 22 30 29 32 30 33 31 34 32 35 33 36 34 37
REMARK SMILES IDX 35 38 57 43 58 44 59 45 60 46 61 47 62 49 66 50 67 51 68 52
REMARK SMILES IDX 69 53 70 54 71 55 2 56 1 57 3 58 4 59 5 60 6 62 7 63 63 65
REMARK SMILES IDX 64 66 65 67 40 69 41 70 42 71 44 72 43 73 45 74 46 75 47 76
REMARK SMILES IDX 55 77 56 78 48 79 49 80 50 81 54 82 51 83 53 84 52 85
REMARK H PARENT 38 5 27 10 18 17 10 22 22 31 34 39 34 40 35 41 35 42 61 48
REMARK H PARENT 5 61 65 68
REMARK Flexibility Score:  369.900
ROOT
ATOM      1  C   UNL     1      -3.843   7.501   9.185  1.00  0.00     0.117 C 
ENDROOT
BRANCH   1   2
ATOM      2  N   UNL     1      -2.851   8.576   9.172  1.00  0.00    -0.347 N 
ATOM      3  O   UNL     1      -3.388   9.472   7.128  1.00  0.00    -0.273 OA
ATOM      4  C   UNL     1      -2.764   9.535   8.181  1.00  0.00     0.243 C 
ATOM      5  H   UNL     1      -2.214   8.671   9.949  1.00  0.00     0.164 HD
BRANCH   4   6
ATOM      6  C   UNL     1      -1.682  10.612   8.451  1.00  0.00     0.171 C 
BRANCH   6   7
ATOM      7  N   UNL     1      -0.937  10.912   7.218  1.00  0.00    -0.344 N 
ATOM      8  C   UNL     1       0.301  10.351   6.991  1.00  0.00     0.226 C 
ATOM      9  O   UNL     1       0.846   9.607   7.797  1.00  0.00    -0.275 OA
ATOM     10  H   UNL     1      -1.324  11.576   6.559  1.00  0.00     0.164 HD
BRANCH   8  11
ATOM     11  C   UNL     1       0.917  10.715   5.651  1.00  0.00     0.109 C 
ATOM     12  C   UNL     1       1.478  12.136   5.698  1.00  0.00     0.021 C 
BRANCH  11  13
ATOM     13  C   UNL     1       1.930   9.631   5.232  1.00  0.00     0.204 C 
BRANCH  13  14
ATOM     14  N   UNL     1       1.836   9.310   3.804  1.00  0.00    -0.340 N 
ATOM     15  C   UNL     1       1.045   8.292   3.316  1.00  0.00     0.243 C 
ATOM     16  O   UNL     1       0.315   7.618   4.041  1.00  0.00    -0.273 OA
ATOM     17  H   UNL     1       2.525   9.726   3.172  1.00  0.00     0.164 HD
BRANCH  15  18
ATOM     18  C   UNL     1       1.265   8.006   1.811  1.00  0.00     0.171 C 
BRANCH  18  19
ATOM     19  N   UNL     1       2.265   8.963   1.344  1.00  0.00    -0.343 N 
ATOM     20  C   UNL     1       2.218   9.506   0.074  1.00  0.00     0.242 CG0
ATOM     21  O   UNL     1       1.412   9.110  -0.765  1.00  0.00    -0.273 OA
ATOM     22  H   UNL     1       3.020   9.236   1.963  1.00  0.00     0.164 HD
ATOM     23  G   UNL     1       3.311  10.557  -0.210  1.00  0.00     0.000 G0
ENDBRANCH  18  19
BRANCH  18  24
ATOM     24  C   UNL     1       1.729   6.560   1.596  1.00  0.00     0.038 C 
BRANCH  24  25
ATOM     25  C   UNL     1       3.057   6.199   2.294  1.00  0.00    -0.015 C 
ATOM     26  C   UNL     1       4.130   5.736   1.307  1.00  0.00     0.007 C 
ATOM     27  C   UNL     1       2.811   5.106   3.337  1.00  0.00     0.007 C 
ENDBRANCH  24  25
ENDBRANCH  18  24
ENDBRANCH  15  18
ENDBRANCH  13  14
BRANCH  13  28
ATOM     28  C   UNL     1       3.384  10.022   5.514  1.00  0.00     0.327 C 
ATOM     29  O   UNL     1       3.876  10.232   6.612  1.00  0.00    -0.250 OA
BRANCH  28  30
ATOM     30  O   UNL     1       4.100  10.241   4.392  1.00  0.00    -0.480 OA
ATOM     31  H   UNL     1       4.569  11.083   4.567  1.00  0.00     0.296 HD
ENDBRANCH  28  30
ENDBRANCH  13  28
ENDBRANCH  11  13
ENDBRANCH   8  11
ENDBRANCH   6   7
BRANCH   6  32
ATOM     32  C   UNL     1      -2.355  11.874   9.004  1.00  0.00     0.037 C 
BRANCH  32  33
ATOM     33  C   UNL     1      -2.414  11.873  10.538  1.00  0.00     0.026 C 
BRANCH  33  34
ATOM     34  C   UNL     1      -1.077  11.493  11.175  1.00  0.00     0.146 C 
BRANCH  34  35
ATOM     35  N   UNL     1      -1.333  10.827  12.445  1.00  0.00    -0.254 NA
ATOM     36  C   UNL     1      -0.843   9.659  12.637  1.00  0.00     0.185 C 
ATOM     37  N   UNL     1      -1.069   9.039  13.805  1.00  0.00    -0.370 N 
ATOM     38  N   UNL     1      -0.092   8.912  11.808  1.00  0.00    -0.370 N 
ATOM     39  H   UNL     1      -1.619   9.544  14.488  1.00  0.00     0.159 HD
ATOM     40  H   UNL     1      -0.582   8.210  14.098  1.00  0.00     0.159 HD
ATOM     41  H   UNL     1       0.117   7.950  12.020  1.00  0.00     0.159 HD
ATOM     42  H   UNL     1       0.143   9.247  10.887  1.00  0.00     0.159 HD
ENDBRANCH  34  35
ENDBRANCH  33  34
ENDBRANCH  32  33
ENDBRANCH   6  32
ENDBRANCH   4   6
ENDBRANCH   1   2
BRANCH   1  43
ATOM     43  C   UNL     1      -4.321   7.286  10.650  1.00  0.00     0.102 C 
ATOM     44  C   UNL     1      -4.718   8.590  11.362  1.00  0.00     0.020 C 
BRANCH  43  45
ATOM     45  C   UNL     1      -3.323   6.429  11.435  1.00  0.00     0.225 C 
ATOM     46  O   UNL     1      -2.180   6.797  11.692  1.00  0.00    -0.275 OA
ATOM     47  N   UNL     1      -3.756   5.164  11.759  1.00  0.00    -0.342 N 
ATOM     48  H   UNL     1      -4.736   4.934  11.677  1.00  0.00     0.164 HD
BRANCH  47  49
ATOM     49  C   UNL     1      -2.921   4.245  12.540  1.00  0.00     0.192 C 
BRANCH  49  50
ATOM     50  C   UNL     1      -2.862   2.884  11.842  1.00  0.00     0.047 C 
BRANCH  50  51
ATOM     51  C   UNL     1      -3.977   2.716  10.800  1.00  0.00     0.103 C 
BRANCH  51  52
ATOM     52  C   UNL     1      -4.660   1.353  10.907  1.00  0.00     0.226 C 
ATOM     53  O   UNL     1      -4.221   0.399  10.261  1.00  0.00    -0.275 OA
BRANCH  52  54
ATOM     54  N   UNL     1      -5.728   1.257  11.818  1.00  0.00    -0.311 N 
ATOM     55  C   UNL     1      -6.682   2.361  11.984  1.00  0.00     0.153 C 
BRANCH  54  56
ATOM     56  C   UNL     1      -5.926   0.103  12.595  1.00  0.00     0.102 C 
ATOM     57  C   UNL     1      -5.358  -0.124  13.791  1.00  0.00     0.043 C 
BRANCH  56  58
ATOM     58  C   UNL     1      -6.867  -0.987  12.139  1.00  0.00     0.268 C 
ATOM     59  O   UNL     1      -7.763  -0.801  11.326  1.00  0.00    -0.268 OA
ATOM     60  N   UNL     1      -6.571  -2.216  12.678  1.00  0.00    -0.339 N 
ATOM     61  H   UNL     1      -5.818  -2.284  13.352  1.00  0.00     0.164 HD
BRANCH  60  62
ATOM     62  C   UNL     1      -7.317  -3.422  12.322  1.00  0.00     0.168 CG0
ATOM     63  C   UNL     1      -7.928  -4.072  13.558  1.00  0.00     0.041 C 
ATOM     64  G   UNL     1      -6.385  -4.410  11.591  1.00  0.00     0.000 G0
ENDBRANCH  60  62
ENDBRANCH  56  58
ENDBRANCH  54  56
ENDBRANCH  52  54
ENDBRANCH  51  52
ENDBRANCH  50  51
ENDBRANCH  49  50
BRANCH  49  65
ATOM     65  C   UNL     1      -3.461   4.062  13.967  1.00  0.00     0.326 C 
ATOM     66  O   UNL     1      -3.655   4.960  14.774  1.00  0.00    -0.250 OA
BRANCH  65  67
ATOM     67  O   UNL     1      -3.671   2.778  14.330  1.00  0.00    -0.480 OA
ATOM     68  H   UNL     1      -2.771   2.446  14.539  1.00  0.00     0.296 HD
ENDBRANCH  65  67
ENDBRANCH  49  65
ENDBRANCH  47  49
ENDBRANCH  43  45
ENDBRANCH   1  43
BRANCH   1  69
ATOM     69  C   UNL     1      -3.216   6.336   8.440  1.00  0.00    -0.001 C 
ATOM     70  C   UNL     1      -3.849   5.372   7.749  1.00  0.00     0.001 C 
BRANCH  70  71
ATOM     71  C   UNL     1      -3.232   4.265   7.016  1.00  0.00    -0.055 C 
ATOM     72  C   UNL     1      -2.362   3.478   7.683  1.00  0.00    -0.018 C 
ATOM     73  C   UNL     1      -3.617   4.078   5.571  1.00  0.00     0.044 C 
BRANCH  72  74
ATOM     74  C   UNL     1      -1.581   2.269   7.188  1.00  0.00     0.038 C 
ATOM     75  C   UNL     1      -2.505   1.051   7.314  1.00  0.00     0.015 C 
BRANCH  74  76
ATOM     76  C   UNL     1      -0.252   2.167   7.993  1.00  0.00     0.128 C 
BRANCH  76  77
ATOM     77  O   UNL     1      -0.185   0.902   8.671  1.00  0.00    -0.381 OA
ATOM     78  C   UNL     1      -0.092   1.016  10.085  1.00  0.00     0.195 C 
ENDBRANCH  76  77
BRANCH  76  79
ATOM     79  C   UNL     1       1.016   2.466   7.154  1.00  0.00     0.068 C 
BRANCH  79  80
ATOM     80  C   UNL     1       1.591   3.861   7.215  1.00  0.00    -0.045 A 
ATOM     81  C   UNL     1       2.934   4.074   7.553  1.00  0.00     0.004 A 
ATOM     82  C   UNL     1       0.776   4.974   6.958  1.00  0.00     0.004 A 
ATOM     83  C   UNL     1       3.455   5.367   7.621  1.00  0.00     0.000 A 
ATOM     84  C   UNL     1       1.298   6.267   7.027  1.00  0.00     0.000 A 
ATOM     85  C   UNL     1       2.637   6.464   7.357  1.00  0.00     0.000 A 
ENDBRANCH  79  80
ENDBRANCH  76  79
ENDBRANCH  74  76
ENDBRANCH  72  74
ENDBRANCH  70  71
ENDBRANCH   1  69
TORSDOF 17
ENDMDL
MODEL 32
REMARK VINA RESULT:    -6.326      2.848     10.863
REMARK INTER + INTRA:         -26.129
REMARK INTER:                 -18.794
REMARK INTRA:                  -7.335
REMARK UNBOUND:                -7.229
REMARK SMILES C=C1C(=O)N[C@H](C)C(=O)N[C@@H](CC(C)C)C(=O)N[C@@H](C(=O)O)[C@H](C)C(=O)N[C@@H](CCCN=C(N)N)C(=O)N[C@@H](/C=C/C(C)=C/[C@H](C)[C@H](Cc2ccccc2)OC)[C@H](C)C(=O)N[C@@H](C(=O)O)CCC(=O)N1C
REMARK SMILES IDX 39 1 38 2 37 3 36 4 28 6 27 7 25 8 26 9 23 11 24 12 19 13
REMARK SMILES IDX 18 14 16 15 17 16 11 18 10 19 8 20 9 21 12 24 13 25 14 26
REMARK SMILES IDX 15 27 20 28 21 29 22 30 29 32 30 33 31 34 32 35 33 36 34 37
REMARK SMILES IDX 35 38 57 43 58 44 59 45 60 46 61 47 62 49 66 50 67 51 68 52
REMARK SMILES IDX 69 53 70 54 71 55 2 56 1 57 3 58 4 59 5 60 6 62 7 63 63 65
REMARK SMILES IDX 64 66 65 67 40 69 41 70 42 71 44 72 43 73 45 74 46 75 47 76
REMARK SMILES IDX 55 77 56 78 48 79 49 80 50 81 54 82 51 83 53 84 52 85
REMARK H PARENT 38 5 27 10 18 17 10 22 22 31 34 39 34 40 35 41 35 42 61 48
REMARK H PARENT 5 61 65 68
REMARK Flexibility Score:  369.900
ROOT
ATOM      1  C   UNL     1      -1.387   7.813  10.637  1.00  0.00     0.117 C 
ENDROOT
BRANCH   1   2
ATOM      2  N   UNL     1      -0.452   7.771   9.511  1.00  0.00    -0.347 N 
ATOM      3  O   UNL     1      -1.407   9.434   8.249  1.00  0.00    -0.273 OA
ATOM      4  C   UNL     1      -0.484   8.651   8.447  1.00  0.00     0.243 C 
ATOM      5  H   UNL     1       0.299   7.098   9.518  1.00  0.00     0.164 HD
BRANCH   4   6
ATOM      6  C   UNL     1       0.671   8.445   7.433  1.00  0.00     0.171 C 
BRANCH   6   7
ATOM      7  N   UNL     1       0.198   7.688   6.263  1.00  0.00    -0.344 N 
ATOM      8  C   UNL     1       1.089   7.012   5.457  1.00  0.00     0.226 C 
ATOM      9  O   UNL     1       2.298   7.023   5.654  1.00  0.00    -0.275 OA
ATOM     10  H   UNL     1      -0.786   7.711   6.028  1.00  0.00     0.164 HD
BRANCH   8  11
ATOM     11  C   UNL     1       0.442   6.236   4.323  1.00  0.00     0.109 C 
ATOM     12  C   UNL     1      -0.939   5.736   4.749  1.00  0.00     0.021 C 
BRANCH  11  13
ATOM     13  C   UNL     1       0.456   7.083   3.036  1.00  0.00     0.204 C 
BRANCH  13  14
ATOM     14  N   UNL     1       1.808   7.522   2.679  1.00  0.00    -0.340 N 
ATOM     15  C   UNL     1       2.054   8.498   1.737  1.00  0.00     0.243 C 
ATOM     16  O   UNL     1       1.152   9.113   1.172  1.00  0.00    -0.273 OA
ATOM     17  H   UNL     1       2.597   6.952   2.995  1.00  0.00     0.164 HD
BRANCH  15  18
ATOM     18  C   UNL     1       3.553   8.646   1.377  1.00  0.00     0.171 C 
BRANCH  18  19
ATOM     19  N   UNL     1       3.671   9.856   0.566  1.00  0.00    -0.343 N 
ATOM     20  C   UNL     1       4.283   9.847  -0.672  1.00  0.00     0.242 CG0
ATOM     21  O   UNL     1       4.872   8.853  -1.092  1.00  0.00    -0.273 OA
ATOM     22  H   UNL     1       3.301  10.731   0.921  1.00  0.00     0.164 HD
ATOM     23  G   UNL     1       4.242  11.200  -1.413  1.00  0.00     0.000 G0
ENDBRANCH  18  19
BRANCH  18  24
ATOM     24  C   UNL     1       4.409   8.734   2.647  1.00  0.00     0.038 C 
BRANCH  24  25
ATOM     25  C   UNL     1       5.552   7.700   2.726  1.00  0.00    -0.015 C 
ATOM     26  C   UNL     1       5.466   6.646   1.622  1.00  0.00     0.007 C 
ATOM     27  C   UNL     1       5.531   7.014   4.095  1.00  0.00     0.007 C 
ENDBRANCH  24  25
ENDBRANCH  18  24
ENDBRANCH  15  18
ENDBRANCH  13  14
BRANCH  13  28
ATOM     28  C   UNL     1      -0.118   6.347   1.822  1.00  0.00     0.327 C 
ATOM     29  O   UNL     1      -1.219   6.523   1.323  1.00  0.00    -0.250 OA
BRANCH  28  30
ATOM     30  O   UNL     1       0.679   5.351   1.382  1.00  0.00    -0.480 OA
ATOM     31  H   UNL     1       1.568   5.588   1.719  1.00  0.00     0.296 HD
ENDBRANCH  28  30
ENDBRANCH  13  28
ENDBRANCH  11  13
ENDBRANCH   8  11
ENDBRANCH   6   7
BRANCH   6  32
ATOM     32  C   UNL     1       1.223   9.812   7.015  1.00  0.00     0.037 C 
BRANCH  32  33
ATOM     33  C   UNL     1       2.698   9.984   7.405  1.00  0.00     0.026 C 
BRANCH  33  34
ATOM     34  C   UNL     1       3.059   9.220   8.679  1.00  0.00     0.146 C 
BRANCH  34  35
ATOM     35  N   UNL     1       4.509   9.109   8.765  1.00  0.00    -0.254 NA
ATOM     36  C   UNL     1       5.076   8.069   8.277  1.00  0.00     0.185 C 
ATOM     37  N   UNL     1       6.411   7.958   8.347  1.00  0.00    -0.370 N 
ATOM     38  N   UNL     1       4.515   7.007   7.671  1.00  0.00    -0.370 N 
ATOM     39  H   UNL     1       6.908   8.725   8.782  1.00  0.00     0.159 HD
ATOM     40  H   UNL     1       6.939   7.268   7.840  1.00  0.00     0.159 HD
ATOM     41  H   UNL     1       5.055   6.186   7.454  1.00  0.00     0.159 HD
ATOM     42  H   UNL     1       3.514   6.948   7.563  1.00  0.00     0.159 HD
ENDBRANCH  34  35
ENDBRANCH  33  34
ENDBRANCH  32  33
ENDBRANCH   6  32
ENDBRANCH   4   6
ENDBRANCH   1   2
BRANCH   1  43
ATOM     43  C   UNL     1      -0.746   8.648  11.782  1.00  0.00     0.102 C 
ATOM     44  C   UNL     1      -0.753   7.928  13.142  1.00  0.00     0.020 C 
BRANCH  43  45
ATOM     45  C   UNL     1      -1.330  10.063  11.826  1.00  0.00     0.225 C 
ATOM     46  O   UNL     1      -0.842  10.970  12.494  1.00  0.00    -0.275 OA
ATOM     47  N   UNL     1      -2.507  10.239  11.135  1.00  0.00    -0.342 N 
ATOM     48  H   UNL     1      -2.810   9.537  10.475  1.00  0.00     0.164 HD
BRANCH  47  49
ATOM     49  C   UNL     1      -3.162  11.549  11.058  1.00  0.00     0.192 C 
BRANCH  49  50
ATOM     50  C   UNL     1      -4.633  11.412  11.458  1.00  0.00     0.047 C 
BRANCH  50  51
ATOM     51  C   UNL     1      -4.967  10.008  11.979  1.00  0.00     0.103 C 
BRANCH  51  52
ATOM     52  C   UNL     1      -6.306   9.971  12.713  1.00  0.00     0.226 C 
ATOM     53  O   UNL     1      -7.354  10.081  12.074  1.00  0.00    -0.275 OA
BRANCH  52  54
ATOM     54  N   UNL     1      -6.255   9.733  14.099  1.00  0.00    -0.311 N 
ATOM     55  C   UNL     1      -5.724  10.746  15.021  1.00  0.00     0.153 C 
BRANCH  54  56
ATOM     56  C   UNL     1      -6.713   8.526  14.652  1.00  0.00     0.102 C 
ATOM     57  C   UNL     1      -7.932   8.337  15.182  1.00  0.00     0.043 C 
BRANCH  56  58
ATOM     58  C   UNL     1      -5.842   7.292  14.647  1.00  0.00     0.268 C 
ATOM     59  O   UNL     1      -4.655   7.311  14.350  1.00  0.00    -0.268 OA
ATOM     60  N   UNL     1      -6.502   6.163  15.072  1.00  0.00    -0.339 N 
ATOM     61  H   UNL     1      -7.489   6.229  15.289  1.00  0.00     0.164 HD
BRANCH  60  62
ATOM     62  C   UNL     1      -5.830   4.871  15.203  1.00  0.00     0.168 CG0
ATOM     63  C   UNL     1      -6.842   3.740  15.341  1.00  0.00     0.041 C 
ATOM     64  G   UNL     1      -4.879   4.904  16.417  1.00  0.00     0.000 G0
ENDBRANCH  60  62
ENDBRANCH  56  58
ENDBRANCH  54  56
ENDBRANCH  52  54
ENDBRANCH  51  52
ENDBRANCH  50  51
ENDBRANCH  49  50
BRANCH  49  65
ATOM     65  C   UNL     1      -3.071  12.146   9.645  1.00  0.00     0.326 C 
ATOM     66  O   UNL     1      -2.106  12.737   9.184  1.00  0.00    -0.250 OA
BRANCH  65  67
ATOM     67  O   UNL     1      -4.199  12.029   8.910  1.00  0.00    -0.480 OA
ATOM     68  H   UNL     1      -4.660  11.262   9.314  1.00  0.00     0.296 HD
ENDBRANCH  65  67
ENDBRANCH  49  65
ENDBRANCH  47  49
ENDBRANCH  43  45
ENDBRANCH   1  43
BRANCH   1  69
ATOM     69  C   UNL     1      -1.784   6.375  10.911  1.00  0.00    -0.001 C 
ATOM     70  C   UNL     1      -3.029   5.873  10.998  1.00  0.00     0.001 C 
BRANCH  70  71
ATOM     71  C   UNL     1      -3.400   4.478  11.242  1.00  0.00    -0.055 C 
ATOM     72  C   UNL     1      -4.255   3.895  10.375  1.00  0.00    -0.018 C 
ATOM     73  C   UNL     1      -2.797   3.790  12.439  1.00  0.00     0.044 C 
BRANCH  72  74
ATOM     74  C   UNL     1      -4.808   2.477  10.375  1.00  0.00     0.038 C 
ATOM     75  C   UNL     1      -5.763   2.363  11.568  1.00  0.00     0.015 C 
BRANCH  74  76
ATOM     76  C   UNL     1      -3.616   1.474  10.394  1.00  0.00     0.128 C 
BRANCH  76  77
ATOM     77  O   UNL     1      -4.078   0.171  10.786  1.00  0.00    -0.381 OA
ATOM     78  C   UNL     1      -3.470  -0.892  10.064  1.00  0.00     0.195 C 
ENDBRANCH  76  77
BRANCH  76  79
ATOM     79  C   UNL     1      -2.793   1.449   9.082  1.00  0.00     0.068 C 
BRANCH  79  80
ATOM     80  C   UNL     1      -1.679   2.455   8.927  1.00  0.00    -0.045 A 
ATOM     81  C   UNL     1      -1.744   3.460   7.952  1.00  0.00     0.004 A 
ATOM     82  C   UNL     1      -0.540   2.381   9.743  1.00  0.00     0.004 A 
ATOM     83  C   UNL     1      -0.702   4.379   7.806  1.00  0.00     0.000 A 
ATOM     84  C   UNL     1       0.501   3.300   9.596  1.00  0.00     0.000 A 
ATOM     85  C   UNL     1       0.420   4.299   8.628  1.00  0.00     0.000 A 
ENDBRANCH  79  80
ENDBRANCH  76  79
ENDBRANCH  74  76
ENDBRANCH  72  74
ENDBRANCH  70  71
ENDBRANCH   1  69
TORSDOF 17
ENDMDL
MODEL 33
REMARK VINA RESULT:    -6.322      2.625     10.991
REMARK INTER + INTRA:         -26.119
REMARK INTER:                 -18.255
REMARK INTRA:                  -7.863
REMARK UNBOUND:                -7.229
REMARK SMILES C=C1C(=O)N[C@H](C)C(=O)N[C@@H](CC(C)C)C(=O)N[C@@H](C(=O)O)[C@H](C)C(=O)N[C@@H](CCCN=C(N)N)C(=O)N[C@@H](/C=C/C(C)=C/[C@H](C)[C@H](Cc2ccccc2)OC)[C@H](C)C(=O)N[C@@H](C(=O)O)CCC(=O)N1C
REMARK SMILES IDX 39 1 38 2 37 3 36 4 28 6 27 7 25 8 26 9 23 11 24 12 19 13
REMARK SMILES IDX 18 14 16 15 17 16 11 18 10 19 8 20 9 21 12 24 13 25 14 26
REMARK SMILES IDX 15 27 20 28 21 29 22 30 29 32 30 33 31 34 32 35 33 36 34 37
REMARK SMILES IDX 35 38 57 43 58 44 59 45 60 46 61 47 62 49 66 50 67 51 68 52
REMARK SMILES IDX 69 53 70 54 71 55 2 56 1 57 3 58 4 59 5 60 6 62 7 63 63 65
REMARK SMILES IDX 64 66 65 67 40 69 41 70 42 71 44 72 43 73 45 74 46 75 47 76
REMARK SMILES IDX 55 77 56 78 48 79 49 80 50 81 54 82 51 83 53 84 52 85
REMARK H PARENT 38 5 27 10 18 17 10 22 22 31 34 39 34 40 35 41 35 42 61 48
REMARK H PARENT 5 61 65 68
REMARK Flexibility Score:  369.900
ROOT
ATOM      1  C   UNL     1      -1.422   3.780  10.031  1.00  0.00     0.117 C 
ENDROOT
BRANCH   1   2
ATOM      2  N   UNL     1      -0.975   4.588   8.896  1.00  0.00    -0.347 N 
ATOM      3  O   UNL     1       1.235   3.965   8.919  1.00  0.00    -0.273 OA
ATOM      4  C   UNL     1       0.303   4.545   8.372  1.00  0.00     0.243 C 
ATOM      5  H   UNL     1      -1.637   5.182   8.421  1.00  0.00     0.164 HD
BRANCH   4   6
ATOM      6  C   UNL     1       0.491   5.434   7.116  1.00  0.00     0.171 C 
BRANCH   6   7
ATOM      7  N   UNL     1       0.691   6.839   7.506  1.00  0.00    -0.344 N 
ATOM      8  C   UNL     1      -0.215   7.808   7.131  1.00  0.00     0.226 C 
ATOM      9  O   UNL     1      -1.202   7.560   6.449  1.00  0.00    -0.275 OA
ATOM     10  H   UNL     1       1.529   7.094   8.013  1.00  0.00     0.164 HD
BRANCH   8  11
ATOM     11  C   UNL     1       0.101   9.197   7.657  1.00  0.00     0.109 C 
ATOM     12  C   UNL     1       0.993   9.101   8.895  1.00  0.00     0.021 C 
BRANCH  11  13
ATOM     13  C   UNL     1       0.666  10.070   6.518  1.00  0.00     0.204 C 
BRANCH  13  14
ATOM     14  N   UNL     1       0.665   9.365   5.232  1.00  0.00    -0.340 N 
ATOM     15  C   UNL     1       1.785   9.260   4.436  1.00  0.00     0.243 C 
ATOM     16  O   UNL     1       2.882   9.697   4.779  1.00  0.00    -0.273 OA
ATOM     17  H   UNL     1      -0.238   9.114   4.822  1.00  0.00     0.164 HD
BRANCH  15  18
ATOM     18  C   UNL     1       1.497   8.658   3.039  1.00  0.00     0.171 C 
BRANCH  18  19
ATOM     19  N   UNL     1       2.746   8.735   2.284  1.00  0.00    -0.343 N 
ATOM     20  C   UNL     1       2.782   9.180   0.977  1.00  0.00     0.242 CG0
ATOM     21  O   UNL     1       1.752   9.405   0.345  1.00  0.00    -0.273 OA
ATOM     22  H   UNL     1       3.613   8.449   2.726  1.00  0.00     0.164 HD
ATOM     23  G   UNL     1       4.198   9.267   0.372  1.00  0.00     0.000 G0
ENDBRANCH  18  19
BRANCH  18  24
ATOM     24  C   UNL     1       1.004   7.212   3.163  1.00  0.00     0.038 C 
BRANCH  24  25
ATOM     25  C   UNL     1       0.624   6.543   1.825  1.00  0.00    -0.015 C 
ATOM     26  C   UNL     1      -0.842   6.111   1.781  1.00  0.00     0.007 C 
ATOM     27  C   UNL     1       1.526   5.330   1.581  1.00  0.00     0.007 C 
ENDBRANCH  24  25
ENDBRANCH  18  24
ENDBRANCH  15  18
ENDBRANCH  13  14
BRANCH  13  28
ATOM     28  C   UNL     1      -0.107  11.377   6.320  1.00  0.00     0.327 C 
ATOM     29  O   UNL     1      -1.284  11.568   6.583  1.00  0.00    -0.250 OA
BRANCH  28  30
ATOM     30  O   UNL     1       0.615  12.328   5.693  1.00  0.00    -0.480 OA
ATOM     31  H   UNL     1      -0.017  13.065   5.564  1.00  0.00     0.296 HD
ENDBRANCH  28  30
ENDBRANCH  13  28
ENDBRANCH  11  13
ENDBRANCH   8  11
ENDBRANCH   6   7
BRANCH   6  32
ATOM     32  C   UNL     1       1.686   4.916   6.307  1.00  0.00     0.037 C 
BRANCH  32  33
ATOM     33  C   UNL     1       2.816   5.951   6.215  1.00  0.00     0.026 C 
BRANCH  33  34
ATOM     34  C   UNL     1       4.169   5.313   5.902  1.00  0.00     0.146 C 
BRANCH  34  35
ATOM     35  N   UNL     1       4.528   4.414   6.989  1.00  0.00    -0.254 NA
ATOM     36  C   UNL     1       5.566   4.680   7.691  1.00  0.00     0.185 C 
ATOM     37  N   UNL     1       5.902   3.861   8.699  1.00  0.00    -0.370 N 
ATOM     38  N   UNL     1       6.423   5.711   7.574  1.00  0.00    -0.370 N 
ATOM     39  H   UNL     1       5.298   3.065   8.858  1.00  0.00     0.159 HD
ATOM     40  H   UNL     1       6.590   4.090   9.396  1.00  0.00     0.159 HD
ATOM     41  H   UNL     1       7.282   5.735   8.098  1.00  0.00     0.159 HD
ATOM     42  H   UNL     1       6.301   6.398   6.847  1.00  0.00     0.159 HD
ENDBRANCH  34  35
ENDBRANCH  33  34
ENDBRANCH  32  33
ENDBRANCH   6  32
ENDBRANCH   4   6
ENDBRANCH   1   2
BRANCH   1  43
ATOM     43  C   UNL     1      -2.621   2.902   9.572  1.00  0.00     0.102 C 
ATOM     44  C   UNL     1      -2.843   2.916   8.050  1.00  0.00     0.020 C 
BRANCH  43  45
ATOM     45  C   UNL     1      -3.879   3.220  10.386  1.00  0.00     0.225 C 
ATOM     46  O   UNL     1      -4.562   4.223  10.201  1.00  0.00    -0.275 OA
ATOM     47  N   UNL     1      -4.153   2.350  11.417  1.00  0.00    -0.342 N 
ATOM     48  H   UNL     1      -3.678   1.459  11.459  1.00  0.00     0.164 HD
BRANCH  47  49
ATOM     49  C   UNL     1      -5.344   2.509  12.257  1.00  0.00     0.192 C 
BRANCH  49  50
ATOM     50  C   UNL     1      -5.031   2.052  13.684  1.00  0.00     0.047 C 
BRANCH  50  51
ATOM     51  C   UNL     1      -3.560   1.650  13.857  1.00  0.00     0.103 C 
BRANCH  51  52
ATOM     52  C   UNL     1      -3.405   0.165  14.179  1.00  0.00     0.226 C 
ATOM     53  O   UNL     1      -4.126  -0.352  15.035  1.00  0.00    -0.275 OA
BRANCH  52  54
ATOM     54  N   UNL     1      -2.476  -0.551  13.403  1.00  0.00    -0.311 N 
ATOM     55  C   UNL     1      -1.165  -0.929  13.949  1.00  0.00     0.153 C 
BRANCH  54  56
ATOM     56  C   UNL     1      -2.766  -0.936  12.083  1.00  0.00     0.102 C 
ATOM     57  C   UNL     1      -2.028  -0.612  11.008  1.00  0.00     0.043 C 
BRANCH  56  58
ATOM     58  C   UNL     1      -3.955  -1.816  11.776  1.00  0.00     0.268 C 
ATOM     59  O   UNL     1      -4.592  -1.740  10.734  1.00  0.00    -0.268 OA
ATOM     60  N   UNL     1      -4.203  -2.749  12.754  1.00  0.00    -0.339 N 
ATOM     61  H   UNL     1      -3.634  -2.739  13.592  1.00  0.00     0.164 HD
BRANCH  60  62
ATOM     62  C   UNL     1      -5.269  -3.743  12.630  1.00  0.00     0.168 CG0
ATOM     63  C   UNL     1      -6.584  -3.204  13.178  1.00  0.00     0.041 C 
ATOM     64  G   UNL     1      -4.859  -5.035  13.365  1.00  0.00     0.000 G0
ENDBRANCH  60  62
ENDBRANCH  56  58
ENDBRANCH  54  56
ENDBRANCH  52  54
ENDBRANCH  51  52
ENDBRANCH  50  51
ENDBRANCH  49  50
BRANCH  49  65
ATOM     65  C   UNL     1      -6.533   1.701  11.714  1.00  0.00     0.326 C 
ATOM     66  O   UNL     1      -7.592   2.170  11.323  1.00  0.00    -0.250 OA
BRANCH  65  67
ATOM     67  O   UNL     1      -6.365   0.360  11.743  1.00  0.00    -0.480 OA
ATOM     68  H   UNL     1      -6.171   0.131  10.809  1.00  0.00     0.296 HD
ENDBRANCH  65  67
ENDBRANCH  49  65
ENDBRANCH  47  49
ENDBRANCH  43  45
ENDBRANCH   1  43
BRANCH   1  69
ATOM     69  C   UNL     1      -1.619   4.744  11.186  1.00  0.00    -0.001 C 
ATOM     70  C   UNL     1      -1.366   6.065  11.200  1.00  0.00     0.001 C 
BRANCH  70  71
ATOM     71  C   UNL     1      -1.580   6.990  12.315  1.00  0.00    -0.055 C 
ATOM     72  C   UNL     1      -2.719   6.861  13.027  1.00  0.00    -0.018 C 
ATOM     73  C   UNL     1      -0.511   8.014  12.593  1.00  0.00     0.044 C 
BRANCH  72  74
ATOM     74  C   UNL     1      -3.203   7.667  14.224  1.00  0.00     0.038 C 
ATOM     75  C   UNL     1      -3.334   6.694  15.402  1.00  0.00     0.015 C 
BRANCH  74  76
ATOM     76  C   UNL     1      -4.520   8.402  13.834  1.00  0.00     0.128 C 
BRANCH  76  77
ATOM     77  O   UNL     1      -5.549   8.108  14.794  1.00  0.00    -0.381 OA
ATOM     78  C   UNL     1      -6.865   8.345  14.311  1.00  0.00     0.195 C 
ENDBRANCH  76  77
BRANCH  76  79
ATOM     79  C   UNL     1      -4.344   9.922  13.590  1.00  0.00     0.068 C 
BRANCH  79  80
ATOM     80  C   UNL     1      -3.434  10.357  12.467  1.00  0.00    -0.045 A 
ATOM     81  C   UNL     1      -3.642   9.912  11.155  1.00  0.00     0.004 A 
ATOM     82  C   UNL     1      -2.341  11.197  12.728  1.00  0.00     0.004 A 
ATOM     83  C   UNL     1      -2.787  10.308  10.125  1.00  0.00     0.000 A 
ATOM     84  C   UNL     1      -1.486  11.592  11.697  1.00  0.00     0.000 A 
ATOM     85  C   UNL     1      -1.710  11.149  10.396  1.00  0.00     0.000 A 
ENDBRANCH  79  80
ENDBRANCH  76  79
ENDBRANCH  74  76
ENDBRANCH  72  74
ENDBRANCH  70  71
ENDBRANCH   1  69
TORSDOF 17
ENDMDL
MODEL 34
REMARK VINA RESULT:    -6.318      3.547     11.432
REMARK INTER + INTRA:         -26.106
REMARK INTER:                 -17.989
REMARK INTRA:                  -8.118
REMARK UNBOUND:                -7.229
REMARK SMILES C=C1C(=O)N[C@H](C)C(=O)N[C@@H](CC(C)C)C(=O)N[C@@H](C(=O)O)[C@H](C)C(=O)N[C@@H](CCCN=C(N)N)C(=O)N[C@@H](/C=C/C(C)=C/[C@H](C)[C@H](Cc2ccccc2)OC)[C@H](C)C(=O)N[C@@H](C(=O)O)CCC(=O)N1C
REMARK SMILES IDX 39 1 38 2 37 3 36 4 28 6 27 7 25 8 26 9 23 11 24 12 19 13
REMARK SMILES IDX 18 14 16 15 17 16 11 18 10 19 8 20 9 21 12 24 13 25 14 26
REMARK SMILES IDX 15 27 20 28 21 29 22 30 29 32 30 33 31 34 32 35 33 36 34 37
REMARK SMILES IDX 35 38 57 43 58 44 59 45 60 46 61 47 62 49 66 50 67 51 68 52
REMARK SMILES IDX 69 53 70 54 71 55 2 56 1 57 3 58 4 59 5 60 6 62 7 63 63 65
REMARK SMILES IDX 64 66 65 67 40 69 41 70 42 71 44 72 43 73 45 74 46 75 47 76
REMARK SMILES IDX 55 77 56 78 48 79 49 80 50 81 54 82 51 83 53 84 52 85
REMARK H PARENT 38 5 27 10 18 17 10 22 22 31 34 39 34 40 35 41 35 42 61 48
REMARK H PARENT 5 61 65 68
REMARK Flexibility Score:  369.900
ROOT
ATOM      1  C   UNL     1      -2.832   3.858  10.528  1.00  0.00     0.117 C 
ENDROOT
BRANCH   1   2
ATOM      2  N   UNL     1      -2.366   4.757   9.472  1.00  0.00    -0.347 N 
ATOM      3  O   UNL     1      -0.151   4.824  10.073  1.00  0.00    -0.273 OA
ATOM      4  C   UNL     1      -1.041   5.096   9.274  1.00  0.00     0.243 C 
ATOM      5  H   UNL     1      -3.029   5.124   8.806  1.00  0.00     0.164 HD
BRANCH   4   6
ATOM      6  C   UNL     1      -0.806   5.995   8.034  1.00  0.00     0.171 C 
BRANCH   6   7
ATOM      7  N   UNL     1       0.089   7.113   8.370  1.00  0.00    -0.344 N 
ATOM      8  C   UNL     1      -0.021   8.322   7.719  1.00  0.00     0.226 C 
ATOM      9  O   UNL     1      -0.839   8.520   6.828  1.00  0.00    -0.275 OA
ATOM     10  H   UNL     1       0.821   6.967   9.054  1.00  0.00     0.164 HD
BRANCH   8  11
ATOM     11  C   UNL     1       0.936   9.391   8.217  1.00  0.00     0.109 C 
ATOM     12  C   UNL     1       0.178  10.436   9.035  1.00  0.00     0.021 C 
BRANCH  11  13
ATOM     13  C   UNL     1       2.121   8.729   8.949  1.00  0.00     0.204 C 
BRANCH  13  14
ATOM     14  N   UNL     1       3.211   8.381   8.032  1.00  0.00    -0.340 N 
ATOM     15  C   UNL     1       3.550   7.080   7.732  1.00  0.00     0.243 C 
ATOM     16  O   UNL     1       2.920   6.117   8.166  1.00  0.00    -0.273 OA
ATOM     17  H   UNL     1       3.864   9.121   7.760  1.00  0.00     0.164 HD
BRANCH  15  18
ATOM     18  C   UNL     1       4.857   6.954   6.912  1.00  0.00     0.171 C 
BRANCH  18  19
ATOM     19  N   UNL     1       5.437   8.294   6.840  1.00  0.00    -0.343 N 
ATOM     20  C   UNL     1       5.575   8.966   5.641  1.00  0.00     0.242 CG0
ATOM     21  O   UNL     1       5.341   8.417   4.566  1.00  0.00    -0.273 OA
ATOM     22  H   UNL     1       5.753   8.746   7.691  1.00  0.00     0.164 HD
ATOM     23  G   UNL     1       6.133  10.398   5.773  1.00  0.00     0.000 G0
ENDBRANCH  18  19
BRANCH  18  24
ATOM     24  C   UNL     1       5.819   5.961   7.575  1.00  0.00     0.038 C 
BRANCH  24  25
ATOM     25  C   UNL     1       6.311   4.826   6.652  1.00  0.00    -0.015 C 
ATOM     26  C   UNL     1       7.260   3.862   7.364  1.00  0.00     0.007 C 
ATOM     27  C   UNL     1       7.008   5.424   5.427  1.00  0.00     0.007 C 
ENDBRANCH  24  25
ENDBRANCH  18  24
ENDBRANCH  15  18
ENDBRANCH  13  14
BRANCH  13  28
ATOM     28  C   UNL     1       2.718   9.610  10.051  1.00  0.00     0.327 C 
ATOM     29  O   UNL     1       3.401  10.609   9.886  1.00  0.00    -0.250 OA
BRANCH  28  30
ATOM     30  O   UNL     1       2.519   9.115  11.289  1.00  0.00    -0.480 OA
ATOM     31  H   UNL     1       2.745   9.859  11.885  1.00  0.00     0.296 HD
ENDBRANCH  28  30
ENDBRANCH  13  28
ENDBRANCH  11  13
ENDBRANCH   8  11
ENDBRANCH   6   7
BRANCH   6  32
ATOM     32  C   UNL     1      -0.219   5.145   6.901  1.00  0.00     0.037 C 
BRANCH  32  33
ATOM     33  C   UNL     1      -0.130   3.660   7.278  1.00  0.00     0.026 C 
BRANCH  33  34
ATOM     34  C   UNL     1       1.284   3.099   7.117  1.00  0.00     0.146 C 
BRANCH  34  35
ATOM     35  N   UNL     1       1.557   2.189   8.220  1.00  0.00    -0.254 NA
ATOM     36  C   UNL     1       2.702   2.242   8.791  1.00  0.00     0.185 C 
ATOM     37  N   UNL     1       2.963   1.411   9.812  1.00  0.00    -0.370 N 
ATOM     38  N   UNL     1       3.747   3.044   8.517  1.00  0.00    -0.370 N 
ATOM     39  H   UNL     1       2.220   0.781  10.086  1.00  0.00     0.159 HD
ATOM     40  H   UNL     1       3.760   1.507  10.418  1.00  0.00     0.159 HD
ATOM     41  H   UNL     1       4.645   2.894   8.947  1.00  0.00     0.159 HD
ATOM     42  H   UNL     1       3.698   3.709   7.762  1.00  0.00     0.159 HD
ENDBRANCH  34  35
ENDBRANCH  33  34
ENDBRANCH  32  33
ENDBRANCH   6  32
ENDBRANCH   4   6
ENDBRANCH   1   2
BRANCH   1  43
ATOM     43  C   UNL     1      -3.790   2.807   9.897  1.00  0.00     0.102 C 
ATOM     44  C   UNL     1      -5.278   3.108  10.144  1.00  0.00     0.020 C 
BRANCH  43  45
ATOM     45  C   UNL     1      -3.373   1.384  10.278  1.00  0.00     0.225 C 
ATOM     46  O   UNL     1      -3.902   0.381   9.809  1.00  0.00    -0.275 OA
ATOM     47  N   UNL     1      -2.417   1.291  11.264  1.00  0.00    -0.342 N 
ATOM     48  H   UNL     1      -1.889   2.110  11.528  1.00  0.00     0.164 HD
BRANCH  47  49
ATOM     49  C   UNL     1      -1.896  -0.006  11.706  1.00  0.00     0.192 C 
BRANCH  49  50
ATOM     50  C   UNL     1      -1.973  -0.099  13.232  1.00  0.00     0.047 C 
BRANCH  50  51
ATOM     51  C   UNL     1      -3.236   0.567  13.792  1.00  0.00     0.103 C 
BRANCH  51  52
ATOM     52  C   UNL     1      -4.320  -0.454  14.134  1.00  0.00     0.226 C 
ATOM     53  O   UNL     1      -4.433  -0.859  15.293  1.00  0.00    -0.275 OA
BRANCH  52  54
ATOM     54  N   UNL     1      -5.190  -0.818  13.090  1.00  0.00    -0.311 N 
ATOM     55  C   UNL     1      -6.131   0.153  12.516  1.00  0.00     0.153 C 
BRANCH  54  56
ATOM     56  C   UNL     1      -5.187  -2.117  12.554  1.00  0.00     0.102 C 
ATOM     57  C   UNL     1      -4.279  -2.588  11.685  1.00  0.00     0.043 C 
BRANCH  56  58
ATOM     58  C   UNL     1      -6.227  -3.130  12.973  1.00  0.00     0.268 C 
ATOM     59  O   UNL     1      -6.681  -3.193  14.108  1.00  0.00    -0.268 OA
ATOM     60  N   UNL     1      -6.656  -3.924  11.936  1.00  0.00    -0.339 N 
ATOM     61  H   UNL     1      -6.222  -3.815  11.028  1.00  0.00     0.164 HD
BRANCH  60  62
ATOM     62  C   UNL     1      -7.704  -4.929  12.107  1.00  0.00     0.168 CG0
ATOM     63  C   UNL     1      -9.085  -4.286  12.102  1.00  0.00     0.041 C 
ATOM     64  G   UNL     1      -7.468  -5.704  13.420  1.00  0.00     0.000 G0
ENDBRANCH  60  62
ENDBRANCH  56  58
ENDBRANCH  54  56
ENDBRANCH  52  54
ENDBRANCH  51  52
ENDBRANCH  50  51
ENDBRANCH  49  50
BRANCH  49  65
ATOM     65  C   UNL     1      -0.441  -0.215  11.256  1.00  0.00     0.326 C 
ATOM     66  O   UNL     1       0.316  -1.079  11.676  1.00  0.00    -0.250 OA
BRANCH  65  67
ATOM     67  O   UNL     1       0.008   0.692  10.360  1.00  0.00    -0.480 OA
ATOM     68  H   UNL     1      -0.360   1.541  10.687  1.00  0.00     0.296 HD
ENDBRANCH  65  67
ENDBRANCH  49  65
ENDBRANCH  47  49
ENDBRANCH  43  45
ENDBRANCH   1  43
BRANCH   1  69
ATOM     69  C   UNL     1      -3.352   4.748  11.643  1.00  0.00    -0.001 C 
ATOM     70  C   UNL     1      -3.342   4.493  12.963  1.00  0.00     0.001 C 
BRANCH  70  71
ATOM     71  C   UNL     1      -3.828   5.369  14.032  1.00  0.00    -0.055 C 
ATOM     72  C   UNL     1      -4.623   6.403  13.684  1.00  0.00    -0.018 C 
ATOM     73  C   UNL     1      -3.412   5.050  15.444  1.00  0.00     0.044 C 
BRANCH  72  74
ATOM     74  C   UNL     1      -5.269   7.461  14.566  1.00  0.00     0.038 C 
ATOM     75  C   UNL     1      -6.589   6.875  15.082  1.00  0.00     0.015 C 
BRANCH  74  76
ATOM     76  C   UNL     1      -5.414   8.776  13.747  1.00  0.00     0.128 C 
BRANCH  76  77
ATOM     77  O   UNL     1      -6.543   9.529  14.223  1.00  0.00    -0.381 OA
ATOM     78  C   UNL     1      -6.312  10.931  14.279  1.00  0.00     0.195 C 
ENDBRANCH  76  77
BRANCH  76  79
ATOM     79  C   UNL     1      -4.117   9.621  13.676  1.00  0.00     0.068 C 
BRANCH  79  80
ATOM     80  C   UNL     1      -2.862   8.947  13.176  1.00  0.00    -0.045 A 
ATOM     81  C   UNL     1      -1.808   8.646  14.049  1.00  0.00     0.004 A 
ATOM     82  C   UNL     1      -2.720   8.637  11.815  1.00  0.00     0.004 A 
ATOM     83  C   UNL     1      -0.644   8.036  13.576  1.00  0.00     0.000 A 
ATOM     84  C   UNL     1      -1.555   8.027  11.343  1.00  0.00     0.000 A 
ATOM     85  C   UNL     1      -0.519   7.726  12.224  1.00  0.00     0.000 A 
ENDBRANCH  79  80
ENDBRANCH  76  79
ENDBRANCH  74  76
ENDBRANCH  72  74
ENDBRANCH  70  71
ENDBRANCH   1  69
TORSDOF 17
ENDMDL
MODEL 35
REMARK VINA RESULT:    -6.316      2.361     10.841
REMARK INTER + INTRA:         -26.098
REMARK INTER:                 -18.262
REMARK INTRA:                  -7.837
REMARK UNBOUND:                -7.229
REMARK SMILES C=C1C(=O)N[C@H](C)C(=O)N[C@@H](CC(C)C)C(=O)N[C@@H](C(=O)O)[C@H](C)C(=O)N[C@@H](CCCN=C(N)N)C(=O)N[C@@H](/C=C/C(C)=C/[C@H](C)[C@H](Cc2ccccc2)OC)[C@H](C)C(=O)N[C@@H](C(=O)O)CCC(=O)N1C
REMARK SMILES IDX 39 1 38 2 37 3 36 4 28 6 27 7 25 8 26 9 23 11 24 12 19 13
REMARK SMILES IDX 18 14 16 15 17 16 11 18 10 19 8 20 9 21 12 24 13 25 14 26
REMARK SMILES IDX 15 27 20 28 21 29 22 30 29 32 30 33 31 34 32 35 33 36 34 37
REMARK SMILES IDX 35 38 57 43 58 44 59 45 60 46 61 47 62 49 66 50 67 51 68 52
REMARK SMILES IDX 69 53 70 54 71 55 2 56 1 57 3 58 4 59 5 60 6 62 7 63 63 65
REMARK SMILES IDX 64 66 65 67 40 69 41 70 42 71 44 72 43 73 45 74 46 75 47 76
REMARK SMILES IDX 55 77 56 78 48 79 49 80 50 81 54 82 51 83 53 84 52 85
REMARK H PARENT 38 5 27 10 18 17 10 22 22 31 34 39 34 40 35 41 35 42 61 48
REMARK H PARENT 5 61 65 68
REMARK Flexibility Score:  369.900
ROOT
ATOM      1  C   UNL     1      -0.721   7.502   9.027  1.00  0.00     0.117 C 
ENDROOT
BRANCH   1   2
ATOM      2  N   UNL     1       0.590   8.064   8.702  1.00  0.00    -0.347 N 
ATOM      3  O   UNL     1       1.692   6.086   8.322  1.00  0.00    -0.273 OA
ATOM      4  C   UNL     1       1.672   7.312   8.285  1.00  0.00     0.243 C 
ATOM      5  H   UNL     1       0.721   9.064   8.731  1.00  0.00     0.164 HD
BRANCH   4   6
ATOM      6  C   UNL     1       2.917   8.159   7.922  1.00  0.00     0.171 C 
BRANCH   6   7
ATOM      7  N   UNL     1       3.594   7.600   6.741  1.00  0.00    -0.344 N 
ATOM      8  C   UNL     1       4.804   6.954   6.864  1.00  0.00     0.226 C 
ATOM      9  O   UNL     1       5.382   6.833   7.938  1.00  0.00    -0.275 OA
ATOM     10  H   UNL     1       3.180   7.739   5.827  1.00  0.00     0.164 HD
BRANCH   8  11
ATOM     11  C   UNL     1       5.346   6.386   5.564  1.00  0.00     0.109 C 
ATOM     12  C   UNL     1       5.924   4.991   5.801  1.00  0.00     0.021 C 
BRANCH  11  13
ATOM     13  C   UNL     1       4.262   6.462   4.471  1.00  0.00     0.204 C 
BRANCH  13  14
ATOM     14  N   UNL     1       4.816   6.856   3.172  1.00  0.00    -0.340 N 
ATOM     15  C   UNL     1       4.957   8.172   2.787  1.00  0.00     0.243 C 
ATOM     16  O   UNL     1       4.685   9.111   3.533  1.00  0.00    -0.273 OA
ATOM     17  H   UNL     1       4.918   6.134   2.454  1.00  0.00     0.164 HD
BRANCH  15  18
ATOM     18  C   UNL     1       5.365   8.342   1.303  1.00  0.00     0.171 C 
BRANCH  18  19
ATOM     19  N   UNL     1       6.652   7.667   1.142  1.00  0.00    -0.343 N 
ATOM     20  C   UNL     1       7.842   8.368   1.103  1.00  0.00     0.242 CG0
ATOM     21  O   UNL     1       7.865   9.596   1.068  1.00  0.00    -0.273 OA
ATOM     22  H   UNL     1       6.676   6.658   1.050  1.00  0.00     0.164 HD
ATOM     23  G   UNL     1       9.100   7.481   1.008  1.00  0.00     0.000 G0
ENDBRANCH  18  19
BRANCH  18  24
ATOM     24  C   UNL     1       4.298   7.745   0.376  1.00  0.00     0.038 C 
BRANCH  24  25
ATOM     25  C   UNL     1       3.804   8.696  -0.734  1.00  0.00    -0.015 C 
ATOM     26  C   UNL     1       4.431  10.087  -0.635  1.00  0.00     0.007 C 
ATOM     27  C   UNL     1       2.279   8.812  -0.672  1.00  0.00     0.007 C 
ENDBRANCH  24  25
ENDBRANCH  18  24
ENDBRANCH  15  18
ENDBRANCH  13  14
BRANCH  13  28
ATOM     28  C   UNL     1       3.519   5.138   4.264  1.00  0.00     0.327 C 
ATOM     29  O   UNL     1       3.751   4.306   3.401  1.00  0.00    -0.250 OA
BRANCH  28  30
ATOM     30  O   UNL     1       2.454   4.997   5.080  1.00  0.00    -0.480 OA
ATOM     31  H   UNL     1       2.149   5.914   5.239  1.00  0.00     0.296 HD
ENDBRANCH  28  30
ENDBRANCH  13  28
ENDBRANCH  11  13
ENDBRANCH   8  11
ENDBRANCH   6   7
BRANCH   6  32
ATOM     32  C   UNL     1       2.485   9.608   7.670  1.00  0.00     0.037 C 
BRANCH  32  33
ATOM     33  C   UNL     1       2.706  10.034   6.212  1.00  0.00     0.026 C 
BRANCH  33  34
ATOM     34  C   UNL     1       1.402  10.090   5.415  1.00  0.00     0.146 C 
BRANCH  34  35
ATOM     35  N   UNL     1       1.032   8.737   5.023  1.00  0.00    -0.254 NA
ATOM     36  C   UNL     1       1.187   8.387   3.800  1.00  0.00     0.185 C 
ATOM     37  N   UNL     1       0.854   7.141   3.429  1.00  0.00    -0.370 N 
ATOM     38  N   UNL     1       1.657   9.110   2.768  1.00  0.00    -0.370 N 
ATOM     39  H   UNL     1       0.501   6.530   4.154  1.00  0.00     0.159 HD
ATOM     40  H   UNL     1       1.105   6.740   2.541  1.00  0.00     0.159 HD
ATOM     41  H   UNL     1       1.599   8.768   1.823  1.00  0.00     0.159 HD
ATOM     42  H   UNL     1       1.931  10.072   2.898  1.00  0.00     0.159 HD
ENDBRANCH  34  35
ENDBRANCH  33  34
ENDBRANCH  32  33
ENDBRANCH   6  32
ENDBRANCH   4   6
ENDBRANCH   1   2
BRANCH   1  43
ATOM     43  C   UNL     1      -1.647   7.658   7.786  1.00  0.00     0.102 C 
ATOM     44  C   UNL     1      -2.602   8.860   7.882  1.00  0.00     0.020 C 
BRANCH  43  45
ATOM     45  C   UNL     1      -2.344   6.336   7.450  1.00  0.00     0.225 C 
ATOM     46  O   UNL     1      -1.737   5.326   7.106  1.00  0.00    -0.275 OA
ATOM     47  N   UNL     1      -3.720   6.370   7.467  1.00  0.00    -0.342 N 
ATOM     48  H   UNL     1      -4.195   7.153   7.894  1.00  0.00     0.164 HD
BRANCH  47  49
ATOM     49  C   UNL     1      -4.519   5.171   7.201  1.00  0.00     0.192 C 
BRANCH  49  50
ATOM     50  C   UNL     1      -4.180   4.088   8.229  1.00  0.00     0.047 C 
BRANCH  50  51
ATOM     51  C   UNL     1      -4.661   4.455   9.639  1.00  0.00     0.103 C 
BRANCH  51  52
ATOM     52  C   UNL     1      -4.917   3.217  10.497  1.00  0.00     0.226 C 
ATOM     53  O   UNL     1      -5.890   2.499  10.258  1.00  0.00    -0.275 OA
BRANCH  52  54
ATOM     54  N   UNL     1      -3.957   2.930  11.485  1.00  0.00    -0.311 N 
ATOM     55  C   UNL     1      -2.732   2.190  11.156  1.00  0.00     0.153 C 
BRANCH  54  56
ATOM     56  C   UNL     1      -4.130   3.343  12.817  1.00  0.00     0.102 C 
ATOM     57  C   UNL     1      -3.582   4.443  13.358  1.00  0.00     0.043 C 
BRANCH  56  58
ATOM     58  C   UNL     1      -5.020   2.567  13.759  1.00  0.00     0.268 C 
ATOM     59  O   UNL     1      -6.235   2.706  13.800  1.00  0.00    -0.268 OA
ATOM     60  N   UNL     1      -4.334   1.646  14.515  1.00  0.00    -0.339 N 
ATOM     61  H   UNL     1      -3.325   1.601  14.430  1.00  0.00     0.164 HD
BRANCH  60  62
ATOM     62  C   UNL     1      -5.009   0.746  15.448  1.00  0.00     0.168 CG0
ATOM     63  C   UNL     1      -5.346  -0.582  14.780  1.00  0.00     0.041 C 
ATOM     64  G   UNL     1      -6.285   1.424  15.989  1.00  0.00     0.000 G0
ENDBRANCH  60  62
ENDBRANCH  56  58
ENDBRANCH  54  56
ENDBRANCH  52  54
ENDBRANCH  51  52
ENDBRANCH  50  51
ENDBRANCH  49  50
BRANCH  49  65
ATOM     65  C   UNL     1      -4.269   4.625   5.786  1.00  0.00     0.326 C 
ATOM     66  O   UNL     1      -4.602   5.172   4.744  1.00  0.00    -0.250 OA
BRANCH  65  67
ATOM     67  O   UNL     1      -3.678   3.411   5.746  1.00  0.00    -0.480 OA
ATOM     68  H   UNL     1      -3.169   3.429   4.908  1.00  0.00     0.296 HD
ENDBRANCH  65  67
ENDBRANCH  49  65
ENDBRANCH  47  49
ENDBRANCH  43  45
ENDBRANCH   1  43
BRANCH   1  69
ATOM     69  C   UNL     1      -1.141   8.138  10.340  1.00  0.00    -0.001 C 
ATOM     70  C   UNL     1      -1.502   7.510  11.473  1.00  0.00     0.001 C 
BRANCH  70  71
ATOM     71  C   UNL     1      -1.885   8.134  12.741  1.00  0.00    -0.055 C 
ATOM     72  C   UNL     1      -3.198   8.169  13.052  1.00  0.00    -0.018 C 
ATOM     73  C   UNL     1      -0.787   8.686  13.612  1.00  0.00     0.044 C 
BRANCH  72  74
ATOM     74  C   UNL     1      -3.881   8.743  14.285  1.00  0.00     0.038 C 
ATOM     75  C   UNL     1      -4.263   7.560  15.183  1.00  0.00     0.015 C 
BRANCH  74  76
ATOM     76  C   UNL     1      -5.077   9.629  13.829  1.00  0.00     0.128 C 
BRANCH  76  77
ATOM     77  O   UNL     1      -6.162   9.509  14.765  1.00  0.00    -0.381 OA
ATOM     78  C   UNL     1      -7.419   9.257  14.152  1.00  0.00     0.195 C 
ENDBRANCH  76  77
BRANCH  76  79
ATOM     79  C   UNL     1      -4.695  11.102  13.540  1.00  0.00     0.068 C 
BRANCH  79  80
ATOM     80  C   UNL     1      -3.776  11.379  12.374  1.00  0.00    -0.045 A 
ATOM     81  C   UNL     1      -2.453  11.792  12.580  1.00  0.00     0.004 A 
ATOM     82  C   UNL     1      -4.245  11.252  11.058  1.00  0.00     0.004 A 
ATOM     83  C   UNL     1      -1.613  12.059  11.497  1.00  0.00     0.000 A 
ATOM     84  C   UNL     1      -3.405  11.520   9.975  1.00  0.00     0.000 A 
ATOM     85  C   UNL     1      -2.089  11.922  10.194  1.00  0.00     0.000 A 
ENDBRANCH  79  80
ENDBRANCH  76  79
ENDBRANCH  74  76
ENDBRANCH  72  74
ENDBRANCH  70  71
ENDBRANCH   1  69
TORSDOF 17
ENDMDL
MODEL 36
REMARK VINA RESULT:    -6.297      3.366     11.185
REMARK INTER + INTRA:         -26.044
REMARK INTER:                 -18.363
REMARK INTRA:                  -7.680
REMARK UNBOUND:                -7.229
REMARK SMILES C=C1C(=O)N[C@H](C)C(=O)N[C@@H](CC(C)C)C(=O)N[C@@H](C(=O)O)[C@H](C)C(=O)N[C@@H](CCCN=C(N)N)C(=O)N[C@@H](/C=C/C(C)=C/[C@H](C)[C@H](Cc2ccccc2)OC)[C@H](C)C(=O)N[C@@H](C(=O)O)CCC(=O)N1C
REMARK SMILES IDX 39 1 38 2 37 3 36 4 28 6 27 7 25 8 26 9 23 11 24 12 19 13
REMARK SMILES IDX 18 14 16 15 17 16 11 18 10 19 8 20 9 21 12 24 13 25 14 26
REMARK SMILES IDX 15 27 20 28 21 29 22 30 29 32 30 33 31 34 32 35 33 36 34 37
REMARK SMILES IDX 35 38 57 43 58 44 59 45 60 46 61 47 62 49 66 50 67 51 68 52
REMARK SMILES IDX 69 53 70 54 71 55 2 56 1 57 3 58 4 59 5 60 6 62 7 63 63 65
REMARK SMILES IDX 64 66 65 67 40 69 41 70 42 71 44 72 43 73 45 74 46 75 47 76
REMARK SMILES IDX 55 77 56 78 48 79 49 80 50 81 54 82 51 83 53 84 52 85
REMARK H PARENT 38 5 27 10 18 17 10 22 22 31 34 39 34 40 35 41 35 42 61 48
REMARK H PARENT 5 61 65 68
REMARK Flexibility Score:  369.900
ROOT
ATOM      1  C   UNL     1      -1.203   8.088   9.124  1.00  0.00     0.117 C 
ENDROOT
BRANCH   1   2
ATOM      2  N   UNL     1       0.110   8.706   8.938  1.00  0.00    -0.347 N 
ATOM      3  O   UNL     1       1.255   6.822   8.297  1.00  0.00    -0.273 OA
ATOM      4  C   UNL     1       1.217   8.039   8.449  1.00  0.00     0.243 C 
ATOM      5  H   UNL     1       0.224   9.691   9.125  1.00  0.00     0.164 HD
BRANCH   4   6
ATOM      6  C   UNL     1       2.461   8.945   8.267  1.00  0.00     0.171 C 
BRANCH   6   7
ATOM      7  N   UNL     1       3.164   8.609   7.018  1.00  0.00    -0.344 N 
ATOM      8  C   UNL     1       4.535   8.713   6.934  1.00  0.00     0.226 C 
ATOM      9  O   UNL     1       5.226   9.104   7.867  1.00  0.00    -0.275 OA
ATOM     10  H   UNL     1       2.621   8.346   6.205  1.00  0.00     0.164 HD
BRANCH   8  11
ATOM     11  C   UNL     1       5.114   8.278   5.599  1.00  0.00     0.109 C 
ATOM     12  C   UNL     1       5.077   9.440   4.607  1.00  0.00     0.021 C 
BRANCH  11  13
ATOM     13  C   UNL     1       6.507   7.653   5.814  1.00  0.00     0.204 C 
BRANCH  13  14
ATOM     14  N   UNL     1       7.484   8.634   6.298  1.00  0.00    -0.340 N 
ATOM     15  C   UNL     1       8.783   8.683   5.842  1.00  0.00     0.243 C 
ATOM     16  O   UNL     1       9.200   7.945   4.951  1.00  0.00    -0.273 OA
ATOM     17  H   UNL     1       7.250   9.170   7.138  1.00  0.00     0.164 HD
BRANCH  15  18
ATOM     18  C   UNL     1       9.682   9.658   6.642  1.00  0.00     0.171 C 
BRANCH  18  19
ATOM     19  N   UNL     1      11.037   9.506   6.115  1.00  0.00    -0.343 N 
ATOM     20  C   UNL     1      12.153   9.706   6.904  1.00  0.00     0.242 CG0
ATOM     21  O   UNL     1      12.062  10.148   8.047  1.00  0.00    -0.273 OA
ATOM     22  H   UNL     1      11.167   9.254   5.142  1.00  0.00     0.164 HD
ATOM     23  G   UNL     1      13.494   9.423   6.195  1.00  0.00     0.000 G0
ENDBRANCH  18  19
BRANCH  18  24
ATOM     24  C   UNL     1       9.181  11.100   6.497  1.00  0.00     0.038 C 
BRANCH  24  25
ATOM     25  C   UNL     1       9.278  11.675   5.068  1.00  0.00    -0.015 C 
ATOM     26  C   UNL     1      10.202  12.891   4.989  1.00  0.00     0.007 C 
ATOM     27  C   UNL     1       7.882  12.056   4.571  1.00  0.00     0.007 C 
ENDBRANCH  24  25
ENDBRANCH  18  24
ENDBRANCH  15  18
ENDBRANCH  13  14
BRANCH  13  28
ATOM     28  C   UNL     1       6.500   6.490   6.811  1.00  0.00     0.327 C 
ATOM     29  O   UNL     1       5.882   5.443   6.695  1.00  0.00    -0.250 OA
BRANCH  28  30
ATOM     30  O   UNL     1       7.174   6.763   7.947  1.00  0.00    -0.480 OA
ATOM     31  H   UNL     1       6.478   6.809   8.635  1.00  0.00     0.296 HD
ENDBRANCH  28  30
ENDBRANCH  13  28
ENDBRANCH  11  13
ENDBRANCH   8  11
ENDBRANCH   6   7
BRANCH   6  32
ATOM     32  C   UNL     1       2.019  10.413   8.268  1.00  0.00     0.037 C 
BRANCH  32  33
ATOM     33  C   UNL     1       1.891  10.980   6.848  1.00  0.00     0.026 C 
BRANCH  33  34
ATOM     34  C   UNL     1       0.441  11.019   6.362  1.00  0.00     0.146 C 
BRANCH  34  35
ATOM     35  N   UNL     1      -0.375  11.676   7.373  1.00  0.00    -0.254 NA
ATOM     36  C   UNL     1      -1.153  12.627   7.011  1.00  0.00     0.185 C 
ATOM     37  N   UNL     1      -1.914  13.236   7.934  1.00  0.00    -0.370 N 
ATOM     38  N   UNL     1      -1.342  13.144   5.784  1.00  0.00    -0.370 N 
ATOM     39  H   UNL     1      -1.836  12.896   8.884  1.00  0.00     0.159 HD
ATOM     40  H   UNL     1      -2.667  13.863   7.708  1.00  0.00     0.159 HD
ATOM     41  H   UNL     1      -1.878  13.985   5.650  1.00  0.00     0.159 HD
ATOM     42  H   UNL     1      -0.822  12.793   4.995  1.00  0.00     0.159 HD
ENDBRANCH  34  35
ENDBRANCH  33  34
ENDBRANCH  32  33
ENDBRANCH   6  32
ENDBRANCH   4   6
ENDBRANCH   1   2
BRANCH   1  43
ATOM     43  C   UNL     1      -2.109   8.479   7.921  1.00  0.00     0.102 C 
ATOM     44  C   UNL     1      -3.107   9.603   8.246  1.00  0.00     0.020 C 
BRANCH  43  45
ATOM     45  C   UNL     1      -2.752   7.239   7.291  1.00  0.00     0.225 C 
ATOM     46  O   UNL     1      -3.642   7.300   6.448  1.00  0.00    -0.275 OA
ATOM     47  N   UNL     1      -2.334   6.031   7.801  1.00  0.00    -0.342 N 
ATOM     48  H   UNL     1      -1.504   5.992   8.376  1.00  0.00     0.164 HD
BRANCH  47  49
ATOM     49  C   UNL     1      -2.836   4.761   7.270  1.00  0.00     0.192 C 
BRANCH  49  50
ATOM     50  C   UNL     1      -3.675   4.053   8.338  1.00  0.00     0.047 C 
BRANCH  50  51
ATOM     51  C   UNL     1      -3.490   4.674   9.729  1.00  0.00     0.103 C 
BRANCH  51  52
ATOM     52  C   UNL     1      -2.328   4.040  10.491  1.00  0.00     0.226 C 
ATOM     53  O   UNL     1      -1.186   4.475  10.334  1.00  0.00    -0.275 OA
BRANCH  52  54
ATOM     54  N   UNL     1      -2.659   3.022  11.404  1.00  0.00    -0.311 N 
ATOM     55  C   UNL     1      -2.252   1.630  11.165  1.00  0.00     0.153 C 
BRANCH  54  56
ATOM     56  C   UNL     1      -3.382   3.296  12.577  1.00  0.00     0.102 C 
ATOM     57  C   UNL     1      -3.091   4.276  13.447  1.00  0.00     0.043 C 
BRANCH  56  58
ATOM     58  C   UNL     1      -4.616   2.500  12.930  1.00  0.00     0.268 C 
ATOM     59  O   UNL     1      -4.792   1.989  14.028  1.00  0.00    -0.268 OA
ATOM     60  N   UNL     1      -5.546   2.467  11.918  1.00  0.00    -0.339 N 
ATOM     61  H   UNL     1      -5.319   2.907  11.034  1.00  0.00     0.164 HD
BRANCH  60  62
ATOM     62  C   UNL     1      -6.840   1.804  12.071  1.00  0.00     0.168 CG0
ATOM     63  C   UNL     1      -6.682   0.289  12.072  1.00  0.00     0.041 C 
ATOM     64  G   UNL     1      -7.787   2.253  10.939  1.00  0.00     0.000 G0
ENDBRANCH  60  62
ENDBRANCH  56  58
ENDBRANCH  54  56
ENDBRANCH  52  54
ENDBRANCH  51  52
ENDBRANCH  50  51
ENDBRANCH  49  50
BRANCH  49  65
ATOM     65  C   UNL     1      -1.690   3.837   6.829  1.00  0.00     0.326 C 
ATOM     66  O   UNL     1      -0.613   4.205   6.383  1.00  0.00    -0.250 OA
BRANCH  65  67
ATOM     67  O   UNL     1      -1.966   2.517   6.910  1.00  0.00    -0.480 OA
ATOM     68  H   UNL     1      -1.211   2.094   6.447  1.00  0.00     0.296 HD
ENDBRANCH  65  67
ENDBRANCH  49  65
ENDBRANCH  47  49
ENDBRANCH  43  45
ENDBRANCH   1  43
BRANCH   1  69
ATOM     69  C   UNL     1      -1.649   8.455  10.527  1.00  0.00    -0.001 C 
ATOM     70  C   UNL     1      -1.744   7.641  11.594  1.00  0.00     0.001 C 
BRANCH  70  71
ATOM     71  C   UNL     1      -2.156   8.012  12.949  1.00  0.00    -0.055 C 
ATOM     72  C   UNL     1      -3.471   7.951  13.244  1.00  0.00    -0.018 C 
ATOM     73  C   UNL     1      -1.082   8.427  13.921  1.00  0.00     0.044 C 
BRANCH  72  74
ATOM     74  C   UNL     1      -4.181   8.269  14.553  1.00  0.00     0.038 C 
ATOM     75  C   UNL     1      -4.446   6.934  15.260  1.00  0.00     0.015 C 
BRANCH  74  76
ATOM     76  C   UNL     1      -5.455   9.107  14.240  1.00  0.00     0.128 C 
BRANCH  76  77
ATOM     77  O   UNL     1      -6.511   8.753  15.150  1.00  0.00    -0.381 OA
ATOM     78  C   UNL     1      -7.799   8.733  14.549  1.00  0.00     0.195 C 
ENDBRANCH  76  77
BRANCH  76  79
ATOM     79  C   UNL     1      -5.204  10.635  14.180  1.00  0.00     0.068 C 
BRANCH  79  80
ATOM     80  C   UNL     1      -4.390  11.173  13.028  1.00  0.00    -0.045 A 
ATOM     81  C   UNL     1      -3.045  11.527  13.197  1.00  0.00     0.004 A 
ATOM     82  C   UNL     1      -4.981  11.353  11.768  1.00  0.00     0.004 A 
ATOM     83  C   UNL     1      -2.303  12.036  12.130  1.00  0.00     0.000 A 
ATOM     84  C   UNL     1      -4.238  11.864  10.701  1.00  0.00     0.000 A 
ATOM     85  C   UNL     1      -2.899  12.204  10.882  1.00  0.00     0.000 A 
ENDBRANCH  79  80
ENDBRANCH  76  79
ENDBRANCH  74  76
ENDBRANCH  72  74
ENDBRANCH  70  71
ENDBRANCH   1  69
TORSDOF 17
ENDMDL
MODEL 37
REMARK VINA RESULT:    -6.272      4.223      8.803
REMARK INTER + INTRA:         -25.968
REMARK INTER:                 -17.644
REMARK INTRA:                  -8.324
REMARK UNBOUND:                -7.229
REMARK SMILES C=C1C(=O)N[C@H](C)C(=O)N[C@@H](CC(C)C)C(=O)N[C@@H](C(=O)O)[C@H](C)C(=O)N[C@@H](CCCN=C(N)N)C(=O)N[C@@H](/C=C/C(C)=C/[C@H](C)[C@H](Cc2ccccc2)OC)[C@H](C)C(=O)N[C@@H](C(=O)O)CCC(=O)N1C
REMARK SMILES IDX 39 1 38 2 37 3 36 4 28 6 27 7 25 8 26 9 23 11 24 12 19 13
REMARK SMILES IDX 18 14 16 15 17 16 11 18 10 19 8 20 9 21 12 24 13 25 14 26
REMARK SMILES IDX 15 27 20 28 21 29 22 30 29 32 30 33 31 34 32 35 33 36 34 37
REMARK SMILES IDX 35 38 57 43 58 44 59 45 60 46 61 47 62 49 66 50 67 51 68 52
REMARK SMILES IDX 69 53 70 54 71 55 2 56 1 57 3 58 4 59 5 60 6 62 7 63 63 65
REMARK SMILES IDX 64 66 65 67 40 69 41 70 42 71 44 72 43 73 45 74 46 75 47 76
REMARK SMILES IDX 55 77 56 78 48 79 49 80 50 81 54 82 51 83 53 84 52 85
REMARK H PARENT 38 5 27 10 18 17 10 22 22 31 34 39 34 40 35 41 35 42 61 48
REMARK H PARENT 5 61 65 68
REMARK Flexibility Score:  369.900
ROOT
ATOM      1  C   UNL     1      -1.967   6.099  10.045  1.00  0.00     0.117 C 
ENDROOT
BRANCH   1   2
ATOM      2  N   UNL     1      -1.828   4.673  10.341  1.00  0.00    -0.347 N 
ATOM      3  O   UNL     1      -2.746   4.698  12.444  1.00  0.00    -0.273 OA
ATOM      4  C   UNL     1      -2.314   4.069  11.484  1.00  0.00     0.243 C 
ATOM      5  H   UNL     1      -1.397   4.066   9.659  1.00  0.00     0.164 HD
BRANCH   4   6
ATOM      6  C   UNL     1      -2.111   2.533  11.512  1.00  0.00     0.171 C 
BRANCH   6   7
ATOM      7  N   UNL     1      -3.410   1.843  11.548  1.00  0.00    -0.344 N 
ATOM      8  C   UNL     1      -3.971   1.464  12.748  1.00  0.00     0.226 C 
ATOM      9  O   UNL     1      -3.420   1.656  13.825  1.00  0.00    -0.275 OA
ATOM     10  H   UNL     1      -3.864   1.606  10.675  1.00  0.00     0.164 HD
BRANCH   8  11
ATOM     11  C   UNL     1      -5.338   0.812  12.621  1.00  0.00     0.109 C 
ATOM     12  C   UNL     1      -6.231   1.640  11.697  1.00  0.00     0.021 C 
BRANCH  11  13
ATOM     13  C   UNL     1      -5.175  -0.665  12.213  1.00  0.00     0.204 C 
BRANCH  13  14
ATOM     14  N   UNL     1      -4.082  -1.321  12.938  1.00  0.00    -0.340 N 
ATOM     15  C   UNL     1      -3.185  -2.172  12.329  1.00  0.00     0.243 C 
ATOM     16  O   UNL     1      -3.203  -2.395  11.120  1.00  0.00    -0.273 OA
ATOM     17  H   UNL     1      -4.102  -1.299  13.961  1.00  0.00     0.164 HD
BRANCH  15  18
ATOM     18  C   UNL     1      -2.253  -2.904  13.325  1.00  0.00     0.171 C 
BRANCH  18  19
ATOM     19  N   UNL     1      -2.869  -4.201  13.599  1.00  0.00    -0.343 N 
ATOM     20  C   UNL     1      -3.874  -4.347  14.535  1.00  0.00     0.242 CG0
ATOM     21  O   UNL     1      -4.205  -3.422  15.274  1.00  0.00    -0.273 OA
ATOM     22  H   UNL     1      -2.548  -5.020  13.095  1.00  0.00     0.164 HD
ATOM     23  G   UNL     1      -4.455  -5.773  14.629  1.00  0.00     0.000 G0
ENDBRANCH  18  19
BRANCH  18  24
ATOM     24  C   UNL     1      -0.847  -3.063  12.734  1.00  0.00     0.038 C 
BRANCH  24  25
ATOM     25  C   UNL     1       0.226  -2.154  13.369  1.00  0.00    -0.015 C 
ATOM     26  C   UNL     1       1.630  -2.446  12.837  1.00  0.00     0.007 C 
ATOM     27  C   UNL     1       0.207  -2.320  14.890  1.00  0.00     0.007 C 
ENDBRANCH  24  25
ENDBRANCH  18  24
ENDBRANCH  15  18
ENDBRANCH  13  14
BRANCH  13  28
ATOM     28  C   UNL     1      -6.439  -1.499  12.448  1.00  0.00     0.327 C 
ATOM     29  O   UNL     1      -7.401  -1.579  11.700  1.00  0.00    -0.250 OA
BRANCH  28  30
ATOM     30  O   UNL     1      -6.467  -2.086  13.662  1.00  0.00    -0.480 OA
ATOM     31  H   UNL     1      -6.191  -1.377  14.279  1.00  0.00     0.296 HD
ENDBRANCH  28  30
ENDBRANCH  13  28
ENDBRANCH  11  13
ENDBRANCH   8  11
ENDBRANCH   6   7
BRANCH   6  32
ATOM     32  C   UNL     1      -1.300   2.110  10.282  1.00  0.00     0.037 C 
BRANCH  32  33
ATOM     33  C   UNL     1      -1.333   0.591  10.061  1.00  0.00     0.026 C 
BRANCH  33  34
ATOM     34  C   UNL     1       0.040  -0.057  10.245  1.00  0.00     0.146 C 
BRANCH  34  35
ATOM     35  N   UNL     1       1.060   0.982  10.198  1.00  0.00    -0.254 NA
ATOM     36  C   UNL     1       2.248   0.661   9.844  1.00  0.00     0.185 C 
ATOM     37  N   UNL     1       3.194   1.611   9.792  1.00  0.00    -0.370 N 
ATOM     38  N   UNL     1       2.728  -0.546   9.494  1.00  0.00    -0.370 N 
ATOM     39  H   UNL     1       2.907   2.551  10.032  1.00  0.00     0.159 HD
ATOM     40  H   UNL     1       4.094   1.478   9.363  1.00  0.00     0.159 HD
ATOM     41  H   UNL     1       3.716  -0.697   9.370  1.00  0.00     0.159 HD
ATOM     42  H   UNL     1       2.131  -1.358   9.503  1.00  0.00     0.159 HD
ENDBRANCH  34  35
ENDBRANCH  33  34
ENDBRANCH  32  33
ENDBRANCH   6  32
ENDBRANCH   4   6
ENDBRANCH   1   2
BRANCH   1  43
ATOM     43  C   UNL     1      -3.435   6.373   9.606  1.00  0.00     0.102 C 
ATOM     44  C   UNL     1      -3.577   6.681   8.106  1.00  0.00     0.020 C 
BRANCH  43  45
ATOM     45  C   UNL     1      -4.098   7.408  10.519  1.00  0.00     0.225 C 
ATOM     46  O   UNL     1      -4.967   8.185  10.133  1.00  0.00    -0.275 OA
ATOM     47  N   UNL     1      -3.590   7.484  11.796  1.00  0.00    -0.342 N 
ATOM     48  H   UNL     1      -2.991   6.747  12.140  1.00  0.00     0.164 HD
BRANCH  47  49
ATOM     49  C   UNL     1      -4.151   8.404  12.790  1.00  0.00     0.192 C 
BRANCH  49  50
ATOM     50  C   UNL     1      -3.096   9.442  13.183  1.00  0.00     0.047 C 
BRANCH  50  51
ATOM     51  C   UNL     1      -3.580  10.880  12.949  1.00  0.00     0.103 C 
BRANCH  51  52
ATOM     52  C   UNL     1      -2.651  11.653  12.015  1.00  0.00     0.226 C 
ATOM     53  O   UNL     1      -1.592  12.110  12.449  1.00  0.00    -0.275 OA
BRANCH  52  54
ATOM     54  N   UNL     1      -3.041  11.729  10.665  1.00  0.00    -0.311 N 
ATOM     55  C   UNL     1      -4.359  12.258  10.288  1.00  0.00     0.153 C 
BRANCH  54  56
ATOM     56  C   UNL     1      -2.187  11.311   9.631  1.00  0.00     0.102 C 
ATOM     57  C   UNL     1      -1.875  10.032   9.362  1.00  0.00     0.043 C 
BRANCH  56  58
ATOM     58  C   UNL     1      -1.571  12.311   8.682  1.00  0.00     0.268 C 
ATOM     59  O   UNL     1      -0.842  13.223   9.051  1.00  0.00    -0.268 OA
ATOM     60  N   UNL     1      -1.859  12.054   7.363  1.00  0.00    -0.339 N 
ATOM     61  H   UNL     1      -2.480  11.285   7.142  1.00  0.00     0.164 HD
BRANCH  60  62
ATOM     62  C   UNL     1      -1.312  12.862   6.274  1.00  0.00     0.168 CG0
ATOM     63  C   UNL     1      -0.049  12.229   5.703  1.00  0.00     0.041 C 
ATOM     64  G   UNL     1      -1.025  14.289   6.783  1.00  0.00     0.000 G0
ENDBRANCH  60  62
ENDBRANCH  56  58
ENDBRANCH  54  56
ENDBRANCH  52  54
ENDBRANCH  51  52
ENDBRANCH  50  51
ENDBRANCH  49  50
BRANCH  49  65
ATOM     65  C   UNL     1      -4.625   7.659  14.048  1.00  0.00     0.326 C 
ATOM     66  O   UNL     1      -4.906   8.179  15.118  1.00  0.00    -0.250 OA
BRANCH  65  67
ATOM     67  O   UNL     1      -4.665   6.314  13.925  1.00  0.00    -0.480 OA
ATOM     68  H   UNL     1      -4.569   5.994  14.848  1.00  0.00     0.296 HD
ENDBRANCH  65  67
ENDBRANCH  49  65
ENDBRANCH  47  49
ENDBRANCH  43  45
ENDBRANCH   1  43
BRANCH   1  69
ATOM     69  C   UNL     1      -0.839   6.447   9.091  1.00  0.00    -0.001 C 
ATOM     70  C   UNL     1       0.020   5.599   8.499  1.00  0.00     0.001 C 
BRANCH  70  71
ATOM     71  C   UNL     1       1.092   5.944   7.562  1.00  0.00    -0.055 C 
ATOM     72  C   UNL     1       2.322   5.444   7.804  1.00  0.00    -0.018 C 
ATOM     73  C   UNL     1       0.744   6.825   6.391  1.00  0.00     0.044 C 
BRANCH  72  74
ATOM     74  C   UNL     1       3.609   5.628   7.013  1.00  0.00     0.038 C 
ATOM     75  C   UNL     1       4.157   4.229   6.707  1.00  0.00     0.015 C 
BRANCH  74  76
ATOM     76  C   UNL     1       4.571   6.543   7.827  1.00  0.00     0.128 C 
BRANCH  76  77
ATOM     77  O   UNL     1       5.937   6.219   7.515  1.00  0.00    -0.381 OA
ATOM     78  C   UNL     1       6.587   7.196   6.713  1.00  0.00     0.195 C 
ENDBRANCH  76  77
BRANCH  76  79
ATOM     79  C   UNL     1       4.267   8.056   7.690  1.00  0.00     0.068 C 
BRANCH  79  80
ATOM     80  C   UNL     1       3.685   8.771   8.885  1.00  0.00    -0.045 A 
ATOM     81  C   UNL     1       4.485   9.111   9.984  1.00  0.00     0.004 A 
ATOM     82  C   UNL     1       2.317   9.082   8.925  1.00  0.00     0.004 A 
ATOM     83  C   UNL     1       3.935   9.760  11.092  1.00  0.00     0.000 A 
ATOM     84  C   UNL     1       1.768   9.731  10.034  1.00  0.00     0.000 A 
ATOM     85  C   UNL     1       2.577  10.070  11.116  1.00  0.00     0.000 A 
ENDBRANCH  79  80
ENDBRANCH  76  79
ENDBRANCH  74  76
ENDBRANCH  72  74
ENDBRANCH  70  71
ENDBRANCH   1  69
TORSDOF 17
ENDMDL
MODEL 38
REMARK VINA RESULT:    -6.269      2.482      4.734
REMARK INTER + INTRA:         -25.960
REMARK INTER:                 -18.992
REMARK INTRA:                  -6.967
REMARK UNBOUND:                -7.229
REMARK SMILES C=C1C(=O)N[C@H](C)C(=O)N[C@@H](CC(C)C)C(=O)N[C@@H](C(=O)O)[C@H](C)C(=O)N[C@@H](CCCN=C(N)N)C(=O)N[C@@H](/C=C/C(C)=C/[C@H](C)[C@H](Cc2ccccc2)OC)[C@H](C)C(=O)N[C@@H](C(=O)O)CCC(=O)N1C
REMARK SMILES IDX 39 1 38 2 37 3 36 4 28 6 27 7 25 8 26 9 23 11 24 12 19 13
REMARK SMILES IDX 18 14 16 15 17 16 11 18 10 19 8 20 9 21 12 24 13 25 14 26
REMARK SMILES IDX 15 27 20 28 21 29 22 30 29 32 30 33 31 34 32 35 33 36 34 37
REMARK SMILES IDX 35 38 57 43 58 44 59 45 60 46 61 47 62 49 66 50 67 51 68 52
REMARK SMILES IDX 69 53 70 54 71 55 2 56 1 57 3 58 4 59 5 60 6 62 7 63 63 65
REMARK SMILES IDX 64 66 65 67 40 69 41 70 42 71 44 72 43 73 45 74 46 75 47 76
REMARK SMILES IDX 55 77 56 78 48 79 49 80 50 81 54 82 51 83 53 84 52 85
REMARK H PARENT 38 5 27 10 18 17 10 22 22 31 34 39 34 40 35 41 35 42 61 48
REMARK H PARENT 5 61 65 68
REMARK Flexibility Score:  369.900
ROOT
ATOM      1  C   UNL     1      -0.927   8.065   9.069  1.00  0.00     0.117 C 
ENDROOT
BRANCH   1   2
ATOM      2  N   UNL     1      -0.928   6.603   9.028  1.00  0.00    -0.347 N 
ATOM      3  O   UNL     1      -2.493   6.336   7.371  1.00  0.00    -0.273 OA
ATOM      4  C   UNL     1      -1.646   5.855   8.115  1.00  0.00     0.243 C 
ATOM      5  H   UNL     1      -0.336   6.090   9.664  1.00  0.00     0.164 HD
BRANCH   4   6
ATOM      6  C   UNL     1      -1.404   4.328   8.232  1.00  0.00     0.171 C 
BRANCH   6   7
ATOM      7  N   UNL     1      -2.363   3.726   9.172  1.00  0.00    -0.344 N 
ATOM      8  C   UNL     1      -2.128   3.753  10.529  1.00  0.00     0.226 C 
ATOM      9  O   UNL     1      -1.119   4.250  11.015  1.00  0.00    -0.275 OA
ATOM     10  H   UNL     1      -3.175   3.246   8.804  1.00  0.00     0.164 HD
BRANCH   8  11
ATOM     11  C   UNL     1      -3.235   3.139  11.368  1.00  0.00     0.109 C 
ATOM     12  C   UNL     1      -3.988   4.233  12.127  1.00  0.00     0.021 C 
BRANCH  11  13
ATOM     13  C   UNL     1      -4.120   2.237  10.485  1.00  0.00     0.204 C 
BRANCH  13  14
ATOM     14  N   UNL     1      -4.177   0.860  10.985  1.00  0.00    -0.340 N 
ATOM     15  C   UNL     1      -4.166   0.551  12.327  1.00  0.00     0.243 C 
ATOM     16  O   UNL     1      -4.169   1.413  13.204  1.00  0.00    -0.273 OA
ATOM     17  H   UNL     1      -4.023   0.100  10.317  1.00  0.00     0.164 HD
BRANCH  15  18
ATOM     18  C   UNL     1      -4.022  -0.965  12.612  1.00  0.00     0.171 C 
BRANCH  18  19
ATOM     19  N   UNL     1      -5.203  -1.361  13.376  1.00  0.00    -0.343 N 
ATOM     20  C   UNL     1      -6.467  -1.358  12.818  1.00  0.00     0.242 CG0
ATOM     21  O   UNL     1      -6.675  -0.897  11.699  1.00  0.00    -0.273 OA
ATOM     22  H   UNL     1      -5.097  -1.641  14.345  1.00  0.00     0.164 HD
ATOM     23  G   UNL     1      -7.576  -1.883  13.753  1.00  0.00     0.000 G0
ENDBRANCH  18  19
BRANCH  18  24
ATOM     24  C   UNL     1      -3.910  -1.753  11.301  1.00  0.00     0.038 C 
BRANCH  24  25
ATOM     25  C   UNL     1      -2.670  -2.668  11.203  1.00  0.00    -0.015 C 
ATOM     26  C   UNL     1      -1.554  -2.052  10.359  1.00  0.00     0.007 C 
ATOM     27  C   UNL     1      -3.074  -4.021  10.614  1.00  0.00     0.007 C 
ENDBRANCH  24  25
ENDBRANCH  18  24
ENDBRANCH  15  18
ENDBRANCH  13  14
BRANCH  13  28
ATOM     28  C   UNL     1      -5.563   2.737  10.366  1.00  0.00     0.327 C 
ATOM     29  O   UNL     1      -6.533   2.290  10.958  1.00  0.00    -0.250 OA
BRANCH  28  30
ATOM     30  O   UNL     1      -5.718   3.688   9.422  1.00  0.00    -0.480 OA
ATOM     31  H   UNL     1      -5.498   4.523   9.884  1.00  0.00     0.296 HD
ENDBRANCH  28  30
ENDBRANCH  13  28
ENDBRANCH  11  13
ENDBRANCH   8  11
ENDBRANCH   6   7
BRANCH   6  32
ATOM     32  C   UNL     1      -1.525   3.692   6.843  1.00  0.00     0.037 C 
BRANCH  32  33
ATOM     33  C   UNL     1      -2.350   2.398   6.869  1.00  0.00     0.026 C 
BRANCH  33  34
ATOM     34  C   UNL     1      -3.649   2.516   6.070  1.00  0.00     0.146 C 
BRANCH  34  35
ATOM     35  N   UNL     1      -4.548   3.424   6.768  1.00  0.00    -0.254 NA
ATOM     36  C   UNL     1      -4.884   4.518   6.192  1.00  0.00     0.185 C 
ATOM     37  N   UNL     1      -5.716   5.361   6.824  1.00  0.00    -0.370 N 
ATOM     38  N   UNL     1      -4.516   4.986   4.986  1.00  0.00    -0.370 N 
ATOM     39  H   UNL     1      -6.047   5.074   7.736  1.00  0.00     0.159 HD
ATOM     40  H   UNL     1      -6.160   6.144   6.376  1.00  0.00     0.159 HD
ATOM     41  H   UNL     1      -4.737   5.926   4.702  1.00  0.00     0.159 HD
ATOM     42  H   UNL     1      -3.879   4.463   4.406  1.00  0.00     0.159 HD
ENDBRANCH  34  35
ENDBRANCH  33  34
ENDBRANCH  32  33
ENDBRANCH   6  32
ENDBRANCH   4   6
ENDBRANCH   1   2
BRANCH   1  43
ATOM     43  C   UNL     1       0.485   8.572   8.658  1.00  0.00     0.102 C 
ATOM     44  C   UNL     1       0.487  10.014   8.124  1.00  0.00     0.020 C 
BRANCH  43  45
ATOM     45  C   UNL     1       1.183   7.567   7.736  1.00  0.00     0.225 C 
ATOM     46  O   UNL     1       1.974   6.721   8.143  1.00  0.00    -0.275 OA
ATOM     47  N   UNL     1       0.941   7.729   6.392  1.00  0.00    -0.342 N 
ATOM     48  H   UNL     1       0.181   8.321   6.088  1.00  0.00     0.164 HD
BRANCH  47  49
ATOM     49  C   UNL     1       1.513   6.819   5.395  1.00  0.00     0.192 C 
BRANCH  49  50
ATOM     50  C   UNL     1       2.458   7.594   4.473  1.00  0.00     0.047 C 
BRANCH  50  51
ATOM     51  C   UNL     1       1.773   8.801   3.819  1.00  0.00     0.103 C 
BRANCH  51  52
ATOM     52  C   UNL     1       1.396   8.529   2.364  1.00  0.00     0.226 C 
ATOM     53  O   UNL     1       0.283   8.859   1.950  1.00  0.00    -0.275 OA
BRANCH  52  54
ATOM     54  N   UNL     1       2.400   7.971   1.551  1.00  0.00    -0.311 N 
ATOM     55  C   UNL     1       2.365   6.553   1.171  1.00  0.00     0.153 C 
BRANCH  54  56
ATOM     56  C   UNL     1       3.467   8.748   1.068  1.00  0.00     0.102 C 
ATOM     57  C   UNL     1       3.430   9.496  -0.046  1.00  0.00     0.043 C 
BRANCH  56  58
ATOM     58  C   UNL     1       4.770   8.832   1.828  1.00  0.00     0.268 C 
ATOM     59  O   UNL     1       5.441   7.851   2.117  1.00  0.00    -0.268 OA
ATOM     60  N   UNL     1       5.154  10.123   2.101  1.00  0.00    -0.339 N 
ATOM     61  H   UNL     1       4.535  10.881   1.837  1.00  0.00     0.164 HD
BRANCH  60  62
ATOM     62  C   UNL     1       6.414  10.436   2.773  1.00  0.00     0.168 CG0
ATOM     63  C   UNL     1       6.170  10.909   4.201  1.00  0.00     0.041 C 
ATOM     64  G   UNL     1       7.178  11.506   1.967  1.00  0.00     0.000 G0
ENDBRANCH  60  62
ENDBRANCH  56  58
ENDBRANCH  54  56
ENDBRANCH  52  54
ENDBRANCH  51  52
ENDBRANCH  50  51
ENDBRANCH  49  50
BRANCH  49  65
ATOM     65  C   UNL     1       0.421   6.143   4.552  1.00  0.00     0.326 C 
ATOM     66  O   UNL     1       0.614   5.361   3.632  1.00  0.00    -0.250 OA
BRANCH  65  67
ATOM     67  O   UNL     1      -0.841   6.520   4.856  1.00  0.00    -0.480 OA
ATOM     68  H   UNL     1      -1.391   5.776   4.527  1.00  0.00     0.296 HD
ENDBRANCH  65  67
ENDBRANCH  49  65
ENDBRANCH  47  49
ENDBRANCH  43  45
ENDBRANCH   1  43
BRANCH   1  69
ATOM     69  C   UNL     1      -1.478   8.452  10.430  1.00  0.00    -0.001 C 
ATOM     70  C   UNL     1      -1.472   7.713  11.553  1.00  0.00     0.001 C 
BRANCH  70  71
ATOM     71  C   UNL     1      -1.988   8.105  12.866  1.00  0.00    -0.055 C 
ATOM     72  C   UNL     1      -3.305   7.931  13.101  1.00  0.00    -0.018 C 
ATOM     73  C   UNL     1      -1.010   8.666  13.865  1.00  0.00     0.044 C 
BRANCH  72  74
ATOM     74  C   UNL     1      -4.109   8.240  14.356  1.00  0.00     0.038 C 
ATOM     75  C   UNL     1      -4.517   6.898  14.975  1.00  0.00     0.015 C 
BRANCH  74  76
ATOM     76  C   UNL     1      -5.298   9.170  13.972  1.00  0.00     0.128 C 
BRANCH  76  77
ATOM     77  O   UNL     1      -6.407   8.939  14.858  1.00  0.00    -0.381 OA
ATOM     78  C   UNL     1      -7.643   8.741  14.185  1.00  0.00     0.195 C 
ENDBRANCH  76  77
BRANCH  76  79
ATOM     79  C   UNL     1      -4.917  10.668  13.867  1.00  0.00     0.068 C 
BRANCH  79  80
ATOM     80  C   UNL     1      -4.117  11.111  12.666  1.00  0.00    -0.045 A 
ATOM     81  C   UNL     1      -4.596  10.909  11.365  1.00  0.00     0.004 A 
ATOM     82  C   UNL     1      -2.859  11.710  12.835  1.00  0.00     0.004 A 
ATOM     83  C   UNL     1      -3.843  11.309  10.258  1.00  0.00     0.000 A 
ATOM     84  C   UNL     1      -2.107  12.109  11.728  1.00  0.00     0.000 A 
ATOM     85  C   UNL     1      -2.600  11.910  10.441  1.00  0.00     0.000 A 
ENDBRANCH  79  80
ENDBRANCH  76  79
ENDBRANCH  74  76
ENDBRANCH  72  74
ENDBRANCH  70  71
ENDBRANCH   1  69
TORSDOF 17
ENDMDL
MODEL 39
REMARK VINA RESULT:    -6.268      3.853     11.343
REMARK INTER + INTRA:         -25.955
REMARK INTER:                 -17.608
REMARK INTRA:                  -8.347
REMARK UNBOUND:                -7.229
REMARK SMILES C=C1C(=O)N[C@H](C)C(=O)N[C@@H](CC(C)C)C(=O)N[C@@H](C(=O)O)[C@H](C)C(=O)N[C@@H](CCCN=C(N)N)C(=O)N[C@@H](/C=C/C(C)=C/[C@H](C)[C@H](Cc2ccccc2)OC)[C@H](C)C(=O)N[C@@H](C(=O)O)CCC(=O)N1C
REMARK SMILES IDX 39 1 38 2 37 3 36 4 28 6 27 7 25 8 26 9 23 11 24 12 19 13
REMARK SMILES IDX 18 14 16 15 17 16 11 18 10 19 8 20 9 21 12 24 13 25 14 26
REMARK SMILES IDX 15 27 20 28 21 29 22 30 29 32 30 33 31 34 32 35 33 36 34 37
REMARK SMILES IDX 35 38 57 43 58 44 59 45 60 46 61 47 62 49 66 50 67 51 68 52
REMARK SMILES IDX 69 53 70 54 71 55 2 56 1 57 3 58 4 59 5 60 6 62 7 63 63 65
REMARK SMILES IDX 64 66 65 67 40 69 41 70 42 71 44 72 43 73 45 74 46 75 47 76
REMARK SMILES IDX 55 77 56 78 48 79 49 80 50 81 54 82 51 83 53 84 52 85
REMARK H PARENT 38 5 27 10 18 17 10 22 22 31 34 39 34 40 35 41 35 42 61 48
REMARK H PARENT 5 61 65 68
REMARK Flexibility Score:  369.900
ROOT
ATOM      1  C   UNL     1      -3.458   3.530  11.203  1.00  0.00     0.117 C 
ENDROOT
BRANCH   1   2
ATOM      2  N   UNL     1      -2.566   4.040  10.161  1.00  0.00    -0.347 N 
ATOM      3  O   UNL     1      -1.042   2.323  10.187  1.00  0.00    -0.273 OA
ATOM      4  C   UNL     1      -1.475   3.348   9.671  1.00  0.00     0.243 C 
ATOM      5  H   UNL     1      -2.769   4.927   9.726  1.00  0.00     0.164 HD
BRANCH   4   6
ATOM      6  C   UNL     1      -0.747   4.073   8.510  1.00  0.00     0.171 C 
BRANCH   6   7
ATOM      7  N   UNL     1      -1.221   5.462   8.394  1.00  0.00    -0.344 N 
ATOM      8  C   UNL     1      -1.391   6.045   7.157  1.00  0.00     0.226 C 
ATOM      9  O   UNL     1      -1.140   5.459   6.111  1.00  0.00    -0.275 OA
ATOM     10  H   UNL     1      -1.374   6.000   9.237  1.00  0.00     0.164 HD
BRANCH   8  11
ATOM     11  C   UNL     1      -1.937   7.461   7.203  1.00  0.00     0.109 C 
ATOM     12  C   UNL     1      -3.271   7.487   7.948  1.00  0.00     0.021 C 
BRANCH  11  13
ATOM     13  C   UNL     1      -0.864   8.416   7.763  1.00  0.00     0.204 C 
BRANCH  13  14
ATOM     14  N   UNL     1       0.452   8.182   7.159  1.00  0.00    -0.340 N 
ATOM     15  C   UNL     1       1.605   8.056   7.902  1.00  0.00     0.243 C 
ATOM     16  O   UNL     1       1.603   8.071   9.132  1.00  0.00    -0.273 OA
ATOM     17  H   UNL     1       0.546   8.311   6.148  1.00  0.00     0.164 HD
BRANCH  15  18
ATOM     18  C   UNL     1       2.894   8.025   7.045  1.00  0.00     0.171 C 
BRANCH  18  19
ATOM     19  N   UNL     1       3.370   9.403   6.953  1.00  0.00    -0.343 N 
ATOM     20  C   UNL     1       3.287  10.127   5.779  1.00  0.00     0.242 CG0
ATOM     21  O   UNL     1       2.933   9.604   4.725  1.00  0.00    -0.273 OA
ATOM     22  H   UNL     1       3.779   9.844   7.770  1.00  0.00     0.164 HD
ATOM     23  G   UNL     1       3.766  11.588   5.896  1.00  0.00     0.000 G0
ENDBRANCH  18  19
BRANCH  18  24
ATOM     24  C   UNL     1       3.946   7.108   7.682  1.00  0.00     0.038 C 
BRANCH  24  25
ATOM     25  C   UNL     1       4.341   5.887   6.824  1.00  0.00    -0.015 C 
ATOM     26  C   UNL     1       5.533   5.126   7.404  1.00  0.00     0.007 C 
ATOM     27  C   UNL     1       4.664   6.342   5.399  1.00  0.00     0.007 C 
ENDBRANCH  24  25
ENDBRANCH  18  24
ENDBRANCH  15  18
ENDBRANCH  13  14
BRANCH  13  28
ATOM     28  C   UNL     1      -1.203   9.895   7.553  1.00  0.00     0.327 C 
ATOM     29  O   UNL     1      -1.024  10.540   6.531  1.00  0.00    -0.250 OA
BRANCH  28  30
ATOM     30  O   UNL     1      -1.635  10.502   8.676  1.00  0.00    -0.480 OA
ATOM     31  H   UNL     1      -2.612  10.485   8.599  1.00  0.00     0.296 HD
ENDBRANCH  28  30
ENDBRANCH  13  28
ENDBRANCH  11  13
ENDBRANCH   8  11
ENDBRANCH   6   7
BRANCH   6  32
ATOM     32  C   UNL     1       0.765   4.030   8.758  1.00  0.00     0.037 C 
BRANCH  32  33
ATOM     33  C   UNL     1       1.539   3.531   7.530  1.00  0.00     0.026 C 
BRANCH  33  34
ATOM     34  C   UNL     1       1.851   2.036   7.602  1.00  0.00     0.146 C 
BRANCH  34  35
ATOM     35  N   UNL     1       2.751   1.797   8.722  1.00  0.00    -0.254 NA
ATOM     36  C   UNL     1       2.422   0.924   9.600  1.00  0.00     0.185 C 
ATOM     37  N   UNL     1       3.247   0.693  10.633  1.00  0.00    -0.370 N 
ATOM     38  N   UNL     1       1.320   0.156   9.655  1.00  0.00    -0.370 N 
ATOM     39  H   UNL     1       4.106   1.227  10.656  1.00  0.00     0.159 HD
ATOM     40  H   UNL     1       3.148  -0.087  11.259  1.00  0.00     0.159 HD
ATOM     41  H   UNL     1       1.109  -0.394  10.472  1.00  0.00     0.159 HD
ATOM     42  H   UNL     1       0.603   0.236   8.950  1.00  0.00     0.159 HD
ENDBRANCH  34  35
ENDBRANCH  33  34
ENDBRANCH  32  33
ENDBRANCH   6  32
ENDBRANCH   4   6
ENDBRANCH   1   2
BRANCH   1  43
ATOM     43  C   UNL     1      -4.631   2.769  10.521  1.00  0.00     0.102 C 
ATOM     44  C   UNL     1      -5.382   3.612   9.476  1.00  0.00     0.020 C 
BRANCH  43  45
ATOM     45  C   UNL     1      -5.543   2.117  11.564  1.00  0.00     0.225 C 
ATOM     46  O   UNL     1      -6.686   2.505  11.793  1.00  0.00    -0.275 OA
ATOM     47  N   UNL     1      -4.968   1.112  12.309  1.00  0.00    -0.342 N 
ATOM     48  H   UNL     1      -4.092   0.707  12.010  1.00  0.00     0.164 HD
BRANCH  47  49
ATOM     49  C   UNL     1      -5.732   0.374  13.319  1.00  0.00     0.192 C 
BRANCH  49  50
ATOM     50  C   UNL     1      -4.888   0.212  14.586  1.00  0.00     0.047 C 
BRANCH  50  51
ATOM     51  C   UNL     1      -3.382   0.277  14.294  1.00  0.00     0.103 C 
BRANCH  51  52
ATOM     52  C   UNL     1      -2.691  -1.062  14.547  1.00  0.00     0.226 C 
ATOM     53  O   UNL     1      -3.218  -1.889  15.293  1.00  0.00    -0.275 OA
BRANCH  52  54
ATOM     54  N   UNL     1      -1.502  -1.298  13.833  1.00  0.00    -0.311 N 
ATOM     55  C   UNL     1      -1.251  -0.642  12.543  1.00  0.00     0.153 C 
BRANCH  54  56
ATOM     56  C   UNL     1      -0.510  -2.161  14.327  1.00  0.00     0.102 C 
ATOM     57  C   UNL     1       0.567  -1.773  15.030  1.00  0.00     0.043 C 
BRANCH  56  58
ATOM     58  C   UNL     1      -0.615  -3.655  14.131  1.00  0.00     0.268 C 
ATOM     59  O   UNL     1      -0.104  -4.245  13.189  1.00  0.00    -0.268 OA
ATOM     60  N   UNL     1      -1.286  -4.288  15.151  1.00  0.00    -0.339 N 
ATOM     61  H   UNL     1      -1.690  -3.726  15.891  1.00  0.00     0.164 HD
BRANCH  60  62
ATOM     62  C   UNL     1      -1.449  -5.740  15.193  1.00  0.00     0.168 CG0
ATOM     63  C   UNL     1      -2.923  -6.126  15.181  1.00  0.00     0.041 C 
ATOM     64  G   UNL     1      -0.747  -6.303  16.446  1.00  0.00     0.000 G0
ENDBRANCH  60  62
ENDBRANCH  56  58
ENDBRANCH  54  56
ENDBRANCH  52  54
ENDBRANCH  51  52
ENDBRANCH  50  51
ENDBRANCH  49  50
BRANCH  49  65
ATOM     65  C   UNL     1      -6.155  -1.013  12.808  1.00  0.00     0.326 C 
ATOM     66  O   UNL     1      -6.768  -1.232  11.774  1.00  0.00    -0.250 OA
BRANCH  65  67
ATOM     67  O   UNL     1      -5.847  -2.036  13.635  1.00  0.00    -0.480 OA
ATOM     68  H   UNL     1      -5.359  -2.662  13.057  1.00  0.00     0.296 HD
ENDBRANCH  65  67
ENDBRANCH  49  65
ENDBRANCH  47  49
ENDBRANCH  43  45
ENDBRANCH   1  43
BRANCH   1  69
ATOM     69  C   UNL     1      -3.774   4.710  12.105  1.00  0.00    -0.001 C 
ATOM     70  C   UNL     1      -3.761   4.737  13.449  1.00  0.00     0.001 C 
BRANCH  70  71
ATOM     71  C   UNL     1      -4.047   5.887  14.309  1.00  0.00    -0.055 C 
ATOM     72  C   UNL     1      -5.143   6.623  14.029  1.00  0.00    -0.018 C 
ATOM     73  C   UNL     1      -3.102   6.164  15.449  1.00  0.00     0.044 C 
BRANCH  72  74
ATOM     74  C   UNL     1      -5.685   7.854  14.740  1.00  0.00     0.038 C 
ATOM     75  C   UNL     1      -7.018   7.455  15.384  1.00  0.00     0.015 C 
BRANCH  74  76
ATOM     76  C   UNL     1      -5.778   9.024  13.716  1.00  0.00     0.128 C 
BRANCH  76  77
ATOM     77  O   UNL     1      -6.949   9.814  13.979  1.00  0.00    -0.381 OA
ATOM     78  C   UNL     1      -6.721  11.215  13.907  1.00  0.00     0.195 C 
ENDBRANCH  76  77
BRANCH  76  79
ATOM     79  C   UNL     1      -4.488   9.878  13.617  1.00  0.00     0.068 C 
BRANCH  79  80
ATOM     80  C   UNL     1      -3.244   9.219  13.072  1.00  0.00    -0.045 A 
ATOM     81  C   UNL     1      -2.047   9.224  13.800  1.00  0.00     0.004 A 
ATOM     82  C   UNL     1      -3.262   8.612  11.808  1.00  0.00     0.004 A 
ATOM     83  C   UNL     1      -0.897   8.625  13.282  1.00  0.00     0.000 A 
ATOM     84  C   UNL     1      -2.111   8.013  11.291  1.00  0.00     0.000 A 
ATOM     85  C   UNL     1      -0.929   8.018  12.029  1.00  0.00     0.000 A 
ENDBRANCH  79  80
ENDBRANCH  76  79
ENDBRANCH  74  76
ENDBRANCH  72  74
ENDBRANCH  70  71
ENDBRANCH   1  69
TORSDOF 17
ENDMDL
MODEL 40
REMARK VINA RESULT:    -6.244      3.026     11.390
REMARK INTER + INTRA:         -25.885
REMARK INTER:                 -18.748
REMARK INTRA:                  -7.137
REMARK UNBOUND:                -7.229
REMARK SMILES C=C1C(=O)N[C@H](C)C(=O)N[C@@H](CC(C)C)C(=O)N[C@@H](C(=O)O)[C@H](C)C(=O)N[C@@H](CCCN=C(N)N)C(=O)N[C@@H](/C=C/C(C)=C/[C@H](C)[C@H](Cc2ccccc2)OC)[C@H](C)C(=O)N[C@@H](C(=O)O)CCC(=O)N1C
REMARK SMILES IDX 39 1 38 2 37 3 36 4 28 6 27 7 25 8 26 9 23 11 24 12 19 13
REMARK SMILES IDX 18 14 16 15 17 16 11 18 10 19 8 20 9 21 12 24 13 25 14 26
REMARK SMILES IDX 15 27 20 28 21 29 22 30 29 32 30 33 31 34 32 35 33 36 34 37
REMARK SMILES IDX 35 38 57 43 58 44 59 45 60 46 61 47 62 49 66 50 67 51 68 52
REMARK SMILES IDX 69 53 70 54 71 55 2 56 1 57 3 58 4 59 5 60 6 62 7 63 63 65
REMARK SMILES IDX 64 66 65 67 40 69 41 70 42 71 44 72 43 73 45 74 46 75 47 76
REMARK SMILES IDX 55 77 56 78 48 79 49 80 50 81 54 82 51 83 53 84 52 85
REMARK H PARENT 38 5 27 10 18 17 10 22 22 31 34 39 34 40 35 41 35 42 61 48
REMARK H PARENT 5 61 65 68
REMARK Flexibility Score:  369.900
ROOT
ATOM      1  C   UNL     1      -1.029   6.326   9.522  1.00  0.00     0.117 C 
ENDROOT
BRANCH   1   2
ATOM      2  N   UNL     1      -0.605   7.265   8.482  1.00  0.00    -0.347 N 
ATOM      3  O   UNL     1       1.653   6.871   8.607  1.00  0.00    -0.273 OA
ATOM      4  C   UNL     1       0.698   7.395   8.043  1.00  0.00     0.243 C 
ATOM      5  H   UNL     1      -1.298   7.825   8.010  1.00  0.00     0.164 HD
BRANCH   4   6
ATOM      6  C   UNL     1       0.864   8.398   6.873  1.00  0.00     0.171 C 
BRANCH   6   7
ATOM      7  N   UNL     1       0.877   7.687   5.585  1.00  0.00    -0.344 N 
ATOM      8  C   UNL     1       2.017   7.654   4.811  1.00  0.00     0.226 C 
ATOM      9  O   UNL     1       3.052   8.222   5.136  1.00  0.00    -0.275 OA
ATOM     10  H   UNL     1       0.021   7.262   5.250  1.00  0.00     0.164 HD
BRANCH   8  11
ATOM     11  C   UNL     1       1.885   6.835   3.538  1.00  0.00     0.109 C 
ATOM     12  C   UNL     1       0.526   6.137   3.500  1.00  0.00     0.021 C 
BRANCH  11  13
ATOM     13  C   UNL     1       2.195   7.720   2.315  1.00  0.00     0.204 C 
BRANCH  13  14
ATOM     14  N   UNL     1       3.137   7.078   1.393  1.00  0.00    -0.340 N 
ATOM     15  C   UNL     1       4.449   7.481   1.263  1.00  0.00     0.243 C 
ATOM     16  O   UNL     1       4.938   8.371   1.956  1.00  0.00    -0.273 OA
ATOM     17  H   UNL     1       2.760   6.441   0.687  1.00  0.00     0.164 HD
BRANCH  15  18
ATOM     18  C   UNL     1       5.191   6.799   0.088  1.00  0.00     0.171 C 
BRANCH  18  19
ATOM     19  N   UNL     1       5.929   7.851  -0.608  1.00  0.00    -0.343 N 
ATOM     20  C   UNL     1       5.611   8.235  -1.896  1.00  0.00     0.242 CG0
ATOM     21  O   UNL     1       4.782   7.621  -2.564  1.00  0.00    -0.273 OA
ATOM     22  H   UNL     1       6.701   8.311  -0.139  1.00  0.00     0.164 HD
ATOM     23  G   UNL     1       6.448   9.414  -2.435  1.00  0.00     0.000 G0
ENDBRANCH  18  19
BRANCH  18  24
ATOM     24  C   UNL     1       6.130   5.702   0.604  1.00  0.00     0.038 C 
BRANCH  24  25
ATOM     25  C   UNL     1       5.866   4.299   0.016  1.00  0.00    -0.015 C 
ATOM     26  C   UNL     1       5.934   4.282  -1.511  1.00  0.00     0.007 C 
ATOM     27  C   UNL     1       4.495   3.797   0.477  1.00  0.00     0.007 C 
ENDBRANCH  24  25
ENDBRANCH  18  24
ENDBRANCH  15  18
ENDBRANCH  13  14
BRANCH  13  28
ATOM     28  C   UNL     1       0.948   8.088   1.505  1.00  0.00     0.327 C 
ATOM     29  O   UNL     1       0.585   7.569   0.461  1.00  0.00    -0.250 OA
BRANCH  28  30
ATOM     30  O   UNL     1       0.298   9.164   1.994  1.00  0.00    -0.480 OA
ATOM     31  H   UNL     1       1.014   9.789   2.233  1.00  0.00     0.296 HD
ENDBRANCH  28  30
ENDBRANCH  13  28
ENDBRANCH  11  13
ENDBRANCH   8  11
ENDBRANCH   6   7
BRANCH   6  32
ATOM     32  C   UNL     1      -0.275   9.422   6.922  1.00  0.00     0.037 C 
BRANCH  32  33
ATOM     33  C   UNL     1       0.245  10.860   7.062  1.00  0.00     0.026 C 
BRANCH  33  34
ATOM     34  C   UNL     1       1.685  10.915   7.572  1.00  0.00     0.146 C 
BRANCH  34  35
ATOM     35  N   UNL     1       1.675  11.361   8.959  1.00  0.00    -0.254 NA
ATOM     36  C   UNL     1       2.269  10.644   9.839  1.00  0.00     0.185 C 
ATOM     37  N   UNL     1       2.270  11.048  11.119  1.00  0.00    -0.370 N 
ATOM     38  N   UNL     1       2.930   9.484   9.678  1.00  0.00    -0.370 N 
ATOM     39  H   UNL     1       1.800  11.921  11.319  1.00  0.00     0.159 HD
ATOM     40  H   UNL     1       2.853  10.641  11.830  1.00  0.00     0.159 HD
ATOM     41  H   UNL     1       3.234   8.944  10.471  1.00  0.00     0.159 HD
ATOM     42  H   UNL     1       2.995   9.053   8.769  1.00  0.00     0.159 HD
ENDBRANCH  34  35
ENDBRANCH  33  34
ENDBRANCH  32  33
ENDBRANCH   6  32
ENDBRANCH   4   6
ENDBRANCH   1   2
BRANCH   1  43
ATOM     43  C   UNL     1      -2.003   5.292   8.888  1.00  0.00     0.102 C 
ATOM     44  C   UNL     1      -3.255   5.932   8.265  1.00  0.00     0.020 C 
BRANCH  43  45
ATOM     45  C   UNL     1      -2.309   4.153   9.866  1.00  0.00     0.225 C 
ATOM     46  O   UNL     1      -1.532   3.228  10.082  1.00  0.00    -0.275 OA
ATOM     47  N   UNL     1      -3.565   4.177  10.428  1.00  0.00    -0.342 N 
ATOM     48  H   UNL     1      -4.127   5.013  10.361  1.00  0.00     0.164 HD
BRANCH  47  49
ATOM     49  C   UNL     1      -3.984   3.171  11.409  1.00  0.00     0.192 C 
BRANCH  49  50
ATOM     50  C   UNL     1      -5.402   2.694  11.083  1.00  0.00     0.047 C 
BRANCH  50  51
ATOM     51  C   UNL     1      -6.135   2.160  12.321  1.00  0.00     0.103 C 
BRANCH  51  52
ATOM     52  C   UNL     1      -6.113   0.634  12.386  1.00  0.00     0.226 C 
ATOM     53  O   UNL     1      -6.902  -0.017  11.699  1.00  0.00    -0.275 OA
BRANCH  52  54
ATOM     54  N   UNL     1      -5.116   0.055  13.193  1.00  0.00    -0.311 N 
ATOM     55  C   UNL     1      -5.320  -0.123  14.637  1.00  0.00     0.153 C 
BRANCH  54  56
ATOM     56  C   UNL     1      -3.894  -0.378  12.650  1.00  0.00     0.102 C 
ATOM     57  C   UNL     1      -3.683  -0.647  11.352  1.00  0.00     0.043 C 
BRANCH  56  58
ATOM     58  C   UNL     1      -2.670  -0.532  13.522  1.00  0.00     0.268 C 
ATOM     59  O   UNL     1      -2.028   0.418  13.949  1.00  0.00    -0.268 OA
ATOM     60  N   UNL     1      -2.395  -1.841  13.839  1.00  0.00    -0.339 N 
ATOM     61  H   UNL     1      -2.970  -2.571  13.436  1.00  0.00     0.164 HD
BRANCH  60  62
ATOM     62  C   UNL     1      -1.291  -2.213  14.723  1.00  0.00     0.168 CG0
ATOM     63  C   UNL     1      -0.058  -2.610  13.921  1.00  0.00     0.041 C 
ATOM     64  G   UNL     1      -1.735  -3.364  15.648  1.00  0.00     0.000 G0
ENDBRANCH  60  62
ENDBRANCH  56  58
ENDBRANCH  54  56
ENDBRANCH  52  54
ENDBRANCH  51  52
ENDBRANCH  50  51
ENDBRANCH  49  50
BRANCH  49  65
ATOM     65  C   UNL     1      -3.950   3.727  12.841  1.00  0.00     0.326 C 
ATOM     66  O   UNL     1      -4.509   4.745  13.221  1.00  0.00    -0.250 OA
BRANCH  65  67
ATOM     67  O   UNL     1      -3.179   3.025  13.700  1.00  0.00    -0.480 OA
ATOM     68  H   UNL     1      -3.820   2.681  14.358  1.00  0.00     0.296 HD
ENDBRANCH  65  67
ENDBRANCH  49  65
ENDBRANCH  47  49
ENDBRANCH  43  45
ENDBRANCH   1  43
BRANCH   1  69
ATOM     69  C   UNL     1      -1.514   7.173  10.685  1.00  0.00    -0.001 C 
ATOM     70  C   UNL     1      -1.374   6.915  11.997  1.00  0.00     0.001 C 
BRANCH  70  71
ATOM     71  C   UNL     1      -1.827   7.750  13.111  1.00  0.00    -0.055 C 
ATOM     72  C   UNL     1      -3.157   7.873  13.303  1.00  0.00    -0.018 C 
ATOM     73  C   UNL     1      -0.777   8.407  13.969  1.00  0.00     0.044 C 
BRANCH  72  74
ATOM     74  C   UNL     1      -3.908   8.661  14.367  1.00  0.00     0.038 C 
ATOM     75  C   UNL     1      -4.344   7.663  15.447  1.00  0.00     0.015 C 
BRANCH  74  76
ATOM     76  C   UNL     1      -5.074   9.436  13.685  1.00  0.00     0.128 C 
BRANCH  76  77
ATOM     77  O   UNL     1      -6.255   9.365  14.503  1.00  0.00    -0.381 OA
ATOM     78  C   UNL     1      -7.464   9.315  13.757  1.00  0.00     0.195 C 
ENDBRANCH  76  77
BRANCH  76  79
ATOM     79  C   UNL     1      -4.713  10.887  13.279  1.00  0.00     0.068 C 
BRANCH  79  80
ATOM     80  C   UNL     1      -3.639  11.083  12.236  1.00  0.00    -0.045 A 
ATOM     81  C   UNL     1      -3.896  10.838  10.881  1.00  0.00     0.004 A 
ATOM     82  C   UNL     1      -2.351  11.489  12.616  1.00  0.00     0.004 A 
ATOM     83  C   UNL     1      -2.893  11.008   9.924  1.00  0.00     0.000 A 
ATOM     84  C   UNL     1      -1.348  11.658  11.658  1.00  0.00     0.000 A 
ATOM     85  C   UNL     1      -1.620  11.419  10.313  1.00  0.00     0.000 A 
ENDBRANCH  79  80
ENDBRANCH  76  79
ENDBRANCH  74  76
ENDBRANCH  72  74
ENDBRANCH  70  71
ENDBRANCH   1  69
TORSDOF 17
ENDMDL
MODEL 41
REMARK VINA RESULT:    -6.228      2.356     11.524
REMARK INTER + INTRA:         -25.836
REMARK INTER:                 -19.570
REMARK INTRA:                  -6.267
REMARK UNBOUND:                -7.229
REMARK SMILES C=C1C(=O)N[C@H](C)C(=O)N[C@@H](CC(C)C)C(=O)N[C@@H](C(=O)O)[C@H](C)C(=O)N[C@@H](CCCN=C(N)N)C(=O)N[C@@H](/C=C/C(C)=C/[C@H](C)[C@H](Cc2ccccc2)OC)[C@H](C)C(=O)N[C@@H](C(=O)O)CCC(=O)N1C
REMARK SMILES IDX 39 1 38 2 37 3 36 4 28 6 27 7 25 8 26 9 23 11 24 12 19 13
REMARK SMILES IDX 18 14 16 15 17 16 11 18 10 19 8 20 9 21 12 24 13 25 14 26
REMARK SMILES IDX 15 27 20 28 21 29 22 30 29 32 30 33 31 34 32 35 33 36 34 37
REMARK SMILES IDX 35 38 57 43 58 44 59 45 60 46 61 47 62 49 66 50 67 51 68 52
REMARK SMILES IDX 69 53 70 54 71 55 2 56 1 57 3 58 4 59 5 60 6 62 7 63 63 65
REMARK SMILES IDX 64 66 65 67 40 69 41 70 42 71 44 72 43 73 45 74 46 75 47 76
REMARK SMILES IDX 55 77 56 78 48 79 49 80 50 81 54 82 51 83 53 84 52 85
REMARK H PARENT 38 5 27 10 18 17 10 22 22 31 34 39 34 40 35 41 35 42 61 48
REMARK H PARENT 5 61 65 68
REMARK Flexibility Score:  369.900
ROOT
ATOM      1  C   UNL     1      -1.583   7.621   9.488  1.00  0.00     0.117 C 
ENDROOT
BRANCH   1   2
ATOM      2  N   UNL     1      -0.344   8.373   9.288  1.00  0.00    -0.347 N 
ATOM      3  O   UNL     1       0.931   6.660   8.447  1.00  0.00    -0.273 OA
ATOM      4  C   UNL     1       0.790   7.852   8.696  1.00  0.00     0.243 C 
ATOM      5  H   UNL     1      -0.310   9.348   9.546  1.00  0.00     0.164 HD
BRANCH   4   6
ATOM      6  C   UNL     1       1.934   8.884   8.526  1.00  0.00     0.171 C 
BRANCH   6   7
ATOM      7  N   UNL     1       2.287   9.031   7.105  1.00  0.00    -0.344 N 
ATOM      8  C   UNL     1       3.483   8.544   6.624  1.00  0.00     0.226 C 
ATOM      9  O   UNL     1       4.309   7.993   7.342  1.00  0.00    -0.275 OA
ATOM     10  H   UNL     1       1.661   9.539   6.494  1.00  0.00     0.164 HD
BRANCH   8  11
ATOM     11  C   UNL     1       3.676   8.724   5.128  1.00  0.00     0.109 C 
ATOM     12  C   UNL     1       2.327   8.964   4.449  1.00  0.00     0.021 C 
BRANCH  11  13
ATOM     13  C   UNL     1       4.736   9.812   4.867  1.00  0.00     0.204 C 
BRANCH  13  14
ATOM     14  N   UNL     1       5.069   9.927   3.444  1.00  0.00    -0.340 N 
ATOM     15  C   UNL     1       6.355  10.125   2.989  1.00  0.00     0.243 C 
ATOM     16  O   UNL     1       7.325  10.159   3.745  1.00  0.00    -0.273 OA
ATOM     17  H   UNL     1       4.302  10.060   2.780  1.00  0.00     0.164 HD
BRANCH  15  18
ATOM     18  C   UNL     1       6.437  10.424   1.472  1.00  0.00     0.171 C 
BRANCH  18  19
ATOM     19  N   UNL     1       7.857  10.491   1.134  1.00  0.00    -0.343 N 
ATOM     20  C   UNL     1       8.400  11.579   0.479  1.00  0.00     0.242 CG0
ATOM     21  O   UNL     1       7.693  12.480   0.033  1.00  0.00    -0.273 OA
ATOM     22  H   UNL     1       8.464   9.717   1.380  1.00  0.00     0.164 HD
ATOM     23  G   UNL     1       9.928  11.505   0.279  1.00  0.00     0.000 G0
ENDBRANCH  18  19
BRANCH  18  24
ATOM     24  C   UNL     1       5.718   9.334   0.667  1.00  0.00     0.038 C 
BRANCH  24  25
ATOM     25  C   UNL     1       4.757   9.864  -0.419  1.00  0.00    -0.015 C 
ATOM     26  C   UNL     1       3.296   9.529  -0.120  1.00  0.00     0.007 C 
ATOM     27  C   UNL     1       5.150   9.285  -1.781  1.00  0.00     0.007 C 
ENDBRANCH  24  25
ENDBRANCH  18  24
ENDBRANCH  15  18
ENDBRANCH  13  14
BRANCH  13  28
ATOM     28  C   UNL     1       4.306  11.202   5.346  1.00  0.00     0.327 C 
ATOM     29  O   UNL     1       3.171  11.547   5.638  1.00  0.00    -0.250 OA
BRANCH  28  30
ATOM     30  O   UNL     1       5.307  12.105   5.315  1.00  0.00    -0.480 OA
ATOM     31  H   UNL     1       5.168  12.647   6.119  1.00  0.00     0.296 HD
ENDBRANCH  28  30
ENDBRANCH  13  28
ENDBRANCH  11  13
ENDBRANCH   8  11
ENDBRANCH   6   7
BRANCH   6  32
ATOM     32  C   UNL     1       1.495  10.226   9.123  1.00  0.00     0.037 C 
BRANCH  32  33
ATOM     33  C   UNL     1       1.200  11.273   8.039  1.00  0.00     0.026 C 
BRANCH  33  34
ATOM     34  C   UNL     1      -0.297  11.436   7.776  1.00  0.00     0.146 C 
BRANCH  34  35
ATOM     35  N   UNL     1      -0.503  12.621   6.954  1.00  0.00    -0.254 NA
ATOM     36  C   UNL     1      -0.347  12.524   5.686  1.00  0.00     0.185 C 
ATOM     37  N   UNL     1      -0.539  13.608   4.919  1.00  0.00    -0.370 N 
ATOM     38  N   UNL     1      -0.003  11.447   4.957  1.00  0.00    -0.370 N 
ATOM     39  H   UNL     1      -0.812  14.459   5.395  1.00  0.00     0.159 HD
ATOM     40  H   UNL     1      -0.607  13.575   3.916  1.00  0.00     0.159 HD
ATOM     41  H   UNL     1       0.224  11.531   3.980  1.00  0.00     0.159 HD
ATOM     42  H   UNL     1       0.188  10.565   5.405  1.00  0.00     0.159 HD
ENDBRANCH  34  35
ENDBRANCH  33  34
ENDBRANCH  32  33
ENDBRANCH   6  32
ENDBRANCH   4   6
ENDBRANCH   1   2
BRANCH   1  43
ATOM     43  C   UNL     1      -2.443   7.732   8.196  1.00  0.00     0.102 C 
ATOM     44  C   UNL     1      -2.767   9.182   7.800  1.00  0.00     0.020 C 
BRANCH  43  45
ATOM     45  C   UNL     1      -3.672   6.820   8.274  1.00  0.00     0.225 C 
ATOM     46  O   UNL     1      -4.583   6.990   9.078  1.00  0.00    -0.275 OA
ATOM     47  N   UNL     1      -3.651   5.727   7.438  1.00  0.00    -0.342 N 
ATOM     48  H   UNL     1      -2.979   5.685   6.685  1.00  0.00     0.164 HD
BRANCH  47  49
ATOM     49  C   UNL     1      -4.775   4.787   7.378  1.00  0.00     0.192 C 
BRANCH  49  50
ATOM     50  C   UNL     1      -4.269   3.364   7.627  1.00  0.00     0.047 C 
BRANCH  50  51
ATOM     51  C   UNL     1      -3.512   3.239   8.956  1.00  0.00     0.103 C 
BRANCH  51  52
ATOM     52  C   UNL     1      -4.418   2.760  10.089  1.00  0.00     0.226 C 
ATOM     53  O   UNL     1      -5.628   2.634   9.891  1.00  0.00    -0.275 OA
BRANCH  52  54
ATOM     54  N   UNL     1      -3.782   2.414  11.296  1.00  0.00    -0.311 N 
ATOM     55  C   UNL     1      -2.653   1.474  11.313  1.00  0.00     0.153 C 
BRANCH  54  56
ATOM     56  C   UNL     1      -4.197   2.955  12.524  1.00  0.00     0.102 C 
ATOM     57  C   UNL     1      -3.818   4.151  13.003  1.00  0.00     0.043 C 
BRANCH  56  58
ATOM     58  C   UNL     1      -5.175   2.215  13.406  1.00  0.00     0.268 C 
ATOM     59  O   UNL     1      -6.364   2.103  13.141  1.00  0.00    -0.268 OA
ATOM     60  N   UNL     1      -4.581   1.628  14.498  1.00  0.00    -0.339 N 
ATOM     61  H   UNL     1      -3.591   1.778  14.652  1.00  0.00     0.164 HD
BRANCH  60  62
ATOM     62  C   UNL     1      -5.333   0.812  15.449  1.00  0.00     0.168 CG0
ATOM     63  C   UNL     1      -5.335  -0.653  15.030  1.00  0.00     0.041 C 
ATOM     64  G   UNL     1      -6.774   1.349  15.565  1.00  0.00     0.000 G0
ENDBRANCH  60  62
ENDBRANCH  56  58
ENDBRANCH  54  56
ENDBRANCH  52  54
ENDBRANCH  51  52
ENDBRANCH  50  51
ENDBRANCH  49  50
BRANCH  49  65
ATOM     65  C   UNL     1      -5.489   4.844   6.019  1.00  0.00     0.326 C 
ATOM     66  O   UNL     1      -4.977   4.599   4.936  1.00  0.00    -0.250 OA
BRANCH  65  67
ATOM     67  O   UNL     1      -6.775   5.257   6.074  1.00  0.00    -0.480 OA
ATOM     68  H   UNL     1      -7.021   5.122   7.014  1.00  0.00     0.296 HD
ENDBRANCH  65  67
ENDBRANCH  49  65
ENDBRANCH  47  49
ENDBRANCH  43  45
ENDBRANCH   1  43
BRANCH   1  69
ATOM     69  C   UNL     1      -2.167   8.106  10.802  1.00  0.00    -0.001 C 
ATOM     70  C   UNL     1      -2.332   7.398  11.934  1.00  0.00     0.001 C 
BRANCH  70  71
ATOM     71  C   UNL     1      -2.877   7.884  13.203  1.00  0.00    -0.055 C 
ATOM     72  C   UNL     1      -4.214   8.044  13.292  1.00  0.00    -0.018 C 
ATOM     73  C   UNL     1      -1.908   8.162  14.323  1.00  0.00     0.044 C 
BRANCH  72  74
ATOM     74  C   UNL     1      -5.051   8.523  14.469  1.00  0.00     0.038 C 
ATOM     75  C   UNL     1      -6.158   7.485  14.690  1.00  0.00     0.015 C 
BRANCH  74  76
ATOM     76  C   UNL     1      -5.558   9.965  14.170  1.00  0.00     0.128 C 
BRANCH  76  77
ATOM     77  O   UNL     1      -6.607  10.316  15.087  1.00  0.00    -0.381 OA
ATOM     78  C   UNL     1      -7.499  11.301  14.584  1.00  0.00     0.195 C 
ENDBRANCH  76  77
BRANCH  76  79
ATOM     79  C   UNL     1      -4.432  11.028  14.110  1.00  0.00     0.068 C 
BRANCH  79  80
ATOM     80  C   UNL     1      -3.848  11.364  12.759  1.00  0.00    -0.045 A 
ATOM     81  C   UNL     1      -4.664  11.463  11.624  1.00  0.00     0.004 A 
ATOM     82  C   UNL     1      -2.466  11.556  12.614  1.00  0.00     0.004 A 
ATOM     83  C   UNL     1      -4.115  11.760  10.376  1.00  0.00     0.000 A 
ATOM     84  C   UNL     1      -1.917  11.853  11.365  1.00  0.00     0.000 A 
ATOM     85  C   UNL     1      -2.741  11.957  10.246  1.00  0.00     0.000 A 
ENDBRANCH  79  80
ENDBRANCH  76  79
ENDBRANCH  74  76
ENDBRANCH  72  74
ENDBRANCH  70  71
ENDBRANCH   1  69
TORSDOF 17
ENDMDL
MODEL 42
REMARK VINA RESULT:    -6.203      2.938     10.770
REMARK INTER + INTRA:         -25.762
REMARK INTER:                 -19.550
REMARK INTRA:                  -6.212
REMARK UNBOUND:                -7.229
REMARK SMILES C=C1C(=O)N[C@H](C)C(=O)N[C@@H](CC(C)C)C(=O)N[C@@H](C(=O)O)[C@H](C)C(=O)N[C@@H](CCCN=C(N)N)C(=O)N[C@@H](/C=C/C(C)=C/[C@H](C)[C@H](Cc2ccccc2)OC)[C@H](C)C(=O)N[C@@H](C(=O)O)CCC(=O)N1C
REMARK SMILES IDX 39 1 38 2 37 3 36 4 28 6 27 7 25 8 26 9 23 11 24 12 19 13
REMARK SMILES IDX 18 14 16 15 17 16 11 18 10 19 8 20 9 21 12 24 13 25 14 26
REMARK SMILES IDX 15 27 20 28 21 29 22 30 29 32 30 33 31 34 32 35 33 36 34 37
REMARK SMILES IDX 35 38 57 43 58 44 59 45 60 46 61 47 62 49 66 50 67 51 68 52
REMARK SMILES IDX 69 53 70 54 71 55 2 56 1 57 3 58 4 59 5 60 6 62 7 63 63 65
REMARK SMILES IDX 64 66 65 67 40 69 41 70 42 71 44 72 43 73 45 74 46 75 47 76
REMARK SMILES IDX 55 77 56 78 48 79 49 80 50 81 54 82 51 83 53 84 52 85
REMARK H PARENT 38 5 27 10 18 17 10 22 22 31 34 39 34 40 35 41 35 42 61 48
REMARK H PARENT 5 61 65 68
REMARK Flexibility Score:  369.900
ROOT
ATOM      1  C   UNL     1      -0.065   9.139   8.479  1.00  0.00     0.117 C 
ENDROOT
BRANCH   1   2
ATOM      2  N   UNL     1       0.927   8.287   7.823  1.00  0.00    -0.347 N 
ATOM      3  O   UNL     1       0.539   8.961   5.663  1.00  0.00    -0.273 OA
ATOM      4  C   UNL     1       1.214   8.333   6.472  1.00  0.00     0.243 C 
ATOM      5  H   UNL     1       1.482   7.655   8.380  1.00  0.00     0.164 HD
BRANCH   4   6
ATOM      6  C   UNL     1       2.367   7.389   6.047  1.00  0.00     0.171 C 
BRANCH   6   7
ATOM      7  N   UNL     1       2.484   7.347   4.581  1.00  0.00    -0.344 N 
ATOM      8  C   UNL     1       2.065   6.241   3.873  1.00  0.00     0.226 C 
ATOM      9  O   UNL     1       1.603   5.245   4.418  1.00  0.00    -0.275 OA
ATOM     10  H   UNL     1       2.922   8.123   4.101  1.00  0.00     0.164 HD
BRANCH   8  11
ATOM     11  C   UNL     1       2.201   6.374   2.367  1.00  0.00     0.109 C 
ATOM     12  C   UNL     1       0.935   5.864   1.678  1.00  0.00     0.021 C 
BRANCH  11  13
ATOM     13  C   UNL     1       2.599   7.818   2.004  1.00  0.00     0.204 C 
BRANCH  13  14
ATOM     14  N   UNL     1       3.612   7.862   0.945  1.00  0.00    -0.340 N 
ATOM     15  C   UNL     1       4.965   7.878   1.203  1.00  0.00     0.243 C 
ATOM     16  O   UNL     1       5.421   7.794   2.342  1.00  0.00    -0.273 OA
ATOM     17  H   UNL     1       3.303   8.084  -0.006  1.00  0.00     0.164 HD
BRANCH  15  18
ATOM     18  C   UNL     1       5.832   8.135  -0.054  1.00  0.00     0.171 C 
BRANCH  18  19
ATOM     19  N   UNL     1       6.568   6.900  -0.315  1.00  0.00    -0.343 N 
ATOM     20  C   UNL     1       7.949   6.854  -0.285  1.00  0.00     0.242 CG0
ATOM     21  O   UNL     1       8.624   7.873  -0.168  1.00  0.00    -0.273 OA
ATOM     22  H   UNL     1       6.056   6.052  -0.531  1.00  0.00     0.164 HD
ATOM     23  G   UNL     1       8.544   5.448  -0.507  1.00  0.00     0.000 G0
ENDBRANCH  18  19
BRANCH  18  24
ATOM     24  C   UNL     1       4.953   8.528  -1.247  1.00  0.00     0.038 C 
BRANCH  24  25
ATOM     25  C   UNL     1       5.523   9.666  -2.121  1.00  0.00    -0.015 C 
ATOM     26  C   UNL     1       6.344   9.142  -3.299  1.00  0.00     0.007 C 
ATOM     27  C   UNL     1       6.388  10.591  -1.261  1.00  0.00     0.007 C 
ENDBRANCH  24  25
ENDBRANCH  18  24
ENDBRANCH  15  18
ENDBRANCH  13  14
BRANCH  13  28
ATOM     28  C   UNL     1       1.416   8.671   1.537  1.00  0.00     0.327 C 
ATOM     29  O   UNL     1       1.193   9.032   0.391  1.00  0.00    -0.250 OA
BRANCH  28  30
ATOM     30  O   UNL     1       0.651   9.118   2.554  1.00  0.00    -0.480 OA
ATOM     31  H   UNL     1      -0.219   9.298   2.141  1.00  0.00     0.296 HD
ENDBRANCH  28  30
ENDBRANCH  13  28
ENDBRANCH  11  13
ENDBRANCH   8  11
ENDBRANCH   6   7
BRANCH   6  32
ATOM     32  C   UNL     1       3.674   7.870   6.687  1.00  0.00     0.037 C 
BRANCH  32  33
ATOM     33  C   UNL     1       4.529   6.705   7.205  1.00  0.00     0.026 C 
BRANCH  33  34
ATOM     34  C   UNL     1       3.688   5.482   7.575  1.00  0.00     0.146 C 
BRANCH  34  35
ATOM     35  N   UNL     1       4.232   4.315   6.895  1.00  0.00    -0.254 NA
ATOM     36  C   UNL     1       5.159   3.645   7.471  1.00  0.00     0.185 C 
ATOM     37  N   UNL     1       5.664   2.564   6.855  1.00  0.00    -0.370 N 
ATOM     38  N   UNL     1       5.742   3.861   8.663  1.00  0.00    -0.370 N 
ATOM     39  H   UNL     1       5.268   2.329   5.954  1.00  0.00     0.159 HD
ATOM     40  H   UNL     1       6.261   1.894   7.308  1.00  0.00     0.159 HD
ATOM     41  H   UNL     1       6.559   3.344   8.945  1.00  0.00     0.159 HD
ATOM     42  H   UNL     1       5.472   4.650   9.230  1.00  0.00     0.159 HD
ENDBRANCH  34  35
ENDBRANCH  33  34
ENDBRANCH  32  33
ENDBRANCH   6  32
ENDBRANCH   4   6
ENDBRANCH   1   2
BRANCH   1  43
ATOM     43  C   UNL     1       0.682  10.249   9.272  1.00  0.00     0.102 C 
ATOM     44  C   UNL     1       1.334   9.741  10.569  1.00  0.00     0.020 C 
BRANCH  43  45
ATOM     45  C   UNL     1      -0.207  11.481   9.465  1.00  0.00     0.225 C 
ATOM     46  O   UNL     1       0.217  12.557   9.876  1.00  0.00    -0.275 OA
ATOM     47  N   UNL     1      -1.550  11.284   9.236  1.00  0.00    -0.342 N 
ATOM     48  H   UNL     1      -1.859  10.449   8.758  1.00  0.00     0.164 HD
BRANCH  47  49
ATOM     49  C   UNL     1      -2.515  12.382   9.346  1.00  0.00     0.192 C 
BRANCH  49  50
ATOM     50  C   UNL     1      -3.304  12.244  10.651  1.00  0.00     0.047 C 
BRANCH  50  51
ATOM     51  C   UNL     1      -3.215  10.828  11.238  1.00  0.00     0.103 C 
BRANCH  51  52
ATOM     52  C   UNL     1      -2.611  10.825  12.641  1.00  0.00     0.226 C 
ATOM     53  O   UNL     1      -2.344  11.895  13.192  1.00  0.00    -0.275 OA
BRANCH  52  54
ATOM     54  N   UNL     1      -2.464   9.569  13.257  1.00  0.00    -0.311 N 
ATOM     55  C   UNL     1      -1.139   9.063  13.637  1.00  0.00     0.153 C 
BRANCH  54  56
ATOM     56  C   UNL     1      -3.576   8.756  13.537  1.00  0.00     0.102 C 
ATOM     57  C   UNL     1      -3.571   7.414  13.516  1.00  0.00     0.043 C 
BRANCH  56  58
ATOM     58  C   UNL     1      -4.898   9.364  13.943  1.00  0.00     0.268 C 
ATOM     59  O   UNL     1      -5.052  10.007  14.973  1.00  0.00    -0.268 OA
ATOM     60  N   UNL     1      -5.887   9.178  13.007  1.00  0.00    -0.339 N 
ATOM     61  H   UNL     1      -5.682   8.625  12.184  1.00  0.00     0.164 HD
BRANCH  60  62
ATOM     62  C   UNL     1      -7.228   9.738  13.170  1.00  0.00     0.168 CG0
ATOM     63  C   UNL     1      -7.355  11.074  12.447  1.00  0.00     0.041 C 
ATOM     64  G   UNL     1      -7.543   9.898  14.672  1.00  0.00     0.000 G0
ENDBRANCH  60  62
ENDBRANCH  56  58
ENDBRANCH  54  56
ENDBRANCH  52  54
ENDBRANCH  51  52
ENDBRANCH  50  51
ENDBRANCH  49  50
BRANCH  49  65
ATOM     65  C   UNL     1      -3.493  12.398   8.161  1.00  0.00     0.326 C 
ATOM     66  O   UNL     1      -4.364  13.235   7.969  1.00  0.00    -0.250 OA
BRANCH  65  67
ATOM     67  O   UNL     1      -3.374  11.349   7.317  1.00  0.00    -0.480 OA
ATOM     68  H   UNL     1      -4.302  11.147   7.068  1.00  0.00     0.296 HD
ENDBRANCH  65  67
ENDBRANCH  49  65
ENDBRANCH  47  49
ENDBRANCH  43  45
ENDBRANCH   1  43
BRANCH   1  69
ATOM     69  C   UNL     1      -0.998   8.204   9.227  1.00  0.00    -0.001 C 
ATOM     70  C   UNL     1      -2.307   8.000   8.998  1.00  0.00     0.001 C 
BRANCH  70  71
ATOM     71  C   UNL     1      -3.192   7.079   9.714  1.00  0.00    -0.055 C 
ATOM     72  C   UNL     1      -2.694   5.874  10.062  1.00  0.00    -0.018 C 
ATOM     73  C   UNL     1      -4.592   7.544  10.018  1.00  0.00     0.044 C 
BRANCH  72  74
ATOM     74  C   UNL     1      -3.371   4.730  10.804  1.00  0.00     0.038 C 
ATOM     75  C   UNL     1      -2.340   4.150  11.780  1.00  0.00     0.015 C 
BRANCH  74  76
ATOM     76  C   UNL     1      -3.926   3.715   9.762  1.00  0.00     0.128 C 
BRANCH  76  77
ATOM     77  O   UNL     1      -2.921   2.736   9.448  1.00  0.00    -0.381 OA
ATOM     78  C   UNL     1      -2.488   2.776   8.095  1.00  0.00     0.195 C 
ENDBRANCH  76  77
BRANCH  76  79
ATOM     79  C   UNL     1      -5.280   3.078  10.162  1.00  0.00     0.068 C 
BRANCH  79  80
ATOM     80  C   UNL     1      -5.315   2.210  11.397  1.00  0.00    -0.045 A 
ATOM     81  C   UNL     1      -5.699   2.736  12.638  1.00  0.00     0.004 A 
ATOM     82  C   UNL     1      -4.935   0.862  11.325  1.00  0.00     0.004 A 
ATOM     83  C   UNL     1      -5.715   1.930  13.779  1.00  0.00     0.000 A 
ATOM     84  C   UNL     1      -4.951   0.057  12.467  1.00  0.00     0.000 A 
ATOM     85  C   UNL     1      -5.342   0.591  13.692  1.00  0.00     0.000 A 
ENDBRANCH  79  80
ENDBRANCH  76  79
ENDBRANCH  74  76
ENDBRANCH  72  74
ENDBRANCH  70  71
ENDBRANCH   1  69
TORSDOF 17
ENDMDL
MODEL 43
REMARK VINA RESULT:    -6.202      4.522     11.411
REMARK INTER + INTRA:         -25.758
REMARK INTER:                 -18.046
REMARK INTRA:                  -7.712
REMARK UNBOUND:                -7.229
REMARK SMILES C=C1C(=O)N[C@H](C)C(=O)N[C@@H](CC(C)C)C(=O)N[C@@H](C(=O)O)[C@H](C)C(=O)N[C@@H](CCCN=C(N)N)C(=O)N[C@@H](/C=C/C(C)=C/[C@H](C)[C@H](Cc2ccccc2)OC)[C@H](C)C(=O)N[C@@H](C(=O)O)CCC(=O)N1C
REMARK SMILES IDX 39 1 38 2 37 3 36 4 28 6 27 7 25 8 26 9 23 11 24 12 19 13
REMARK SMILES IDX 18 14 16 15 17 16 11 18 10 19 8 20 9 21 12 24 13 25 14 26
REMARK SMILES IDX 15 27 20 28 21 29 22 30 29 32 30 33 31 34 32 35 33 36 34 37
REMARK SMILES IDX 35 38 57 43 58 44 59 45 60 46 61 47 62 49 66 50 67 51 68 52
REMARK SMILES IDX 69 53 70 54 71 55 2 56 1 57 3 58 4 59 5 60 6 62 7 63 63 65
REMARK SMILES IDX 64 66 65 67 40 69 41 70 42 71 44 72 43 73 45 74 46 75 47 76
REMARK SMILES IDX 55 77 56 78 48 79 49 80 50 81 54 82 51 83 53 84 52 85
REMARK H PARENT 38 5 27 10 18 17 10 22 22 31 34 39 34 40 35 41 35 42 61 48
REMARK H PARENT 5 61 65 68
REMARK Flexibility Score:  369.900
ROOT
ATOM      1  C   UNL     1      -3.940   3.064  13.776  1.00  0.00     0.117 C 
ENDROOT
BRANCH   1   2
ATOM      2  N   UNL     1      -3.134   2.728  12.602  1.00  0.00    -0.347 N 
ATOM      3  O   UNL     1      -4.745   3.081  11.005  1.00  0.00    -0.273 OA
ATOM      4  C   UNL     1      -3.577   2.853  11.299  1.00  0.00     0.243 C 
ATOM      5  H   UNL     1      -2.178   2.433  12.727  1.00  0.00     0.164 HD
BRANCH   4   6
ATOM      6  C   UNL     1      -2.497   2.515  10.239  1.00  0.00     0.171 C 
BRANCH   6   7
ATOM      7  N   UNL     1      -1.714   3.714   9.902  1.00  0.00    -0.344 N 
ATOM      8  C   UNL     1      -2.085   4.524   8.851  1.00  0.00     0.226 C 
ATOM      9  O   UNL     1      -3.054   4.281   8.142  1.00  0.00    -0.275 OA
ATOM     10  H   UNL     1      -0.868   3.910  10.423  1.00  0.00     0.164 HD
BRANCH   8  11
ATOM     11  C   UNL     1      -1.209   5.750   8.666  1.00  0.00     0.109 C 
ATOM     12  C   UNL     1       0.220   5.328   8.324  1.00  0.00     0.021 C 
BRANCH  11  13
ATOM     13  C   UNL     1      -1.862   6.709   7.651  1.00  0.00     0.204 C 
BRANCH  13  14
ATOM     14  N   UNL     1      -1.679   8.115   8.025  1.00  0.00    -0.340 N 
ATOM     15  C   UNL     1      -2.492   9.125   7.558  1.00  0.00     0.243 C 
ATOM     16  O   UNL     1      -3.467   8.910   6.841  1.00  0.00    -0.273 OA
ATOM     17  H   UNL     1      -0.806   8.379   8.490  1.00  0.00     0.164 HD
BRANCH  15  18
ATOM     18  C   UNL     1      -1.984  10.544   7.917  1.00  0.00     0.171 C 
BRANCH  18  19
ATOM     19  N   UNL     1      -3.161  11.409   7.965  1.00  0.00    -0.343 N 
ATOM     20  C   UNL     1      -3.080  12.764   7.704  1.00  0.00     0.242 CG0
ATOM     21  O   UNL     1      -1.998  13.326   7.551  1.00  0.00    -0.273 OA
ATOM     22  H   UNL     1      -4.062  11.011   8.202  1.00  0.00     0.164 HD
ATOM     23  G   UNL     1      -4.437  13.498   7.724  1.00  0.00     0.000 G0
ENDBRANCH  18  19
BRANCH  18  24
ATOM     24  C   UNL     1      -1.242  10.529   9.259  1.00  0.00     0.038 C 
BRANCH  24  25
ATOM     25  C   UNL     1       0.238  10.959   9.182  1.00  0.00    -0.015 C 
ATOM     26  C   UNL     1       1.195   9.837   9.582  1.00  0.00     0.007 C 
ATOM     27  C   UNL     1       0.468  12.177  10.081  1.00  0.00     0.007 C 
ENDBRANCH  24  25
ENDBRANCH  18  24
ENDBRANCH  15  18
ENDBRANCH  13  14
BRANCH  13  28
ATOM     28  C   UNL     1      -1.319   6.544   6.228  1.00  0.00     0.327 C 
ATOM     29  O   UNL     1      -0.423   7.197   5.716  1.00  0.00    -0.250 OA
BRANCH  28  30
ATOM     30  O   UNL     1      -2.015   5.649   5.498  1.00  0.00    -0.480 OA
ATOM     31  H   UNL     1      -2.948   5.934   5.593  1.00  0.00     0.296 HD
ENDBRANCH  28  30
ENDBRANCH  13  28
ENDBRANCH  11  13
ENDBRANCH   8  11
ENDBRANCH   6   7
BRANCH   6  32
ATOM     32  C   UNL     1      -1.592   1.403  10.780  1.00  0.00     0.037 C 
BRANCH  32  33
ATOM     33  C   UNL     1      -1.413   0.259   9.773  1.00  0.00     0.026 C 
BRANCH  33  34
ATOM     34  C   UNL     1      -0.297   0.536   8.764  1.00  0.00     0.146 C 
BRANCH  34  35
ATOM     35  N   UNL     1       0.974   0.128   9.347  1.00  0.00    -0.254 NA
ATOM     36  C   UNL     1       1.846   1.028   9.609  1.00  0.00     0.185 C 
ATOM     37  N   UNL     1       3.019   0.664  10.151  1.00  0.00    -0.370 N 
ATOM     38  N   UNL     1       1.771   2.358   9.420  1.00  0.00    -0.370 N 
ATOM     39  H   UNL     1       3.148  -0.323  10.334  1.00  0.00     0.159 HD
ATOM     40  H   UNL     1       3.677   1.316  10.543  1.00  0.00     0.159 HD
ATOM     41  H   UNL     1       2.579   2.947   9.539  1.00  0.00     0.159 HD
ATOM     42  H   UNL     1       0.951   2.771   9.005  1.00  0.00     0.159 HD
ENDBRANCH  34  35
ENDBRANCH  33  34
ENDBRANCH  32  33
ENDBRANCH   6  32
ENDBRANCH   4   6
ENDBRANCH   1   2
BRANCH   1  43
ATOM     43  C   UNL     1      -5.253   2.230  13.730  1.00  0.00     0.102 C 
ATOM     44  C   UNL     1      -6.460   2.954  14.352  1.00  0.00     0.020 C 
BRANCH  43  45
ATOM     45  C   UNL     1      -5.027   0.817  14.275  1.00  0.00     0.225 C 
ATOM     46  O   UNL     1      -4.749   0.587  15.448  1.00  0.00    -0.275 OA
ATOM     47  N   UNL     1      -5.063  -0.192  13.339  1.00  0.00    -0.342 N 
ATOM     48  H   UNL     1      -5.439  -0.008  12.420  1.00  0.00     0.164 HD
BRANCH  47  49
ATOM     49  C   UNL     1      -4.899  -1.597  13.722  1.00  0.00     0.192 C 
BRANCH  49  50
ATOM     50  C   UNL     1      -3.461  -2.042  13.442  1.00  0.00     0.047 C 
BRANCH  50  51
ATOM     51  C   UNL     1      -2.735  -2.498  14.715  1.00  0.00     0.103 C 
BRANCH  51  52
ATOM     52  C   UNL     1      -1.679  -3.563  14.423  1.00  0.00     0.226 C 
ATOM     53  O   UNL     1      -0.551  -3.452  14.907  1.00  0.00    -0.275 OA
BRANCH  52  54
ATOM     54  N   UNL     1      -2.098  -4.668  13.659  1.00  0.00    -0.311 N 
ATOM     55  C   UNL     1      -2.848  -5.771  14.275  1.00  0.00     0.153 C 
BRANCH  54  56
ATOM     56  C   UNL     1      -1.821  -4.756  12.285  1.00  0.00     0.102 C 
ATOM     57  C   UNL     1      -0.708  -4.293  11.694  1.00  0.00     0.043 C 
BRANCH  56  58
ATOM     58  C   UNL     1      -2.780  -5.448  11.344  1.00  0.00     0.268 C 
ATOM     59  O   UNL     1      -3.811  -4.929  10.938  1.00  0.00    -0.268 OA
ATOM     60  N   UNL     1      -2.342  -6.688  10.943  1.00  0.00    -0.339 N 
ATOM     61  H   UNL     1      -1.481  -7.051  11.334  1.00  0.00     0.164 HD
BRANCH  60  62
ATOM     62  C   UNL     1      -3.086  -7.503   9.984  1.00  0.00     0.168 CG0
ATOM     63  C   UNL     1      -2.632  -7.222   8.557  1.00  0.00     0.041 C 
ATOM     64  G   UNL     1      -4.597  -7.234  10.139  1.00  0.00     0.000 G0
ENDBRANCH  60  62
ENDBRANCH  56  58
ENDBRANCH  54  56
ENDBRANCH  52  54
ENDBRANCH  51  52
ENDBRANCH  50  51
ENDBRANCH  49  50
BRANCH  49  65
ATOM     65  C   UNL     1      -5.872  -2.510  12.958  1.00  0.00     0.326 C 
ATOM     66  O   UNL     1      -6.895  -2.146  12.396  1.00  0.00    -0.250 OA
BRANCH  65  67
ATOM     67  O   UNL     1      -5.553  -3.823  12.986  1.00  0.00    -0.480 OA
ATOM     68  H   UNL     1      -6.123  -4.184  13.698  1.00  0.00     0.296 HD
ENDBRANCH  65  67
ENDBRANCH  49  65
ENDBRANCH  47  49
ENDBRANCH  43  45
ENDBRANCH   1  43
BRANCH   1  69
ATOM     69  C   UNL     1      -4.034   4.578  13.808  1.00  0.00    -0.001 C 
ATOM     70  C   UNL     1      -3.869   5.385  14.871  1.00  0.00     0.001 C 
BRANCH  70  71
ATOM     71  C   UNL     1      -3.940   6.847  14.885  1.00  0.00    -0.055 C 
ATOM     72  C   UNL     1      -5.059   7.426  14.398  1.00  0.00    -0.018 C 
ATOM     73  C   UNL     1      -2.765   7.603  15.449  1.00  0.00     0.044 C 
BRANCH  72  74
ATOM     74  C   UNL     1      -5.410   8.903  14.290  1.00  0.00     0.038 C 
ATOM     75  C   UNL     1      -6.402   9.216  15.416  1.00  0.00     0.015 C 
BRANCH  74  76
ATOM     76  C   UNL     1      -5.941   9.187  12.854  1.00  0.00     0.128 C 
BRANCH  76  77
ATOM     77  O   UNL     1      -7.155   9.953  12.922  1.00  0.00    -0.381 OA
ATOM     78  C   UNL     1      -7.061  11.229  12.304  1.00  0.00     0.195 C 
ENDBRANCH  76  77
BRANCH  76  79
ATOM     79  C   UNL     1      -4.888   9.816  11.906  1.00  0.00     0.068 C 
BRANCH  79  80
ATOM     80  C   UNL     1      -3.444   9.416  12.089  1.00  0.00    -0.045 A 
ATOM     81  C   UNL     1      -2.965   8.195  11.596  1.00  0.00     0.004 A 
ATOM     82  C   UNL     1      -2.560  10.254  12.786  1.00  0.00     0.004 A 
ATOM     83  C   UNL     1      -1.631   7.826  11.781  1.00  0.00     0.000 A 
ATOM     84  C   UNL     1      -1.227   9.883  12.972  1.00  0.00     0.000 A 
ATOM     85  C   UNL     1      -0.762   8.671  12.468  1.00  0.00     0.000 A 
ENDBRANCH  79  80
ENDBRANCH  76  79
ENDBRANCH  74  76
ENDBRANCH  72  74
ENDBRANCH  70  71
ENDBRANCH   1  69
TORSDOF 17
ENDMDL
MODEL 44
REMARK VINA RESULT:    -6.200      5.814     13.057
REMARK INTER + INTRA:         -25.753
REMARK INTER:                 -18.475
REMARK INTRA:                  -7.278
REMARK UNBOUND:                -7.229
REMARK SMILES C=C1C(=O)N[C@H](C)C(=O)N[C@@H](CC(C)C)C(=O)N[C@@H](C(=O)O)[C@H](C)C(=O)N[C@@H](CCCN=C(N)N)C(=O)N[C@@H](/C=C/C(C)=C/[C@H](C)[C@H](Cc2ccccc2)OC)[C@H](C)C(=O)N[C@@H](C(=O)O)CCC(=O)N1C
REMARK SMILES IDX 39 1 38 2 37 3 36 4 28 6 27 7 25 8 26 9 23 11 24 12 19 13
REMARK SMILES IDX 18 14 16 15 17 16 11 18 10 19 8 20 9 21 12 24 13 25 14 26
REMARK SMILES IDX 15 27 20 28 21 29 22 30 29 32 30 33 31 34 32 35 33 36 34 37
REMARK SMILES IDX 35 38 57 43 58 44 59 45 60 46 61 47 62 49 66 50 67 51 68 52
REMARK SMILES IDX 69 53 70 54 71 55 2 56 1 57 3 58 4 59 5 60 6 62 7 63 63 65
REMARK SMILES IDX 64 66 65 67 40 69 41 70 42 71 44 72 43 73 45 74 46 75 47 76
REMARK SMILES IDX 55 77 56 78 48 79 49 80 50 81 54 82 51 83 53 84 52 85
REMARK H PARENT 38 5 27 10 18 17 10 22 22 31 34 39 34 40 35 41 35 42 61 48
REMARK H PARENT 5 61 65 68
REMARK Flexibility Score:  369.900
ROOT
ATOM      1  C   UNL     1      -3.726   2.215  11.574  1.00  0.00     0.117 C 
ENDROOT
BRANCH   1   2
ATOM      2  N   UNL     1      -3.479   3.612  11.218  1.00  0.00    -0.347 N 
ATOM      3  O   UNL     1      -5.038   3.788   9.542  1.00  0.00    -0.273 OA
ATOM      4  C   UNL     1      -4.221   4.316  10.289  1.00  0.00     0.243 C 
ATOM      5  H   UNL     1      -2.760   4.127  11.704  1.00  0.00     0.164 HD
BRANCH   4   6
ATOM      6  C   UNL     1      -3.809   5.805  10.161  1.00  0.00     0.171 C 
BRANCH   6   7
ATOM      7  N   UNL     1      -3.825   6.458  11.480  1.00  0.00    -0.344 N 
ATOM      8  C   UNL     1      -4.373   7.713  11.636  1.00  0.00     0.226 C 
ATOM      9  O   UNL     1      -4.845   8.348  10.701  1.00  0.00    -0.275 OA
ATOM     10  H   UNL     1      -3.384   5.993  12.263  1.00  0.00     0.164 HD
BRANCH   8  11
ATOM     11  C   UNL     1      -4.363   8.226  13.065  1.00  0.00     0.109 C 
ATOM     12  C   UNL     1      -3.854   7.139  14.011  1.00  0.00     0.021 C 
BRANCH  11  13
ATOM     13  C   UNL     1      -3.592   9.560  13.135  1.00  0.00     0.204 C 
BRANCH  13  14
ATOM     14  N   UNL     1      -2.540   9.642  12.118  1.00  0.00    -0.340 N 
ATOM     15  C   UNL     1      -1.232   9.957  12.418  1.00  0.00     0.243 C 
ATOM     16  O   UNL     1      -0.843  10.131  13.571  1.00  0.00    -0.273 OA
ATOM     17  H   UNL     1      -2.822   9.658  11.134  1.00  0.00     0.164 HD
BRANCH  15  18
ATOM     18  C   UNL     1      -0.349  10.190  11.167  1.00  0.00     0.171 C 
BRANCH  18  19
ATOM     19  N   UNL     1      -0.227  11.637  11.005  1.00  0.00    -0.343 N 
ATOM     20  C   UNL     1      -1.249  12.400  10.475  1.00  0.00     0.242 CG0
ATOM     21  O   UNL     1      -2.255  11.883   9.993  1.00  0.00    -0.273 OA
ATOM     22  H   UNL     1       0.633  12.098  11.281  1.00  0.00     0.164 HD
ATOM     23  G   UNL     1      -0.968  13.916  10.455  1.00  0.00     0.000 G0
ENDBRANCH  18  19
BRANCH  18  24
ATOM     24  C   UNL     1       1.023   9.526  11.341  1.00  0.00     0.038 C 
BRANCH  24  25
ATOM     25  C   UNL     1       2.120  10.055  10.394  1.00  0.00    -0.015 C 
ATOM     26  C   UNL     1       2.082   9.383   9.021  1.00  0.00     0.007 C 
ATOM     27  C   UNL     1       3.496   9.847  11.032  1.00  0.00     0.007 C 
ENDBRANCH  24  25
ENDBRANCH  18  24
ENDBRANCH  15  18
ENDBRANCH  13  14
BRANCH  13  28
ATOM     28  C   UNL     1      -4.492  10.787  12.957  1.00  0.00     0.327 C 
ATOM     29  O   UNL     1      -5.116  11.359  13.838  1.00  0.00    -0.250 OA
BRANCH  28  30
ATOM     30  O   UNL     1      -4.646  11.147  11.667  1.00  0.00    -0.480 OA
ATOM     31  H   UNL     1      -5.352  10.555  11.334  1.00  0.00     0.296 HD
ENDBRANCH  28  30
ENDBRANCH  13  28
ENDBRANCH  11  13
ENDBRANCH   8  11
ENDBRANCH   6   7
BRANCH   6  32
ATOM     32  C   UNL     1      -2.416   5.889   9.526  1.00  0.00     0.037 C 
BRANCH  32  33
ATOM     33  C   UNL     1      -2.430   6.666   8.202  1.00  0.00     0.026 C 
BRANCH  33  34
ATOM     34  C   UNL     1      -2.895   5.808   7.025  1.00  0.00     0.146 C 
BRANCH  34  35
ATOM     35  N   UNL     1      -4.227   6.240   6.626  1.00  0.00    -0.254 NA
ATOM     36  C   UNL     1      -5.130   5.350   6.437  1.00  0.00     0.185 C 
ATOM     37  N   UNL     1      -6.363   5.737   6.074  1.00  0.00    -0.370 N 
ATOM     38  N   UNL     1      -5.036   4.014   6.550  1.00  0.00    -0.370 N 
ATOM     39  H   UNL     1      -6.517   6.733   5.978  1.00  0.00     0.159 HD
ATOM     40  H   UNL     1      -7.161   5.125   6.076  1.00  0.00     0.159 HD
ATOM     41  H   UNL     1      -5.779   3.411   6.238  1.00  0.00     0.159 HD
ATOM     42  H   UNL     1      -4.160   3.581   6.801  1.00  0.00     0.159 HD
ENDBRANCH  34  35
ENDBRANCH  33  34
ENDBRANCH  32  33
ENDBRANCH   6  32
ENDBRANCH   4   6
ENDBRANCH   1   2
BRANCH   1  43
ATOM     43  C   UNL     1      -3.824   2.108  13.124  1.00  0.00     0.102 C 
ATOM     44  C   UNL     1      -3.351   3.376  13.855  1.00  0.00     0.020 C 
BRANCH  43  45
ATOM     45  C   UNL     1      -3.169   0.819  13.629  1.00  0.00     0.225 C 
ATOM     46  O   UNL     1      -1.985   0.749  13.949  1.00  0.00    -0.275 OA
ATOM     47  N   UNL     1      -3.972  -0.298  13.616  1.00  0.00    -0.342 N 
ATOM     48  H   UNL     1      -4.970  -0.195  13.498  1.00  0.00     0.164 HD
BRANCH  47  49
ATOM     49  C   UNL     1      -3.491  -1.593  14.104  1.00  0.00     0.192 C 
BRANCH  49  50
ATOM     50  C   UNL     1      -2.836  -2.366  12.956  1.00  0.00     0.047 C 
BRANCH  50  51
ATOM     51  C   UNL     1      -3.575  -2.167  11.626  1.00  0.00     0.103 C 
BRANCH  51  52
ATOM     52  C   UNL     1      -4.000  -3.495  11.002  1.00  0.00     0.226 C 
ATOM     53  O   UNL     1      -5.068  -4.012  11.336  1.00  0.00    -0.275 OA
BRANCH  52  54
ATOM     54  N   UNL     1      -3.156  -4.017  10.004  1.00  0.00    -0.311 N 
ATOM     55  C   UNL     1      -3.129  -3.435   8.656  1.00  0.00     0.153 C 
BRANCH  54  56
ATOM     56  C   UNL     1      -2.306  -5.106  10.260  1.00  0.00     0.102 C 
ATOM     57  C   UNL     1      -1.144  -5.034  10.929  1.00  0.00     0.043 C 
BRANCH  56  58
ATOM     58  C   UNL     1      -2.681  -6.502   9.819  1.00  0.00     0.268 C 
ATOM     59  O   UNL     1      -3.821  -6.824   9.514  1.00  0.00    -0.268 OA
ATOM     60  N   UNL     1      -1.601  -7.349   9.732  1.00  0.00    -0.339 N 
ATOM     61  H   UNL     1      -0.690  -7.007  10.013  1.00  0.00     0.164 HD
BRANCH  60  62
ATOM     62  C   UNL     1      -1.730  -8.728   9.265  1.00  0.00     0.168 CG0
ATOM     63  C   UNL     1      -0.417  -9.230   8.676  1.00  0.00     0.041 C 
ATOM     64  G   UNL     1      -2.865  -8.818   8.225  1.00  0.00     0.000 G0
ENDBRANCH  60  62
ENDBRANCH  56  58
ENDBRANCH  54  56
ENDBRANCH  52  54
ENDBRANCH  51  52
ENDBRANCH  50  51
ENDBRANCH  49  50
BRANCH  49  65
ATOM     65  C   UNL     1      -4.631  -2.434  14.698  1.00  0.00     0.326 C 
ATOM     66  O   UNL     1      -4.639  -3.653  14.796  1.00  0.00    -0.250 OA
BRANCH  65  67
ATOM     67  O   UNL     1      -5.716  -1.724  15.079  1.00  0.00    -0.480 OA
ATOM     68  H   UNL     1      -5.734  -0.973  14.447  1.00  0.00     0.296 HD
ENDBRANCH  65  67
ENDBRANCH  49  65
ENDBRANCH  47  49
ENDBRANCH  43  45
ENDBRANCH   1  43
BRANCH   1  69
ATOM     69  C   UNL     1      -2.672   1.399  10.848  1.00  0.00    -0.001 C 
ATOM     70  C   UNL     1      -1.415   1.771  10.547  1.00  0.00     0.001 C 
BRANCH  70  71
ATOM     71  C   UNL     1      -0.400   0.967   9.864  1.00  0.00    -0.055 C 
ATOM     72  C   UNL     1       0.058  -0.134  10.496  1.00  0.00    -0.018 C 
ATOM     73  C   UNL     1       0.057   1.421   8.502  1.00  0.00     0.044 C 
BRANCH  72  74
ATOM     74  C   UNL     1       1.096  -1.147  10.035  1.00  0.00     0.038 C 
ATOM     75  C   UNL     1       0.351  -2.233   9.250  1.00  0.00     0.015 C 
BRANCH  74  76
ATOM     76  C   UNL     1       1.879  -1.663  11.278  1.00  0.00     0.128 C 
BRANCH  76  77
ATOM     77  O   UNL     1       1.134  -1.388  12.477  1.00  0.00    -0.381 OA
ATOM     78  C   UNL     1       0.926  -2.532  13.294  1.00  0.00     0.195 C 
ENDBRANCH  76  77
BRANCH  76  79
ATOM     79  C   UNL     1       2.323  -3.144  11.174  1.00  0.00     0.068 C 
BRANCH  79  80
ATOM     80  C   UNL     1       3.691  -3.434  10.606  1.00  0.00    -0.045 A 
ATOM     81  C   UNL     1       3.838  -4.014   9.339  1.00  0.00     0.004 A 
ATOM     82  C   UNL     1       4.842  -3.151  11.356  1.00  0.00     0.004 A 
ATOM     83  C   UNL     1       5.107  -4.292   8.827  1.00  0.00     0.000 A 
ATOM     84  C   UNL     1       6.111  -3.431  10.843  1.00  0.00     0.000 A 
ATOM     85  C   UNL     1       6.243  -3.999   9.578  1.00  0.00     0.000 A 
ENDBRANCH  79  80
ENDBRANCH  76  79
ENDBRANCH  74  76
ENDBRANCH  72  74
ENDBRANCH  70  71
ENDBRANCH   1  69
TORSDOF 17
ENDMDL
MODEL 45
REMARK VINA RESULT:    -6.178      2.587      4.699
REMARK INTER + INTRA:         -25.686
REMARK INTER:                 -19.170
REMARK INTRA:                  -6.516
REMARK UNBOUND:                -7.229
REMARK SMILES C=C1C(=O)N[C@H](C)C(=O)N[C@@H](CC(C)C)C(=O)N[C@@H](C(=O)O)[C@H](C)C(=O)N[C@@H](CCCN=C(N)N)C(=O)N[C@@H](/C=C/C(C)=C/[C@H](C)[C@H](Cc2ccccc2)OC)[C@H](C)C(=O)N[C@@H](C(=O)O)CCC(=O)N1C
REMARK SMILES IDX 39 1 38 2 37 3 36 4 28 6 27 7 25 8 26 9 23 11 24 12 19 13
REMARK SMILES IDX 18 14 16 15 17 16 11 18 10 19 8 20 9 21 12 24 13 25 14 26
REMARK SMILES IDX 15 27 20 28 21 29 22 30 29 32 30 33 31 34 32 35 33 36 34 37
REMARK SMILES IDX 35 38 57 43 58 44 59 45 60 46 61 47 62 49 66 50 67 51 68 52
REMARK SMILES IDX 69 53 70 54 71 55 2 56 1 57 3 58 4 59 5 60 6 62 7 63 63 65
REMARK SMILES IDX 64 66 65 67 40 69 41 70 42 71 44 72 43 73 45 74 46 75 47 76
REMARK SMILES IDX 55 77 56 78 48 79 49 80 50 81 54 82 51 83 53 84 52 85
REMARK H PARENT 38 5 27 10 18 17 10 22 22 31 34 39 34 40 35 41 35 42 61 48
REMARK H PARENT 5 61 65 68
REMARK Flexibility Score:  369.900
ROOT
ATOM      1  C   UNL     1      -0.509   9.017   7.681  1.00  0.00     0.117 C 
ENDROOT
BRANCH   1   2
ATOM      2  N   UNL     1      -0.923   7.676   8.096  1.00  0.00    -0.347 N 
ATOM      3  O   UNL     1      -2.297   7.208   6.318  1.00  0.00    -0.273 OA
ATOM      4  C   UNL     1      -1.715   6.840   7.334  1.00  0.00     0.243 C 
ATOM      5  H   UNL     1      -0.580   7.301   8.968  1.00  0.00     0.164 HD
BRANCH   4   6
ATOM      6  C   UNL     1      -1.935   5.442   7.965  1.00  0.00     0.171 C 
BRANCH   6   7
ATOM      7  N   UNL     1      -0.643   4.792   8.238  1.00  0.00    -0.344 N 
ATOM      8  C   UNL     1      -0.173   3.791   7.416  1.00  0.00     0.226 C 
ATOM      9  O   UNL     1      -0.803   3.381   6.448  1.00  0.00    -0.275 OA
ATOM     10  H   UNL     1      -0.126   5.057   9.067  1.00  0.00     0.164 HD
BRANCH   8  11
ATOM     11  C   UNL     1       1.197   3.260   7.799  1.00  0.00     0.109 C 
ATOM     12  C   UNL     1       2.188   4.415   7.941  1.00  0.00     0.021 C 
BRANCH  11  13
ATOM     13  C   UNL     1       1.077   2.352   9.039  1.00  0.00     0.204 C 
BRANCH  13  14
ATOM     14  N   UNL     1      -0.102   1.483   8.975  1.00  0.00    -0.340 N 
ATOM     15  C   UNL     1      -1.207   1.661   9.778  1.00  0.00     0.243 C 
ATOM     16  O   UNL     1      -1.307   2.601  10.565  1.00  0.00    -0.273 OA
ATOM     17  H   UNL     1      -0.023   0.603   8.457  1.00  0.00     0.164 HD
BRANCH  15  18
ATOM     18  C   UNL     1      -2.235   0.506   9.682  1.00  0.00     0.171 C 
BRANCH  18  19
ATOM     19  N   UNL     1      -3.237   0.750  10.717  1.00  0.00    -0.343 N 
ATOM     20  C   UNL     1      -3.737  -0.270  11.502  1.00  0.00     0.242 CG0
ATOM     21  O   UNL     1      -3.462  -1.447  11.279  1.00  0.00    -0.273 OA
ATOM     22  H   UNL     1      -3.583   1.692  10.863  1.00  0.00     0.164 HD
ATOM     23  G   UNL     1      -4.726   0.191  12.593  1.00  0.00     0.000 G0
ENDBRANCH  18  19
BRANCH  18  24
ATOM     24  C   UNL     1      -2.868   0.460   8.286  1.00  0.00     0.038 C 
BRANCH  24  25
ATOM     25  C   UNL     1      -2.561  -0.821   7.481  1.00  0.00    -0.015 C 
ATOM     26  C   UNL     1      -1.641  -1.780   8.236  1.00  0.00     0.007 C 
ATOM     27  C   UNL     1      -1.926  -0.446   6.139  1.00  0.00     0.007 C 
ENDBRANCH  24  25
ENDBRANCH  18  24
ENDBRANCH  15  18
ENDBRANCH  13  14
BRANCH  13  28
ATOM     28  C   UNL     1       2.296   1.448   9.245  1.00  0.00     0.327 C 
ATOM     29  O   UNL     1       2.832   0.751   8.396  1.00  0.00    -0.250 OA
BRANCH  28  30
ATOM     30  O   UNL     1       2.695   1.383  10.532  1.00  0.00    -0.480 OA
ATOM     31  H   UNL     1       1.969   0.906  10.986  1.00  0.00     0.296 HD
ENDBRANCH  28  30
ENDBRANCH  13  28
ENDBRANCH  11  13
ENDBRANCH   8  11
ENDBRANCH   6   7
BRANCH   6  32
ATOM     32  C   UNL     1      -2.754   5.595   9.252  1.00  0.00     0.037 C 
BRANCH  32  33
ATOM     33  C   UNL     1      -4.236   5.875   8.966  1.00  0.00     0.026 C 
BRANCH  33  34
ATOM     34  C   UNL     1      -4.975   4.641   8.448  1.00  0.00     0.146 C 
BRANCH  34  35
ATOM     35  N   UNL     1      -4.482   4.323   7.115  1.00  0.00    -0.254 NA
ATOM     36  C   UNL     1      -5.060   4.854   6.103  1.00  0.00     0.185 C 
ATOM     37  N   UNL     1      -4.611   4.571   4.870  1.00  0.00    -0.370 N 
ATOM     38  N   UNL     1      -6.106   5.698   6.075  1.00  0.00    -0.370 N 
ATOM     39  H   UNL     1      -3.816   3.948   4.808  1.00  0.00     0.159 HD
ATOM     40  H   UNL     1      -4.892   5.075   4.047  1.00  0.00     0.159 HD
ATOM     41  H   UNL     1      -6.560   5.937   5.208  1.00  0.00     0.159 HD
ATOM     42  H   UNL     1      -6.557   5.985   6.929  1.00  0.00     0.159 HD
ENDBRANCH  34  35
ENDBRANCH  33  34
ENDBRANCH  32  33
ENDBRANCH   6  32
ENDBRANCH   4   6
ENDBRANCH   1   2
BRANCH   1  43
ATOM     43  C   UNL     1       1.046   9.072   7.667  1.00  0.00     0.102 C 
ATOM     44  C   UNL     1       1.608  10.503   7.724  1.00  0.00     0.020 C 
BRANCH  43  45
ATOM     45  C   UNL     1       1.617   8.226   6.525  1.00  0.00     0.225 C 
ATOM     46  O   UNL     1       2.595   7.495   6.655  1.00  0.00    -0.275 OA
ATOM     47  N   UNL     1       1.018   8.405   5.299  1.00  0.00    -0.342 N 
ATOM     48  H   UNL     1       0.131   8.886   5.240  1.00  0.00     0.164 HD
BRANCH  47  49
ATOM     49  C   UNL     1       1.436   7.636   4.122  1.00  0.00     0.192 C 
BRANCH  49  50
ATOM     50  C   UNL     1       1.482   8.553   2.898  1.00  0.00     0.047 C 
BRANCH  50  51
ATOM     51  C   UNL     1       2.905   8.719   2.349  1.00  0.00     0.103 C 
BRANCH  51  52
ATOM     52  C   UNL     1       3.115   7.939   1.053  1.00  0.00     0.226 C 
ATOM     53  O   UNL     1       2.159   7.372   0.520  1.00  0.00    -0.275 OA
BRANCH  52  54
ATOM     54  N   UNL     1       4.407   7.981   0.497  1.00  0.00    -0.311 N 
ATOM     55  C   UNL     1       5.450   7.044   0.936  1.00  0.00     0.153 C 
BRANCH  54  56
ATOM     56  C   UNL     1       4.747   8.914  -0.497  1.00  0.00     0.102 C 
ATOM     57  C   UNL     1       4.621  10.245  -0.377  1.00  0.00     0.043 C 
BRANCH  56  58
ATOM     58  C   UNL     1       5.344   8.464  -1.810  1.00  0.00     0.268 C 
ATOM     59  O   UNL     1       4.777   7.697  -2.575  1.00  0.00    -0.268 OA
ATOM     60  N   UNL     1       6.554   9.056  -2.083  1.00  0.00    -0.339 N 
ATOM     61  H   UNL     1       6.962   9.673  -1.391  1.00  0.00     0.164 HD
BRANCH  60  62
ATOM     62  C   UNL     1       7.278   8.810  -3.330  1.00  0.00     0.168 CG0
ATOM     63  C   UNL     1       8.762   8.587  -3.066  1.00  0.00     0.041 C 
ATOM     64  G   UNL     1       7.066   9.996  -4.293  1.00  0.00     0.000 G0
ENDBRANCH  60  62
ENDBRANCH  56  58
ENDBRANCH  54  56
ENDBRANCH  52  54
ENDBRANCH  51  52
ENDBRANCH  50  51
ENDBRANCH  49  50
BRANCH  49  65
ATOM     65  C   UNL     1       0.482   6.463   3.845  1.00  0.00     0.326 C 
ATOM     66  O   UNL     1      -0.455   6.480   3.059  1.00  0.00    -0.250 OA
BRANCH  65  67
ATOM     67  O   UNL     1       0.707   5.363   4.597  1.00  0.00    -0.480 OA
ATOM     68  H   UNL     1      -0.143   5.227   5.067  1.00  0.00     0.296 HD
ENDBRANCH  65  67
ENDBRANCH  49  65
ENDBRANCH  47  49
ENDBRANCH  43  45
ENDBRANCH   1  43
BRANCH   1  69
ATOM     69  C   UNL     1      -1.269   9.989   8.564  1.00  0.00    -0.001 C 
ATOM     70  C   UNL     1      -2.585  10.265   8.531  1.00  0.00     0.001 C 
BRANCH  70  71
ATOM     71  C   UNL     1      -3.312  11.190   9.403  1.00  0.00    -0.055 C 
ATOM     72  C   UNL     1      -3.496  10.825  10.690  1.00  0.00    -0.018 C 
ATOM     73  C   UNL     1      -3.796  12.485   8.805  1.00  0.00     0.044 C 
BRANCH  72  74
ATOM     74  C   UNL     1      -4.201  11.574  11.811  1.00  0.00     0.038 C 
ATOM     75  C   UNL     1      -3.114  12.102  12.756  1.00  0.00     0.015 C 
BRANCH  74  76
ATOM     76  C   UNL     1      -5.237  10.621  12.476  1.00  0.00     0.128 C 
BRANCH  76  77
ATOM     77  O   UNL     1      -6.569  11.114  12.255  1.00  0.00    -0.381 OA
ATOM     78  C   UNL     1      -7.561  10.096  12.253  1.00  0.00     0.195 C 
ENDBRANCH  76  77
BRANCH  76  79
ATOM     79  C   UNL     1      -5.073   9.134  12.073  1.00  0.00     0.068 C 
BRANCH  79  80
ATOM     80  C   UNL     1      -4.574   8.168  13.121  1.00  0.00    -0.045 A 
ATOM     81  C   UNL     1      -4.166   6.874  12.773  1.00  0.00     0.004 A 
ATOM     82  C   UNL     1      -4.539   8.547  14.471  1.00  0.00     0.004 A 
ATOM     83  C   UNL     1      -3.718   5.982  13.750  1.00  0.00     0.000 A 
ATOM     84  C   UNL     1      -4.092   7.653  15.448  1.00  0.00     0.000 A 
ATOM     85  C   UNL     1      -3.681   6.372  15.087  1.00  0.00     0.000 A 
ENDBRANCH  79  80
ENDBRANCH  76  79
ENDBRANCH  74  76
ENDBRANCH  72  74
ENDBRANCH  70  71
ENDBRANCH   1  69
TORSDOF 17
ENDMDL
MODEL 46
REMARK VINA RESULT:    -6.161      3.618      6.159
REMARK INTER + INTRA:         -25.636
REMARK INTER:                 -17.862
REMARK INTRA:                  -7.775
REMARK UNBOUND:                -7.229
REMARK SMILES C=C1C(=O)N[C@H](C)C(=O)N[C@@H](CC(C)C)C(=O)N[C@@H](C(=O)O)[C@H](C)C(=O)N[C@@H](CCCN=C(N)N)C(=O)N[C@@H](/C=C/C(C)=C/[C@H](C)[C@H](Cc2ccccc2)OC)[C@H](C)C(=O)N[C@@H](C(=O)O)CCC(=O)N1C
REMARK SMILES IDX 39 1 38 2 37 3 36 4 28 6 27 7 25 8 26 9 23 11 24 12 19 13
REMARK SMILES IDX 18 14 16 15 17 16 11 18 10 19 8 20 9 21 12 24 13 25 14 26
REMARK SMILES IDX 15 27 20 28 21 29 22 30 29 32 30 33 31 34 32 35 33 36 34 37
REMARK SMILES IDX 35 38 57 43 58 44 59 45 60 46 61 47 62 49 66 50 67 51 68 52
REMARK SMILES IDX 69 53 70 54 71 55 2 56 1 57 3 58 4 59 5 60 6 62 7 63 63 65
REMARK SMILES IDX 64 66 65 67 40 69 41 70 42 71 44 72 43 73 45 74 46 75 47 76
REMARK SMILES IDX 55 77 56 78 48 79 49 80 50 81 54 82 51 83 53 84 52 85
REMARK H PARENT 38 5 27 10 18 17 10 22 22 31 34 39 34 40 35 41 35 42 61 48
REMARK H PARENT 5 61 65 68
REMARK Flexibility Score:  369.900
ROOT
ATOM      1  C   UNL     1      -4.243   5.756   8.066  1.00  0.00     0.117 C 
ENDROOT
BRANCH   1   2
ATOM      2  N   UNL     1      -4.050   4.469   8.734  1.00  0.00    -0.347 N 
ATOM      3  O   UNL     1      -6.258   3.861   8.887  1.00  0.00    -0.273 OA
ATOM      4  C   UNL     1      -5.070   3.580   9.010  1.00  0.00     0.243 C 
ATOM      5  H   UNL     1      -3.116   4.171   8.973  1.00  0.00     0.164 HD
BRANCH   4   6
ATOM      6  C   UNL     1      -4.586   2.252   9.645  1.00  0.00     0.171 C 
BRANCH   6   7
ATOM      7  N   UNL     1      -3.147   2.060   9.401  1.00  0.00    -0.344 N 
ATOM      8  C   UNL     1      -2.708   1.124   8.490  1.00  0.00     0.226 C 
ATOM      9  O   UNL     1      -3.474   0.401   7.864  1.00  0.00    -0.275 OA
ATOM     10  H   UNL     1      -2.482   2.591   9.948  1.00  0.00     0.164 HD
BRANCH   8  11
ATOM     11  C   UNL     1      -1.200   1.084   8.311  1.00  0.00     0.109 C 
ATOM     12  C   UNL     1      -0.752   2.208   7.376  1.00  0.00     0.021 C 
BRANCH  11  13
ATOM     13  C   UNL     1      -0.512   1.075   9.691  1.00  0.00     0.204 C 
BRANCH  13  14
ATOM     14  N   UNL     1      -0.014  -0.256  10.050  1.00  0.00    -0.340 N 
ATOM     15  C   UNL     1      -0.195  -0.812  11.298  1.00  0.00     0.243 C 
ATOM     16  O   UNL     1      -0.842  -0.253  12.182  1.00  0.00    -0.273 OA
ATOM     17  H   UNL     1       0.656  -0.705   9.419  1.00  0.00     0.164 HD
BRANCH  15  18
ATOM     18  C   UNL     1       0.593  -2.128  11.509  1.00  0.00     0.171 C 
BRANCH  18  19
ATOM     19  N   UNL     1      -0.367  -3.117  11.995  1.00  0.00    -0.343 N 
ATOM     20  C   UNL     1      -0.293  -3.639  13.272  1.00  0.00     0.242 CG0
ATOM     21  O   UNL     1       0.658  -3.397  14.012  1.00  0.00    -0.273 OA
ATOM     22  H   UNL     1      -1.106  -3.437  11.379  1.00  0.00     0.164 HD
ATOM     23  G   UNL     1      -1.437  -4.609  13.631  1.00  0.00     0.000 G0
ENDBRANCH  18  19
BRANCH  18  24
ATOM     24  C   UNL     1       1.254  -2.580  10.201  1.00  0.00     0.038 C 
BRANCH  24  25
ATOM     25  C   UNL     1       2.789  -2.724  10.270  1.00  0.00    -0.015 C 
ATOM     26  C   UNL     1       3.297  -2.889  11.702  1.00  0.00     0.007 C 
ATOM     27  C   UNL     1       3.450  -1.502   9.626  1.00  0.00     0.007 C 
ENDBRANCH  24  25
ENDBRANCH  18  24
ENDBRANCH  15  18
ENDBRANCH  13  14
BRANCH  13  28
ATOM     28  C   UNL     1       0.672   2.043   9.781  1.00  0.00     0.327 C 
ATOM     29  O   UNL     1       1.849   1.763   9.608  1.00  0.00    -0.250 OA
BRANCH  28  30
ATOM     30  O   UNL     1       0.318   3.275  10.199  1.00  0.00    -0.480 OA
ATOM     31  H   UNL     1      -0.558   3.427   9.787  1.00  0.00     0.296 HD
ENDBRANCH  28  30
ENDBRANCH  13  28
ENDBRANCH  11  13
ENDBRANCH   8  11
ENDBRANCH   6   7
BRANCH   6  32
ATOM     32  C   UNL     1      -4.888   2.273  11.147  1.00  0.00     0.037 C 
BRANCH  32  33
ATOM     33  C   UNL     1      -3.797   1.570  11.967  1.00  0.00     0.026 C 
BRANCH  33  34
ATOM     34  C   UNL     1      -3.078   2.523  12.923  1.00  0.00     0.146 C 
BRANCH  34  35
ATOM     35  N   UNL     1      -2.350   3.513  12.139  1.00  0.00    -0.254 NA
ATOM     36  C   UNL     1      -2.598   4.754  12.335  1.00  0.00     0.185 C 
ATOM     37  N   UNL     1      -1.930   5.674  11.623  1.00  0.00    -0.370 N 
ATOM     38  N   UNL     1      -3.469   5.317  13.191  1.00  0.00    -0.370 N 
ATOM     39  H   UNL     1      -1.245   5.329  10.962  1.00  0.00     0.159 HD
ATOM     40  H   UNL     1      -1.938   6.657  11.837  1.00  0.00     0.159 HD
ATOM     41  H   UNL     1      -3.674   6.302  13.153  1.00  0.00     0.159 HD
ATOM     42  H   UNL     1      -4.052   4.743  13.780  1.00  0.00     0.159 HD
ENDBRANCH  34  35
ENDBRANCH  33  34
ENDBRANCH  32  33
ENDBRANCH   6  32
ENDBRANCH   4   6
ENDBRANCH   1   2
BRANCH   1  43
ATOM     43  C   UNL     1      -3.552   5.700   6.673  1.00  0.00     0.102 C 
ATOM     44  C   UNL     1      -3.418   4.273   6.113  1.00  0.00     0.020 C 
BRANCH  43  45
ATOM     45  C   UNL     1      -2.240   6.491   6.677  1.00  0.00     0.225 C 
ATOM     46  O   UNL     1      -2.183   7.696   6.449  1.00  0.00    -0.275 OA
ATOM     47  N   UNL     1      -1.099   5.745   6.862  1.00  0.00    -0.342 N 
ATOM     48  H   UNL     1      -1.171   4.794   7.195  1.00  0.00     0.164 HD
BRANCH  47  49
ATOM     49  C   UNL     1       0.225   6.372   6.924  1.00  0.00     0.192 C 
BRANCH  49  50
ATOM     50  C   UNL     1       1.271   5.427   6.327  1.00  0.00     0.047 C 
BRANCH  50  51
ATOM     51  C   UNL     1       2.011   6.056   5.138  1.00  0.00     0.103 C 
BRANCH  51  52
ATOM     52  C   UNL     1       1.081   6.318   3.956  1.00  0.00     0.226 C 
ATOM     53  O   UNL     1      -0.004   5.736   3.892  1.00  0.00    -0.275 OA
BRANCH  52  54
ATOM     54  N   UNL     1       1.502   7.291   3.030  1.00  0.00    -0.311 N 
ATOM     55  C   UNL     1       1.698   8.688   3.438  1.00  0.00     0.153 C 
BRANCH  54  56
ATOM     56  C   UNL     1       1.756   6.963   1.688  1.00  0.00     0.102 C 
ATOM     57  C   UNL     1       1.810   5.713   1.199  1.00  0.00     0.043 C 
BRANCH  56  58
ATOM     58  C   UNL     1       1.948   8.043   0.650  1.00  0.00     0.268 C 
ATOM     59  O   UNL     1       1.033   8.736   0.227  1.00  0.00    -0.268 OA
ATOM     60  N   UNL     1       3.262   8.209   0.280  1.00  0.00    -0.339 N 
ATOM     61  H   UNL     1       3.960   7.586   0.669  1.00  0.00     0.164 HD
BRANCH  60  62
ATOM     62  C   UNL     1       3.680   9.242  -0.666  1.00  0.00     0.168 CG0
ATOM     63  C   UNL     1       4.692  10.188  -0.032  1.00  0.00     0.041 C 
ATOM     64  G   UNL     1       2.444  10.019  -1.164  1.00  0.00     0.000 G0
ENDBRANCH  60  62
ENDBRANCH  56  58
ENDBRANCH  54  56
ENDBRANCH  52  54
ENDBRANCH  51  52
ENDBRANCH  50  51
ENDBRANCH  49  50
BRANCH  49  65
ATOM     65  C   UNL     1       0.619   6.720   8.368  1.00  0.00     0.326 C 
ATOM     66  O   UNL     1       1.511   7.489   8.695  1.00  0.00    -0.250 OA
BRANCH  65  67
ATOM     67  O   UNL     1      -0.071   6.051   9.318  1.00  0.00    -0.480 OA
ATOM     68  H   UNL     1      -0.988   6.036   8.969  1.00  0.00     0.296 HD
ENDBRANCH  65  67
ENDBRANCH  49  65
ENDBRANCH  47  49
ENDBRANCH  43  45
ENDBRANCH   1  43
BRANCH   1  69
ATOM     69  C   UNL     1      -3.807   6.819   9.058  1.00  0.00    -0.001 C 
ATOM     70  C   UNL     1      -4.592   7.555   9.864  1.00  0.00     0.001 C 
BRANCH  70  71
ATOM     71  C   UNL     1      -4.158   8.563  10.834  1.00  0.00    -0.055 C 
ATOM     72  C   UNL     1      -3.310   9.522  10.405  1.00  0.00    -0.018 C 
ATOM     73  C   UNL     1      -4.694   8.463  12.238  1.00  0.00     0.044 C 
BRANCH  72  74
ATOM     74  C   UNL     1      -2.702  10.684  11.176  1.00  0.00     0.038 C 
ATOM     75  C   UNL     1      -3.669  11.868  11.049  1.00  0.00     0.015 C 
BRANCH  74  76
ATOM     76  C   UNL     1      -1.268  10.952  10.631  1.00  0.00     0.128 C 
BRANCH  76  77
ATOM     77  O   UNL     1      -0.300  10.748  11.675  1.00  0.00    -0.381 OA
ATOM     78  C   UNL     1       0.839  10.006  11.261  1.00  0.00     0.195 C 
ENDBRANCH  76  77
BRANCH  76  79
ATOM     79  C   UNL     1      -0.930  10.167   9.339  1.00  0.00     0.068 C 
BRANCH  79  80
ATOM     80  C   UNL     1      -0.740  10.952   8.064  1.00  0.00    -0.045 A 
ATOM     81  C   UNL     1       0.194  10.551   7.100  1.00  0.00     0.004 A 
ATOM     82  C   UNL     1      -1.483  12.121   7.836  1.00  0.00     0.004 A 
ATOM     83  C   UNL     1       0.373  11.291   5.930  1.00  0.00     0.000 A 
ATOM     84  C   UNL     1      -1.303  12.861   6.666  1.00  0.00     0.000 A 
ATOM     85  C   UNL     1      -0.376  12.445   5.712  1.00  0.00     0.000 A 
ENDBRANCH  79  80
ENDBRANCH  76  79
ENDBRANCH  74  76
ENDBRANCH  72  74
ENDBRANCH  70  71
ENDBRANCH   1  69
TORSDOF 17
ENDMDL
MODEL 47
REMARK VINA RESULT:    -6.151      3.474     11.237
REMARK INTER + INTRA:         -25.605
REMARK INTER:                 -18.221
REMARK INTRA:                  -7.384
REMARK UNBOUND:                -7.229
REMARK SMILES C=C1C(=O)N[C@H](C)C(=O)N[C@@H](CC(C)C)C(=O)N[C@@H](C(=O)O)[C@H](C)C(=O)N[C@@H](CCCN=C(N)N)C(=O)N[C@@H](/C=C/C(C)=C/[C@H](C)[C@H](Cc2ccccc2)OC)[C@H](C)C(=O)N[C@@H](C(=O)O)CCC(=O)N1C
REMARK SMILES IDX 39 1 38 2 37 3 36 4 28 6 27 7 25 8 26 9 23 11 24 12 19 13
REMARK SMILES IDX 18 14 16 15 17 16 11 18 10 19 8 20 9 21 12 24 13 25 14 26
REMARK SMILES IDX 15 27 20 28 21 29 22 30 29 32 30 33 31 34 32 35 33 36 34 37
REMARK SMILES IDX 35 38 57 43 58 44 59 45 60 46 61 47 62 49 66 50 67 51 68 52
REMARK SMILES IDX 69 53 70 54 71 55 2 56 1 57 3 58 4 59 5 60 6 62 7 63 63 65
REMARK SMILES IDX 64 66 65 67 40 69 41 70 42 71 44 72 43 73 45 74 46 75 47 76
REMARK SMILES IDX 55 77 56 78 48 79 49 80 50 81 54 82 51 83 53 84 52 85
REMARK H PARENT 38 5 27 10 18 17 10 22 22 31 34 39 34 40 35 41 35 42 61 48
REMARK H PARENT 5 61 65 68
REMARK Flexibility Score:  369.900
ROOT
ATOM      1  C   UNL     1      -2.757   4.663  10.398  1.00  0.00     0.117 C 
ENDROOT
BRANCH   1   2
ATOM      2  N   UNL     1      -2.254   5.422   9.253  1.00  0.00    -0.347 N 
ATOM      3  O   UNL     1      -0.012   5.087   9.616  1.00  0.00    -0.273 OA
ATOM      4  C   UNL     1      -0.920   5.497   8.901  1.00  0.00     0.243 C 
ATOM      5  H   UNL     1      -2.908   5.887   8.642  1.00  0.00     0.164 HD
BRANCH   4   6
ATOM      6  C   UNL     1      -0.664   6.295   7.597  1.00  0.00     0.171 C 
BRANCH   6   7
ATOM      7  N   UNL     1       0.580   7.073   7.706  1.00  0.00    -0.344 N 
ATOM      8  C   UNL     1       0.611   8.403   7.346  1.00  0.00     0.226 C 
ATOM      9  O   UNL     1      -0.370   8.990   6.903  1.00  0.00    -0.275 OA
ATOM     10  H   UNL     1       1.427   6.606   8.003  1.00  0.00     0.164 HD
BRANCH   8  11
ATOM     11  C   UNL     1       1.952   9.080   7.568  1.00  0.00     0.109 C 
ATOM     12  C   UNL     1       1.748  10.568   7.855  1.00  0.00     0.021 C 
BRANCH  11  13
ATOM     13  C   UNL     1       2.751   8.316   8.642  1.00  0.00     0.204 C 
BRANCH  13  14
ATOM     14  N   UNL     1       3.965   7.703   8.094  1.00  0.00    -0.340 N 
ATOM     15  C   UNL     1       4.029   6.379   7.716  1.00  0.00     0.243 C 
ATOM     16  O   UNL     1       3.053   5.632   7.756  1.00  0.00    -0.273 OA
ATOM     17  H   UNL     1       4.844   8.220   8.177  1.00  0.00     0.164 HD
BRANCH  15  18
ATOM     18  C   UNL     1       5.461   5.905   7.366  1.00  0.00     0.171 C 
BRANCH  18  19
ATOM     19  N   UNL     1       6.378   6.900   7.919  1.00  0.00    -0.343 N 
ATOM     20  C   UNL     1       7.457   7.375   7.199  1.00  0.00     0.242 CG0
ATOM     21  O   UNL     1       7.773   6.889   6.116  1.00  0.00    -0.273 OA
ATOM     22  H   UNL     1       6.226   7.249   8.858  1.00  0.00     0.164 HD
ATOM     23  G   UNL     1       8.265   8.477   7.916  1.00  0.00     0.000 G0
ENDBRANCH  18  19
BRANCH  18  24
ATOM     24  C   UNL     1       5.727   4.511   7.948  1.00  0.00     0.038 C 
BRANCH  24  25
ATOM     25  C   UNL     1       6.316   3.496   6.945  1.00  0.00    -0.015 C 
ATOM     26  C   UNL     1       7.845   3.486   6.952  1.00  0.00     0.007 C 
ATOM     27  C   UNL     1       5.810   3.812   5.535  1.00  0.00     0.007 C 
ENDBRANCH  24  25
ENDBRANCH  18  24
ENDBRANCH  15  18
ENDBRANCH  13  14
BRANCH  13  28
ATOM     28  C   UNL     1       3.179   9.199   9.818  1.00  0.00     0.327 C 
ATOM     29  O   UNL     1       4.207   9.855   9.892  1.00  0.00    -0.250 OA
BRANCH  28  30
ATOM     30  O   UNL     1       2.348   9.110  10.876  1.00  0.00    -0.480 OA
ATOM     31  H   UNL     1       1.995   8.197  10.830  1.00  0.00     0.296 HD
ENDBRANCH  28  30
ENDBRANCH  13  28
ENDBRANCH  11  13
ENDBRANCH   8  11
ENDBRANCH   6   7
BRANCH   6  32
ATOM     32  C   UNL     1      -0.598   5.320   6.416  1.00  0.00     0.037 C 
BRANCH  32  33
ATOM     33  C   UNL     1      -0.795   6.029   5.068  1.00  0.00     0.026 C 
BRANCH  33  34
ATOM     34  C   UNL     1       0.500   6.116   4.258  1.00  0.00     0.146 C 
BRANCH  34  35
ATOM     35  N   UNL     1       0.389   7.219   3.314  1.00  0.00    -0.254 NA
ATOM     36  C   UNL     1       1.324   8.094   3.278  1.00  0.00     0.185 C 
ATOM     37  N   UNL     1       1.235   9.111   2.408  1.00  0.00    -0.370 N 
ATOM     38  N   UNL     1       2.447   8.160   4.015  1.00  0.00    -0.370 N 
ATOM     39  H   UNL     1       0.420   9.126   1.808  1.00  0.00     0.159 HD
ATOM     40  H   UNL     1       1.997   9.733   2.198  1.00  0.00     0.159 HD
ATOM     41  H   UNL     1       3.038   8.975   3.992  1.00  0.00     0.159 HD
ATOM     42  H   UNL     1       2.638   7.468   4.722  1.00  0.00     0.159 HD
ENDBRANCH  34  35
ENDBRANCH  33  34
ENDBRANCH  32  33
ENDBRANCH   6  32
ENDBRANCH   4   6
ENDBRANCH   1   2
BRANCH   1  43
ATOM     43  C   UNL     1      -3.710   3.550   9.874  1.00  0.00     0.102 C 
ATOM     44  C   UNL     1      -4.973   3.370  10.733  1.00  0.00     0.020 C 
BRANCH  43  45
ATOM     45  C   UNL     1      -2.945   2.248   9.614  1.00  0.00     0.225 C 
ATOM     46  O   UNL     1      -3.144   1.538   8.633  1.00  0.00    -0.275 OA
ATOM     47  N   UNL     1      -2.072   1.866  10.607  1.00  0.00    -0.342 N 
ATOM     48  H   UNL     1      -1.809   2.528  11.324  1.00  0.00     0.164 HD
BRANCH  47  49
ATOM     49  C   UNL     1      -1.246   0.662  10.479  1.00  0.00     0.192 C 
BRANCH  49  50
ATOM     50  C   UNL     1      -1.305  -0.143  11.779  1.00  0.00     0.047 C 
BRANCH  50  51
ATOM     51  C   UNL     1      -2.197   0.523  12.836  1.00  0.00     0.103 C 
BRANCH  51  52
ATOM     52  C   UNL     1      -3.116  -0.483  13.527  1.00  0.00     0.226 C 
ATOM     53  O   UNL     1      -2.934  -0.760  14.714  1.00  0.00    -0.275 OA
BRANCH  52  54
ATOM     54  N   UNL     1      -4.185  -0.985  12.761  1.00  0.00    -0.311 N 
ATOM     55  C   UNL     1      -5.038  -0.085  11.974  1.00  0.00     0.153 C 
BRANCH  54  56
ATOM     56  C   UNL     1      -4.471  -2.359  12.716  1.00  0.00     0.102 C 
ATOM     57  C   UNL     1      -3.748  -3.274  12.048  1.00  0.00     0.043 C 
BRANCH  56  58
ATOM     58  C   UNL     1      -5.637  -2.934  13.485  1.00  0.00     0.268 C 
ATOM     59  O   UNL     1      -5.726  -2.881  14.705  1.00  0.00    -0.268 OA
ATOM     60  N   UNL     1      -6.614  -3.460  12.674  1.00  0.00    -0.339 N 
ATOM     61  H   UNL     1      -6.459  -3.475  11.673  1.00  0.00     0.164 HD
BRANCH  60  62
ATOM     62  C   UNL     1      -7.858  -4.012  13.208  1.00  0.00     0.168 CG0
ATOM     63  C   UNL     1      -7.756  -5.522  13.382  1.00  0.00     0.041 C 
ATOM     64  G   UNL     1      -9.029  -3.647  12.273  1.00  0.00     0.000 G0
ENDBRANCH  60  62
ENDBRANCH  56  58
ENDBRANCH  54  56
ENDBRANCH  52  54
ENDBRANCH  51  52
ENDBRANCH  50  51
ENDBRANCH  49  50
BRANCH  49  65
ATOM     65  C   UNL     1       0.217   1.009  10.161  1.00  0.00     0.326 C 
ATOM     66  O   UNL     1       1.121   0.202  10.004  1.00  0.00    -0.250 OA
BRANCH  65  67
ATOM     67  O   UNL     1       0.485   2.333  10.115  1.00  0.00    -0.480 OA
ATOM     68  H   UNL     1       1.387   2.400  10.497  1.00  0.00     0.296 HD
ENDBRANCH  65  67
ENDBRANCH  49  65
ENDBRANCH  47  49
ENDBRANCH  43  45
ENDBRANCH   1  43
BRANCH   1  69
ATOM     69  C   UNL     1      -3.296   5.686  11.382  1.00  0.00    -0.001 C 
ATOM     70  C   UNL     1      -2.647   6.240  12.421  1.00  0.00     0.001 C 
BRANCH  70  71
ATOM     71  C   UNL     1      -3.171   7.242  13.351  1.00  0.00    -0.055 C 
ATOM     72  C   UNL     1      -4.504   7.449  13.366  1.00  0.00    -0.018 C 
ATOM     73  C   UNL     1      -2.185   7.966  14.231  1.00  0.00     0.044 C 
BRANCH  72  74
ATOM     74  C   UNL     1      -5.321   8.411  14.218  1.00  0.00     0.038 C 
ATOM     75  C   UNL     1      -6.506   7.620  14.784  1.00  0.00     0.015 C 
BRANCH  74  76
ATOM     76  C   UNL     1      -5.713   9.641  13.347  1.00  0.00     0.128 C 
BRANCH  76  77
ATOM     77  O   UNL     1      -7.043  10.073  13.680  1.00  0.00    -0.381 OA
ATOM     78  C   UNL     1      -7.100  11.393  14.203  1.00  0.00     0.195 C 
ENDBRANCH  76  77
BRANCH  76  79
ATOM     79  C   UNL     1      -4.680  10.795  13.387  1.00  0.00     0.068 C 
BRANCH  79  80
ATOM     80  C   UNL     1      -3.564  10.781  12.370  1.00  0.00    -0.045 A 
ATOM     81  C   UNL     1      -2.325  11.372  12.649  1.00  0.00     0.004 A 
ATOM     82  C   UNL     1      -3.763  10.195  11.110  1.00  0.00     0.004 A 
ATOM     83  C   UNL     1      -1.303  11.367  11.697  1.00  0.00     0.000 A 
ATOM     84  C   UNL     1      -2.740  10.191  10.159  1.00  0.00     0.000 A 
ATOM     85  C   UNL     1      -1.511  10.775  10.453  1.00  0.00     0.000 A 
ENDBRANCH  79  80
ENDBRANCH  76  79
ENDBRANCH  74  76
ENDBRANCH  72  74
ENDBRANCH  70  71
ENDBRANCH   1  69
TORSDOF 17
ENDMDL
MODEL 48
REMARK VINA RESULT:    -6.147      2.433     11.245
REMARK INTER + INTRA:         -25.595
REMARK INTER:                 -19.495
REMARK INTRA:                  -6.100
REMARK UNBOUND:                -7.229
REMARK SMILES C=C1C(=O)N[C@H](C)C(=O)N[C@@H](CC(C)C)C(=O)N[C@@H](C(=O)O)[C@H](C)C(=O)N[C@@H](CCCN=C(N)N)C(=O)N[C@@H](/C=C/C(C)=C/[C@H](C)[C@H](Cc2ccccc2)OC)[C@H](C)C(=O)N[C@@H](C(=O)O)CCC(=O)N1C
REMARK SMILES IDX 39 1 38 2 37 3 36 4 28 6 27 7 25 8 26 9 23 11 24 12 19 13
REMARK SMILES IDX 18 14 16 15 17 16 11 18 10 19 8 20 9 21 12 24 13 25 14 26
REMARK SMILES IDX 15 27 20 28 21 29 22 30 29 32 30 33 31 34 32 35 33 36 34 37
REMARK SMILES IDX 35 38 57 43 58 44 59 45 60 46 61 47 62 49 66 50 67 51 68 52
REMARK SMILES IDX 69 53 70 54 71 55 2 56 1 57 3 58 4 59 5 60 6 62 7 63 63 65
REMARK SMILES IDX 64 66 65 67 40 69 41 70 42 71 44 72 43 73 45 74 46 75 47 76
REMARK SMILES IDX 55 77 56 78 48 79 49 80 50 81 54 82 51 83 53 84 52 85
REMARK H PARENT 38 5 27 10 18 17 10 22 22 31 34 39 34 40 35 41 35 42 61 48
REMARK H PARENT 5 61 65 68
REMARK Flexibility Score:  369.900
ROOT
ATOM      1  C   UNL     1      -0.312   6.544   7.122  1.00  0.00     0.117 C 
ENDROOT
BRANCH   1   2
ATOM      2  N   UNL     1       0.859   7.284   6.648  1.00  0.00    -0.347 N 
ATOM      3  O   UNL     1       2.454   6.140   7.840  1.00  0.00    -0.273 OA
ATOM      4  C   UNL     1       2.162   6.961   6.976  1.00  0.00     0.243 C 
ATOM      5  H   UNL     1       0.733   8.048   6.002  1.00  0.00     0.164 HD
BRANCH   4   6
ATOM      6  C   UNL     1       3.219   7.849   6.273  1.00  0.00     0.171 C 
BRANCH   6   7
ATOM      7  N   UNL     1       3.431   7.398   4.888  1.00  0.00    -0.344 N 
ATOM      8  C   UNL     1       2.695   7.934   3.854  1.00  0.00     0.226 C 
ATOM      9  O   UNL     1       1.828   8.782   4.031  1.00  0.00    -0.275 OA
ATOM     10  H   UNL     1       4.091   6.651   4.711  1.00  0.00     0.164 HD
BRANCH   8  11
ATOM     11  C   UNL     1       3.068   7.405   2.480  1.00  0.00     0.109 C 
ATOM     12  C   UNL     1       2.184   6.212   2.118  1.00  0.00     0.021 C 
BRANCH  11  13
ATOM     13  C   UNL     1       3.054   8.557   1.456  1.00  0.00     0.204 C 
BRANCH  13  14
ATOM     14  N   UNL     1       4.169   8.467   0.508  1.00  0.00    -0.340 N 
ATOM     15  C   UNL     1       5.123   9.453   0.379  1.00  0.00     0.243 C 
ATOM     16  O   UNL     1       5.141  10.453   1.095  1.00  0.00    -0.273 OA
ATOM     17  H   UNL     1       4.128   7.743  -0.214  1.00  0.00     0.164 HD
BRANCH  15  18
ATOM     18  C   UNL     1       6.077   9.238  -0.822  1.00  0.00     0.171 C 
BRANCH  18  19
ATOM     19  N   UNL     1       5.317   8.505  -1.833  1.00  0.00    -0.343 N 
ATOM     20  C   UNL     1       5.875   7.465  -2.551  1.00  0.00     0.242 CG0
ATOM     21  O   UNL     1       7.070   7.194  -2.469  1.00  0.00    -0.273 OA
ATOM     22  H   UNL     1       4.357   8.768  -2.021  1.00  0.00     0.164 HD
ATOM     23  G   UNL     1       4.897   6.762  -3.516  1.00  0.00     0.000 G0
ENDBRANCH  18  19
BRANCH  18  24
ATOM     24  C   UNL     1       6.581  10.582  -1.361  1.00  0.00     0.038 C 
BRANCH  24  25
ATOM     25  C   UNL     1       8.046  10.911  -1.005  1.00  0.00    -0.015 C 
ATOM     26  C   UNL     1       8.846  11.399  -2.213  1.00  0.00     0.007 C 
ATOM     27  C   UNL     1       8.720   9.674  -0.406  1.00  0.00     0.007 C 
ENDBRANCH  24  25
ENDBRANCH  18  24
ENDBRANCH  15  18
ENDBRANCH  13  14
BRANCH  13  28
ATOM     28  C   UNL     1       1.763   8.618   0.633  1.00  0.00     0.327 C 
ATOM     29  O   UNL     1       1.653   8.369  -0.558  1.00  0.00    -0.250 OA
BRANCH  28  30
ATOM     30  O   UNL     1       0.714   9.101   1.330  1.00  0.00    -0.480 OA
ATOM     31  H   UNL     1       0.854   8.765   2.240  1.00  0.00     0.296 HD
ENDBRANCH  28  30
ENDBRANCH  13  28
ENDBRANCH  11  13
ENDBRANCH   8  11
ENDBRANCH   6   7
BRANCH   6  32
ATOM     32  C   UNL     1       2.755   9.309   6.307  1.00  0.00     0.037 C 
BRANCH  32  33
ATOM     33  C   UNL     1       2.682   9.860   7.738  1.00  0.00     0.026 C 
BRANCH  33  34
ATOM     34  C   UNL     1       1.654  10.983   7.882  1.00  0.00     0.146 C 
BRANCH  34  35
ATOM     35  N   UNL     1       1.193  11.370   6.555  1.00  0.00    -0.254 NA
ATOM     36  C   UNL     1       0.135  12.085   6.457  1.00  0.00     0.185 C 
ATOM     37  N   UNL     1      -0.295  12.452   5.240  1.00  0.00    -0.370 N 
ATOM     38  N   UNL     1      -0.661  12.556   7.434  1.00  0.00    -0.370 N 
ATOM     39  H   UNL     1       0.258  12.145   4.451  1.00  0.00     0.159 HD
ATOM     40  H   UNL     1      -1.006  13.147   5.088  1.00  0.00     0.159 HD
ATOM     41  H   UNL     1      -1.544  12.990   7.222  1.00  0.00     0.159 HD
ATOM     42  H   UNL     1      -0.466  12.344   8.400  1.00  0.00     0.159 HD
ENDBRANCH  34  35
ENDBRANCH  33  34
ENDBRANCH  32  33
ENDBRANCH   6  32
ENDBRANCH   4   6
ENDBRANCH   1   2
BRANCH   1  43
ATOM     43  C   UNL     1      -0.785   5.588   5.989  1.00  0.00     0.102 C 
ATOM     44  C   UNL     1      -0.469   6.109   4.577  1.00  0.00     0.020 C 
BRANCH  43  45
ATOM     45  C   UNL     1      -2.249   5.182   6.188  1.00  0.00     0.225 C 
ATOM     46  O   UNL     1      -3.110   5.330   5.326  1.00  0.00    -0.275 OA
ATOM     47  N   UNL     1      -2.569   4.719   7.444  1.00  0.00    -0.342 N 
ATOM     48  H   UNL     1      -1.832   4.461   8.085  1.00  0.00     0.164 HD
BRANCH  47  49
ATOM     49  C   UNL     1      -3.923   4.260   7.769  1.00  0.00     0.192 C 
BRANCH  49  50
ATOM     50  C   UNL     1      -4.432   4.998   9.010  1.00  0.00     0.047 C 
BRANCH  50  51
ATOM     51  C   UNL     1      -4.042   6.482   9.005  1.00  0.00     0.103 C 
BRANCH  51  52
ATOM     52  C   UNL     1      -4.095   7.093  10.404  1.00  0.00     0.226 C 
ATOM     53  O   UNL     1      -4.896   7.999  10.644  1.00  0.00    -0.275 OA
BRANCH  52  54
ATOM     54  N   UNL     1      -3.254   6.515  11.373  1.00  0.00    -0.311 N 
ATOM     55  C   UNL     1      -1.831   6.279  11.095  1.00  0.00     0.153 C 
BRANCH  54  56
ATOM     56  C   UNL     1      -3.739   6.149  12.639  1.00  0.00     0.102 C 
ATOM     57  C   UNL     1      -3.841   6.976  13.692  1.00  0.00     0.043 C 
BRANCH  56  58
ATOM     58  C   UNL     1      -4.243   4.749  12.901  1.00  0.00     0.268 C 
ATOM     59  O   UNL     1      -4.048   3.814  12.136  1.00  0.00    -0.268 OA
ATOM     60  N   UNL     1      -4.882   4.622  14.111  1.00  0.00    -0.339 N 
ATOM     61  H   UNL     1      -5.012   5.449  14.682  1.00  0.00     0.164 HD
BRANCH  60  62
ATOM     62  C   UNL     1      -5.394   3.339  14.591  1.00  0.00     0.168 CG0
ATOM     63  C   UNL     1      -6.797   3.490  15.166  1.00  0.00     0.041 C 
ATOM     64  G   UNL     1      -4.430   2.762  15.648  1.00  0.00     0.000 G0
ENDBRANCH  60  62
ENDBRANCH  56  58
ENDBRANCH  54  56
ENDBRANCH  52  54
ENDBRANCH  51  52
ENDBRANCH  50  51
ENDBRANCH  49  50
BRANCH  49  65
ATOM     65  C   UNL     1      -3.962   2.745   8.026  1.00  0.00     0.326 C 
ATOM     66  O   UNL     1      -3.843   1.877   7.174  1.00  0.00    -0.250 OA
BRANCH  65  67
ATOM     67  O   UNL     1      -4.204   2.397   9.309  1.00  0.00    -0.480 OA
ATOM     68  H   UNL     1      -4.341   1.426   9.263  1.00  0.00     0.296 HD
ENDBRANCH  65  67
ENDBRANCH  49  65
ENDBRANCH  47  49
ENDBRANCH  43  45
ENDBRANCH   1  43
BRANCH   1  69
ATOM     69  C   UNL     1      -1.280   7.583   7.658  1.00  0.00    -0.001 C 
ATOM     70  C   UNL     1      -1.009   8.596   8.499  1.00  0.00     0.001 C 
BRANCH  70  71
ATOM     71  C   UNL     1      -1.948   9.605   8.993  1.00  0.00    -0.055 C 
ATOM     72  C   UNL     1      -1.736  10.109  10.227  1.00  0.00    -0.018 C 
ATOM     73  C   UNL     1      -3.078  10.016   8.086  1.00  0.00     0.044 C 
BRANCH  72  74
ATOM     74  C   UNL     1      -2.534  11.157  10.989  1.00  0.00     0.038 C 
ATOM     75  C   UNL     1      -1.753  12.474  10.900  1.00  0.00     0.015 C 
BRANCH  74  76
ATOM     76  C   UNL     1      -2.783  10.642  12.438  1.00  0.00     0.128 C 
BRANCH  76  77
ATOM     77  O   UNL     1      -1.545  10.617  13.169  1.00  0.00    -0.381 OA
ATOM     78  C   UNL     1      -1.215   9.335  13.688  1.00  0.00     0.195 C 
ENDBRANCH  76  77
BRANCH  76  79
ATOM     79  C   UNL     1      -3.908  11.396  13.190  1.00  0.00     0.068 C 
BRANCH  79  80
ATOM     80  C   UNL     1      -5.193  10.655  13.468  1.00  0.00    -0.045 A 
ATOM     81  C   UNL     1      -5.429  10.062  14.716  1.00  0.00     0.004 A 
ATOM     82  C   UNL     1      -6.165  10.522  12.464  1.00  0.00     0.004 A 
ATOM     83  C   UNL     1      -6.614   9.366  14.960  1.00  0.00     0.000 A 
ATOM     84  C   UNL     1      -7.349   9.825  12.710  1.00  0.00     0.000 A 
ATOM     85  C   UNL     1      -7.575   9.248  13.958  1.00  0.00     0.000 A 
ENDBRANCH  79  80
ENDBRANCH  76  79
ENDBRANCH  74  76
ENDBRANCH  72  74
ENDBRANCH  70  71
ENDBRANCH   1  69
TORSDOF 17
ENDMDL
MODEL 49
REMARK VINA RESULT:    -6.092      4.255     11.882
REMARK INTER + INTRA:         -25.431
REMARK INTER:                 -18.169
REMARK INTRA:                  -7.262
REMARK UNBOUND:                -7.229
REMARK SMILES C=C1C(=O)N[C@H](C)C(=O)N[C@@H](CC(C)C)C(=O)N[C@@H](C(=O)O)[C@H](C)C(=O)N[C@@H](CCCN=C(N)N)C(=O)N[C@@H](/C=C/C(C)=C/[C@H](C)[C@H](Cc2ccccc2)OC)[C@H](C)C(=O)N[C@@H](C(=O)O)CCC(=O)N1C
REMARK SMILES IDX 39 1 38 2 37 3 36 4 28 6 27 7 25 8 26 9 23 11 24 12 19 13
REMARK SMILES IDX 18 14 16 15 17 16 11 18 10 19 8 20 9 21 12 24 13 25 14 26
REMARK SMILES IDX 15 27 20 28 21 29 22 30 29 32 30 33 31 34 32 35 33 36 34 37
REMARK SMILES IDX 35 38 57 43 58 44 59 45 60 46 61 47 62 49 66 50 67 51 68 52
REMARK SMILES IDX 69 53 70 54 71 55 2 56 1 57 3 58 4 59 5 60 6 62 7 63 63 65
REMARK SMILES IDX 64 66 65 67 40 69 41 70 42 71 44 72 43 73 45 74 46 75 47 76
REMARK SMILES IDX 55 77 56 78 48 79 49 80 50 81 54 82 51 83 53 84 52 85
REMARK H PARENT 38 5 27 10 18 17 10 22 22 31 34 39 34 40 35 41 35 42 61 48
REMARK H PARENT 5 61 65 68
REMARK Flexibility Score:  369.900
ROOT
ATOM      1  C   UNL     1      -3.804   3.056  12.839  1.00  0.00     0.117 C 
ENDROOT
BRANCH   1   2
ATOM      2  N   UNL     1      -2.917   2.877  11.689  1.00  0.00    -0.347 N 
ATOM      3  O   UNL     1      -4.131   4.092  10.165  1.00  0.00    -0.273 OA
ATOM      4  C   UNL     1      -3.106   3.488  10.464  1.00  0.00     0.243 C 
ATOM      5  H   UNL     1      -2.084   2.317  11.790  1.00  0.00     0.164 HD
BRANCH   4   6
ATOM      6  C   UNL     1      -1.975   3.201   9.444  1.00  0.00     0.171 C 
BRANCH   6   7
ATOM      7  N   UNL     1      -1.600   4.433   8.732  1.00  0.00    -0.344 N 
ATOM      8  C   UNL     1      -1.210   4.391   7.411  1.00  0.00     0.226 C 
ATOM      9  O   UNL     1      -1.134   3.344   6.779  1.00  0.00    -0.275 OA
ATOM     10  H   UNL     1      -1.585   5.309   9.241  1.00  0.00     0.164 HD
BRANCH   8  11
ATOM     11  C   UNL     1      -0.908   5.750   6.804  1.00  0.00     0.109 C 
ATOM     12  C   UNL     1      -1.272   5.755   5.319  1.00  0.00     0.021 C 
BRANCH  11  13
ATOM     13  C   UNL     1      -1.581   6.856   7.641  1.00  0.00     0.204 C 
BRANCH  13  14
ATOM     14  N   UNL     1      -0.860   8.130   7.552  1.00  0.00    -0.340 N 
ATOM     15  C   UNL     1       0.309   8.377   8.239  1.00  0.00     0.243 C 
ATOM     16  O   UNL     1       0.864   7.523   8.928  1.00  0.00    -0.273 OA
ATOM     17  H   UNL     1      -1.341   8.925   7.124  1.00  0.00     0.164 HD
BRANCH  15  18
ATOM     18  C   UNL     1       0.774   9.852   8.158  1.00  0.00     0.171 C 
BRANCH  18  19
ATOM     19  N   UNL     1       0.467  10.313   6.805  1.00  0.00    -0.343 N 
ATOM     20  C   UNL     1       1.397  10.987   6.037  1.00  0.00     0.242 CG0
ATOM     21  O   UNL     1       2.477  11.345   6.501  1.00  0.00    -0.273 OA
ATOM     22  H   UNL     1      -0.454  10.143   6.418  1.00  0.00     0.164 HD
ATOM     23  G   UNL     1       0.919  11.324   4.609  1.00  0.00     0.000 G0
ENDBRANCH  18  19
BRANCH  18  24
ATOM     24  C   UNL     1       0.062  10.703   9.217  1.00  0.00     0.038 C 
BRANCH  24  25
ATOM     25  C   UNL     1      -0.968  11.705   8.653  1.00  0.00    -0.015 C 
ATOM     26  C   UNL     1      -0.854  13.086   9.298  1.00  0.00     0.007 C 
ATOM     27  C   UNL     1      -2.383  11.156   8.855  1.00  0.00     0.007 C 
ENDBRANCH  24  25
ENDBRANCH  18  24
ENDBRANCH  15  18
ENDBRANCH  13  14
BRANCH  13  28
ATOM     28  C   UNL     1      -3.032   7.126   7.229  1.00  0.00     0.327 C 
ATOM     29  O   UNL     1      -3.414   7.983   6.447  1.00  0.00    -0.250 OA
BRANCH  28  30
ATOM     30  O   UNL     1      -3.923   6.381   7.915  1.00  0.00    -0.480 OA
ATOM     31  H   UNL     1      -3.376   5.705   8.366  1.00  0.00     0.296 HD
ENDBRANCH  28  30
ENDBRANCH  13  28
ENDBRANCH  11  13
ENDBRANCH   8  11
ENDBRANCH   6   7
BRANCH   6  32
ATOM     32  C   UNL     1      -0.770   2.607  10.182  1.00  0.00     0.037 C 
BRANCH  32  33
ATOM     33  C   UNL     1      -0.572   1.119   9.863  1.00  0.00     0.026 C 
BRANCH  33  34
ATOM     34  C   UNL     1       0.481   0.888   8.777  1.00  0.00     0.146 C 
BRANCH  34  35
ATOM     35  N   UNL     1       1.446  -0.090   9.259  1.00  0.00    -0.254 NA
ATOM     36  C   UNL     1       2.573   0.326   9.703  1.00  0.00     0.185 C 
ATOM     37  N   UNL     1       3.468  -0.567  10.153  1.00  0.00    -0.370 N 
ATOM     38  N   UNL     1       3.031   1.587   9.796  1.00  0.00    -0.370 N 
ATOM     39  H   UNL     1       3.192  -1.540  10.126  1.00  0.00     0.159 HD
ATOM     40  H   UNL     1       4.292  -0.315  10.672  1.00  0.00     0.159 HD
ATOM     41  H   UNL     1       3.991   1.776  10.033  1.00  0.00     0.159 HD
ATOM     42  H   UNL     1       2.469   2.361   9.478  1.00  0.00     0.159 HD
ENDBRANCH  34  35
ENDBRANCH  33  34
ENDBRANCH  32  33
ENDBRANCH   6  32
ENDBRANCH   4   6
ENDBRANCH   1   2
BRANCH   1  43
ATOM     43  C   UNL     1      -5.089   2.208  12.610  1.00  0.00     0.102 C 
ATOM     44  C   UNL     1      -6.193   2.478  13.645  1.00  0.00     0.020 C 
BRANCH  43  45
ATOM     45  C   UNL     1      -4.745   0.724  12.441  1.00  0.00     0.225 C 
ATOM     46  O   UNL     1      -3.902   0.317  11.646  1.00  0.00    -0.275 OA
ATOM     47  N   UNL     1      -5.514  -0.149  13.175  1.00  0.00    -0.342 N 
ATOM     48  H   UNL     1      -6.090   0.202  13.927  1.00  0.00     0.164 HD
BRANCH  47  49
ATOM     49  C   UNL     1      -5.275  -1.595  13.141  1.00  0.00     0.192 C 
BRANCH  49  50
ATOM     50  C   UNL     1      -6.585  -2.325  12.832  1.00  0.00     0.047 C 
BRANCH  50  51
ATOM     51  C   UNL     1      -6.545  -3.044  11.477  1.00  0.00     0.103 C 
BRANCH  51  52
ATOM     52  C   UNL     1      -7.915  -3.584  11.073  1.00  0.00     0.226 C 
ATOM     53  O   UNL     1      -8.822  -3.632  11.907  1.00  0.00    -0.275 OA
BRANCH  52  54
ATOM     54  N   UNL     1      -8.079  -3.931   9.719  1.00  0.00    -0.311 N 
ATOM     55  C   UNL     1      -9.087  -3.264   8.885  1.00  0.00     0.153 C 
BRANCH  54  56
ATOM     56  C   UNL     1      -7.283  -4.918   9.115  1.00  0.00     0.102 C 
ATOM     57  C   UNL     1      -6.561  -4.745   7.996  1.00  0.00     0.043 C 
BRANCH  56  58
ATOM     58  C   UNL     1      -7.146  -6.289   9.735  1.00  0.00     0.268 C 
ATOM     59  O   UNL     1      -6.181  -6.626  10.408  1.00  0.00    -0.268 OA
ATOM     60  N   UNL     1      -8.242  -7.091   9.520  1.00  0.00    -0.339 N 
ATOM     61  H   UNL     1      -8.996  -6.741   8.942  1.00  0.00     0.164 HD
BRANCH  60  62
ATOM     62  C   UNL     1      -8.345  -8.436  10.085  1.00  0.00     0.168 CG0
ATOM     63  C   UNL     1      -8.820  -9.434   9.036  1.00  0.00     0.041 C 
ATOM     64  G   UNL     1      -9.302  -8.417  11.294  1.00  0.00     0.000 G0
ENDBRANCH  60  62
ENDBRANCH  56  58
ENDBRANCH  54  56
ENDBRANCH  52  54
ENDBRANCH  51  52
ENDBRANCH  50  51
ENDBRANCH  49  50
BRANCH  49  65
ATOM     65  C   UNL     1      -4.709  -2.108  14.474  1.00  0.00     0.326 C 
ATOM     66  O   UNL     1      -5.019  -3.156  15.022  1.00  0.00    -0.250 OA
BRANCH  65  67
ATOM     67  O   UNL     1      -3.840  -1.267  15.078  1.00  0.00    -0.480 OA
ATOM     68  H   UNL     1      -3.060  -1.834  15.262  1.00  0.00     0.296 HD
ENDBRANCH  65  67
ENDBRANCH  49  65
ENDBRANCH  47  49
ENDBRANCH  43  45
ENDBRANCH   1  43
BRANCH   1  69
ATOM     69  C   UNL     1      -3.941   4.554  13.040  1.00  0.00    -0.001 C 
ATOM     70  C   UNL     1      -3.789   5.241  14.186  1.00  0.00     0.001 C 
BRANCH  70  71
ATOM     71  C   UNL     1      -3.903   6.691  14.363  1.00  0.00    -0.055 C 
ATOM     72  C   UNL     1      -5.068   7.276  14.017  1.00  0.00    -0.018 C 
ATOM     73  C   UNL     1      -2.714   7.424  14.928  1.00  0.00     0.044 C 
BRANCH  72  74
ATOM     74  C   UNL     1      -5.470   8.742  14.093  1.00  0.00     0.038 C 
ATOM     75  C   UNL     1      -6.522   8.866  15.201  1.00  0.00     0.015 C 
BRANCH  74  76
ATOM     76  C   UNL     1      -5.947   9.205  12.685  1.00  0.00     0.128 C 
BRANCH  76  77
ATOM     77  O   UNL     1      -7.225   9.854  12.788  1.00  0.00    -0.381 OA
ATOM     78  C   UNL     1      -7.194  11.233  12.443  1.00  0.00     0.195 C 
ENDBRANCH  76  77
BRANCH  76  79
ATOM     79  C   UNL     1      -4.904  10.053  11.914  1.00  0.00     0.068 C 
BRANCH  79  80
ATOM     80  C   UNL     1      -3.463   9.601  11.945  1.00  0.00    -0.045 A 
ATOM     81  C   UNL     1      -3.057   8.437  11.279  1.00  0.00     0.004 A 
ATOM     82  C   UNL     1      -2.509  10.331  12.670  1.00  0.00     0.004 A 
ATOM     83  C   UNL     1      -1.726   8.019  11.325  1.00  0.00     0.000 A 
ATOM     84  C   UNL     1      -1.178   9.911  12.715  1.00  0.00     0.000 A 
ATOM     85  C   UNL     1      -0.786   8.757  12.042  1.00  0.00     0.000 A 
ENDBRANCH  79  80
ENDBRANCH  76  79
ENDBRANCH  74  76
ENDBRANCH  72  74
ENDBRANCH  70  71
ENDBRANCH   1  69
TORSDOF 17
ENDMDL
MODEL 50
REMARK VINA RESULT:    -6.088      3.485      6.111
REMARK INTER + INTRA:         -25.417
REMARK INTER:                 -17.600
REMARK INTRA:                  -7.817
REMARK UNBOUND:                -7.229
REMARK SMILES C=C1C(=O)N[C@H](C)C(=O)N[C@@H](CC(C)C)C(=O)N[C@@H](C(=O)O)[C@H](C)C(=O)N[C@@H](CCCN=C(N)N)C(=O)N[C@@H](/C=C/C(C)=C/[C@H](C)[C@H](Cc2ccccc2)OC)[C@H](C)C(=O)N[C@@H](C(=O)O)CCC(=O)N1C
REMARK SMILES IDX 39 1 38 2 37 3 36 4 28 6 27 7 25 8 26 9 23 11 24 12 19 13
REMARK SMILES IDX 18 14 16 15 17 16 11 18 10 19 8 20 9 21 12 24 13 25 14 26
REMARK SMILES IDX 15 27 20 28 21 29 22 30 29 32 30 33 31 34 32 35 33 36 34 37
REMARK SMILES IDX 35 38 57 43 58 44 59 45 60 46 61 47 62 49 66 50 67 51 68 52
REMARK SMILES IDX 69 53 70 54 71 55 2 56 1 57 3 58 4 59 5 60 6 62 7 63 63 65
REMARK SMILES IDX 64 66 65 67 40 69 41 70 42 71 44 72 43 73 45 74 46 75 47 76
REMARK SMILES IDX 55 77 56 78 48 79 49 80 50 81 54 82 51 83 53 84 52 85
REMARK H PARENT 38 5 27 10 18 17 10 22 22 31 34 39 34 40 35 41 35 42 61 48
REMARK H PARENT 5 61 65 68
REMARK Flexibility Score:  369.900
ROOT
ATOM      1  C   UNL     1      -4.230   5.401   8.100  1.00  0.00     0.117 C 
ENDROOT
BRANCH   1   2
ATOM      2  N   UNL     1      -3.939   4.322   9.045  1.00  0.00    -0.347 N 
ATOM      3  O   UNL     1      -6.083   3.543   9.300  1.00  0.00    -0.273 OA
ATOM      4  C   UNL     1      -4.879   3.418   9.500  1.00  0.00     0.243 C 
ATOM      5  H   UNL     1      -2.990   4.181   9.357  1.00  0.00     0.164 HD
BRANCH   4   6
ATOM      6  C   UNL     1      -4.293   2.322  10.426  1.00  0.00     0.171 C 
BRANCH   6   7
ATOM      7  N   UNL     1      -2.925   1.974  10.009  1.00  0.00    -0.344 N 
ATOM      8  C   UNL     1      -2.691   0.875   9.211  1.00  0.00     0.226 C 
ATOM      9  O   UNL     1      -3.588   0.131   8.833  1.00  0.00    -0.275 OA
ATOM     10  H   UNL     1      -2.151   2.526  10.357  1.00  0.00     0.164 HD
BRANCH   8  11
ATOM     11  C   UNL     1      -1.236   0.682   8.823  1.00  0.00     0.109 C 
ATOM     12  C   UNL     1      -0.826   1.724   7.783  1.00  0.00     0.021 C 
BRANCH  11  13
ATOM     13  C   UNL     1      -0.358   0.651  10.090  1.00  0.00     0.204 C 
BRANCH  13  14
ATOM     14  N   UNL     1      -0.540  -0.585  10.858  1.00  0.00    -0.340 N 
ATOM     15  C   UNL     1      -1.218  -0.628  12.057  1.00  0.00     0.243 C 
ATOM     16  O   UNL     1      -1.771   0.359  12.539  1.00  0.00    -0.273 OA
ATOM     17  H   UNL     1       0.018  -1.401  10.594  1.00  0.00     0.164 HD
BRANCH  15  18
ATOM     18  C   UNL     1      -1.103  -1.991  12.784  1.00  0.00     0.171 C 
BRANCH  18  19
ATOM     19  N   UNL     1      -0.564  -1.712  14.113  1.00  0.00    -0.343 N 
ATOM     20  C   UNL     1       0.351  -2.552  14.719  1.00  0.00     0.242 CG0
ATOM     21  O   UNL     1       0.652  -3.637  14.228  1.00  0.00    -0.273 OA
ATOM     22  H   UNL     1      -0.871  -0.884  14.611  1.00  0.00     0.164 HD
ATOM     23  G   UNL     1       0.866  -2.053  16.085  1.00  0.00     0.000 G0
ENDBRANCH  18  19
BRANCH  18  24
ATOM     24  C   UNL     1      -2.472  -2.678  12.865  1.00  0.00     0.038 C 
BRANCH  24  25
ATOM     25  C   UNL     1      -2.941  -3.338  11.551  1.00  0.00    -0.015 C 
ATOM     26  C   UNL     1      -4.201  -2.684  10.985  1.00  0.00     0.007 C 
ATOM     27  C   UNL     1      -3.196  -4.829  11.787  1.00  0.00     0.007 C 
ENDBRANCH  24  25
ENDBRANCH  18  24
ENDBRANCH  15  18
ENDBRANCH  13  14
BRANCH  13  28
ATOM     28  C   UNL     1       1.138   0.783   9.791  1.00  0.00     0.327 C 
ATOM     29  O   UNL     1       1.863  -0.086   9.332  1.00  0.00    -0.250 OA
BRANCH  28  30
ATOM     30  O   UNL     1       1.657   1.959  10.199  1.00  0.00    -0.480 OA
ATOM     31  H   UNL     1       1.327   2.064  11.115  1.00  0.00     0.296 HD
ENDBRANCH  28  30
ENDBRANCH  13  28
ENDBRANCH  11  13
ENDBRANCH   8  11
ENDBRANCH   6   7
BRANCH   6  32
ATOM     32  C   UNL     1      -4.313   2.822  11.874  1.00  0.00     0.037 C 
BRANCH  32  33
ATOM     33  C   UNL     1      -2.955   3.389  12.310  1.00  0.00     0.026 C 
BRANCH  33  34
ATOM     34  C   UNL     1      -2.995   4.903  12.526  1.00  0.00     0.146 C 
BRANCH  34  35
ATOM     35  N   UNL     1      -2.127   5.540  11.546  1.00  0.00    -0.254 NA
ATOM     36  C   UNL     1      -1.584   6.662  11.843  1.00  0.00     0.185 C 
ATOM     37  N   UNL     1      -0.779   7.255  10.949  1.00  0.00    -0.370 N 
ATOM     38  N   UNL     1      -1.697   7.381  12.974  1.00  0.00    -0.370 N 
ATOM     39  H   UNL     1      -0.634   6.768  10.074  1.00  0.00     0.159 HD
ATOM     40  H   UNL     1      -0.185   8.037  11.169  1.00  0.00     0.159 HD
ATOM     41  H   UNL     1      -1.331   8.318  13.034  1.00  0.00     0.159 HD
ATOM     42  H   UNL     1      -2.285   7.063  13.728  1.00  0.00     0.159 HD
ENDBRANCH  34  35
ENDBRANCH  33  34
ENDBRANCH  32  33
ENDBRANCH   6  32
ENDBRANCH   4   6
ENDBRANCH   1   2
BRANCH   1  43
ATOM     43  C   UNL     1      -3.507   5.091   6.757  1.00  0.00     0.102 C 
ATOM     44  C   UNL     1      -3.236   3.593   6.539  1.00  0.00     0.020 C 
BRANCH  43  45
ATOM     45  C   UNL     1      -2.271   5.978   6.580  1.00  0.00     0.225 C 
ATOM     46  O   UNL     1      -2.315   7.096   6.075  1.00  0.00    -0.275 OA
ATOM     47  N   UNL     1      -1.074   5.404   6.941  1.00  0.00    -0.342 N 
ATOM     48  H   UNL     1      -1.071   4.555   7.489  1.00  0.00     0.164 HD
BRANCH  47  49
ATOM     49  C   UNL     1       0.187   6.147   6.860  1.00  0.00     0.192 C 
BRANCH  49  50
ATOM     50  C   UNL     1       0.851   5.888   5.505  1.00  0.00     0.047 C 
BRANCH  50  51
ATOM     51  C   UNL     1       1.181   7.189   4.760  1.00  0.00     0.103 C 
BRANCH  51  52
ATOM     52  C   UNL     1       2.397   7.036   3.849  1.00  0.00     0.226 C 
ATOM     53  O   UNL     1       3.486   7.492   4.203  1.00  0.00    -0.275 OA
BRANCH  52  54
ATOM     54  N   UNL     1       2.206   6.298   2.667  1.00  0.00    -0.311 N 
ATOM     55  C   UNL     1       2.874   5.005   2.465  1.00  0.00     0.153 C 
BRANCH  54  56
ATOM     56  C   UNL     1       1.368   6.764   1.640  1.00  0.00     0.102 C 
ATOM     57  C   UNL     1       0.263   6.136   1.206  1.00  0.00     0.043 C 
BRANCH  56  58
ATOM     58  C   UNL     1       1.640   8.083   0.956  1.00  0.00     0.268 C 
ATOM     59  O   UNL     1       1.031   9.111   1.218  1.00  0.00    -0.268 OA
ATOM     60  N   UNL     1       2.682   8.022   0.061  1.00  0.00    -0.339 N 
ATOM     61  H   UNL     1       3.128   7.129  -0.107  1.00  0.00     0.164 HD
BRANCH  60  62
ATOM     62  C   UNL     1       3.153   9.200  -0.666  1.00  0.00     0.168 CG0
ATOM     63  C   UNL     1       4.400   9.784  -0.011  1.00  0.00     0.041 C 
ATOM     64  G   UNL     1       2.028  10.253  -0.731  1.00  0.00     0.000 G0
ENDBRANCH  60  62
ENDBRANCH  56  58
ENDBRANCH  54  56
ENDBRANCH  52  54
ENDBRANCH  51  52
ENDBRANCH  50  51
ENDBRANCH  49  50
BRANCH  49  65
ATOM     65  C   UNL     1       1.155   5.747   7.985  1.00  0.00     0.326 C 
ATOM     66  O   UNL     1       2.372   5.856   7.948  1.00  0.00    -0.250 OA
BRANCH  65  67
ATOM     67  O   UNL     1       0.565   5.181   9.061  1.00  0.00    -0.480 OA
ATOM     68  H   UNL     1      -0.341   4.971   8.745  1.00  0.00     0.296 HD
ENDBRANCH  65  67
ENDBRANCH  49  65
ENDBRANCH  47  49
ENDBRANCH  43  45
ENDBRANCH   1  43
BRANCH   1  69
ATOM     69  C   UNL     1      -3.909   6.696   8.824  1.00  0.00    -0.001 C 
ATOM     70  C   UNL     1      -4.608   7.270   9.818  1.00  0.00     0.001 C 
BRANCH  70  71
ATOM     71  C   UNL     1      -4.278   8.510  10.524  1.00  0.00    -0.055 C 
ATOM     72  C   UNL     1      -3.455   9.383   9.906  1.00  0.00    -0.018 C 
ATOM     73  C   UNL     1      -4.885   8.727  11.885  1.00  0.00     0.044 C 
BRANCH  72  74
ATOM     74  C   UNL     1      -2.946  10.734  10.389  1.00  0.00     0.038 C 
ATOM     75  C   UNL     1      -3.851  11.806   9.769  1.00  0.00     0.015 C 
BRANCH  74  76
ATOM     76  C   UNL     1      -1.438  10.862  10.023  1.00  0.00     0.128 C 
BRANCH  76  77
ATOM     77  O   UNL     1      -0.627  10.440  11.132  1.00  0.00    -0.381 OA
ATOM     78  C   UNL     1      -1.182  10.760  12.400  1.00  0.00     0.195 C 
ENDBRANCH  76  77
BRANCH  76  79
ATOM     79  C   UNL     1      -1.051  10.162   8.696  1.00  0.00     0.068 C 
BRANCH  79  80
ATOM     80  C   UNL     1      -0.717  11.032   7.508  1.00  0.00    -0.045 A 
ATOM     81  C   UNL     1       0.488  10.872   6.812  1.00  0.00     0.004 A 
ATOM     82  C   UNL     1      -1.603  12.040   7.099  1.00  0.00     0.004 A 
ATOM     83  C   UNL     1       0.795  11.691   5.723  1.00  0.00     0.000 A 
ATOM     84  C   UNL     1      -1.294  12.859   6.011  1.00  0.00     0.000 A 
ATOM     85  C   UNL     1      -0.097  12.683   5.322  1.00  0.00     0.000 A 
ENDBRANCH  79  80
ENDBRANCH  76  79
ENDBRANCH  74  76
ENDBRANCH  72  74
ENDBRANCH  70  71
ENDBRANCH   1  69
TORSDOF 17
ENDMDL
