MODEL 1
REMARK VINA RESULT:    -6.210      0.000      0.000
REMARK INTER + INTRA:         -23.326
REMARK INTER:                 -17.827
REMARK INTRA:                  -5.499
REMARK UNBOUND:                -5.499
REMARK SMILES CCCCCC(=O)N[C@H](CC(=O)O)C(=O)N[C@H]1C(=O)N[C@H](CCCN=C(N)N)C(=O)N[C@@H]2CC[C@H](O)N(C2=O)[C@@H](CC(C)C)C(=O)N(C)[C@@H](Cc2ccccc2)C(=O)N[C@H](C(C)C)C(=O)O[C@@H]1C
REMARK SMILES IDX 30 1 31 2 29 3 32 5 35 6 37 7 34 8 38 9 33 10 39 11 36 12
REMARK SMILES IDX 40 14 41 15 42 16 43 17 44 18 45 19 46 20 47 21 48 22 49 23
REMARK SMILES IDX 50 24 51 25 52 26 56 27 53 28 55 29 54 30 57 31 58 32 59 33
REMARK SMILES IDX 60 35 61 36 62 37 63 38 64 39 65 40 66 41 67 42 68 43 21 45
REMARK SMILES IDX 20 46 18 47 19 48 17 50 16 52 14 53 15 54 9 56 8 57 6 58
REMARK SMILES IDX 7 59 5 61 4 62 3 63 2 64 1 65 10 66 11 67 12 68 13 69 22 71
REMARK SMILES IDX 23 72 24 73 25 74 26 75 27 76 28 77
REMARK H PARENT 31 4 36 13 59 34 20 49 16 55 8 60 13 70 27 78 27 79 28 80
REMARK H PARENT 28 81
REMARK Flexibility Score:  259.900
ROOT
ATOM      1  O   UNL     1       3.265   8.892   8.363  1.00  0.00    -0.273 OA
ATOM      2  N   UNL     1       3.220  10.417   6.659  1.00  0.00    -0.343 N 
ATOM      3  C   UNL     1       3.226  10.066   7.992  1.00  0.00     0.243 C 
ATOM      4  H   UNL     1       3.203  11.394   6.391  1.00  0.00     0.164 HD
ENDROOT
BRANCH   2   5
ATOM      5  C   UNL     1       3.139   9.395   5.622  1.00  0.00     0.171 C 
ATOM      6  C   UNL     1       3.550   9.470   2.753  1.00  0.00     0.214 C 
ATOM      7  N   UNL     1       2.227   9.695   3.287  1.00  0.00    -0.303 N 
ATOM      8  C   UNL     1       4.399   8.551   3.616  1.00  0.00     0.057 C 
ATOM      9  C   UNL     1       1.970   9.723   4.649  1.00  0.00     0.247 C 
ATOM     10  C   UNL     1       4.513   9.121   5.014  1.00  0.00     0.040 C 
ATOM     11  O   UNL     1       0.852  10.001   5.100  1.00  0.00    -0.272 OA
BRANCH   6  12
ATOM     12  O   UNL     1       4.174  10.725   2.608  1.00  0.00    -0.373 OA
ATOM     13  H   UNL     1       3.530  11.402   2.906  1.00  0.00     0.213 HD
ENDBRANCH   6  12
BRANCH   7  14
ATOM     14  C   UNL     1       1.164  10.044   2.321  1.00  0.00     0.177 C 
BRANCH  14  15
ATOM     15  C   UNL     1      -0.116   9.191   2.417  1.00  0.00     0.038 C 
BRANCH  15  16
ATOM     16  C   UNL     1      -0.235   7.899   1.579  1.00  0.00    -0.015 C 
ATOM     17  C   UNL     1       0.824   7.820   0.475  1.00  0.00     0.007 C 
ATOM     18  C   UNL     1      -1.620   7.832   0.922  1.00  0.00     0.007 C 
ENDBRANCH  15  16
ENDBRANCH  14  15
BRANCH  14  19
ATOM     19  C   UNL     1       1.210  11.576   1.992  1.00  0.00     0.245 C 
ATOM     20  O   UNL     1       0.852  12.353   2.893  1.00  0.00    -0.272 OA
BRANCH  19  21
ATOM     21  N   UNL     1       1.514  12.087   0.743  1.00  0.00    -0.332 N 
ATOM     22  C   UNL     1       2.603  13.002   0.449  1.00  0.00     0.147 C 
BRANCH  21  23
ATOM     23  C   UNL     1       0.655  11.681  -0.404  1.00  0.00     0.178 C 
BRANCH  23  24
ATOM     24  C   UNL     1      -0.495  12.657  -0.726  1.00  0.00     0.070 C 
BRANCH  24  25
ATOM     25  C   UNL     1      -1.495  12.930   0.374  1.00  0.00    -0.045 A 
ATOM     26  C   UNL     1      -1.629  14.213   0.920  1.00  0.00     0.004 A 
ATOM     27  C   UNL     1      -2.302  11.895   0.869  1.00  0.00     0.004 A 
ATOM     28  C   UNL     1      -2.543  14.453   1.948  1.00  0.00     0.000 A 
ATOM     29  C   UNL     1      -3.216  12.137   1.896  1.00  0.00     0.000 A 
ATOM     30  C   UNL     1      -3.334  13.416   2.436  1.00  0.00     0.000 A 
ENDBRANCH  24  25
ENDBRANCH  23  24
BRANCH  23  31
ATOM     31  C   UNL     1       1.469  11.206  -1.631  1.00  0.00     0.243 C 
ATOM     32  O   UNL     1       2.122  10.166  -1.661  1.00  0.00    -0.273 OA
ATOM     33  N   UNL     1       1.552  12.151  -2.639  1.00  0.00    -0.341 N 
ATOM     34  H   UNL     1       0.989  13.001  -2.555  1.00  0.00     0.164 HD
BRANCH  33  35
ATOM     35  C   UNL     1       2.368  11.966  -3.842  1.00  0.00     0.194 C 
BRANCH  35  36
ATOM     36  C   UNL     1       3.184  13.224  -4.255  1.00  0.00     0.017 C 
ATOM     37  C   UNL     1       4.571  13.233  -3.590  1.00  0.00     0.010 C 
ATOM     38  C   UNL     1       2.490  14.541  -3.889  1.00  0.00     0.010 C 
ENDBRANCH  35  36
BRANCH  35  39
ATOM     39  C   UNL     1       1.555  11.385  -5.033  1.00  0.00     0.329 C 
ATOM     40  O   UNL     1       0.415  11.732  -5.319  1.00  0.00    -0.250 OA
BRANCH  39  41
ATOM     41  O   UNL     1       2.286  10.504  -5.781  1.00  0.00    -0.458 OA
BRANCH  41  42
ATOM     42  C   UNL     1       2.706  10.967  -7.086  1.00  0.00     0.205 CG0
ATOM     43  C   UNL     1       4.215  11.197  -7.022  1.00  0.00     0.056 C 
ATOM     44  G   UNL     1       1.928  12.253  -7.427  1.00  0.00     0.000 G0
ENDBRANCH  41  42
ENDBRANCH  39  41
ENDBRANCH  35  39
ENDBRANCH  33  35
ENDBRANCH  23  31
ENDBRANCH  21  23
ENDBRANCH  19  21
ENDBRANCH  14  19
ENDBRANCH   7  14
ENDBRANCH   2   5
BRANCH   3  45
ATOM     45  C   UNL     1       3.203  11.239   8.981  1.00  0.00     0.171 C 
BRANCH  45  46
ATOM     46  N   UNL     1       2.502  10.746  10.160  1.00  0.00    -0.342 N 
ATOM     47  C   UNL     1       3.109  10.639  11.386  1.00  0.00     0.247 C 
ATOM     48  O   UNL     1       4.262  11.017  11.596  1.00  0.00    -0.273 OA
ATOM     49  H   UNL     1       1.528  10.475  10.042  1.00  0.00     0.164 HD
BRANCH  47  50
ATOM     50  C   UNL     1       2.253   9.984  12.479  1.00  0.00     0.212 CG0
ATOM     51  G   UNL     1       1.137  10.977  12.857  1.00  0.00     0.000 G0
BRANCH  50  52
ATOM     52  N   UNL     1       1.749   8.746  11.890  1.00  0.00    -0.339 N 
ATOM     53  C   UNL     1       0.899   7.889  12.546  1.00  0.00     0.243 C 
ATOM     54  O   UNL     1       0.537   8.073  13.705  1.00  0.00    -0.273 OA
ATOM     55  H   UNL     1       2.101   8.481  10.972  1.00  0.00     0.164 HD
BRANCH  53  56
ATOM     56  C   UNL     1       0.572   6.604  11.757  1.00  0.00     0.182 C 
BRANCH  56  57
ATOM     57  N   UNL     1      -0.557   5.889  12.360  1.00  0.00    -0.344 N 
ATOM     58  C   UNL     1      -1.849   6.049  11.920  1.00  0.00     0.220 C 
ATOM     59  O   UNL     1      -2.158   6.851  11.046  1.00  0.00    -0.275 OA
ATOM     60  H   UNL     1      -0.334   5.144  13.015  1.00  0.00     0.164 HD
BRANCH  58  61
ATOM     61  C   UNL     1      -2.845   5.167  12.650  1.00  0.00     0.100 C 
BRANCH  61  62
ATOM     62  C   UNL     1      -2.251   3.852  13.156  1.00  0.00     0.010 C 
BRANCH  62  63
ATOM     63  C   UNL     1      -3.131   2.624  12.895  1.00  0.00     0.000 C 
BRANCH  63  64
ATOM     64  C   UNL     1      -2.486   1.570  11.996  1.00  0.00    -0.003 C 
ATOM     65  C   UNL     1      -2.704   0.166  12.542  1.00  0.00     0.004 C 
ENDBRANCH  63  64
ENDBRANCH  62  63
ENDBRANCH  61  62
ENDBRANCH  58  61
ENDBRANCH  56  57
BRANCH  56  66
ATOM     66  C   UNL     1       1.803   5.713  11.603  1.00  0.00     0.157 C 
BRANCH  66  67
ATOM     67  C   UNL     1       2.033   5.347  10.165  1.00  0.00     0.305 C 
ATOM     68  O   UNL     1       1.492   4.446   9.542  1.00  0.00    -0.252 OA
BRANCH  67  69
ATOM     69  O   UNL     1       2.905   6.176   9.560  1.00  0.00    -0.481 OA
ATOM     70  H   UNL     1       3.107   6.861  10.231  1.00  0.00     0.296 HD
ENDBRANCH  67  69
ENDBRANCH  66  67
ENDBRANCH  56  66
ENDBRANCH  53  56
ENDBRANCH  50  52
ENDBRANCH  47  50
ENDBRANCH  45  46
BRANCH  45  71
ATOM     71  C   UNL     1       2.489  12.445   8.362  1.00  0.00     0.037 C 
BRANCH  71  72
ATOM     72  C   UNL     1       0.984  12.209   8.210  1.00  0.00     0.026 C 
BRANCH  72  73
ATOM     73  C   UNL     1       0.423  12.938   6.991  1.00  0.00     0.146 C 
BRANCH  73  74
ATOM     74  N   UNL     1      -1.034  12.872   7.063  1.00  0.00    -0.254 NA
ATOM     75  C   UNL     1      -1.664  12.417   6.044  1.00  0.00     0.185 C 
ATOM     76  N   UNL     1      -3.005  12.344   6.081  1.00  0.00    -0.370 N 
ATOM     77  N   UNL     1      -1.172  11.975   4.874  1.00  0.00    -0.370 N 
ATOM     78  H   UNL     1      -3.458  12.664   6.925  1.00  0.00     0.159 HD
ATOM     79  H   UNL     1      -3.570  12.137   5.276  1.00  0.00     0.159 HD
ATOM     80  H   UNL     1      -0.177  11.968   4.705  1.00  0.00     0.159 HD
ATOM     81  H   UNL     1      -1.759  11.532   4.187  1.00  0.00     0.159 HD
ENDBRANCH  73  74
ENDBRANCH  72  73
ENDBRANCH  71  72
ENDBRANCH  45  71
ENDBRANCH   3  45
TORSDOF 20
ENDMDL
MODEL 2
REMARK VINA RESULT:    -6.045      3.493      4.649
REMARK INTER + INTRA:         -22.851
REMARK INTER:                 -16.759
REMARK INTRA:                  -6.092
REMARK UNBOUND:                -5.499
REMARK SMILES CCCCCC(=O)N[C@H](CC(=O)O)C(=O)N[C@H]1C(=O)N[C@H](CCCN=C(N)N)C(=O)N[C@@H]2CC[C@H](O)N(C2=O)[C@@H](CC(C)C)C(=O)N(C)[C@@H](Cc2ccccc2)C(=O)N[C@H](C(C)C)C(=O)O[C@@H]1C
REMARK SMILES IDX 30 1 31 2 29 3 32 5 35 6 37 7 34 8 38 9 33 10 39 11 36 12
REMARK SMILES IDX 40 14 41 15 42 16 43 17 44 18 45 19 46 20 47 21 48 22 49 23
REMARK SMILES IDX 50 24 51 25 52 26 56 27 53 28 55 29 54 30 57 31 58 32 59 33
REMARK SMILES IDX 60 35 61 36 62 37 63 38 64 39 65 40 66 41 67 42 68 43 21 45
REMARK SMILES IDX 20 46 18 47 19 48 17 50 16 52 14 53 15 54 9 56 8 57 6 58
REMARK SMILES IDX 7 59 5 61 4 62 3 63 2 64 1 65 10 66 11 67 12 68 13 69 22 71
REMARK SMILES IDX 23 72 24 73 25 74 26 75 27 76 28 77
REMARK H PARENT 31 4 36 13 59 34 20 49 16 55 8 60 13 70 27 78 27 79 28 80
REMARK H PARENT 28 81
REMARK Flexibility Score:  259.900
ROOT
ATOM      1  O   UNL     1       6.642   6.343   5.270  1.00  0.00    -0.273 OA
ATOM      2  N   UNL     1       6.075   8.549   5.066  1.00  0.00    -0.343 N 
ATOM      3  C   UNL     1       6.364   7.419   5.801  1.00  0.00     0.243 C 
ATOM      4  H   UNL     1       5.864   9.421   5.537  1.00  0.00     0.164 HD
ENDROOT
BRANCH   2   5
ATOM      5  C   UNL     1       5.972   8.484   3.613  1.00  0.00     0.171 C 
ATOM      6  C   UNL     1       5.467  10.496   1.587  1.00  0.00     0.214 C 
ATOM      7  N   UNL     1       4.357   9.774   2.163  1.00  0.00    -0.303 N 
ATOM      8  C   UNL     1       6.755   9.688   1.549  1.00  0.00     0.057 C 
ATOM      9  C   UNL     1       4.523   8.837   3.170  1.00  0.00     0.247 C 
ATOM     10  C   UNL     1       7.121   9.240   2.947  1.00  0.00     0.040 C 
ATOM     11  O   UNL     1       3.559   8.286   3.719  1.00  0.00    -0.272 OA
BRANCH   6  12
ATOM     12  O   UNL     1       5.648  11.676   2.335  1.00  0.00    -0.373 OA
ATOM     13  H   UNL     1       5.887  11.404   3.247  1.00  0.00     0.213 HD
ENDBRANCH   6  12
BRANCH   7  14
ATOM     14  C   UNL     1       3.001  10.179   1.738  1.00  0.00     0.177 C 
BRANCH  14  15
ATOM     15  C   UNL     1       1.870   9.213   2.141  1.00  0.00     0.038 C 
BRANCH  15  16
ATOM     16  C   UNL     1       0.450   9.766   2.395  1.00  0.00    -0.015 C 
ATOM     17  C   UNL     1      -0.194   9.168   3.649  1.00  0.00     0.007 C 
ATOM     18  C   UNL     1      -0.451   9.450   1.194  1.00  0.00     0.007 C 
ENDBRANCH  15  16
ENDBRANCH  14  15
BRANCH  14  19
ATOM     19  C   UNL     1       2.887  11.743   1.701  1.00  0.00     0.245 C 
ATOM     20  O   UNL     1       2.873  12.328   2.797  1.00  0.00    -0.272 OA
BRANCH  19  21
ATOM     21  N   UNL     1       2.692  12.474   0.543  1.00  0.00    -0.332 N 
ATOM     22  C   UNL     1       3.522  13.578   0.094  1.00  0.00     0.147 C 
BRANCH  21  23
ATOM     23  C   UNL     1       1.532  12.118  -0.319  1.00  0.00     0.178 C 
BRANCH  23  24
ATOM     24  C   UNL     1       0.476  13.231  -0.473  1.00  0.00     0.070 C 
BRANCH  24  25
ATOM     25  C   UNL     1      -0.776  13.113   0.365  1.00  0.00    -0.045 A 
ATOM     26  C   UNL     1      -2.029  12.936  -0.237  1.00  0.00     0.004 A 
ATOM     27  C   UNL     1      -0.701  13.184   1.764  1.00  0.00     0.004 A 
ATOM     28  C   UNL     1      -3.183  12.845   0.544  1.00  0.00     0.000 A 
ATOM     29  C   UNL     1      -1.855  13.092   2.543  1.00  0.00     0.000 A 
ATOM     30  C   UNL     1      -3.096  12.925   1.932  1.00  0.00     0.000 A 
ENDBRANCH  24  25
ENDBRANCH  23  24
BRANCH  23  31
ATOM     31  C   UNL     1       1.950  11.429  -1.640  1.00  0.00     0.243 C 
ATOM     32  O   UNL     1       2.148  10.222  -1.752  1.00  0.00    -0.273 OA
ATOM     33  N   UNL     1       2.265  12.319  -2.652  1.00  0.00    -0.341 N 
ATOM     34  H   UNL     1       2.083  13.314  -2.497  1.00  0.00     0.164 HD
BRANCH  33  35
ATOM     35  C   UNL     1       2.797  11.897  -3.950  1.00  0.00     0.194 C 
BRANCH  35  36
ATOM     36  C   UNL     1       4.004  12.742  -4.447  1.00  0.00     0.017 C 
ATOM     37  C   UNL     1       5.238  11.859  -4.703  1.00  0.00     0.010 C 
ATOM     38  C   UNL     1       4.422  13.838  -3.458  1.00  0.00     0.010 C 
ENDBRANCH  35  36
BRANCH  35  39
ATOM     39  C   UNL     1       1.693  11.769  -5.037  1.00  0.00     0.329 C 
ATOM     40  O   UNL     1       0.602  11.244  -4.847  1.00  0.00    -0.250 OA
BRANCH  39  41
ATOM     41  O   UNL     1       2.041  12.386  -6.207  1.00  0.00    -0.458 OA
BRANCH  41  42
ATOM     42  C   UNL     1       1.930  11.588  -7.410  1.00  0.00     0.205 CG0
ATOM     43  C   UNL     1       3.249  10.838  -7.580  1.00  0.00     0.056 C 
ATOM     44  G   UNL     1       1.627  12.526  -8.595  1.00  0.00     0.000 G0
ENDBRANCH  41  42
ENDBRANCH  39  41
ENDBRANCH  35  39
ENDBRANCH  33  35
ENDBRANCH  23  31
ENDBRANCH  21  23
ENDBRANCH  19  21
ENDBRANCH  14  19
ENDBRANCH   7  14
ENDBRANCH   2   5
BRANCH   3  45
ATOM     45  C   UNL     1       6.334   7.600   7.324  1.00  0.00     0.171 C 
BRANCH  45  46
ATOM     46  N   UNL     1       6.942   6.396   7.875  1.00  0.00    -0.342 N 
ATOM     47  C   UNL     1       7.799   6.428   8.947  1.00  0.00     0.247 C 
ATOM     48  O   UNL     1       8.058   7.462   9.564  1.00  0.00    -0.273 OA
ATOM     49  H   UNL     1       6.710   5.510   7.429  1.00  0.00     0.164 HD
BRANCH  47  50
ATOM     50  C   UNL     1       8.438   5.080   9.309  1.00  0.00     0.212 CG0
ATOM     51  G   UNL     1       8.547   5.012  10.845  1.00  0.00     0.000 G0
BRANCH  50  52
ATOM     52  N   UNL     1       7.551   4.065   8.748  1.00  0.00    -0.339 N 
ATOM     53  C   UNL     1       6.931   3.101   9.506  1.00  0.00     0.243 C 
ATOM     54  O   UNL     1       7.118   2.987  10.714  1.00  0.00    -0.273 OA
ATOM     55  H   UNL     1       7.442   4.039   7.736  1.00  0.00     0.164 HD
BRANCH  53  56
ATOM     56  C   UNL     1       6.111   2.087   8.682  1.00  0.00     0.182 C 
BRANCH  56  57
ATOM     57  N   UNL     1       4.683   2.419   8.707  1.00  0.00    -0.344 N 
ATOM     58  C   UNL     1       4.137   3.380   7.892  1.00  0.00     0.220 C 
ATOM     59  O   UNL     1       4.813   4.076   7.142  1.00  0.00    -0.275 OA
ATOM     60  H   UNL     1       4.076   1.801   9.238  1.00  0.00     0.164 HD
BRANCH  58  61
ATOM     61  C   UNL     1       2.633   3.516   8.045  1.00  0.00     0.100 C 
BRANCH  61  62
ATOM     62  C   UNL     1       1.934   2.213   8.434  1.00  0.00     0.010 C 
BRANCH  62  63
ATOM     63  C   UNL     1       0.466   2.386   8.842  1.00  0.00     0.000 C 
BRANCH  63  64
ATOM     64  C   UNL     1      -0.489   2.605   7.670  1.00  0.00    -0.003 C 
ATOM     65  C   UNL     1      -1.618   3.555   8.043  1.00  0.00     0.004 C 
ENDBRANCH  63  64
ENDBRANCH  62  63
ENDBRANCH  61  62
ENDBRANCH  58  61
ENDBRANCH  56  57
BRANCH  56  66
ATOM     66  C   UNL     1       6.377   0.653   9.136  1.00  0.00     0.157 C 
BRANCH  66  67
ATOM     67  C   UNL     1       5.225   0.112   9.933  1.00  0.00     0.305 C 
ATOM     68  O   UNL     1       4.366  -0.664   9.545  1.00  0.00    -0.252 OA
BRANCH  67  69
ATOM     69  O   UNL     1       5.241   0.539  11.210  1.00  0.00    -0.481 OA
ATOM     70  H   UNL     1       5.147   1.513  11.149  1.00  0.00     0.296 HD
ENDBRANCH  67  69
ENDBRANCH  66  67
ENDBRANCH  56  66
ENDBRANCH  53  56
ENDBRANCH  50  52
ENDBRANCH  47  50
ENDBRANCH  45  46
BRANCH  45  71
ATOM     71  C   UNL     1       4.892   7.779   7.812  1.00  0.00     0.037 C 
BRANCH  71  72
ATOM     72  C   UNL     1       4.765   8.924   8.821  1.00  0.00     0.026 C 
BRANCH  72  73
ATOM     73  C   UNL     1       3.464   9.700   8.626  1.00  0.00     0.146 C 
BRANCH  73  74
ATOM     74  N   UNL     1       3.157   9.706   7.199  1.00  0.00    -0.254 NA
ATOM     75  C   UNL     1       2.912  10.835   6.644  1.00  0.00     0.185 C 
ATOM     76  N   UNL     1       2.627  10.873   5.332  1.00  0.00    -0.370 N 
ATOM     77  N   UNL     1       2.893  12.061   7.194  1.00  0.00    -0.370 N 
ATOM     78  H   UNL     1       2.612   9.990   4.841  1.00  0.00     0.159 HD
ATOM     79  H   UNL     1       2.285  11.693   4.863  1.00  0.00     0.159 HD
ATOM     80  H   UNL     1       3.093  12.187   8.175  1.00  0.00     0.159 HD
ATOM     81  H   UNL     1       2.801  12.891   6.632  1.00  0.00     0.159 HD
ENDBRANCH  73  74
ENDBRANCH  72  73
ENDBRANCH  71  72
ENDBRANCH  45  71
ENDBRANCH   3  45
TORSDOF 20
ENDMDL
MODEL 3
REMARK VINA RESULT:    -5.807      7.360     10.397
REMARK INTER + INTRA:         -22.168
REMARK INTER:                 -17.335
REMARK INTRA:                  -4.833
REMARK UNBOUND:                -5.499
REMARK SMILES CCCCCC(=O)N[C@H](CC(=O)O)C(=O)N[C@H]1C(=O)N[C@H](CCCN=C(N)N)C(=O)N[C@@H]2CC[C@H](O)N(C2=O)[C@@H](CC(C)C)C(=O)N(C)[C@@H](Cc2ccccc2)C(=O)N[C@H](C(C)C)C(=O)O[C@@H]1C
REMARK SMILES IDX 30 1 31 2 29 3 32 5 35 6 37 7 34 8 38 9 33 10 39 11 36 12
REMARK SMILES IDX 40 14 41 15 42 16 43 17 44 18 45 19 46 20 47 21 48 22 49 23
REMARK SMILES IDX 50 24 51 25 52 26 56 27 53 28 55 29 54 30 57 31 58 32 59 33
REMARK SMILES IDX 60 35 61 36 62 37 63 38 64 39 65 40 66 41 67 42 68 43 21 45
REMARK SMILES IDX 20 46 18 47 19 48 17 50 16 52 14 53 15 54 9 56 8 57 6 58
REMARK SMILES IDX 7 59 5 61 4 62 3 63 2 64 1 65 10 66 11 67 12 68 13 69 22 71
REMARK SMILES IDX 23 72 24 73 25 74 26 75 27 76 28 77
REMARK H PARENT 31 4 36 13 59 34 20 49 16 55 8 60 13 70 27 78 27 79 28 80
REMARK H PARENT 28 81
REMARK Flexibility Score:  259.900
ROOT
ATOM      1  O   UNL     1       8.211   5.914   8.255  1.00  0.00    -0.273 OA
ATOM      2  N   UNL     1       6.233   4.926   7.670  1.00  0.00    -0.343 N 
ATOM      3  C   UNL     1       7.346   5.064   8.471  1.00  0.00     0.243 C 
ATOM      4  H   UNL     1       5.535   4.226   7.886  1.00  0.00     0.164 HD
ENDROOT
BRANCH   2   5
ATOM      5  C   UNL     1       6.093   5.715   6.451  1.00  0.00     0.171 C 
ATOM      6  C   UNL     1       7.612   7.930   5.359  1.00  0.00     0.214 C 
ATOM      7  N   UNL     1       6.481   8.198   6.217  1.00  0.00    -0.303 N 
ATOM      8  C   UNL     1       7.471   6.643   4.563  1.00  0.00     0.057 C 
ATOM      9  C   UNL     1       5.744   7.187   6.812  1.00  0.00     0.247 C 
ATOM     10  C   UNL     1       7.270   5.476   5.505  1.00  0.00     0.040 C 
ATOM     11  O   UNL     1       4.831   7.425   7.614  1.00  0.00    -0.272 OA
BRANCH   6  12
ATOM     12  O   UNL     1       8.764   7.885   6.168  1.00  0.00    -0.373 OA
ATOM     13  H   UNL     1       9.176   8.775   6.132  1.00  0.00     0.213 HD
ENDBRANCH   6  12
BRANCH   7  14
ATOM     14  C   UNL     1       6.221   9.612   6.561  1.00  0.00     0.177 C 
BRANCH  14  15
ATOM     15  C   UNL     1       7.081  10.177   7.709  1.00  0.00     0.038 C 
BRANCH  15  16
ATOM     16  C   UNL     1       6.429  10.457   9.081  1.00  0.00    -0.015 C 
ATOM     17  C   UNL     1       6.457   9.233  10.002  1.00  0.00     0.007 C 
ATOM     18  C   UNL     1       4.966  10.877   8.885  1.00  0.00     0.007 C 
ENDBRANCH  15  16
ENDBRANCH  14  15
BRANCH  14  19
ATOM     19  C   UNL     1       5.773  10.408   5.287  1.00  0.00     0.245 C 
ATOM     20  O   UNL     1       6.473  11.382   4.961  1.00  0.00    -0.272 OA
BRANCH  19  21
ATOM     21  N   UNL     1       4.603  10.157   4.592  1.00  0.00    -0.332 N 
ATOM     22  C   UNL     1       3.376   9.636   5.169  1.00  0.00     0.147 C 
BRANCH  21  23
ATOM     23  C   UNL     1       4.591  10.428   3.128  1.00  0.00     0.178 C 
BRANCH  23  24
ATOM     24  C   UNL     1       5.314   9.370   2.270  1.00  0.00     0.070 C 
BRANCH  24  25
ATOM     25  C   UNL     1       6.634   9.768   1.653  1.00  0.00    -0.045 A 
ATOM     26  C   UNL     1       7.772   8.967   1.815  1.00  0.00     0.004 A 
ATOM     27  C   UNL     1       6.739  10.954   0.911  1.00  0.00     0.004 A 
ATOM     28  C   UNL     1       8.993   9.351   1.256  1.00  0.00     0.000 A 
ATOM     29  C   UNL     1       7.960  11.335   0.352  1.00  0.00     0.000 A 
ATOM     30  C   UNL     1       9.087  10.535   0.527  1.00  0.00     0.000 A 
ENDBRANCH  24  25
ENDBRANCH  23  24
BRANCH  23  31
ATOM     31  C   UNL     1       3.199  10.853   2.604  1.00  0.00     0.243 C 
ATOM     32  O   UNL     1       2.619  11.879   2.949  1.00  0.00    -0.273 OA
ATOM     33  N   UNL     1       2.572   9.878   1.847  1.00  0.00    -0.341 N 
ATOM     34  H   UNL     1       3.105   9.041   1.596  1.00  0.00     0.164 HD
BRANCH  33  35
ATOM     35  C   UNL     1       1.202  10.013   1.346  1.00  0.00     0.194 C 
BRANCH  35  36
ATOM     36  C   UNL     1       0.265   8.835   1.735  1.00  0.00     0.017 C 
ATOM     37  C   UNL     1       0.028   8.786   3.255  1.00  0.00     0.010 C 
ATOM     38  C   UNL     1       0.809   7.465   1.312  1.00  0.00     0.010 C 
ENDBRANCH  35  36
BRANCH  35  39
ATOM     39  C   UNL     1       1.148  10.318  -0.177  1.00  0.00     0.329 C 
ATOM     40  O   UNL     1       2.096  10.169  -0.940  1.00  0.00    -0.250 OA
BRANCH  39  41
ATOM     41  O   UNL     1      -0.101  10.690  -0.589  1.00  0.00    -0.458 OA
BRANCH  41  42
ATOM     42  C   UNL     1      -0.176  11.873  -1.420  1.00  0.00     0.205 CG0
ATOM     43  C   UNL     1      -0.418  13.063  -0.494  1.00  0.00     0.056 C 
ATOM     44  G   UNL     1      -1.312  11.683  -2.445  1.00  0.00     0.000 G0
ENDBRANCH  41  42
ENDBRANCH  39  41
ENDBRANCH  35  39
ENDBRANCH  33  35
ENDBRANCH  23  31
ENDBRANCH  21  23
ENDBRANCH  19  21
ENDBRANCH  14  19
ENDBRANCH   7  14
ENDBRANCH   2   5
BRANCH   3  45
ATOM     45  C   UNL     1       7.422   4.099   9.661  1.00  0.00     0.171 C 
BRANCH  45  46
ATOM     46  N   UNL     1       8.841   3.835   9.865  1.00  0.00    -0.342 N 
ATOM     47  C   UNL     1       9.396   3.719  11.114  1.00  0.00     0.247 C 
ATOM     48  O   UNL     1       8.729   3.755  12.148  1.00  0.00    -0.273 OA
ATOM     49  H   UNL     1       9.421   3.742   9.033  1.00  0.00     0.164 HD
BRANCH  47  50
ATOM     50  C   UNL     1      10.924   3.566  11.134  1.00  0.00     0.212 CG0
ATOM     51  G   UNL     1      11.335   3.177  12.568  1.00  0.00     0.000 G0
BRANCH  50  52
ATOM     52  N   UNL     1      11.225   2.534  10.147  1.00  0.00    -0.339 N 
ATOM     53  C   UNL     1      11.311   1.197  10.453  1.00  0.00     0.243 C 
ATOM     54  O   UNL     1      11.193   0.771  11.598  1.00  0.00    -0.273 OA
ATOM     55  H   UNL     1      11.444   2.835   9.199  1.00  0.00     0.164 HD
BRANCH  53  56
ATOM     56  C   UNL     1      11.727   0.307   9.264  1.00  0.00     0.182 C 
BRANCH  56  57
ATOM     57  N   UNL     1      11.235  -1.064   9.436  1.00  0.00    -0.344 N 
ATOM     58  C   UNL     1      10.130  -1.539   8.771  1.00  0.00     0.220 C 
ATOM     59  O   UNL     1       9.437  -0.832   8.047  1.00  0.00    -0.275 OA
ATOM     60  H   UNL     1      11.835  -1.708   9.944  1.00  0.00     0.164 HD
BRANCH  58  61
ATOM     61  C   UNL     1       9.839  -3.001   9.056  1.00  0.00     0.100 C 
BRANCH  61  62
ATOM     62  C   UNL     1      10.965  -3.720   9.800  1.00  0.00     0.010 C 
BRANCH  62  63
ATOM     63  C   UNL     1      11.705  -4.767   8.957  1.00  0.00     0.000 C 
BRANCH  63  64
ATOM     64  C   UNL     1      10.811  -5.885   8.423  1.00  0.00    -0.003 C 
ATOM     65  C   UNL     1      11.477  -6.626   7.272  1.00  0.00     0.004 C 
ENDBRANCH  63  64
ENDBRANCH  62  63
ENDBRANCH  61  62
ENDBRANCH  58  61
ENDBRANCH  56  57
BRANCH  56  66
ATOM     66  C   UNL     1      13.235   0.353   9.029  1.00  0.00     0.157 C 
BRANCH  66  67
ATOM     67  C   UNL     1      13.559   0.926   7.680  1.00  0.00     0.305 C 
ATOM     68  O   UNL     1      13.696   2.106   7.398  1.00  0.00    -0.252 OA
BRANCH  67  69
ATOM     69  O   UNL     1      13.747  -0.030   6.750  1.00  0.00    -0.481 OA
ATOM     70  H   UNL     1      14.709  -0.009   6.561  1.00  0.00     0.296 HD
ENDBRANCH  67  69
ENDBRANCH  66  67
ENDBRANCH  56  66
ENDBRANCH  53  56
ENDBRANCH  50  52
ENDBRANCH  47  50
ENDBRANCH  45  46
BRANCH  45  71
ATOM     71  C   UNL     1       6.646   2.813   9.357  1.00  0.00     0.037 C 
BRANCH  71  72
ATOM     72  C   UNL     1       7.557   1.583   9.334  1.00  0.00     0.026 C 
BRANCH  72  73
ATOM     73  C   UNL     1       7.214   0.611  10.462  1.00  0.00     0.146 C 
BRANCH  73  74
ATOM     74  N   UNL     1       5.786   0.321  10.383  1.00  0.00    -0.254 NA
ATOM     75  C   UNL     1       5.395  -0.856  10.709  1.00  0.00     0.185 C 
ATOM     76  N   UNL     1       4.087  -1.153  10.648  1.00  0.00    -0.370 N 
ATOM     77  N   UNL     1       6.126  -1.903  11.128  1.00  0.00    -0.370 N 
ATOM     78  H   UNL     1       3.466  -0.421  10.335  1.00  0.00     0.159 HD
ATOM     79  H   UNL     1       3.726  -2.085  10.747  1.00  0.00     0.159 HD
ATOM     80  H   UNL     1       7.127  -1.825  11.225  1.00  0.00     0.159 HD
ATOM     81  H   UNL     1       5.695  -2.747  11.467  1.00  0.00     0.159 HD
ENDBRANCH  73  74
ENDBRANCH  72  73
ENDBRANCH  71  72
ENDBRANCH  45  71
ENDBRANCH   3  45
TORSDOF 20
ENDMDL
MODEL 4
REMARK VINA RESULT:    -5.645      7.120     10.000
REMARK INTER + INTRA:         -21.705
REMARK INTER:                 -15.729
REMARK INTRA:                  -5.975
REMARK UNBOUND:                -5.499
REMARK SMILES CCCCCC(=O)N[C@H](CC(=O)O)C(=O)N[C@H]1C(=O)N[C@H](CCCN=C(N)N)C(=O)N[C@@H]2CC[C@H](O)N(C2=O)[C@@H](CC(C)C)C(=O)N(C)[C@@H](Cc2ccccc2)C(=O)N[C@H](C(C)C)C(=O)O[C@@H]1C
REMARK SMILES IDX 30 1 31 2 29 3 32 5 35 6 37 7 34 8 38 9 33 10 39 11 36 12
REMARK SMILES IDX 40 14 41 15 42 16 43 17 44 18 45 19 46 20 47 21 48 22 49 23
REMARK SMILES IDX 50 24 51 25 52 26 56 27 53 28 55 29 54 30 57 31 58 32 59 33
REMARK SMILES IDX 60 35 61 36 62 37 63 38 64 39 65 40 66 41 67 42 68 43 21 45
REMARK SMILES IDX 20 46 18 47 19 48 17 50 16 52 14 53 15 54 9 56 8 57 6 58
REMARK SMILES IDX 7 59 5 61 4 62 3 63 2 64 1 65 10 66 11 67 12 68 13 69 22 71
REMARK SMILES IDX 23 72 24 73 25 74 26 75 27 76 28 77
REMARK H PARENT 31 4 36 13 59 34 20 49 16 55 8 60 13 70 27 78 27 79 28 80
REMARK H PARENT 28 81
REMARK Flexibility Score:  259.900
ROOT
ATOM      1  O   UNL     1       8.002   5.308   8.244  1.00  0.00    -0.273 OA
ATOM      2  N   UNL     1       6.229   4.189   7.329  1.00  0.00    -0.343 N 
ATOM      3  C   UNL     1       7.239   4.342   8.256  1.00  0.00     0.243 C 
ATOM      4  H   UNL     1       5.611   3.389   7.378  1.00  0.00     0.164 HD
ENDROOT
BRANCH   2   5
ATOM      5  C   UNL     1       6.099   5.119   6.213  1.00  0.00     0.171 C 
ATOM      6  C   UNL     1       7.424   7.617   5.573  1.00  0.00     0.214 C 
ATOM      7  N   UNL     1       6.200   7.639   6.339  1.00  0.00    -0.303 N 
ATOM      8  C   UNL     1       7.510   6.445   4.608  1.00  0.00     0.057 C 
ATOM      9  C   UNL     1       5.544   6.480   6.723  1.00  0.00     0.247 C 
ATOM     10  C   UNL     1       7.372   5.144   5.369  1.00  0.00     0.040 C 
ATOM     11  O   UNL     1       4.544   6.504   7.452  1.00  0.00    -0.272 OA
BRANCH   6  12
ATOM     12  O   UNL     1       8.501   7.586   6.481  1.00  0.00    -0.373 OA
ATOM     13  H   UNL     1       8.151   7.238   7.329  1.00  0.00     0.213 HD
ENDBRANCH   6  12
BRANCH   7  14
ATOM     14  C   UNL     1       5.742   8.954   6.833  1.00  0.00     0.177 C 
BRANCH  14  15
ATOM     15  C   UNL     1       6.303   9.371   8.207  1.00  0.00     0.038 C 
BRANCH  15  16
ATOM     16  C   UNL     1       5.343   9.511   9.410  1.00  0.00    -0.015 C 
ATOM     17  C   UNL     1       5.433   8.321  10.370  1.00  0.00     0.007 C 
ATOM     18  C   UNL     1       3.897   9.618   8.910  1.00  0.00     0.007 C 
ENDBRANCH  15  16
ENDBRANCH  14  15
BRANCH  14  19
ATOM     19  C   UNL     1       5.475   9.924   5.631  1.00  0.00     0.245 C 
ATOM     20  O   UNL     1       6.235  10.900   5.520  1.00  0.00    -0.272 OA
BRANCH  19  21
ATOM     21  N   UNL     1       4.393   9.812   4.775  1.00  0.00    -0.332 N 
ATOM     22  C   UNL     1       3.066   9.357   5.149  1.00  0.00     0.147 C 
BRANCH  21  23
ATOM     23  C   UNL     1       4.597  10.174   3.345  1.00  0.00     0.178 C 
BRANCH  23  24
ATOM     24  C   UNL     1       5.404   9.145   2.527  1.00  0.00     0.070 C 
BRANCH  24  25
ATOM     25  C   UNL     1       6.654   9.641   1.838  1.00  0.00    -0.045 A 
ATOM     26  C   UNL     1       6.619  10.778   1.021  1.00  0.00     0.004 A 
ATOM     27  C   UNL     1       7.870   8.962   2.005  1.00  0.00     0.004 A 
ATOM     28  C   UNL     1       7.775  11.221   0.374  1.00  0.00     0.000 A 
ATOM     29  C   UNL     1       9.025   9.406   1.358  1.00  0.00     0.000 A 
ATOM     30  C   UNL     1       8.976  10.534   0.541  1.00  0.00     0.000 A 
ENDBRANCH  24  25
ENDBRANCH  23  24
BRANCH  23  31
ATOM     31  C   UNL     1       3.305  10.681   2.661  1.00  0.00     0.243 C 
ATOM     32  O   UNL     1       2.751  11.741   2.940  1.00  0.00    -0.273 OA
ATOM     33  N   UNL     1       2.716   9.745   1.828  1.00  0.00    -0.341 N 
ATOM     34  H   UNL     1       3.223   8.877   1.638  1.00  0.00     0.164 HD
BRANCH  33  35
ATOM     35  C   UNL     1       1.425   9.962   1.169  1.00  0.00     0.194 C 
BRANCH  35  36
ATOM     36  C   UNL     1       0.557   8.680   1.035  1.00  0.00     0.017 C 
ATOM     37  C   UNL     1       0.598   7.839   2.323  1.00  0.00     0.010 C 
ATOM     38  C   UNL     1       0.994   7.771  -0.120  1.00  0.00     0.010 C 
ENDBRANCH  35  36
BRANCH  35  39
ATOM     39  C   UNL     1       1.565  10.712  -0.185  1.00  0.00     0.329 C 
ATOM     40  O   UNL     1       2.617  10.825  -0.802  1.00  0.00    -0.250 OA
BRANCH  39  41
ATOM     41  O   UNL     1       0.362  11.160  -0.658  1.00  0.00    -0.458 OA
BRANCH  41  42
ATOM     42  C   UNL     1       0.360  12.475  -1.263  1.00  0.00     0.205 CG0
ATOM     43  C   UNL     1      -0.115  13.464  -0.201  1.00  0.00     0.056 C 
ATOM     44  G   UNL     1      -0.563  12.447  -2.498  1.00  0.00     0.000 G0
ENDBRANCH  41  42
ENDBRANCH  39  41
ENDBRANCH  35  39
ENDBRANCH  33  35
ENDBRANCH  23  31
ENDBRANCH  21  23
ENDBRANCH  19  21
ENDBRANCH  14  19
ENDBRANCH   7  14
ENDBRANCH   2   5
BRANCH   3  45
ATOM     45  C   UNL     1       7.332   3.235   9.314  1.00  0.00     0.171 C 
BRANCH  45  46
ATOM     46  N   UNL     1       8.754   3.062   9.579  1.00  0.00    -0.342 N 
ATOM     47  C   UNL     1       9.240   2.778  10.830  1.00  0.00     0.247 C 
ATOM     48  O   UNL     1       8.510   2.576  11.802  1.00  0.00    -0.273 OA
ATOM     49  H   UNL     1       9.390   3.164   8.791  1.00  0.00     0.164 HD
BRANCH  47  50
ATOM     50  C   UNL     1      10.771   2.754  10.943  1.00  0.00     0.212 CG0
ATOM     51  G   UNL     1      11.128   2.311  12.375  1.00  0.00     0.000 G0
BRANCH  50  52
ATOM     52  N   UNL     1      11.223   1.816   9.919  1.00  0.00    -0.339 N 
ATOM     53  C   UNL     1      12.420   1.145   9.984  1.00  0.00     0.243 C 
ATOM     54  O   UNL     1      13.231   1.324  10.888  1.00  0.00    -0.273 OA
ATOM     55  H   UNL     1      10.644   1.708   9.088  1.00  0.00     0.164 HD
BRANCH  53  56
ATOM     56  C   UNL     1      12.719   0.275   8.746  1.00  0.00     0.182 C 
BRANCH  56  57
ATOM     57  N   UNL     1      12.248  -1.100   8.943  1.00  0.00    -0.344 N 
ATOM     58  C   UNL     1      11.001  -1.515   8.544  1.00  0.00     0.220 C 
ATOM     59  O   UNL     1      10.170  -0.752   8.064  1.00  0.00    -0.275 OA
ATOM     60  H   UNL     1      12.938  -1.785   9.241  1.00  0.00     0.164 HD
BRANCH  58  61
ATOM     61  C   UNL     1      10.750  -2.991   8.793  1.00  0.00     0.100 C 
BRANCH  61  62
ATOM     62  C   UNL     1      10.482  -3.331  10.259  1.00  0.00     0.010 C 
BRANCH  62  63
ATOM     63  C   UNL     1       9.250  -2.635  10.850  1.00  0.00     0.000 C 
BRANCH  63  64
ATOM     64  C   UNL     1       9.449  -2.107  12.270  1.00  0.00    -0.003 C 
ATOM     65  C   UNL     1      10.023  -0.697  12.262  1.00  0.00     0.004 C 
ENDBRANCH  63  64
ENDBRANCH  62  63
ENDBRANCH  61  62
ENDBRANCH  58  61
ENDBRANCH  56  57
BRANCH  56  66
ATOM     66  C   UNL     1      14.198   0.329   8.368  1.00  0.00     0.157 C 
BRANCH  66  67
ATOM     67  C   UNL     1      14.563  -0.790   7.435  1.00  0.00     0.305 C 
ATOM     68  O   UNL     1      15.437  -1.627   7.601  1.00  0.00    -0.252 OA
BRANCH  67  69
ATOM     69  O   UNL     1      13.766  -0.831   6.350  1.00  0.00    -0.481 OA
ATOM     70  H   UNL     1      13.229  -0.012   6.403  1.00  0.00     0.296 HD
ENDBRANCH  67  69
ENDBRANCH  66  67
ENDBRANCH  56  66
ENDBRANCH  53  56
ENDBRANCH  50  52
ENDBRANCH  47  50
ENDBRANCH  45  46
BRANCH  45  71
ATOM     71  C   UNL     1       6.692   1.943   8.794  1.00  0.00     0.037 C 
BRANCH  71  72
ATOM     72  C   UNL     1       5.736   1.322   9.815  1.00  0.00     0.026 C 
BRANCH  72  73
ATOM     73  C   UNL     1       4.279   1.638   9.483  1.00  0.00     0.146 C 
BRANCH  73  74
ATOM     74  N   UNL     1       3.958   2.936  10.069  1.00  0.00    -0.254 NA
ATOM     75  C   UNL     1       3.363   3.797   9.329  1.00  0.00     0.185 C 
ATOM     76  N   UNL     1       3.053   5.000   9.840  1.00  0.00    -0.370 N 
ATOM     77  N   UNL     1       2.974   3.684   8.047  1.00  0.00    -0.370 N 
ATOM     78  H   UNL     1       3.318   5.171  10.799  1.00  0.00     0.159 HD
ATOM     79  H   UNL     1       2.721   5.768   9.284  1.00  0.00     0.159 HD
ATOM     80  H   UNL     1       3.138   2.831   7.534  1.00  0.00     0.159 HD
ATOM     81  H   UNL     1       2.409   4.388   7.602  1.00  0.00     0.159 HD
ENDBRANCH  73  74
ENDBRANCH  72  73
ENDBRANCH  71  72
ENDBRANCH  45  71
ENDBRANCH   3  45
TORSDOF 20
ENDMDL
MODEL 5
REMARK VINA RESULT:    -5.533      3.492      5.667
REMARK INTER + INTRA:         -21.384
REMARK INTER:                 -15.905
REMARK INTRA:                  -5.478
REMARK UNBOUND:                -5.499
REMARK SMILES CCCCCC(=O)N[C@H](CC(=O)O)C(=O)N[C@H]1C(=O)N[C@H](CCCN=C(N)N)C(=O)N[C@@H]2CC[C@H](O)N(C2=O)[C@@H](CC(C)C)C(=O)N(C)[C@@H](Cc2ccccc2)C(=O)N[C@H](C(C)C)C(=O)O[C@@H]1C
REMARK SMILES IDX 30 1 31 2 29 3 32 5 35 6 37 7 34 8 38 9 33 10 39 11 36 12
REMARK SMILES IDX 40 14 41 15 42 16 43 17 44 18 45 19 46 20 47 21 48 22 49 23
REMARK SMILES IDX 50 24 51 25 52 26 56 27 53 28 55 29 54 30 57 31 58 32 59 33
REMARK SMILES IDX 60 35 61 36 62 37 63 38 64 39 65 40 66 41 67 42 68 43 21 45
REMARK SMILES IDX 20 46 18 47 19 48 17 50 16 52 14 53 15 54 9 56 8 57 6 58
REMARK SMILES IDX 7 59 5 61 4 62 3 63 2 64 1 65 10 66 11 67 12 68 13 69 22 71
REMARK SMILES IDX 23 72 24 73 25 74 26 75 27 76 28 77
REMARK H PARENT 31 4 36 13 59 34 20 49 16 55 8 60 13 70 27 78 27 79 28 80
REMARK H PARENT 28 81
REMARK Flexibility Score:  259.900
ROOT
ATOM      1  O   UNL     1       6.990   6.625   8.620  1.00  0.00    -0.273 OA
ATOM      2  N   UNL     1       4.745   6.697   9.051  1.00  0.00    -0.343 N 
ATOM      3  C   UNL     1       6.069   6.782   9.423  1.00  0.00     0.243 C 
ATOM      4  H   UNL     1       4.014   6.846   9.735  1.00  0.00     0.164 HD
ENDROOT
BRANCH   2   5
ATOM      5  C   UNL     1       4.378   6.294   7.697  1.00  0.00     0.171 C 
ATOM      6  C   UNL     1       5.924   5.916   5.274  1.00  0.00     0.214 C 
ATOM      7  N   UNL     1       5.337   7.207   5.548  1.00  0.00    -0.303 N 
ATOM      8  C   UNL     1       5.126   4.758   5.852  1.00  0.00     0.057 C 
ATOM      9  C   UNL     1       4.631   7.470   6.711  1.00  0.00     0.247 C 
ATOM     10  C   UNL     1       4.979   4.934   7.348  1.00  0.00     0.040 C 
ATOM     11  O   UNL     1       4.206   8.602   6.979  1.00  0.00    -0.272 OA
BRANCH   6  12
ATOM     12  O   UNL     1       7.234   5.920   5.792  1.00  0.00    -0.373 OA
ATOM     13  H   UNL     1       7.836   6.135   5.049  1.00  0.00     0.213 HD
ENDBRANCH   6  12
BRANCH   7  14
ATOM     14  C   UNL     1       5.645   8.299   4.600  1.00  0.00     0.177 C 
BRANCH  14  15
ATOM     15  C   UNL     1       7.114   8.376   4.143  1.00  0.00     0.038 C 
BRANCH  15  16
ATOM     16  C   UNL     1       8.015   9.517   4.666  1.00  0.00    -0.015 C 
ATOM     17  C   UNL     1       9.251   9.734   3.788  1.00  0.00     0.007 C 
ATOM     18  C   UNL     1       8.488   9.193   6.089  1.00  0.00     0.007 C 
ENDBRANCH  15  16
ENDBRANCH  14  15
BRANCH  14  19
ATOM     19  C   UNL     1       4.398   8.605   3.701  1.00  0.00     0.245 C 
ATOM     20  O   UNL     1       3.829   7.630   3.183  1.00  0.00    -0.272 OA
BRANCH  19  21
ATOM     21  N   UNL     1       3.979   9.882   3.371  1.00  0.00    -0.332 N 
ATOM     22  C   UNL     1       4.377  11.101   4.053  1.00  0.00     0.147 C 
BRANCH  21  23
ATOM     23  C   UNL     1       3.033  10.032   2.232  1.00  0.00     0.178 C 
BRANCH  23  24
ATOM     24  C   UNL     1       1.700  10.722   2.586  1.00  0.00     0.070 C 
BRANCH  24  25
ATOM     25  C   UNL     1       0.429   9.966   2.275  1.00  0.00    -0.045 A 
ATOM     26  C   UNL     1       0.477   8.671   1.742  1.00  0.00     0.004 A 
ATOM     27  C   UNL     1      -0.821  10.555   2.513  1.00  0.00     0.004 A 
ATOM     28  C   UNL     1      -0.702   7.986   1.441  1.00  0.00     0.000 A 
ATOM     29  C   UNL     1      -1.999   9.868   2.213  1.00  0.00     0.000 A 
ATOM     30  C   UNL     1      -1.938   8.585   1.674  1.00  0.00     0.000 A 
ENDBRANCH  24  25
ENDBRANCH  23  24
BRANCH  23  31
ATOM     31  C   UNL     1       3.715  10.555   0.945  1.00  0.00     0.243 C 
ATOM     32  O   UNL     1       4.923  10.486   0.731  1.00  0.00    -0.273 OA
ATOM     33  N   UNL     1       2.868  11.281   0.125  1.00  0.00    -0.341 N 
ATOM     34  H   UNL     1       1.872  11.307   0.358  1.00  0.00     0.164 HD
BRANCH  33  35
ATOM     35  C   UNL     1       3.323  11.969  -1.085  1.00  0.00     0.194 C 
BRANCH  35  36
ATOM     36  C   UNL     1       3.450  13.511  -0.929  1.00  0.00     0.017 C 
ATOM     37  C   UNL     1       4.463  13.881   0.167  1.00  0.00     0.010 C 
ATOM     38  C   UNL     1       2.122  14.193  -0.576  1.00  0.00     0.010 C 
ENDBRANCH  35  36
BRANCH  35  39
ATOM     39  C   UNL     1       2.496  11.579  -2.342  1.00  0.00     0.329 C 
ATOM     40  O   UNL     1       1.482  10.892  -2.310  1.00  0.00    -0.250 OA
BRANCH  39  41
ATOM     41  O   UNL     1       2.978  12.161  -3.482  1.00  0.00    -0.458 OA
BRANCH  41  42
ATOM     42  C   UNL     1       2.045  12.282  -4.583  1.00  0.00     0.205 CG0
ATOM     43  C   UNL     1       2.773  11.828  -5.847  1.00  0.00     0.056 C 
ATOM     44  G   UNL     1       1.573  13.748  -4.668  1.00  0.00     0.000 G0
ENDBRANCH  41  42
ENDBRANCH  39  41
ENDBRANCH  35  39
ENDBRANCH  33  35
ENDBRANCH  23  31
ENDBRANCH  21  23
ENDBRANCH  19  21
ENDBRANCH  14  19
ENDBRANCH   7  14
ENDBRANCH   2   5
BRANCH   3  45
ATOM     45  C   UNL     1       6.316   7.108  10.902  1.00  0.00     0.171 C 
BRANCH  45  46
ATOM     46  N   UNL     1       5.860   5.940  11.644  1.00  0.00    -0.342 N 
ATOM     47  C   UNL     1       6.657   4.842  11.851  1.00  0.00     0.247 C 
ATOM     48  O   UNL     1       7.833   4.792  11.491  1.00  0.00    -0.273 OA
ATOM     49  H   UNL     1       4.910   5.962  12.009  1.00  0.00     0.164 HD
BRANCH  47  50
ATOM     50  C   UNL     1       5.966   3.659  12.545  1.00  0.00     0.212 CG0
ATOM     51  G   UNL     1       5.070   4.231  13.661  1.00  0.00     0.000 G0
BRANCH  50  52
ATOM     52  N   UNL     1       5.215   2.977  11.495  1.00  0.00    -0.339 N 
ATOM     53  C   UNL     1       3.843   2.908  11.469  1.00  0.00     0.243 C 
ATOM     54  O   UNL     1       3.141   3.374  12.362  1.00  0.00    -0.273 OA
ATOM     55  H   UNL     1       5.744   2.475  10.785  1.00  0.00     0.164 HD
BRANCH  53  56
ATOM     56  C   UNL     1       3.278   2.061  10.311  1.00  0.00     0.182 C 
BRANCH  56  57
ATOM     57  N   UNL     1       1.951   2.538   9.909  1.00  0.00    -0.344 N 
ATOM     58  C   UNL     1       1.605   2.729   8.593  1.00  0.00     0.220 C 
ATOM     59  O   UNL     1       2.400   2.586   7.671  1.00  0.00    -0.275 OA
ATOM     60  H   UNL     1       1.235   2.571  10.630  1.00  0.00     0.164 HD
BRANCH  58  61
ATOM     61  C   UNL     1       0.165   3.169   8.408  1.00  0.00     0.100 C 
BRANCH  61  62
ATOM     62  C   UNL     1      -0.702   2.148   7.670  1.00  0.00     0.010 C 
BRANCH  62  63
ATOM     63  C   UNL     1      -1.925   1.673   8.464  1.00  0.00     0.000 C 
BRANCH  63  64
ATOM     64  C   UNL     1      -1.732   0.333   9.173  1.00  0.00    -0.003 C 
ATOM     65  C   UNL     1      -1.111   0.519  10.550  1.00  0.00     0.004 C 
ENDBRANCH  63  64
ENDBRANCH  62  63
ENDBRANCH  61  62
ENDBRANCH  58  61
ENDBRANCH  56  57
BRANCH  56  66
ATOM     66  C   UNL     1       3.277   0.573  10.654  1.00  0.00     0.157 C 
BRANCH  66  67
ATOM     67  C   UNL     1       4.330  -0.165   9.879  1.00  0.00     0.305 C 
ATOM     68  O   UNL     1       4.167  -1.155   9.182  1.00  0.00    -0.252 OA
BRANCH  67  69
ATOM     69  O   UNL     1       5.540   0.416   9.978  1.00  0.00    -0.481 OA
ATOM     70  H   UNL     1       5.356   1.379   9.978  1.00  0.00     0.296 HD
ENDBRANCH  67  69
ENDBRANCH  66  67
ENDBRANCH  56  66
ENDBRANCH  53  56
ENDBRANCH  50  52
ENDBRANCH  47  50
ENDBRANCH  45  46
BRANCH  45  71
ATOM     71  C   UNL     1       5.548   8.371  11.306  1.00  0.00     0.037 C 
BRANCH  71  72
ATOM     72  C   UNL     1       4.822   8.199  12.643  1.00  0.00     0.026 C 
BRANCH  72  73
ATOM     73  C   UNL     1       3.306   8.176  12.459  1.00  0.00     0.146 C 
BRANCH  73  74
ATOM     74  N   UNL     1       2.957   6.929  11.786  1.00  0.00    -0.254 NA
ATOM     75  C   UNL     1       1.719   6.712  11.531  1.00  0.00     0.185 C 
ATOM     76  N   UNL     1       1.367   5.574  10.911  1.00  0.00    -0.370 N 
ATOM     77  N   UNL     1       0.653   7.485  11.799  1.00  0.00    -0.370 N 
ATOM     78  H   UNL     1       2.110   4.930  10.679  1.00  0.00     0.159 HD
ATOM     79  H   UNL     1       0.414   5.270  10.810  1.00  0.00     0.159 HD
ATOM     80  H   UNL     1       0.767   8.375  12.260  1.00  0.00     0.159 HD
ATOM     81  H   UNL     1      -0.263   7.262  11.447  1.00  0.00     0.159 HD
ENDBRANCH  73  74
ENDBRANCH  72  73
ENDBRANCH  71  72
ENDBRANCH  45  71
ENDBRANCH   3  45
TORSDOF 20
ENDMDL
MODEL 6
REMARK VINA RESULT:    -5.473      3.676      6.126
REMARK INTER + INTRA:         -21.209
REMARK INTER:                 -16.116
REMARK INTRA:                  -5.092
REMARK UNBOUND:                -5.499
REMARK SMILES CCCCCC(=O)N[C@H](CC(=O)O)C(=O)N[C@H]1C(=O)N[C@H](CCCN=C(N)N)C(=O)N[C@@H]2CC[C@H](O)N(C2=O)[C@@H](CC(C)C)C(=O)N(C)[C@@H](Cc2ccccc2)C(=O)N[C@H](C(C)C)C(=O)O[C@@H]1C
REMARK SMILES IDX 30 1 31 2 29 3 32 5 35 6 37 7 34 8 38 9 33 10 39 11 36 12
REMARK SMILES IDX 40 14 41 15 42 16 43 17 44 18 45 19 46 20 47 21 48 22 49 23
REMARK SMILES IDX 50 24 51 25 52 26 56 27 53 28 55 29 54 30 57 31 58 32 59 33
REMARK SMILES IDX 60 35 61 36 62 37 63 38 64 39 65 40 66 41 67 42 68 43 21 45
REMARK SMILES IDX 20 46 18 47 19 48 17 50 16 52 14 53 15 54 9 56 8 57 6 58
REMARK SMILES IDX 7 59 5 61 4 62 3 63 2 64 1 65 10 66 11 67 12 68 13 69 22 71
REMARK SMILES IDX 23 72 24 73 25 74 26 75 27 76 28 77
REMARK H PARENT 31 4 36 13 59 34 20 49 16 55 8 60 13 70 27 78 27 79 28 80
REMARK H PARENT 28 81
REMARK Flexibility Score:  259.900
ROOT
ATOM      1  O   UNL     1       6.838   5.759   9.054  1.00  0.00    -0.273 OA
ATOM      2  N   UNL     1       4.565   5.929   9.241  1.00  0.00    -0.343 N 
ATOM      3  C   UNL     1       5.836   5.833   9.766  1.00  0.00     0.243 C 
ATOM      4  H   UNL     1       3.765   6.003   9.857  1.00  0.00     0.164 HD
ENDROOT
BRANCH   2   5
ATOM      5  C   UNL     1       4.346   5.828   7.802  1.00  0.00     0.171 C 
ATOM      6  C   UNL     1       6.159   5.663   5.547  1.00  0.00     0.214 C 
ATOM      7  N   UNL     1       5.699   6.957   5.995  1.00  0.00    -0.303 N 
ATOM      8  C   UNL     1       5.156   4.548   5.795  1.00  0.00     0.057 C 
ATOM      9  C   UNL     1       4.873   7.110   7.097  1.00  0.00     0.247 C 
ATOM     10  C   UNL     1       4.823   4.478   7.269  1.00  0.00     0.040 C 
ATOM     11  O   UNL     1       4.553   8.226   7.527  1.00  0.00    -0.272 OA
BRANCH   6  12
ATOM     12  O   UNL     1       7.375   5.388   6.203  1.00  0.00    -0.373 OA
ATOM     13  H   UNL     1       7.949   6.174   6.087  1.00  0.00     0.213 HD
ENDBRANCH   6  12
BRANCH   7  14
ATOM     14  C   UNL     1       6.265   8.142   5.316  1.00  0.00     0.177 C 
BRANCH  14  15
ATOM     15  C   UNL     1       7.793   8.297   5.432  1.00  0.00     0.038 C 
BRANCH  15  16
ATOM     16  C   UNL     1       8.509   9.406   4.629  1.00  0.00    -0.015 C 
ATOM     17  C   UNL     1       8.859   8.963   3.205  1.00  0.00     0.007 C 
ATOM     18  C   UNL     1       9.808   9.806   5.341  1.00  0.00     0.007 C 
ENDBRANCH  15  16
ENDBRANCH  14  15
BRANCH  14  19
ATOM     19  C   UNL     1       5.409   8.506   4.054  1.00  0.00     0.245 C 
ATOM     20  O   UNL     1       5.300   7.629   3.181  1.00  0.00    -0.272 OA
BRANCH  19  21
ATOM     21  N   UNL     1       4.877   9.761   3.819  1.00  0.00    -0.332 N 
ATOM     22  C   UNL     1       5.112  10.942   4.631  1.00  0.00     0.147 C 
BRANCH  21  23
ATOM     23  C   UNL     1       3.979   9.927   2.643  1.00  0.00     0.178 C 
BRANCH  23  24
ATOM     24  C   UNL     1       2.560  10.429   2.981  1.00  0.00     0.070 C 
BRANCH  24  25
ATOM     25  C   UNL     1       1.407   9.513   2.643  1.00  0.00    -0.045 A 
ATOM     26  C   UNL     1       1.379   8.811   1.431  1.00  0.00     0.004 A 
ATOM     27  C   UNL     1       0.341   9.356   3.542  1.00  0.00     0.004 A 
ATOM     28  C   UNL     1       0.302   7.979   1.119  1.00  0.00     0.000 A 
ATOM     29  C   UNL     1      -0.735   8.523   3.229  1.00  0.00     0.000 A 
ATOM     30  C   UNL     1      -0.755   7.838   2.016  1.00  0.00     0.000 A 
ENDBRANCH  24  25
ENDBRANCH  23  24
BRANCH  23  31
ATOM     31  C   UNL     1       4.661  10.652   1.459  1.00  0.00     0.243 C 
ATOM     32  O   UNL     1       5.743  10.319   0.981  1.00  0.00    -0.273 OA
ATOM     33  N   UNL     1       4.034  11.831   1.096  1.00  0.00    -0.341 N 
ATOM     34  H   UNL     1       3.137  12.058   1.533  1.00  0.00     0.164 HD
BRANCH  33  35
ATOM     35  C   UNL     1       4.569  12.742   0.080  1.00  0.00     0.194 C 
BRANCH  35  36
ATOM     36  C   UNL     1       5.501  13.849   0.649  1.00  0.00     0.017 C 
ATOM     37  C   UNL     1       6.819  13.931  -0.141  1.00  0.00     0.010 C 
ATOM     38  C   UNL     1       5.862  13.637   2.124  1.00  0.00     0.010 C 
ENDBRANCH  35  36
BRANCH  35  39
ATOM     39  C   UNL     1       3.463  13.330  -0.839  1.00  0.00     0.329 C 
ATOM     40  O   UNL     1       2.818  14.339  -0.578  1.00  0.00    -0.250 OA
BRANCH  39  41
ATOM     41  O   UNL     1       3.347  12.645  -2.017  1.00  0.00    -0.458 OA
BRANCH  41  42
ATOM     42  C   UNL     1       2.264  13.047  -2.889  1.00  0.00     0.205 CG0
ATOM     43  C   UNL     1       1.552  11.776  -3.345  1.00  0.00     0.056 C 
ATOM     44  G   UNL     1       2.853  13.849  -4.067  1.00  0.00     0.000 G0
ENDBRANCH  41  42
ENDBRANCH  39  41
ENDBRANCH  35  39
ENDBRANCH  33  35
ENDBRANCH  23  31
ENDBRANCH  21  23
ENDBRANCH  19  21
ENDBRANCH  14  19
ENDBRANCH   7  14
ENDBRANCH   2   5
BRANCH   3  45
ATOM     45  C   UNL     1       5.916   5.845  11.298  1.00  0.00     0.171 C 
BRANCH  45  46
ATOM     46  N   UNL     1       5.164   4.678  11.742  1.00  0.00    -0.342 N 
ATOM     47  C   UNL     1       5.711   3.420  11.777  1.00  0.00     0.247 C 
ATOM     48  O   UNL     1       6.891   3.196  11.508  1.00  0.00    -0.273 OA
ATOM     49  H   UNL     1       4.198   4.828  12.027  1.00  0.00     0.164 HD
BRANCH  47  50
ATOM     50  C   UNL     1       4.733   2.297  12.151  1.00  0.00     0.212 CG0
ATOM     51  G   UNL     1       4.995   1.920  13.623  1.00  0.00     0.000 G0
BRANCH  50  52
ATOM     52  N   UNL     1       3.400   2.850  11.926  1.00  0.00    -0.339 N 
ATOM     53  C   UNL     1       2.650   2.582  10.807  1.00  0.00     0.243 C 
ATOM     54  O   UNL     1       3.067   1.894   9.879  1.00  0.00    -0.273 OA
ATOM     55  H   UNL     1       3.043   3.517  12.607  1.00  0.00     0.164 HD
BRANCH  53  56
ATOM     56  C   UNL     1       1.312   3.347  10.750  1.00  0.00     0.182 C 
BRANCH  56  57
ATOM     57  N   UNL     1       0.435   2.797   9.711  1.00  0.00    -0.344 N 
ATOM     58  C   UNL     1      -0.898   2.548   9.929  1.00  0.00     0.220 C 
ATOM     59  O   UNL     1      -1.431   2.699  11.024  1.00  0.00    -0.275 OA
ATOM     60  H   UNL     1       0.810   2.754   8.767  1.00  0.00     0.164 HD
BRANCH  58  61
ATOM     61  C   UNL     1      -1.624   2.037   8.699  1.00  0.00     0.100 C 
BRANCH  61  62
ATOM     62  C   UNL     1      -1.724   0.513   8.631  1.00  0.00     0.010 C 
BRANCH  62  63
ATOM     63  C   UNL     1      -3.126  -0.037   8.926  1.00  0.00     0.000 C 
BRANCH  63  64
ATOM     64  C   UNL     1      -3.501  -0.037  10.407  1.00  0.00    -0.003 C 
ATOM     65  C   UNL     1      -2.577  -0.938  11.213  1.00  0.00     0.004 C 
ENDBRANCH  63  64
ENDBRANCH  62  63
ENDBRANCH  61  62
ENDBRANCH  58  61
ENDBRANCH  56  57
BRANCH  56  66
ATOM     66  C   UNL     1       1.533   4.849  10.582  1.00  0.00     0.157 C 
BRANCH  66  67
ATOM     67  C   UNL     1       0.539   5.638  11.384  1.00  0.00     0.305 C 
ATOM     68  O   UNL     1       0.219   6.804  11.213  1.00  0.00    -0.252 OA
BRANCH  67  69
ATOM     69  O   UNL     1      -0.050   4.896  12.342  1.00  0.00    -0.481 OA
ATOM     70  H   UNL     1      -0.717   4.357  11.866  1.00  0.00     0.296 HD
ENDBRANCH  67  69
ENDBRANCH  66  67
ENDBRANCH  56  66
ENDBRANCH  53  56
ENDBRANCH  50  52
ENDBRANCH  47  50
ENDBRANCH  45  46
BRANCH  45  71
ATOM     71  C   UNL     1       5.323   7.144  11.854  1.00  0.00     0.037 C 
BRANCH  71  72
ATOM     72  C   UNL     1       5.391   7.201  13.382  1.00  0.00     0.026 C 
BRANCH  72  73
ATOM     73  C   UNL     1       4.332   8.141  13.955  1.00  0.00     0.146 C 
BRANCH  73  74
ATOM     74  N   UNL     1       3.671   8.805  12.836  1.00  0.00    -0.254 NA
ATOM     75  C   UNL     1       2.389   8.803  12.812  1.00  0.00     0.185 C 
ATOM     76  N   UNL     1       1.752   9.407  11.796  1.00  0.00    -0.370 N 
ATOM     77  N   UNL     1       1.528   8.263  13.691  1.00  0.00    -0.370 N 
ATOM     78  H   UNL     1       2.328   9.835  11.084  1.00  0.00     0.159 HD
ATOM     79  H   UNL     1       0.764   9.323  11.633  1.00  0.00     0.159 HD
ATOM     80  H   UNL     1       1.865   7.779  14.509  1.00  0.00     0.159 HD
ATOM     81  H   UNL     1       0.536   8.425  13.627  1.00  0.00     0.159 HD
ENDBRANCH  73  74
ENDBRANCH  72  73
ENDBRANCH  71  72
ENDBRANCH  45  71
ENDBRANCH   3  45
TORSDOF 20
ENDMDL
MODEL 7
REMARK VINA RESULT:    -5.318      3.853      6.407
REMARK INTER + INTRA:         -20.766
REMARK INTER:                 -16.194
REMARK INTRA:                  -4.572
REMARK UNBOUND:                -5.499
REMARK SMILES CCCCCC(=O)N[C@H](CC(=O)O)C(=O)N[C@H]1C(=O)N[C@H](CCCN=C(N)N)C(=O)N[C@@H]2CC[C@H](O)N(C2=O)[C@@H](CC(C)C)C(=O)N(C)[C@@H](Cc2ccccc2)C(=O)N[C@H](C(C)C)C(=O)O[C@@H]1C
REMARK SMILES IDX 30 1 31 2 29 3 32 5 35 6 37 7 34 8 38 9 33 10 39 11 36 12
REMARK SMILES IDX 40 14 41 15 42 16 43 17 44 18 45 19 46 20 47 21 48 22 49 23
REMARK SMILES IDX 50 24 51 25 52 26 56 27 53 28 55 29 54 30 57 31 58 32 59 33
REMARK SMILES IDX 60 35 61 36 62 37 63 38 64 39 65 40 66 41 67 42 68 43 21 45
REMARK SMILES IDX 20 46 18 47 19 48 17 50 16 52 14 53 15 54 9 56 8 57 6 58
REMARK SMILES IDX 7 59 5 61 4 62 3 63 2 64 1 65 10 66 11 67 12 68 13 69 22 71
REMARK SMILES IDX 23 72 24 73 25 74 26 75 27 76 28 77
REMARK H PARENT 31 4 36 13 59 34 20 49 16 55 8 60 13 70 27 78 27 79 28 80
REMARK H PARENT 28 81
REMARK Flexibility Score:  259.900
ROOT
ATOM      1  O   UNL     1       6.235   5.935   9.523  1.00  0.00    -0.273 OA
ATOM      2  N   UNL     1       3.961   5.754   9.359  1.00  0.00    -0.343 N 
ATOM      3  C   UNL     1       5.134   5.872  10.072  1.00  0.00     0.243 C 
ATOM      4  H   UNL     1       3.073   5.720   9.843  1.00  0.00     0.164 HD
ENDROOT
BRANCH   2   5
ATOM      5  C   UNL     1       3.987   5.575   7.911  1.00  0.00     0.171 C 
ATOM      6  C   UNL     1       6.154   5.313   6.003  1.00  0.00     0.214 C 
ATOM      7  N   UNL     1       5.623   6.624   6.299  1.00  0.00    -0.303 N 
ATOM      8  C   UNL     1       5.125   4.202   6.138  1.00  0.00     0.057 C 
ATOM      9  C   UNL     1       4.624   6.825   7.237  1.00  0.00     0.247 C 
ATOM     10  C   UNL     1       4.549   4.205   7.537  1.00  0.00     0.040 C 
ATOM     11  O   UNL     1       4.235   7.958   7.548  1.00  0.00    -0.272 OA
BRANCH   6  12
ATOM     12  O   UNL     1       7.242   5.084   6.868  1.00  0.00    -0.373 OA
ATOM     13  H   UNL     1       7.847   5.852   6.779  1.00  0.00     0.213 HD
ENDBRANCH   6  12
BRANCH   7  14
ATOM     14  C   UNL     1       6.293   7.778   5.664  1.00  0.00     0.177 C 
BRANCH  14  15
ATOM     15  C   UNL     1       7.820   7.844   5.867  1.00  0.00     0.038 C 
BRANCH  15  16
ATOM     16  C   UNL     1       8.490   9.204   6.164  1.00  0.00    -0.015 C 
ATOM     17  C   UNL     1       8.933   9.927   4.889  1.00  0.00     0.007 C 
ATOM     18  C   UNL     1       9.724   8.991   7.050  1.00  0.00     0.007 C 
ENDBRANCH  15  16
ENDBRANCH  14  15
BRANCH  14  19
ATOM     19  C   UNL     1       5.533   8.197   4.359  1.00  0.00     0.245 C 
ATOM     20  O   UNL     1       5.488   7.358   3.444  1.00  0.00    -0.272 OA
BRANCH  19  21
ATOM     21  N   UNL     1       5.021   9.463   4.137  1.00  0.00    -0.332 N 
ATOM     22  C   UNL     1       5.220  10.615   4.999  1.00  0.00     0.147 C 
BRANCH  21  23
ATOM     23  C   UNL     1       4.186   9.674   2.923  1.00  0.00     0.178 C 
BRANCH  23  24
ATOM     24  C   UNL     1       2.759  10.189   3.202  1.00  0.00     0.070 C 
BRANCH  24  25
ATOM     25  C   UNL     1       1.612   9.353   2.685  1.00  0.00    -0.045 A 
ATOM     26  C   UNL     1       1.564   8.950   1.344  1.00  0.00     0.004 A 
ATOM     27  C   UNL     1       0.571   8.972   3.545  1.00  0.00     0.004 A 
ATOM     28  C   UNL     1       0.492   8.192   0.871  1.00  0.00     0.000 A 
ATOM     29  C   UNL     1      -0.500   8.213   3.070  1.00  0.00     0.000 A 
ATOM     30  C   UNL     1      -0.540   7.826   1.732  1.00  0.00     0.000 A 
ENDBRANCH  24  25
ENDBRANCH  23  24
BRANCH  23  31
ATOM     31  C   UNL     1       4.938  10.418   1.794  1.00  0.00     0.243 C 
ATOM     32  O   UNL     1       6.044  10.089   1.373  1.00  0.00    -0.273 OA
ATOM     33  N   UNL     1       4.337  11.607   1.419  1.00  0.00    -0.341 N 
ATOM     34  H   UNL     1       3.418  11.830   1.809  1.00  0.00     0.164 HD
BRANCH  33  35
ATOM     35  C   UNL     1       4.934  12.535   0.455  1.00  0.00     0.194 C 
BRANCH  35  36
ATOM     36  C   UNL     1       5.839  13.624   1.097  1.00  0.00     0.017 C 
ATOM     37  C   UNL     1       7.291  13.509   0.600  1.00  0.00     0.010 C 
ATOM     38  C   UNL     1       5.871  13.557   2.628  1.00  0.00     0.010 C 
ENDBRANCH  35  36
BRANCH  35  39
ATOM     39  C   UNL     1       3.884  13.149  -0.513  1.00  0.00     0.329 C 
ATOM     40  O   UNL     1       3.096  14.033  -0.198  1.00  0.00    -0.250 OA
BRANCH  39  41
ATOM     41  O   UNL     1       3.995  12.655  -1.783  1.00  0.00    -0.458 OA
BRANCH  41  42
ATOM     42  C   UNL     1       2.878  12.908  -2.669  1.00  0.00     0.205 CG0
ATOM     43  C   UNL     1       2.793  11.732  -3.639  1.00  0.00     0.056 C 
ATOM     44  G   UNL     1       3.116  14.250  -3.389  1.00  0.00     0.000 G0
ENDBRANCH  41  42
ENDBRANCH  39  41
ENDBRANCH  35  39
ENDBRANCH  33  35
ENDBRANCH  23  31
ENDBRANCH  21  23
ENDBRANCH  19  21
ENDBRANCH  14  19
ENDBRANCH   7  14
ENDBRANCH   2   5
BRANCH   3  45
ATOM     45  C   UNL     1       4.972   5.943  11.596  1.00  0.00     0.171 C 
BRANCH  45  46
ATOM     46  N   UNL     1       4.623   4.593  12.018  1.00  0.00    -0.342 N 
ATOM     47  C   UNL     1       5.562   3.604  12.170  1.00  0.00     0.247 C 
ATOM     48  O   UNL     1       6.770   3.801  12.033  1.00  0.00    -0.273 OA
ATOM     49  H   UNL     1       3.639   4.401  12.198  1.00  0.00     0.164 HD
BRANCH  47  50
ATOM     50  C   UNL     1       4.995   2.215  12.499  1.00  0.00     0.212 CG0
ATOM     51  G   UNL     1       5.299   1.926  13.982  1.00  0.00     0.000 G0
BRANCH  50  52
ATOM     52  N   UNL     1       3.567   2.298  12.208  1.00  0.00    -0.339 N 
ATOM     53  C   UNL     1       3.012   1.887  11.021  1.00  0.00     0.243 C 
ATOM     54  O   UNL     1       3.687   1.464  10.086  1.00  0.00    -0.273 OA
ATOM     55  H   UNL     1       2.968   2.744  12.901  1.00  0.00     0.164 HD
BRANCH  53  56
ATOM     56  C   UNL     1       1.497   2.153  10.910  1.00  0.00     0.182 C 
BRANCH  56  57
ATOM     57  N   UNL     1       1.187   3.558  11.198  1.00  0.00    -0.344 N 
ATOM     58  C   UNL     1       0.174   4.233  10.561  1.00  0.00     0.220 C 
ATOM     59  O   UNL     1      -0.491   3.735   9.660  1.00  0.00    -0.275 OA
ATOM     60  H   UNL     1       1.644   3.974  12.004  1.00  0.00     0.164 HD
BRANCH  58  61
ATOM     61  C   UNL     1      -0.005   5.656  11.058  1.00  0.00     0.100 C 
BRANCH  61  62
ATOM     62  C   UNL     1      -1.429   6.189  10.900  1.00  0.00     0.010 C 
BRANCH  62  63
ATOM     63  C   UNL     1      -2.320   5.973  12.129  1.00  0.00     0.000 C 
BRANCH  63  64
ATOM     64  C   UNL     1      -2.188   4.589  12.764  1.00  0.00    -0.003 C 
ATOM     65  C   UNL     1      -3.546   3.921  12.927  1.00  0.00     0.004 C 
ENDBRANCH  63  64
ENDBRANCH  62  63
ENDBRANCH  61  62
ENDBRANCH  58  61
ENDBRANCH  56  57
BRANCH  56  66
ATOM     66  C   UNL     1       0.694   1.194  11.788  1.00  0.00     0.157 C 
BRANCH  66  67
ATOM     67  C   UNL     1       0.224   0.004  11.003  1.00  0.00     0.305 C 
ATOM     68  O   UNL     1      -0.348   0.017   9.924  1.00  0.00    -0.252 OA
BRANCH  67  69
ATOM     69  O   UNL     1       0.546  -1.161  11.598  1.00  0.00    -0.481 OA
ATOM     70  H   UNL     1       1.132  -1.615  10.956  1.00  0.00     0.296 HD
ENDBRANCH  67  69
ENDBRANCH  66  67
ENDBRANCH  56  66
ENDBRANCH  53  56
ENDBRANCH  50  52
ENDBRANCH  47  50
ENDBRANCH  45  46
BRANCH  45  71
ATOM     71  C   UNL     1       3.881   6.952  11.971  1.00  0.00     0.037 C 
BRANCH  71  72
ATOM     72  C   UNL     1       2.953   6.418  13.065  1.00  0.00     0.026 C 
BRANCH  72  73
ATOM     73  C   UNL     1       2.625   7.494  14.097  1.00  0.00     0.146 C 
BRANCH  73  74
ATOM     74  N   UNL     1       1.651   8.404  13.501  1.00  0.00    -0.254 NA
ATOM     75  C   UNL     1       0.420   8.260  13.827  1.00  0.00     0.185 C 
ATOM     76  N   UNL     1      -0.499   9.083  13.296  1.00  0.00    -0.370 N 
ATOM     77  N   UNL     1      -0.133   7.368  14.666  1.00  0.00    -0.370 N 
ATOM     78  H   UNL     1      -0.168   9.781  12.647  1.00  0.00     0.159 HD
ATOM     79  H   UNL     1      -1.490   8.940  13.391  1.00  0.00     0.159 HD
ATOM     80  H   UNL     1       0.439   6.687  15.143  1.00  0.00     0.159 HD
ATOM     81  H   UNL     1      -1.102   7.425  14.936  1.00  0.00     0.159 HD
ENDBRANCH  73  74
ENDBRANCH  72  73
ENDBRANCH  71  72
ENDBRANCH  45  71
ENDBRANCH   3  45
TORSDOF 20
ENDMDL
MODEL 8
REMARK VINA RESULT:    -5.248      4.080      5.955
REMARK INTER + INTRA:         -20.565
REMARK INTER:                 -16.232
REMARK INTRA:                  -4.333
REMARK UNBOUND:                -5.499
REMARK SMILES CCCCCC(=O)N[C@H](CC(=O)O)C(=O)N[C@H]1C(=O)N[C@H](CCCN=C(N)N)C(=O)N[C@@H]2CC[C@H](O)N(C2=O)[C@@H](CC(C)C)C(=O)N(C)[C@@H](Cc2ccccc2)C(=O)N[C@H](C(C)C)C(=O)O[C@@H]1C
REMARK SMILES IDX 30 1 31 2 29 3 32 5 35 6 37 7 34 8 38 9 33 10 39 11 36 12
REMARK SMILES IDX 40 14 41 15 42 16 43 17 44 18 45 19 46 20 47 21 48 22 49 23
REMARK SMILES IDX 50 24 51 25 52 26 56 27 53 28 55 29 54 30 57 31 58 32 59 33
REMARK SMILES IDX 60 35 61 36 62 37 63 38 64 39 65 40 66 41 67 42 68 43 21 45
REMARK SMILES IDX 20 46 18 47 19 48 17 50 16 52 14 53 15 54 9 56 8 57 6 58
REMARK SMILES IDX 7 59 5 61 4 62 3 63 2 64 1 65 10 66 11 67 12 68 13 69 22 71
REMARK SMILES IDX 23 72 24 73 25 74 26 75 27 76 28 77
REMARK H PARENT 31 4 36 13 59 34 20 49 16 55 8 60 13 70 27 78 27 79 28 80
REMARK H PARENT 28 81
REMARK Flexibility Score:  259.900
ROOT
ATOM      1  O   UNL     1       6.453   6.849   8.933  1.00  0.00    -0.273 OA
ATOM      2  N   UNL     1       4.466   6.000   8.183  1.00  0.00    -0.343 N 
ATOM      3  C   UNL     1       5.322   6.427   9.176  1.00  0.00     0.243 C 
ATOM      4  H   UNL     1       3.537   5.673   8.418  1.00  0.00     0.164 HD
ENDROOT
BRANCH   2   5
ATOM      5  C   UNL     1       4.917   5.921   6.798  1.00  0.00     0.171 C 
ATOM      6  C   UNL     1       7.397   6.665   5.493  1.00  0.00     0.214 C 
ATOM      7  N   UNL     1       6.322   7.626   5.576  1.00  0.00    -0.303 N 
ATOM      8  C   UNL     1       6.913   5.224   5.436  1.00  0.00     0.057 C 
ATOM      9  C   UNL     1       5.131   7.353   6.230  1.00  0.00     0.247 C 
ATOM     10  C   UNL     1       6.063   4.921   6.651  1.00  0.00     0.040 C 
ATOM     11  O   UNL     1       4.249   8.210   6.371  1.00  0.00    -0.272 OA
BRANCH   6  12
ATOM     12  O   UNL     1       8.235   6.859   6.609  1.00  0.00    -0.373 OA
ATOM     13  H   UNL     1       8.374   5.979   7.021  1.00  0.00     0.213 HD
ENDBRANCH   6  12
BRANCH   7  14
ATOM     14  C   UNL     1       6.595   8.983   5.059  1.00  0.00     0.177 C 
BRANCH  14  15
ATOM     15  C   UNL     1       7.912   9.619   5.546  1.00  0.00     0.038 C 
BRANCH  15  16
ATOM     16  C   UNL     1       9.052   9.875   4.536  1.00  0.00    -0.015 C 
ATOM     17  C   UNL     1      10.437   9.803   5.188  1.00  0.00     0.007 C 
ATOM     18  C   UNL     1       8.888  11.266   3.910  1.00  0.00     0.007 C 
ENDBRANCH  15  16
ENDBRANCH  14  15
BRANCH  14  19
ATOM     19  C   UNL     1       5.982   9.152   3.626  1.00  0.00     0.245 C 
ATOM     20  O   UNL     1       6.167   8.221   2.825  1.00  0.00    -0.272 OA
BRANCH  19  21
ATOM     21  N   UNL     1       5.359  10.306   3.185  1.00  0.00    -0.332 N 
ATOM     22  C   UNL     1       5.136  11.500   3.981  1.00  0.00     0.147 C 
BRANCH  21  23
ATOM     23  C   UNL     1       4.861  10.336   1.782  1.00  0.00     0.178 C 
BRANCH  23  24
ATOM     24  C   UNL     1       3.425  10.874   1.618  1.00  0.00     0.070 C 
BRANCH  24  25
ATOM     25  C   UNL     1       2.438   9.990   0.891  1.00  0.00    -0.045 A 
ATOM     26  C   UNL     1       2.343  10.019  -0.507  1.00  0.00     0.004 A 
ATOM     27  C   UNL     1       1.596   9.129   1.609  1.00  0.00     0.004 A 
ATOM     28  C   UNL     1       1.417   9.213  -1.170  1.00  0.00     0.000 A 
ATOM     29  C   UNL     1       0.671   8.322   0.944  1.00  0.00     0.000 A 
ATOM     30  C   UNL     1       0.581   8.367  -0.445  1.00  0.00     0.000 A 
ENDBRANCH  24  25
ENDBRANCH  23  24
BRANCH  23  31
ATOM     31  C   UNL     1       5.893  10.919   0.787  1.00  0.00     0.243 C 
ATOM     32  O   UNL     1       7.046  10.510   0.675  1.00  0.00    -0.273 OA
ATOM     33  N   UNL     1       5.461  12.073   0.156  1.00  0.00    -0.341 N 
ATOM     34  H   UNL     1       4.491  12.367   0.293  1.00  0.00     0.164 HD
BRANCH  33  35
ATOM     35  C   UNL     1       6.314  12.862  -0.737  1.00  0.00     0.194 C 
BRANCH  35  36
ATOM     36  C   UNL     1       6.674  14.272  -0.189  1.00  0.00     0.017 C 
ATOM     37  C   UNL     1       8.032  14.753  -0.730  1.00  0.00     0.010 C 
ATOM     38  C   UNL     1       6.744  14.326   1.342  1.00  0.00     0.010 C 
ENDBRANCH  35  36
BRANCH  35  39
ATOM     39  C   UNL     1       5.763  12.926  -2.188  1.00  0.00     0.329 C 
ATOM     40  O   UNL     1       4.703  13.460  -2.497  1.00  0.00    -0.250 OA
BRANCH  39  41
ATOM     41  O   UNL     1       6.634  12.397  -3.100  1.00  0.00    -0.458 OA
BRANCH  41  42
ATOM     42  C   UNL     1       6.179  12.356  -4.473  1.00  0.00     0.205 CG0
ATOM     43  C   UNL     1       7.375  11.960  -5.337  1.00  0.00     0.056 C 
ATOM     44  G   UNL     1       5.615  13.741  -4.846  1.00  0.00     0.000 G0
ENDBRANCH  41  42
ENDBRANCH  39  41
ENDBRANCH  35  39
ENDBRANCH  33  35
ENDBRANCH  23  31
ENDBRANCH  21  23
ENDBRANCH  19  21
ENDBRANCH  14  19
ENDBRANCH   7  14
ENDBRANCH   2   5
BRANCH   3  45
ATOM     45  C   UNL     1       4.759   6.359  10.602  1.00  0.00     0.171 C 
BRANCH  45  46
ATOM     46  N   UNL     1       4.341   4.977  10.795  1.00  0.00    -0.342 N 
ATOM     47  C   UNL     1       4.772   4.218  11.854  1.00  0.00     0.247 C 
ATOM     48  O   UNL     1       5.481   4.669  12.755  1.00  0.00    -0.273 OA
ATOM     49  H   UNL     1       3.709   4.580  10.102  1.00  0.00     0.164 HD
BRANCH  47  50
ATOM     50  C   UNL     1       4.327   2.749  11.825  1.00  0.00     0.212 CG0
ATOM     51  G   UNL     1       4.497   2.181  13.248  1.00  0.00     0.000 G0
BRANCH  50  52
ATOM     52  N   UNL     1       2.939   2.771  11.374  1.00  0.00    -0.339 N 
ATOM     53  C   UNL     1       2.564   2.554  10.070  1.00  0.00     0.243 C 
ATOM     54  O   UNL     1       3.378   2.376   9.169  1.00  0.00    -0.273 OA
ATOM     55  H   UNL     1       2.224   3.023  12.054  1.00  0.00     0.164 HD
BRANCH  53  56
ATOM     56  C   UNL     1       1.051   2.712   9.817  1.00  0.00     0.182 C 
BRANCH  56  57
ATOM     57  N   UNL     1       0.319   2.861  11.079  1.00  0.00    -0.344 N 
ATOM     58  C   UNL     1      -0.475   3.950  11.346  1.00  0.00     0.220 C 
ATOM     59  O   UNL     1      -0.569   4.905  10.582  1.00  0.00    -0.275 OA
ATOM     60  H   UNL     1       0.289   2.051  11.693  1.00  0.00     0.164 HD
BRANCH  58  61
ATOM     61  C   UNL     1      -1.182   3.865  12.686  1.00  0.00     0.100 C 
BRANCH  61  62
ATOM     62  C   UNL     1      -2.685   3.611  12.574  1.00  0.00     0.010 C 
BRANCH  62  63
ATOM     63  C   UNL     1      -3.121   2.212  13.029  1.00  0.00     0.000 C 
BRANCH  63  64
ATOM     64  C   UNL     1      -2.470   1.070  12.251  1.00  0.00    -0.003 C 
ATOM     65  C   UNL     1      -3.502   0.043  11.806  1.00  0.00     0.004 C 
ENDBRANCH  63  64
ENDBRANCH  62  63
ENDBRANCH  61  62
ENDBRANCH  58  61
ENDBRANCH  56  57
BRANCH  56  66
ATOM     66  C   UNL     1       0.503   1.570   8.964  1.00  0.00     0.157 C 
BRANCH  66  67
ATOM     67  C   UNL     1      -0.736   1.988   8.226  1.00  0.00     0.305 C 
ATOM     68  O   UNL     1      -1.847   2.168   8.702  1.00  0.00    -0.252 OA
BRANCH  67  69
ATOM     69  O   UNL     1      -0.502   2.213   6.919  1.00  0.00    -0.481 OA
ATOM     70  H   UNL     1      -1.274   1.823   6.456  1.00  0.00     0.296 HD
ENDBRANCH  67  69
ENDBRANCH  66  67
ENDBRANCH  56  66
ENDBRANCH  53  56
ENDBRANCH  50  52
ENDBRANCH  47  50
ENDBRANCH  45  46
BRANCH  45  71
ATOM     71  C   UNL     1       3.586   7.332  10.759  1.00  0.00     0.037 C 
BRANCH  71  72
ATOM     72  C   UNL     1       2.377   6.673  11.430  1.00  0.00     0.026 C 
BRANCH  72  73
ATOM     73  C   UNL     1       2.221   7.131  12.878  1.00  0.00     0.146 C 
BRANCH  73  74
ATOM     74  N   UNL     1       1.451   8.372  12.873  1.00  0.00    -0.254 NA
ATOM     75  C   UNL     1       0.239   8.326  13.287  1.00  0.00     0.185 C 
ATOM     76  N   UNL     1      -0.494   9.452  13.296  1.00  0.00    -0.370 N 
ATOM     77  N   UNL     1      -0.460   7.272  13.741  1.00  0.00    -0.370 N 
ATOM     78  H   UNL     1      -0.045  10.292  12.961  1.00  0.00     0.159 HD
ATOM     79  H   UNL     1      -1.484   9.466  13.467  1.00  0.00     0.159 HD
ATOM     80  H   UNL     1      -0.034   6.358  13.795  1.00  0.00     0.159 HD
ATOM     81  H   UNL     1      -1.374   7.379  14.150  1.00  0.00     0.159 HD
ENDBRANCH  73  74
ENDBRANCH  72  73
ENDBRANCH  71  72
ENDBRANCH  45  71
ENDBRANCH   3  45
TORSDOF 20
ENDMDL
MODEL 9
REMARK VINA RESULT:    -5.142      4.115      6.085
REMARK INTER + INTRA:         -20.259
REMARK INTER:                 -15.732
REMARK INTRA:                  -4.526
REMARK UNBOUND:                -5.499
REMARK SMILES CCCCCC(=O)N[C@H](CC(=O)O)C(=O)N[C@H]1C(=O)N[C@H](CCCN=C(N)N)C(=O)N[C@@H]2CC[C@H](O)N(C2=O)[C@@H](CC(C)C)C(=O)N(C)[C@@H](Cc2ccccc2)C(=O)N[C@H](C(C)C)C(=O)O[C@@H]1C
REMARK SMILES IDX 30 1 31 2 29 3 32 5 35 6 37 7 34 8 38 9 33 10 39 11 36 12
REMARK SMILES IDX 40 14 41 15 42 16 43 17 44 18 45 19 46 20 47 21 48 22 49 23
REMARK SMILES IDX 50 24 51 25 52 26 56 27 53 28 55 29 54 30 57 31 58 32 59 33
REMARK SMILES IDX 60 35 61 36 62 37 63 38 64 39 65 40 66 41 67 42 68 43 21 45
REMARK SMILES IDX 20 46 18 47 19 48 17 50 16 52 14 53 15 54 9 56 8 57 6 58
REMARK SMILES IDX 7 59 5 61 4 62 3 63 2 64 1 65 10 66 11 67 12 68 13 69 22 71
REMARK SMILES IDX 23 72 24 73 25 74 26 75 27 76 28 77
REMARK H PARENT 31 4 36 13 59 34 20 49 16 55 8 60 13 70 27 78 27 79 28 80
REMARK H PARENT 28 81
REMARK Flexibility Score:  259.900
ROOT
ATOM      1  O   UNL     1       6.481   6.991   8.613  1.00  0.00    -0.273 OA
ATOM      2  N   UNL     1       4.359   6.576   7.864  1.00  0.00    -0.343 N 
ATOM      3  C   UNL     1       5.293   6.779   8.858  1.00  0.00     0.243 C 
ATOM      4  H   UNL     1       3.388   6.420   8.103  1.00  0.00     0.164 HD
ENDROOT
BRANCH   2   5
ATOM      5  C   UNL     1       4.770   6.486   6.467  1.00  0.00     0.171 C 
ATOM      6  C   UNL     1       7.336   6.785   5.151  1.00  0.00     0.214 C 
ATOM      7  N   UNL     1       6.480   7.938   5.309  1.00  0.00    -0.303 N 
ATOM      8  C   UNL     1       6.569   5.478   5.028  1.00  0.00     0.057 C 
ATOM      9  C   UNL     1       5.266   7.876   5.973  1.00  0.00     0.247 C 
ATOM     10  C   UNL     1       5.687   5.285   6.242  1.00  0.00     0.040 C 
ATOM     11  O   UNL     1       4.579   8.884   6.180  1.00  0.00    -0.272 OA
BRANCH   6  12
ATOM     12  O   UNL     1       8.208   6.741   6.257  1.00  0.00    -0.373 OA
ATOM     13  H   UNL     1       8.169   5.830   6.618  1.00  0.00     0.213 HD
ENDBRANCH   6  12
BRANCH   7  14
ATOM     14  C   UNL     1       7.019   9.239   4.860  1.00  0.00     0.177 C 
BRANCH  14  15
ATOM     15  C   UNL     1       8.320   9.686   5.555  1.00  0.00     0.038 C 
BRANCH  15  16
ATOM     16  C   UNL     1       9.563  10.021   4.700  1.00  0.00    -0.015 C 
ATOM     17  C   UNL     1      10.873   9.764   5.449  1.00  0.00     0.007 C 
ATOM     18  C   UNL     1       9.526  11.498   4.288  1.00  0.00     0.007 C 
ENDBRANCH  15  16
ENDBRANCH  14  15
BRANCH  14  19
ATOM     19  C   UNL     1       6.666   9.482   3.352  1.00  0.00     0.245 C 
ATOM     20  O   UNL     1       7.039   8.615   2.544  1.00  0.00    -0.272 OA
BRANCH  19  21
ATOM     21  N   UNL     1       6.076  10.639   2.874  1.00  0.00    -0.332 N 
ATOM     22  C   UNL     1       5.974  11.893   3.598  1.00  0.00     0.147 C 
BRANCH  21  23
ATOM     23  C   UNL     1       5.482  10.604   1.509  1.00  0.00     0.178 C 
BRANCH  23  24
ATOM     24  C   UNL     1       4.032  11.122   1.423  1.00  0.00     0.070 C 
BRANCH  24  25
ATOM     25  C   UNL     1       2.928  10.123   1.681  1.00  0.00    -0.045 A 
ATOM     26  C   UNL     1       2.781   9.525   2.940  1.00  0.00     0.004 A 
ATOM     27  C   UNL     1       2.034   9.776   0.657  1.00  0.00     0.004 A 
ATOM     28  C   UNL     1       1.769   8.590   3.165  1.00  0.00     0.000 A 
ATOM     29  C   UNL     1       1.022   8.842   0.885  1.00  0.00     0.000 A 
ATOM     30  C   UNL     1       0.892   8.248   2.138  1.00  0.00     0.000 A 
ENDBRANCH  24  25
ENDBRANCH  23  24
BRANCH  23  31
ATOM     31  C   UNL     1       6.436  11.154   0.422  1.00  0.00     0.243 C 
ATOM     32  O   UNL     1       7.617  10.834   0.319  1.00  0.00    -0.273 OA
ATOM     33  N   UNL     1       5.890  12.188  -0.321  1.00  0.00    -0.341 N 
ATOM     34  H   UNL     1       4.902  12.413  -0.186  1.00  0.00     0.164 HD
BRANCH  33  35
ATOM     35  C   UNL     1       6.651  12.938  -1.324  1.00  0.00     0.194 C 
BRANCH  35  36
ATOM     36  C   UNL     1       7.067  14.365  -0.869  1.00  0.00     0.017 C 
ATOM     37  C   UNL     1       8.131  14.963  -1.805  1.00  0.00     0.010 C 
ATOM     38  C   UNL     1       7.634  14.404   0.555  1.00  0.00     0.010 C 
ENDBRANCH  35  36
BRANCH  35  39
ATOM     39  C   UNL     1       5.955  12.952  -2.714  1.00  0.00     0.329 C 
ATOM     40  O   UNL     1       4.896  13.523  -2.945  1.00  0.00    -0.250 OA
BRANCH  39  41
ATOM     41  O   UNL     1       6.702  12.328  -3.675  1.00  0.00    -0.458 OA
BRANCH  41  42
ATOM     42  C   UNL     1       6.242  12.476  -5.040  1.00  0.00     0.205 CG0
ATOM     43  C   UNL     1       7.369  11.996  -5.953  1.00  0.00     0.056 C 
ATOM     44  G   UNL     1       5.879  13.954  -5.279  1.00  0.00     0.000 G0
ENDBRANCH  41  42
ENDBRANCH  39  41
ENDBRANCH  35  39
ENDBRANCH  33  35
ENDBRANCH  23  31
ENDBRANCH  21  23
ENDBRANCH  19  21
ENDBRANCH  14  19
ENDBRANCH   7  14
ENDBRANCH   2   5
BRANCH   3  45
ATOM     45  C   UNL     1       4.745   6.744  10.291  1.00  0.00     0.171 C 
BRANCH  45  46
ATOM     46  N   UNL     1       4.371   5.357  10.536  1.00  0.00    -0.342 N 
ATOM     47  C   UNL     1       4.856   4.641  11.601  1.00  0.00     0.247 C 
ATOM     48  O   UNL     1       5.580   5.136  12.465  1.00  0.00    -0.273 OA
ATOM     49  H   UNL     1       3.727   4.925   9.875  1.00  0.00     0.164 HD
BRANCH  47  50
ATOM     50  C   UNL     1       4.451   3.160  11.627  1.00  0.00     0.212 CG0
ATOM     51  G   UNL     1       5.068   2.529  12.891  1.00  0.00     0.000 G0
BRANCH  50  52
ATOM     52  N   UNL     1       2.991   3.155  11.633  1.00  0.00    -0.339 N 
ATOM     53  C   UNL     1       2.239   3.274  12.777  1.00  0.00     0.243 C 
ATOM     54  O   UNL     1       2.742   3.340  13.895  1.00  0.00    -0.273 OA
ATOM     55  H   UNL     1       2.515   2.991  10.748  1.00  0.00     0.164 HD
BRANCH  53  56
ATOM     56  C   UNL     1       0.720   3.155  12.545  1.00  0.00     0.182 C 
BRANCH  56  57
ATOM     57  N   UNL     1       0.425   2.219  11.455  1.00  0.00    -0.344 N 
ATOM     58  C   UNL     1      -0.246   1.038  11.659  1.00  0.00     0.220 C 
ATOM     59  O   UNL     1      -0.579   0.649  12.773  1.00  0.00    -0.275 OA
ATOM     60  H   UNL     1       0.593   2.549  10.508  1.00  0.00     0.164 HD
BRANCH  58  61
ATOM     61  C   UNL     1      -0.491   0.257  10.381  1.00  0.00     0.100 C 
BRANCH  61  62
ATOM     62  C   UNL     1      -1.849   0.539   9.738  1.00  0.00     0.010 C 
BRANCH  62  63
ATOM     63  C   UNL     1      -1.769   1.321   8.421  1.00  0.00     0.000 C 
BRANCH  63  64
ATOM     64  C   UNL     1      -1.243   2.748   8.570  1.00  0.00    -0.003 C 
ATOM     65  C   UNL     1      -2.000   3.715   7.672  1.00  0.00     0.004 C 
ENDBRANCH  63  64
ENDBRANCH  62  63
ENDBRANCH  61  62
ENDBRANCH  58  61
ENDBRANCH  56  57
BRANCH  56  66
ATOM     66  C   UNL     1       0.079   4.523  12.320  1.00  0.00     0.157 C 
BRANCH  66  67
ATOM     67  C   UNL     1      -1.409   4.465  12.515  1.00  0.00     0.305 C 
ATOM     68  O   UNL     1      -2.206   3.790  11.881  1.00  0.00    -0.252 OA
BRANCH  67  69
ATOM     69  O   UNL     1      -1.820   5.230  13.545  1.00  0.00    -0.481 OA
ATOM     70  H   UNL     1      -2.641   5.660  13.225  1.00  0.00     0.296 HD
ENDBRANCH  67  69
ENDBRANCH  66  67
ENDBRANCH  56  66
ENDBRANCH  53  56
ENDBRANCH  50  52
ENDBRANCH  47  50
ENDBRANCH  45  46
BRANCH  45  71
ATOM     71  C   UNL     1       3.543   7.685  10.426  1.00  0.00     0.037 C 
BRANCH  71  72
ATOM     72  C   UNL     1       2.388   7.038  11.195  1.00  0.00     0.026 C 
BRANCH  72  73
ATOM     73  C   UNL     1       2.356   7.500  12.651  1.00  0.00     0.146 C 
BRANCH  73  74
ATOM     74  N   UNL     1       1.632   8.766  12.702  1.00  0.00    -0.254 NA
ATOM     75  C   UNL     1       0.496   8.783  13.295  1.00  0.00     0.185 C 
ATOM     76  N   UNL     1      -0.194   9.934  13.360  1.00  0.00    -0.370 N 
ATOM     77  N   UNL     1      -0.157   7.775  13.900  1.00  0.00    -0.370 N 
ATOM     78  H   UNL     1       0.224  10.742  12.922  1.00  0.00     0.159 HD
ATOM     79  H   UNL     1      -1.145   9.992  13.677  1.00  0.00     0.159 HD
ATOM     80  H   UNL     1       0.245   6.850  13.933  1.00  0.00     0.159 HD
ATOM     81  H   UNL     1      -0.994   7.934  14.436  1.00  0.00     0.159 HD
ENDBRANCH  73  74
ENDBRANCH  72  73
ENDBRANCH  71  72
ENDBRANCH  45  71
ENDBRANCH   3  45
TORSDOF 20
ENDMDL
MODEL 10
REMARK VINA RESULT:    -5.018      6.361     11.380
REMARK INTER + INTRA:         -19.904
REMARK INTER:                 -13.746
REMARK INTRA:                  -6.157
REMARK UNBOUND:                -5.499
REMARK SMILES CCCCCC(=O)N[C@H](CC(=O)O)C(=O)N[C@H]1C(=O)N[C@H](CCCN=C(N)N)C(=O)N[C@@H]2CC[C@H](O)N(C2=O)[C@@H](CC(C)C)C(=O)N(C)[C@@H](Cc2ccccc2)C(=O)N[C@H](C(C)C)C(=O)O[C@@H]1C
REMARK SMILES IDX 30 1 31 2 29 3 32 5 35 6 37 7 34 8 38 9 33 10 39 11 36 12
REMARK SMILES IDX 40 14 41 15 42 16 43 17 44 18 45 19 46 20 47 21 48 22 49 23
REMARK SMILES IDX 50 24 51 25 52 26 56 27 53 28 55 29 54 30 57 31 58 32 59 33
REMARK SMILES IDX 60 35 61 36 62 37 63 38 64 39 65 40 66 41 67 42 68 43 21 45
REMARK SMILES IDX 20 46 18 47 19 48 17 50 16 52 14 53 15 54 9 56 8 57 6 58
REMARK SMILES IDX 7 59 5 61 4 62 3 63 2 64 1 65 10 66 11 67 12 68 13 69 22 71
REMARK SMILES IDX 23 72 24 73 25 74 26 75 27 76 28 77
REMARK H PARENT 31 4 36 13 59 34 20 49 16 55 8 60 13 70 27 78 27 79 28 80
REMARK H PARENT 28 81
REMARK Flexibility Score:  259.900
ROOT
ATOM      1  O   UNL     1       2.566   3.971   8.857  1.00  0.00    -0.273 OA
ATOM      2  N   UNL     1       4.720   4.680   8.561  1.00  0.00    -0.343 N 
ATOM      3  C   UNL     1       3.716   4.076   9.286  1.00  0.00     0.243 C 
ATOM      4  H   UNL     1       5.657   4.736   8.939  1.00  0.00     0.164 HD
ENDROOT
BRANCH   2   5
ATOM      5  C   UNL     1       4.428   5.333   7.289  1.00  0.00     0.171 C 
ATOM      6  C   UNL     1       5.977   7.092   5.583  1.00  0.00     0.214 C 
ATOM      7  N   UNL     1       5.125   7.660   6.601  1.00  0.00    -0.303 N 
ATOM      8  C   UNL     1       5.466   5.767   5.040  1.00  0.00     0.057 C 
ATOM      9  C   UNL     1       4.398   6.876   7.483  1.00  0.00     0.247 C 
ATOM     10  C   UNL     1       5.309   4.775   6.172  1.00  0.00     0.040 C 
ATOM     11  O   UNL     1       3.738   7.368   8.407  1.00  0.00    -0.272 OA
BRANCH   6  12
ATOM     12  O   UNL     1       7.263   6.933   6.137  1.00  0.00    -0.373 OA
ATOM     13  H   UNL     1       7.742   7.778   5.997  1.00  0.00     0.213 HD
ENDBRANCH   6  12
BRANCH   7  14
ATOM     14  C   UNL     1       5.168   9.128   6.769  1.00  0.00     0.177 C 
BRANCH  14  15
ATOM     15  C   UNL     1       3.897   9.876   6.323  1.00  0.00     0.038 C 
BRANCH  15  16
ATOM     16  C   UNL     1       3.867  10.569   4.943  1.00  0.00    -0.015 C 
ATOM     17  C   UNL     1       2.847   9.935   3.993  1.00  0.00     0.007 C 
ATOM     18  C   UNL     1       5.252  10.481   4.288  1.00  0.00     0.007 C 
ENDBRANCH  15  16
ENDBRANCH  14  15
BRANCH  14  19
ATOM     19  C   UNL     1       6.059   9.508   8.002  1.00  0.00     0.245 C 
ATOM     20  O   UNL     1       7.120   8.877   8.141  1.00  0.00    -0.272 OA
BRANCH  19  21
ATOM     21  N   UNL     1       5.678  10.409   8.980  1.00  0.00    -0.332 N 
ATOM     22  C   UNL     1       5.501  11.837   8.787  1.00  0.00     0.147 C 
BRANCH  21  23
ATOM     23  C   UNL     1       5.437   9.885  10.353  1.00  0.00     0.178 C 
BRANCH  23  24
ATOM     24  C   UNL     1       6.485  10.315  11.401  1.00  0.00     0.070 C 
BRANCH  24  25
ATOM     25  C   UNL     1       7.344   9.226  12.000  1.00  0.00    -0.045 A 
ATOM     26  C   UNL     1       7.167   8.822  13.330  1.00  0.00     0.004 A 
ATOM     27  C   UNL     1       8.340   8.606  11.231  1.00  0.00     0.004 A 
ATOM     28  C   UNL     1       7.977   7.827  13.882  1.00  0.00     0.000 A 
ATOM     29  C   UNL     1       9.148   7.612  11.784  1.00  0.00     0.000 A 
ATOM     30  C   UNL     1       8.967   7.225  13.110  1.00  0.00     0.000 A 
ENDBRANCH  24  25
ENDBRANCH  23  24
BRANCH  23  31
ATOM     31  C   UNL     1       3.965  10.032  10.806  1.00  0.00     0.243 C 
ATOM     32  O   UNL     1       3.195  10.885  10.371  1.00  0.00    -0.273 OA
ATOM     33  N   UNL     1       3.636   9.232  11.887  1.00  0.00    -0.341 N 
ATOM     34  H   UNL     1       4.322   8.545  12.208  1.00  0.00     0.164 HD
BRANCH  33  35
ATOM     35  C   UNL     1       2.335   9.292  12.558  1.00  0.00     0.194 C 
BRANCH  35  36
ATOM     36  C   UNL     1       2.363  10.014  13.935  1.00  0.00     0.017 C 
ATOM     37  C   UNL     1       1.962  11.493  13.798  1.00  0.00     0.010 C 
ATOM     38  C   UNL     1       3.738   9.972  14.611  1.00  0.00     0.010 C 
ENDBRANCH  35  36
BRANCH  35  39
ATOM     39  C   UNL     1       1.643   7.903  12.646  1.00  0.00     0.329 C 
ATOM     40  O   UNL     1       0.429   7.742  12.695  1.00  0.00    -0.250 OA
BRANCH  39  41
ATOM     41  O   UNL     1       2.538   6.871  12.574  1.00  0.00    -0.458 OA
BRANCH  41  42
ATOM     42  C   UNL     1       2.871   6.224  13.826  1.00  0.00     0.205 CG0
ATOM     43  C   UNL     1       4.390   6.282  13.976  1.00  0.00     0.056 C 
ATOM     44  G   UNL     1       2.337   4.778  13.789  1.00  0.00     0.000 G0
ENDBRANCH  41  42
ENDBRANCH  39  41
ENDBRANCH  35  39
ENDBRANCH  33  35
ENDBRANCH  23  31
ENDBRANCH  21  23
ENDBRANCH  19  21
ENDBRANCH  14  19
ENDBRANCH   7  14
ENDBRANCH   2   5
BRANCH   3  45
ATOM     45  C   UNL     1       4.134   3.525  10.655  1.00  0.00     0.171 C 
BRANCH  45  46
ATOM     46  N   UNL     1       3.371   4.285  11.636  1.00  0.00    -0.342 N 
ATOM     47  C   UNL     1       3.282   3.908  12.952  1.00  0.00     0.247 C 
ATOM     48  O   UNL     1       3.896   2.946  13.415  1.00  0.00    -0.273 OA
ATOM     49  H   UNL     1       2.892   5.121  11.307  1.00  0.00     0.164 HD
BRANCH  47  50
ATOM     50  C   UNL     1       2.334   4.759  13.809  1.00  0.00     0.212 CG0
ATOM     51  G   UNL     1       2.876   6.203  13.813  1.00  0.00     0.000 G0
BRANCH  50  52
ATOM     52  N   UNL     1       1.023   4.637  13.179  1.00  0.00    -0.339 N 
ATOM     53  C   UNL     1      -0.031   3.967  13.751  1.00  0.00     0.243 C 
ATOM     54  O   UNL     1       0.065   3.370  14.820  1.00  0.00    -0.273 OA
ATOM     55  H   UNL     1       0.912   5.015  12.240  1.00  0.00     0.164 HD
BRANCH  53  56
ATOM     56  C   UNL     1      -1.288   3.896  12.860  1.00  0.00     0.182 C 
BRANCH  56  57
ATOM     57  N   UNL     1      -1.524   2.528  12.388  1.00  0.00    -0.344 N 
ATOM     58  C   UNL     1      -2.758   1.930  12.451  1.00  0.00     0.220 C 
ATOM     59  O   UNL     1      -3.730   2.468  12.971  1.00  0.00    -0.275 OA
ATOM     60  H   UNL     1      -0.774   2.087  11.861  1.00  0.00     0.164 HD
BRANCH  58  61
ATOM     61  C   UNL     1      -2.783   0.535  11.854  1.00  0.00     0.100 C 
BRANCH  61  62
ATOM     62  C   UNL     1      -1.751   0.322  10.745  1.00  0.00     0.010 C 
BRANCH  62  63
ATOM     63  C   UNL     1      -2.198   0.826   9.367  1.00  0.00     0.000 C 
BRANCH  63  64
ATOM     64  C   UNL     1      -1.111   1.561   8.585  1.00  0.00    -0.003 C 
ATOM     65  C   UNL     1      -1.622   2.884   8.033  1.00  0.00     0.004 C 
ENDBRANCH  63  64
ENDBRANCH  62  63
ENDBRANCH  61  62
ENDBRANCH  58  61
ENDBRANCH  56  57
BRANCH  56  66
ATOM     66  C   UNL     1      -1.216   4.898  11.709  1.00  0.00     0.157 C 
BRANCH  66  67
ATOM     67  C   UNL     1      -2.454   5.745  11.646  1.00  0.00     0.305 C 
ATOM     68  O   UNL     1      -2.647   6.708  10.919  1.00  0.00    -0.252 OA
BRANCH  67  69
ATOM     69  O   UNL     1      -3.420   5.302  12.473  1.00  0.00    -0.481 OA
ATOM     70  H   UNL     1      -2.974   4.644  13.048  1.00  0.00     0.296 HD
ENDBRANCH  67  69
ENDBRANCH  66  67
ENDBRANCH  56  66
ENDBRANCH  53  56
ENDBRANCH  50  52
ENDBRANCH  47  50
ENDBRANCH  45  46
BRANCH  45  71
ATOM     71  C   UNL     1       5.644   3.693  10.859  1.00  0.00     0.037 C 
BRANCH  71  72
ATOM     72  C   UNL     1       6.367   2.346  10.941  1.00  0.00     0.026 C 
BRANCH  72  73
ATOM     73  C   UNL     1       6.356   1.622   9.597  1.00  0.00     0.146 C 
BRANCH  73  74
ATOM     74  N   UNL     1       7.727   1.224   9.292  1.00  0.00    -0.254 NA
ATOM     75  C   UNL     1       8.033  -0.015   9.417  1.00  0.00     0.185 C 
ATOM     76  N   UNL     1       9.287  -0.412   9.143  1.00  0.00    -0.370 N 
ATOM     77  N   UNL     1       7.256  -1.043   9.801  1.00  0.00    -0.370 N 
ATOM     78  H   UNL     1       9.940   0.302   8.854  1.00  0.00     0.159 HD
ATOM     79  H   UNL     1       9.636  -1.330   9.355  1.00  0.00     0.159 HD
ATOM     80  H   UNL     1       6.287  -0.894  10.036  1.00  0.00     0.159 HD
ATOM     81  H   UNL     1       7.578  -1.995   9.751  1.00  0.00     0.159 HD
ENDBRANCH  73  74
ENDBRANCH  72  73
ENDBRANCH  71  72
ENDBRANCH  45  71
ENDBRANCH   3  45
TORSDOF 20
ENDMDL
