MODEL 1
REMARK VINA RESULT:    -8.169      0.000      0.000
REMARK INTER + INTRA:         -20.325
REMARK INTER:                 -16.527
REMARK INTRA:                  -3.798
REMARK UNBOUND:                -3.798
REMARK SMILES CC[C@@H](C)[C@@H](NC(=O)[C@@H](O)Cc1ccc(O)c(Cl)c1)C(=O)N1[C@H](C(=O)NCCCCN=C(N)N)C[C@H]2CC[C@H](OS(=O)(=O)O)C[C@@H]21
REMARK SMILES IDX 22 1 36 2 46 3 35 4 23 5 45 6 37 7 39 8 38 9 20 10 21 11
REMARK SMILES IDX 5 12 6 13 7 14 8 15 9 17 11 18 12 19 17 20 19 21 15 22 14 23
REMARK SMILES IDX 13 24 18 25 16 26 10 28 3 30 4 31 2 32 1 33 24 34 25 35
REMARK SMILES IDX 26 36 27 38 28 39 29 40 30 41 31 42 32 43 33 44 34 45 40 50
REMARK SMILES IDX 41 51 42 52 43 53 44 54
REMARK H PARENT 6 16 16 27 10 29 26 37 33 46 33 47 34 48 34 49 44 55
ROOT
ATOM      1  N   UNL     1      -8.282   0.977  -5.472  1.00  0.00    -0.326 N 
ATOM      2  C   UNL     1      -9.586  -0.343  -4.024  1.00  0.00     0.014 C 
ATOM      3  C   UNL     1      -8.454   0.688  -4.046  1.00  0.00     0.091 C 
ATOM      4  C   UNL     1      -9.338  -1.140  -5.296  1.00  0.00     0.041 C 
ATOM      5  C   UNL     1      -9.057   0.007  -6.285  1.00  0.00     0.175 C 
ATOM      6  C   UNL     1      -8.831   1.838  -3.114  1.00  0.00     0.059 C 
ATOM      7  C   UNL     1      -9.635  -1.066  -2.692  1.00  0.00     0.008 C 
ATOM      8  C   UNL     1      -9.689   1.404  -1.906  1.00  0.00     0.143 C 
ATOM      9  C   UNL     1      -9.450  -0.072  -1.527  1.00  0.00     0.034 C 
ENDROOT
BRANCH   1  10
ATOM     10  C   UNL     1      -7.388   1.824  -6.105  1.00  0.00     0.246 C 
ATOM     11  O   UNL     1      -7.734   2.983  -6.359  1.00  0.00    -0.272 OA
BRANCH  10  12
ATOM     12  C   UNL     1      -5.956   1.315  -6.441  1.00  0.00     0.174 C 
BRANCH  12  13
ATOM     13  N   UNL     1      -4.974   1.995  -5.598  1.00  0.00    -0.342 N 
ATOM     14  C   UNL     1      -4.503   1.522  -4.394  1.00  0.00     0.249 C 
ATOM     15  O   UNL     1      -4.840   0.452  -3.903  1.00  0.00    -0.272 OA
ATOM     16  H   UNL     1      -4.722   2.960  -5.797  1.00  0.00     0.164 HD
BRANCH  14  17
ATOM     17  C   UNL     1      -3.486   2.478  -3.735  1.00  0.00     0.207 C 
BRANCH  17  18
ATOM     18  C   UNL     1      -4.212   3.620  -3.017  1.00  0.00     0.077 C 
BRANCH  18  19
ATOM     19  C   UNL     1      -4.699   3.203  -1.647  1.00  0.00    -0.043 A 
ATOM     20  C   UNL     1      -4.233   2.549   0.641  1.00  0.00     0.083 A 
ATOM     21  C   UNL     1      -3.784   2.981  -0.607  1.00  0.00     0.028 A 
ATOM     22  C   UNL     1      -5.595   2.334   0.857  1.00  0.00     0.134 A 
ATOM     23  C   UNL     1      -6.512   2.550  -0.164  1.00  0.00     0.048 A 
ATOM     24  C   UNL     1      -6.066   2.982  -1.415  1.00  0.00     0.008 A 
ATOM     25  Cl  UNL     1      -3.093   2.281   1.907  1.00  0.00    -0.080 Cl
BRANCH  22  26
ATOM     26  O   UNL     1      -6.082   1.900   2.061  1.00  0.00    -0.506 OA
ATOM     27  H   UNL     1      -5.990   2.644   2.685  1.00  0.00     0.293 HD
ENDBRANCH  22  26
ENDBRANCH  18  19
ENDBRANCH  17  18
BRANCH  17  28
ATOM     28  O   UNL     1      -2.583   3.025  -4.710  1.00  0.00    -0.383 OA
ATOM     29  H   UNL     1      -2.607   2.410  -5.478  1.00  0.00     0.211 HD
ENDBRANCH  17  28
ENDBRANCH  14  17
ENDBRANCH  12  13
BRANCH  12  30
ATOM     30  C   UNL     1      -5.619   1.428  -7.953  1.00  0.00     0.018 C 
ATOM     31  C   UNL     1      -6.499   0.479  -8.781  1.00  0.00     0.010 C 
BRANCH  30  32
ATOM     32  C   UNL     1      -4.125   1.187  -8.276  1.00  0.00     0.002 C 
ATOM     33  C   UNL     1      -3.374   2.392  -8.826  1.00  0.00     0.004 C 
ENDBRANCH  30  32
ENDBRANCH  12  30
ENDBRANCH  10  12
ENDBRANCH   1  10
BRANCH   5  34
ATOM     34  C   UNL     1     -10.370   0.649  -6.804  1.00  0.00     0.242 C 
ATOM     35  O   UNL     1     -10.521   1.869  -6.882  1.00  0.00    -0.273 OA
ATOM     36  N   UNL     1     -11.372  -0.241  -7.120  1.00  0.00    -0.354 N 
ATOM     37  H   UNL     1     -11.230  -1.232  -6.921  1.00  0.00     0.163 HD
BRANCH  36  38
ATOM     38  C   UNL     1     -12.576   0.165  -7.817  1.00  0.00     0.116 C 
BRANCH  38  39
ATOM     39  C   UNL     1     -13.805  -0.274  -7.025  1.00  0.00     0.023 C 
BRANCH  39  40
ATOM     40  C   UNL     1     -13.449  -0.799  -5.639  1.00  0.00     0.026 C 
BRANCH  40  41
ATOM     41  C   UNL     1     -14.123   0.039  -4.552  1.00  0.00     0.146 C 
BRANCH  41  42
ATOM     42  N   UNL     1     -14.852  -0.831  -3.639  1.00  0.00    -0.254 NA
ATOM     43  C   UNL     1     -14.323  -1.162  -2.522  1.00  0.00     0.185 C 
ATOM     44  N   UNL     1     -13.130  -0.828  -1.996  1.00  0.00    -0.370 N 
ATOM     45  N   UNL     1     -15.010  -1.970  -1.697  1.00  0.00    -0.370 N 
ATOM     46  H   UNL     1     -12.743  -1.351  -1.229  1.00  0.00     0.159 HD
ATOM     47  H   UNL     1     -12.487  -0.211  -2.483  1.00  0.00     0.159 HD
ATOM     48  H   UNL     1     -15.924  -2.262  -2.013  1.00  0.00     0.159 HD
ATOM     49  H   UNL     1     -14.777  -2.080  -0.726  1.00  0.00     0.159 HD
ENDBRANCH  41  42
ENDBRANCH  40  41
ENDBRANCH  39  40
ENDBRANCH  38  39
ENDBRANCH  36  38
ENDBRANCH   5  34
BRANCH   8  50
ATOM     50  O   UNL     1     -11.075   1.577  -2.201  1.00  0.00    -0.245 OA
BRANCH  50  51
ATOM     51  S   UNL     1     -12.049   2.277  -1.103  1.00  0.00     0.397 S 
ATOM     52  O   UNL     1     -11.712   3.682  -1.039  1.00  0.00    -0.169 OA
ATOM     53  O   UNL     1     -12.108   1.455   0.088  1.00  0.00    -0.169 OA
BRANCH  51  54
ATOM     54  O   UNL     1     -13.482   2.203  -1.829  1.00  0.00    -0.264 OA
ATOM     55  H   UNL     1     -13.606   1.287  -2.151  1.00  0.00     0.236 HD
ENDBRANCH  51  54
ENDBRANCH  50  51
ENDBRANCH   8  50
TORSDOF 19
ENDMDL
MODEL 2
REMARK VINA RESULT:    -7.643      3.391      7.809
REMARK INTER + INTRA:         -19.260
REMARK INTER:                 -16.428
REMARK INTRA:                  -2.832
REMARK UNBOUND:                -3.798
REMARK SMILES CC[C@@H](C)[C@@H](NC(=O)[C@@H](O)Cc1ccc(O)c(Cl)c1)C(=O)N1[C@H](C(=O)NCCCCN=C(N)N)C[C@H]2CC[C@H](OS(=O)(=O)O)C[C@@H]21
REMARK SMILES IDX 22 1 36 2 46 3 35 4 23 5 45 6 37 7 39 8 38 9 20 10 21 11
REMARK SMILES IDX 5 12 6 13 7 14 8 15 9 17 11 18 12 19 17 20 19 21 15 22 14 23
REMARK SMILES IDX 13 24 18 25 16 26 10 28 3 30 4 31 2 32 1 33 24 34 25 35
REMARK SMILES IDX 26 36 27 38 28 39 29 40 30 41 31 42 32 43 33 44 34 45 40 50
REMARK SMILES IDX 41 51 42 52 43 53 44 54
REMARK H PARENT 6 16 16 27 10 29 26 37 33 46 33 47 34 48 34 49 44 55
ROOT
ATOM      1  N   UNL     1     -10.467   0.402  -3.296  1.00  0.00    -0.326 N 
ATOM      2  C   UNL     1     -10.156   2.279  -1.909  1.00  0.00     0.014 C 
ATOM      3  C   UNL     1     -11.069   1.071  -2.139  1.00  0.00     0.091 C 
ATOM      4  C   UNL     1      -9.745   2.662  -3.322  1.00  0.00     0.041 C 
ATOM      5  C   UNL     1      -9.426   1.270  -3.899  1.00  0.00     0.175 C 
ATOM      6  C   UNL     1     -11.180   0.293  -0.829  1.00  0.00     0.059 C 
ATOM      7  C   UNL     1     -10.833   3.309  -1.027  1.00  0.00     0.008 C 
ATOM      8  C   UNL     1     -11.089   1.180   0.431  1.00  0.00     0.143 C 
ATOM      9  C   UNL     1     -11.552   2.625   0.156  1.00  0.00     0.034 C 
ENDROOT
BRANCH   1  10
ATOM     10  C   UNL     1     -10.869  -0.738  -3.971  1.00  0.00     0.246 C 
ATOM     11  O   UNL     1     -10.492  -1.842  -3.564  1.00  0.00    -0.272 OA
BRANCH  10  12
ATOM     12  C   UNL     1     -11.819  -0.609  -5.197  1.00  0.00     0.174 C 
BRANCH  12  13
ATOM     13  N   UNL     1     -11.153   0.131  -6.268  1.00  0.00    -0.342 N 
ATOM     14  C   UNL     1     -11.202  -0.197  -7.604  1.00  0.00     0.249 C 
ATOM     15  O   UNL     1     -11.840  -1.142  -8.051  1.00  0.00    -0.272 OA
ATOM     16  H   UNL     1     -10.463   0.841  -6.036  1.00  0.00     0.164 HD
BRANCH  14  17
ATOM     17  C   UNL     1     -10.381   0.768  -8.486  1.00  0.00     0.207 C 
BRANCH  17  18
ATOM     18  C   UNL     1      -9.598   1.754  -7.613  1.00  0.00     0.077 C 
BRANCH  18  19
ATOM     19  C   UNL     1      -8.104   1.566  -7.754  1.00  0.00    -0.043 A 
ATOM     20  C   UNL     1      -6.215   0.338  -8.654  1.00  0.00     0.083 A 
ATOM     21  C   UNL     1      -7.593   0.540  -8.565  1.00  0.00     0.028 A 
ATOM     22  C   UNL     1      -5.342   1.154  -7.935  1.00  0.00     0.134 A 
ATOM     23  C   UNL     1      -5.834   2.173  -7.128  1.00  0.00     0.048 A 
ATOM     24  C   UNL     1      -7.213   2.377  -7.035  1.00  0.00     0.008 A 
ATOM     25  Cl  UNL     1      -5.606  -0.927  -9.656  1.00  0.00    -0.080 Cl
BRANCH  22  26
ATOM     26  O   UNL     1      -3.984   0.987  -7.982  1.00  0.00    -0.506 OA
ATOM     27  H   UNL     1      -3.738   0.956  -8.925  1.00  0.00     0.293 HD
ENDBRANCH  22  26
ENDBRANCH  18  19
ENDBRANCH  17  18
BRANCH  17  28
ATOM     28  O   UNL     1     -11.231   1.498  -9.385  1.00  0.00    -0.383 OA
ATOM     29  H   UNL     1     -11.949   0.877  -9.645  1.00  0.00     0.211 HD
ENDBRANCH  17  28
ENDBRANCH  14  17
ENDBRANCH  12  13
BRANCH  12  30
ATOM     30  C   UNL     1     -13.198  -0.000  -4.826  1.00  0.00     0.018 C 
ATOM     31  C   UNL     1     -13.825  -0.751  -3.641  1.00  0.00     0.010 C 
BRANCH  30  32
ATOM     32  C   UNL     1     -14.194   0.051  -6.010  1.00  0.00     0.002 C 
ATOM     33  C   UNL     1     -14.504   1.445  -6.540  1.00  0.00     0.004 C 
ENDBRANCH  30  32
ENDBRANCH  12  30
ENDBRANCH  10  12
ENDBRANCH   1  10
BRANCH   5  34
ATOM     34  C   UNL     1      -8.007   0.793  -3.491  1.00  0.00     0.242 C 
ATOM     35  O   UNL     1      -7.786  -0.351  -3.094  1.00  0.00    -0.273 OA
ATOM     36  N   UNL     1      -7.025   1.756  -3.552  1.00  0.00    -0.354 N 
ATOM     37  H   UNL     1      -7.291   2.716  -3.773  1.00  0.00     0.163 HD
BRANCH  36  38
ATOM     38  C   UNL     1      -5.619   1.436  -3.416  1.00  0.00     0.116 C 
BRANCH  38  39
ATOM     39  C   UNL     1      -4.938   2.466  -2.517  1.00  0.00     0.023 C 
BRANCH  39  40
ATOM     40  C   UNL     1      -5.748   2.770  -1.262  1.00  0.00     0.026 C 
BRANCH  40  41
ATOM     41  C   UNL     1      -5.182   2.020  -0.056  1.00  0.00     0.146 C 
BRANCH  41  42
ATOM     42  N   UNL     1      -4.047   2.753   0.490  1.00  0.00    -0.254 NA
ATOM     43  C   UNL     1      -4.157   3.339   1.623  1.00  0.00     0.185 C 
ATOM     44  N   UNL     1      -5.205   3.406   2.464  1.00  0.00    -0.370 N 
ATOM     45  N   UNL     1      -3.101   4.012   2.107  1.00  0.00    -0.370 N 
ATOM     46  H   UNL     1      -5.233   4.097   3.194  1.00  0.00     0.159 HD
ATOM     47  H   UNL     1      -6.084   2.940   2.259  1.00  0.00     0.159 HD
ATOM     48  H   UNL     1      -2.265   4.004   1.538  1.00  0.00     0.159 HD
ATOM     49  H   UNL     1      -3.027   4.289   3.070  1.00  0.00     0.159 HD
ENDBRANCH  41  42
ENDBRANCH  40  41
ENDBRANCH  39  40
ENDBRANCH  38  39
ENDBRANCH  36  38
ENDBRANCH   5  34
BRANCH   8  50
ATOM     50  O   UNL     1      -9.744   1.218   0.908  1.00  0.00    -0.245 OA
BRANCH  50  51
ATOM     51  S   UNL     1      -9.270   0.169   2.057  1.00  0.00     0.397 S 
ATOM     52  O   UNL     1      -7.948   0.555   2.495  1.00  0.00    -0.169 OA
ATOM     53  O   UNL     1      -9.564  -1.183   1.632  1.00  0.00    -0.169 OA
BRANCH  51  54
ATOM     54  O   UNL     1     -10.258   0.533   3.272  1.00  0.00    -0.264 OA
ATOM     55  H   UNL     1     -11.177   0.453   2.944  1.00  0.00     0.236 HD
ENDBRANCH  51  54
ENDBRANCH  50  51
ENDBRANCH   8  50
TORSDOF 19
ENDMDL
MODEL 3
REMARK VINA RESULT:    -7.619      4.016      6.515
REMARK INTER + INTRA:         -19.210
REMARK INTER:                 -16.632
REMARK INTRA:                  -2.579
REMARK UNBOUND:                -3.798
REMARK SMILES CC[C@@H](C)[C@@H](NC(=O)[C@@H](O)Cc1ccc(O)c(Cl)c1)C(=O)N1[C@H](C(=O)NCCCCN=C(N)N)C[C@H]2CC[C@H](OS(=O)(=O)O)C[C@@H]21
REMARK SMILES IDX 22 1 36 2 46 3 35 4 23 5 45 6 37 7 39 8 38 9 20 10 21 11
REMARK SMILES IDX 5 12 6 13 7 14 8 15 9 17 11 18 12 19 17 20 19 21 15 22 14 23
REMARK SMILES IDX 13 24 18 25 16 26 10 28 3 30 4 31 2 32 1 33 24 34 25 35
REMARK SMILES IDX 26 36 27 38 28 39 29 40 30 41 31 42 32 43 33 44 34 45 40 50
REMARK SMILES IDX 41 51 42 52 43 53 44 54
REMARK H PARENT 6 16 16 27 10 29 26 37 33 46 33 47 34 48 34 49 44 55
ROOT
ATOM      1  N   UNL     1      -5.140   1.780  -3.770  1.00  0.00    -0.326 N 
ATOM      2  C   UNL     1      -4.440   0.943  -1.684  1.00  0.00     0.014 C 
ATOM      3  C   UNL     1      -4.133   2.017  -2.732  1.00  0.00     0.091 C 
ATOM      4  C   UNL     1      -4.903  -0.231  -2.533  1.00  0.00     0.041 C 
ATOM      5  C   UNL     1      -5.841   0.497  -3.514  1.00  0.00     0.175 C 
ATOM      6  C   UNL     1      -4.115   3.378  -2.038  1.00  0.00     0.059 C 
ATOM      7  C   UNL     1      -3.270   0.760  -0.737  1.00  0.00     0.008 C 
ATOM      8  C   UNL     1      -3.628   3.322  -0.574  1.00  0.00     0.143 C 
ATOM      9  C   UNL     1      -2.687   2.127  -0.321  1.00  0.00     0.034 C 
ENDROOT
BRANCH   1  10
ATOM     10  C   UNL     1      -5.344   2.431  -4.974  1.00  0.00     0.246 C 
ATOM     11  O   UNL     1      -5.800   3.580  -4.967  1.00  0.00    -0.272 OA
BRANCH  10  12
ATOM     12  C   UNL     1      -4.958   1.723  -6.305  1.00  0.00     0.174 C 
BRANCH  12  13
ATOM     13  N   UNL     1      -3.673   2.231  -6.786  1.00  0.00    -0.342 N 
ATOM     14  C   UNL     1      -2.440   1.802  -6.349  1.00  0.00     0.249 C 
ATOM     15  O   UNL     1      -2.281   0.916  -5.519  1.00  0.00    -0.272 OA
ATOM     16  H   UNL     1      -3.646   3.072  -7.357  1.00  0.00     0.164 HD
BRANCH  14  17
ATOM     17  C   UNL     1      -1.274   2.545  -7.035  1.00  0.00     0.207 C 
BRANCH  17  18
ATOM     18  C   UNL     1      -0.760   3.677  -6.140  1.00  0.00     0.077 C 
BRANCH  18  19
ATOM     19  C   UNL     1       0.210   3.172  -5.096  1.00  0.00    -0.043 A 
ATOM     20  C   UNL     1       0.979   3.109  -2.796  1.00  0.00     0.083 A 
ATOM     21  C   UNL     1       0.054   3.536  -3.749  1.00  0.00     0.028 A 
ATOM     22  C   UNL     1       2.064   2.319  -3.181  1.00  0.00     0.134 A 
ATOM     23  C   UNL     1       2.230   1.951  -4.511  1.00  0.00     0.048 A 
ATOM     24  C   UNL     1       1.307   2.378  -5.467  1.00  0.00     0.008 A 
ATOM     25  Cl  UNL     1       0.771   3.567  -1.147  1.00  0.00    -0.080 Cl
BRANCH  22  26
ATOM     26  O   UNL     1       3.002   1.885  -2.284  1.00  0.00    -0.506 OA
ATOM     27  H   UNL     1       2.562   1.845  -1.415  1.00  0.00     0.293 HD
ENDBRANCH  22  26
ENDBRANCH  18  19
ENDBRANCH  17  18
BRANCH  17  28
ATOM     28  O   UNL     1      -1.679   3.086  -8.303  1.00  0.00    -0.383 OA
ATOM     29  H   UNL     1      -2.653   2.956  -8.354  1.00  0.00     0.211 HD
ENDBRANCH  17  28
ENDBRANCH  14  17
ENDBRANCH  12  13
BRANCH  12  30
ATOM     30  C   UNL     1      -6.072   1.818  -7.381  1.00  0.00     0.018 C 
ATOM     31  C   UNL     1      -5.959   3.131  -8.171  1.00  0.00     0.010 C 
BRANCH  30  32
ATOM     32  C   UNL     1      -7.503   1.663  -6.810  1.00  0.00     0.002 C 
ATOM     33  C   UNL     1      -8.601   1.465  -7.847  1.00  0.00     0.004 C 
ENDBRANCH  30  32
ENDBRANCH  12  30
ENDBRANCH  10  12
ENDBRANCH   1  10
BRANCH   5  34
ATOM     34  C   UNL     1      -7.239   0.748  -2.890  1.00  0.00     0.242 C 
ATOM     35  O   UNL     1      -8.187  -0.016  -3.070  1.00  0.00    -0.273 OA
ATOM     36  N   UNL     1      -7.357   1.914  -2.167  1.00  0.00    -0.354 N 
ATOM     37  H   UNL     1      -6.571   2.566  -2.154  1.00  0.00     0.163 HD
BRANCH  36  38
ATOM     38  C   UNL     1      -8.513   2.200  -1.344  1.00  0.00     0.116 C 
BRANCH  38  39
ATOM     39  C   UNL     1      -8.373   1.503   0.007  1.00  0.00     0.023 C 
BRANCH  39  40
ATOM     40  C   UNL     1      -9.722   1.147   0.623  1.00  0.00     0.026 C 
BRANCH  40  41
ATOM     41  C   UNL     1      -9.535   0.370   1.926  1.00  0.00     0.146 C 
BRANCH  41  42
ATOM     42  N   UNL     1      -8.254   0.717   2.527  1.00  0.00    -0.254 NA
ATOM     43  C   UNL     1      -8.219   1.510   3.530  1.00  0.00     0.185 C 
ATOM     44  N   UNL     1      -9.222   2.128   4.181  1.00  0.00    -0.370 N 
ATOM     45  N   UNL     1      -7.027   1.821   4.067  1.00  0.00    -0.370 N 
ATOM     46  H   UNL     1      -9.036   2.907   4.789  1.00  0.00     0.159 HD
ATOM     47  H   UNL     1     -10.193   1.993   3.914  1.00  0.00     0.159 HD
ATOM     48  H   UNL     1      -6.218   1.390   3.641  1.00  0.00     0.159 HD
ATOM     49  H   UNL     1      -6.932   2.232   4.978  1.00  0.00     0.159 HD
ENDBRANCH  41  42
ENDBRANCH  40  41
ENDBRANCH  39  40
ENDBRANCH  38  39
ENDBRANCH  36  38
ENDBRANCH   5  34
BRANCH   8  50
ATOM     50  O   UNL     1      -4.745   3.215   0.309  1.00  0.00    -0.245 OA
BRANCH  50  51
ATOM     51  S   UNL     1      -4.531   3.441   1.906  1.00  0.00     0.397 S 
ATOM     52  O   UNL     1      -4.078   2.192   2.476  1.00  0.00    -0.169 OA
ATOM     53  O   UNL     1      -5.664   4.158   2.452  1.00  0.00    -0.169 OA
BRANCH  51  54
ATOM     54  O   UNL     1      -3.259   4.424   1.938  1.00  0.00    -0.264 OA
ATOM     55  H   UNL     1      -3.439   5.123   2.599  1.00  0.00     0.236 HD
ENDBRANCH  51  54
ENDBRANCH  50  51
ENDBRANCH   8  50
TORSDOF 19
ENDMDL
MODEL 4
REMARK VINA RESULT:    -7.603      4.269      9.496
REMARK INTER + INTRA:         -19.179
REMARK INTER:                 -16.268
REMARK INTRA:                  -2.910
REMARK UNBOUND:                -3.798
REMARK SMILES CC[C@@H](C)[C@@H](NC(=O)[C@@H](O)Cc1ccc(O)c(Cl)c1)C(=O)N1[C@H](C(=O)NCCCCN=C(N)N)C[C@H]2CC[C@H](OS(=O)(=O)O)C[C@@H]21
REMARK SMILES IDX 22 1 36 2 46 3 35 4 23 5 45 6 37 7 39 8 38 9 20 10 21 11
REMARK SMILES IDX 5 12 6 13 7 14 8 15 9 17 11 18 12 19 17 20 19 21 15 22 14 23
REMARK SMILES IDX 13 24 18 25 16 26 10 28 3 30 4 31 2 32 1 33 24 34 25 35
REMARK SMILES IDX 26 36 27 38 28 39 29 40 30 41 31 42 32 43 33 44 34 45 40 50
REMARK SMILES IDX 41 51 42 52 43 53 44 54
REMARK H PARENT 6 16 16 27 10 29 26 37 33 46 33 47 34 48 34 49 44 55
ROOT
ATOM      1  N   UNL     1     -10.694   0.629  -2.358  1.00  0.00    -0.326 N 
ATOM      2  C   UNL     1     -10.524   2.580  -1.052  1.00  0.00     0.014 C 
ATOM      3  C   UNL     1     -11.354   1.307  -1.239  1.00  0.00     0.091 C 
ATOM      4  C   UNL     1     -10.118   2.927  -2.476  1.00  0.00     0.041 C 
ATOM      5  C   UNL     1      -9.703   1.536  -2.988  1.00  0.00     0.175 C 
ATOM      6  C   UNL     1     -11.433   0.580   0.103  1.00  0.00     0.059 C 
ATOM      7  C   UNL     1     -11.277   3.602  -0.223  1.00  0.00     0.008 C 
ATOM      8  C   UNL     1     -11.416   1.526   1.324  1.00  0.00     0.143 C 
ATOM      9  C   UNL     1     -11.967   2.925   0.980  1.00  0.00     0.034 C 
ENDROOT
BRANCH   1  10
ATOM     10  C   UNL     1     -11.013  -0.563  -2.987  1.00  0.00     0.246 C 
ATOM     11  O   UNL     1     -10.432  -1.598  -2.644  1.00  0.00    -0.272 OA
BRANCH  10  12
ATOM     12  C   UNL     1     -12.123  -0.581  -4.078  1.00  0.00     0.174 C 
BRANCH  12  13
ATOM     13  N   UNL     1     -13.332  -1.211  -3.549  1.00  0.00    -0.342 N 
ATOM     14  C   UNL     1     -14.386  -0.538  -2.973  1.00  0.00     0.249 C 
ATOM     15  O   UNL     1     -14.440   0.681  -2.865  1.00  0.00    -0.272 OA
ATOM     16  H   UNL     1     -13.362  -2.220  -3.427  1.00  0.00     0.164 HD
BRANCH  14  17
ATOM     17  C   UNL     1     -15.508  -1.485  -2.496  1.00  0.00     0.207 C 
BRANCH  17  18
ATOM     18  C   UNL     1     -16.602  -0.695  -1.769  1.00  0.00     0.077 C 
BRANCH  18  19
ATOM     19  C   UNL     1     -17.892  -0.668  -2.558  1.00  0.00    -0.043 A 
ATOM     20  C   UNL     1     -20.127   0.209  -2.902  1.00  0.00     0.083 A 
ATOM     21  C   UNL     1     -18.920   0.221  -2.204  1.00  0.00     0.028 A 
ATOM     22  C   UNL     1     -20.317  -0.688  -3.954  1.00  0.00     0.134 A 
ATOM     23  C   UNL     1     -19.309  -1.574  -4.315  1.00  0.00     0.048 A 
ATOM     24  C   UNL     1     -18.099  -1.566  -3.617  1.00  0.00     0.008 A 
ATOM     25  Cl  UNL     1     -21.378   1.308  -2.453  1.00  0.00    -0.080 Cl
BRANCH  22  26
ATOM     26  O   UNL     1     -21.488  -0.744  -4.661  1.00  0.00    -0.506 OA
ATOM     27  H   UNL     1     -21.267  -0.527  -5.586  1.00  0.00     0.293 HD
ENDBRANCH  22  26
ENDBRANCH  18  19
ENDBRANCH  17  18
BRANCH  17  28
ATOM     28  O   UNL     1     -14.991  -2.499  -1.619  1.00  0.00    -0.383 OA
ATOM     29  H   UNL     1     -14.157  -2.818  -2.034  1.00  0.00     0.211 HD
ENDBRANCH  17  28
ENDBRANCH  14  17
ENDBRANCH  12  13
BRANCH  12  30
ATOM     30  C   UNL     1     -11.648  -1.232  -5.405  1.00  0.00     0.018 C 
ATOM     31  C   UNL     1     -10.275  -0.684  -5.822  1.00  0.00     0.010 C 
BRANCH  30  32
ATOM     32  C   UNL     1     -12.658  -1.079  -6.568  1.00  0.00     0.002 C 
ATOM     33  C   UNL     1     -12.126  -0.360  -7.802  1.00  0.00     0.004 C 
ENDBRANCH  30  32
ENDBRANCH  12  30
ENDBRANCH  10  12
ENDBRANCH   1  10
BRANCH   5  34
ATOM     34  C   UNL     1      -8.262   1.170  -2.543  1.00  0.00     0.242 C 
ATOM     35  O   UNL     1      -8.037   0.406  -1.604  1.00  0.00    -0.273 OA
ATOM     36  N   UNL     1      -7.256   1.801  -3.239  1.00  0.00    -0.354 N 
ATOM     37  H   UNL     1      -7.505   2.514  -3.926  1.00  0.00     0.163 HD
BRANCH  36  38
ATOM     38  C   UNL     1      -5.865   1.419  -3.105  1.00  0.00     0.116 C 
BRANCH  38  39
ATOM     39  C   UNL     1      -5.220   1.318  -4.486  1.00  0.00     0.023 C 
BRANCH  39  40
ATOM     40  C   UNL     1      -4.977   2.684  -5.117  1.00  0.00     0.026 C 
BRANCH  40  41
ATOM     41  C   UNL     1      -5.812   2.852  -6.386  1.00  0.00     0.146 C 
BRANCH  41  42
ATOM     42  N   UNL     1      -7.204   3.094  -6.031  1.00  0.00    -0.254 NA
ATOM     43  C   UNL     1      -8.132   2.446  -6.631  1.00  0.00     0.185 C 
ATOM     44  N   UNL     1      -8.051   1.515  -7.598  1.00  0.00    -0.370 N 
ATOM     45  N   UNL     1      -9.409   2.687  -6.292  1.00  0.00    -0.370 N 
ATOM     46  H   UNL     1      -8.859   1.271  -8.144  1.00  0.00     0.159 HD
ATOM     47  H   UNL     1      -7.156   1.203  -7.964  1.00  0.00     0.159 HD
ATOM     48  H   UNL     1      -9.558   3.371  -5.563  1.00  0.00     0.159 HD
ATOM     49  H   UNL     1     -10.162   2.068  -6.535  1.00  0.00     0.159 HD
ENDBRANCH  41  42
ENDBRANCH  40  41
ENDBRANCH  39  40
ENDBRANCH  38  39
ENDBRANCH  36  38
ENDBRANCH   5  34
BRANCH   8  50
ATOM     50  O   UNL     1     -10.083   1.671   1.813  1.00  0.00    -0.245 OA
BRANCH  50  51
ATOM     51  S   UNL     1      -9.691   1.061   3.269  1.00  0.00     0.397 S 
ATOM     52  O   UNL     1     -10.802   1.293   4.164  1.00  0.00    -0.169 OA
ATOM     53  O   UNL     1      -8.341   1.457   3.615  1.00  0.00    -0.169 OA
BRANCH  51  54
ATOM     54  O   UNL     1      -9.685  -0.521   2.979  1.00  0.00    -0.264 OA
ATOM     55  H   UNL     1     -10.058  -0.662   2.085  1.00  0.00     0.236 HD
ENDBRANCH  51  54
ENDBRANCH  50  51
ENDBRANCH   8  50
TORSDOF 19
ENDMDL
MODEL 5
REMARK VINA RESULT:    -7.541      2.889      7.812
REMARK INTER + INTRA:         -19.053
REMARK INTER:                 -16.263
REMARK INTRA:                  -2.790
REMARK UNBOUND:                -3.798
REMARK SMILES CC[C@@H](C)[C@@H](NC(=O)[C@@H](O)Cc1ccc(O)c(Cl)c1)C(=O)N1[C@H](C(=O)NCCCCN=C(N)N)C[C@H]2CC[C@H](OS(=O)(=O)O)C[C@@H]21
REMARK SMILES IDX 22 1 36 2 46 3 35 4 23 5 45 6 37 7 39 8 38 9 20 10 21 11
REMARK SMILES IDX 5 12 6 13 7 14 8 15 9 17 11 18 12 19 17 20 19 21 15 22 14 23
REMARK SMILES IDX 13 24 18 25 16 26 10 28 3 30 4 31 2 32 1 33 24 34 25 35
REMARK SMILES IDX 26 36 27 38 28 39 29 40 30 41 31 42 32 43 33 44 34 45 40 50
REMARK SMILES IDX 41 51 42 52 43 53 44 54
REMARK H PARENT 6 16 16 27 10 29 26 37 33 46 33 47 34 48 34 49 44 55
ROOT
ATOM      1  N   UNL     1     -11.589   1.066  -2.088  1.00  0.00    -0.326 N 
ATOM      2  C   UNL     1     -11.179  -0.449  -3.844  1.00  0.00     0.014 C 
ATOM      3  C   UNL     1     -12.296   0.326  -3.138  1.00  0.00     0.091 C 
ATOM      4  C   UNL     1     -10.227  -0.776  -2.704  1.00  0.00     0.041 C 
ATOM      5  C   UNL     1     -10.191   0.582  -1.980  1.00  0.00     0.175 C 
ATOM      6  C   UNL     1     -13.071   1.120  -4.188  1.00  0.00     0.059 C 
ATOM      7  C   UNL     1     -11.747  -1.575  -4.685  1.00  0.00     0.008 C 
ATOM      8  C   UNL     1     -13.125   0.435  -5.571  1.00  0.00     0.143 C 
ATOM      9  C   UNL     1     -12.992  -1.098  -5.463  1.00  0.00     0.034 C 
ENDROOT
BRANCH   1  10
ATOM     10  C   UNL     1     -12.084   1.923  -1.120  1.00  0.00     0.246 C 
ATOM     11  O   UNL     1     -12.281   3.108  -1.410  1.00  0.00    -0.272 OA
BRANCH  10  12
ATOM     12  C   UNL     1     -12.421   1.369   0.295  1.00  0.00     0.174 C 
BRANCH  12  13
ATOM     13  N   UNL     1     -11.323   0.534   0.778  1.00  0.00    -0.342 N 
ATOM     14  C   UNL     1     -10.453   0.878   1.789  1.00  0.00     0.249 C 
ATOM     15  O   UNL     1     -10.523   1.925   2.421  1.00  0.00    -0.272 OA
ATOM     16  H   UNL     1     -11.045  -0.289   0.249  1.00  0.00     0.164 HD
BRANCH  14  17
ATOM     17  C   UNL     1      -9.390  -0.208   2.056  1.00  0.00     0.207 C 
BRANCH  17  18
ATOM     18  C   UNL     1      -8.273  -0.133   1.010  1.00  0.00     0.077 C 
BRANCH  18  19
ATOM     19  C   UNL     1      -7.310   0.997   1.296  1.00  0.00    -0.043 A 
ATOM     20  C   UNL     1      -5.638   2.579   0.531  1.00  0.00     0.083 A 
ATOM     21  C   UNL     1      -6.561   1.570   0.256  1.00  0.00     0.028 A 
ATOM     22  C   UNL     1      -5.456   3.021   1.842  1.00  0.00     0.134 A 
ATOM     23  C   UNL     1      -6.191   2.463   2.881  1.00  0.00     0.048 A 
ATOM     24  C   UNL     1      -7.115   1.451   2.610  1.00  0.00     0.008 A 
ATOM     25  Cl  UNL     1      -4.727   3.270  -0.760  1.00  0.00    -0.080 Cl
BRANCH  22  26
ATOM     26  O   UNL     1      -4.554   4.000   2.162  1.00  0.00    -0.506 OA
ATOM     27  H   UNL     1      -3.701   3.555   2.317  1.00  0.00     0.293 HD
ENDBRANCH  22  26
ENDBRANCH  18  19
ENDBRANCH  17  18
BRANCH  17  28
ATOM     28  O   UNL     1      -9.975  -1.520   2.036  1.00  0.00    -0.383 OA
ATOM     29  H   UNL     1      -9.603  -1.971   1.243  1.00  0.00     0.211 HD
ENDBRANCH  17  28
ENDBRANCH  14  17
ENDBRANCH  12  13
BRANCH  12  30
ATOM     30  C   UNL     1     -13.788   0.635   0.342  1.00  0.00     0.018 C 
ATOM     31  C   UNL     1     -13.618  -0.859   0.027  1.00  0.00     0.010 C 
BRANCH  30  32
ATOM     32  C   UNL     1     -14.859   1.256  -0.589  1.00  0.00     0.002 C 
ATOM     33  C   UNL     1     -15.613   0.265  -1.466  1.00  0.00     0.004 C 
ENDBRANCH  30  32
ENDBRANCH  12  30
ENDBRANCH  10  12
ENDBRANCH   1  10
BRANCH   5  34
ATOM     34  C   UNL     1      -9.212   1.571  -2.668  1.00  0.00     0.242 C 
ATOM     35  O   UNL     1      -9.532   2.726  -2.947  1.00  0.00    -0.273 OA
ATOM     36  N   UNL     1      -7.980   1.046  -2.991  1.00  0.00    -0.354 N 
ATOM     37  H   UNL     1      -7.817   0.050  -2.842  1.00  0.00     0.163 HD
BRANCH  36  38
ATOM     38  C   UNL     1      -6.879   1.875  -3.435  1.00  0.00     0.116 C 
BRANCH  38  39
ATOM     39  C   UNL     1      -6.820   1.883  -4.961  1.00  0.00     0.023 C 
BRANCH  39  40
ATOM     40  C   UNL     1      -5.440   1.510  -5.492  1.00  0.00     0.026 C 
BRANCH  40  41
ATOM     41  C   UNL     1      -4.424   1.429  -4.353  1.00  0.00     0.146 C 
BRANCH  41  42
ATOM     42  N   UNL     1      -3.087   1.235  -4.898  1.00  0.00    -0.254 NA
ATOM     43  C   UNL     1      -2.199   2.142  -4.733  1.00  0.00     0.185 C 
ATOM     44  N   UNL     1      -2.279   3.327  -4.101  1.00  0.00    -0.370 N 
ATOM     45  N   UNL     1      -0.973   1.946  -5.247  1.00  0.00    -0.370 N 
ATOM     46  H   UNL     1      -1.586   4.040  -4.258  1.00  0.00     0.159 HD
ATOM     47  H   UNL     1      -3.132   3.630  -3.643  1.00  0.00     0.159 HD
ATOM     48  H   UNL     1      -0.825   1.072  -5.733  1.00  0.00     0.159 HD
ATOM     49  H   UNL     1      -0.173   2.483  -4.965  1.00  0.00     0.159 HD
ENDBRANCH  41  42
ENDBRANCH  40  41
ENDBRANCH  39  40
ENDBRANCH  38  39
ENDBRANCH  36  38
ENDBRANCH   5  34
BRANCH   8  50
ATOM     50  O   UNL     1     -12.072   0.924  -6.402  1.00  0.00    -0.245 OA
BRANCH  50  51
ATOM     51  S   UNL     1     -12.286   0.992  -8.013  1.00  0.00     0.397 S 
ATOM     52  O   UNL     1     -11.594   2.161  -8.507  1.00  0.00    -0.169 OA
ATOM     53  O   UNL     1     -13.677   0.742  -8.329  1.00  0.00    -0.169 OA
BRANCH  51  54
ATOM     54  O   UNL     1     -11.429  -0.271  -8.519  1.00  0.00    -0.264 OA
ATOM     55  H   UNL     1     -11.233  -0.138  -9.469  1.00  0.00     0.236 HD
ENDBRANCH  51  54
ENDBRANCH  50  51
ENDBRANCH   8  50
TORSDOF 19
ENDMDL
MODEL 6
REMARK VINA RESULT:    -7.466      2.732      7.484
REMARK INTER + INTRA:         -18.901
REMARK INTER:                 -16.067
REMARK INTRA:                  -2.835
REMARK UNBOUND:                -3.798
REMARK SMILES CC[C@@H](C)[C@@H](NC(=O)[C@@H](O)Cc1ccc(O)c(Cl)c1)C(=O)N1[C@H](C(=O)NCCCCN=C(N)N)C[C@H]2CC[C@H](OS(=O)(=O)O)C[C@@H]21
REMARK SMILES IDX 22 1 36 2 46 3 35 4 23 5 45 6 37 7 39 8 38 9 20 10 21 11
REMARK SMILES IDX 5 12 6 13 7 14 8 15 9 17 11 18 12 19 17 20 19 21 15 22 14 23
REMARK SMILES IDX 13 24 18 25 16 26 10 28 3 30 4 31 2 32 1 33 24 34 25 35
REMARK SMILES IDX 26 36 27 38 28 39 29 40 30 41 31 42 32 43 33 44 34 45 40 50
REMARK SMILES IDX 41 51 42 52 43 53 44 54
REMARK H PARENT 6 16 16 27 10 29 26 37 33 46 33 47 34 48 34 49 44 55
ROOT
ATOM      1  N   UNL     1     -11.493   1.002  -2.120  1.00  0.00    -0.326 N 
ATOM      2  C   UNL     1     -11.077  -0.467  -3.913  1.00  0.00     0.014 C 
ATOM      3  C   UNL     1     -12.197   0.286  -3.188  1.00  0.00     0.091 C 
ATOM      4  C   UNL     1     -10.125  -0.820  -2.781  1.00  0.00     0.041 C 
ATOM      5  C   UNL     1     -10.093   0.520  -2.023  1.00  0.00     0.175 C 
ATOM      6  C   UNL     1     -12.974   1.104  -4.219  1.00  0.00     0.059 C 
ATOM      7  C   UNL     1     -11.642  -1.573  -4.782  1.00  0.00     0.008 C 
ATOM      8  C   UNL     1     -13.025   0.454  -5.618  1.00  0.00     0.143 C 
ATOM      9  C   UNL     1     -12.888  -1.081  -5.549  1.00  0.00     0.034 C 
ENDROOT
BRANCH   1  10
ATOM     10  C   UNL     1     -11.991   1.833  -1.131  1.00  0.00     0.246 C 
ATOM     11  O   UNL     1     -12.180   3.027  -1.388  1.00  0.00    -0.272 OA
BRANCH  10  12
ATOM     12  C   UNL     1     -12.340   1.240   0.265  1.00  0.00     0.174 C 
BRANCH  12  13
ATOM     13  N   UNL     1     -11.223   0.435   0.758  1.00  0.00    -0.342 N 
ATOM     14  C   UNL     1     -10.372   0.803   1.776  1.00  0.00     0.249 C 
ATOM     15  O   UNL     1     -10.475   1.848   2.407  1.00  0.00    -0.272 OA
ATOM     16  H   UNL     1     -10.920  -0.381   0.232  1.00  0.00     0.164 HD
BRANCH  14  17
ATOM     17  C   UNL     1      -9.283  -0.254   2.053  1.00  0.00     0.207 C 
BRANCH  17  18
ATOM     18  C   UNL     1      -8.158  -0.149   1.017  1.00  0.00     0.077 C 
BRANCH  18  19
ATOM     19  C   UNL     1      -7.209   0.985   1.332  1.00  0.00    -0.043 A 
ATOM     20  C   UNL     1      -5.501   2.555   0.624  1.00  0.00     0.083 A 
ATOM     21  C   UNL     1      -6.412   1.542   0.320  1.00  0.00     0.028 A 
ATOM     22  C   UNL     1      -5.379   3.015   1.935  1.00  0.00     0.134 A 
ATOM     23  C   UNL     1      -6.163   2.471   2.947  1.00  0.00     0.048 A 
ATOM     24  C   UNL     1      -7.074   1.457   2.647  1.00  0.00     0.008 A 
ATOM     25  Cl  UNL     1      -4.530   3.227  -0.633  1.00  0.00    -0.080 Cl
BRANCH  22  26
ATOM     26  O   UNL     1      -4.493   3.998   2.283  1.00  0.00    -0.506 OA
ATOM     27  H   UNL     1      -3.791   3.570   2.807  1.00  0.00     0.293 HD
ENDBRANCH  22  26
ENDBRANCH  18  19
ENDBRANCH  17  18
BRANCH  17  28
ATOM     28  O   UNL     1      -9.831  -1.582   2.027  1.00  0.00    -0.383 OA
ATOM     29  H   UNL     1      -9.131  -2.158   1.646  1.00  0.00     0.211 HD
ENDBRANCH  17  28
ENDBRANCH  14  17
ENDBRANCH  12  13
BRANCH  12  30
ATOM     30  C   UNL     1     -13.681   0.458   0.266  1.00  0.00     0.018 C 
ATOM     31  C   UNL     1     -14.605   0.956  -0.856  1.00  0.00     0.010 C 
BRANCH  30  32
ATOM     32  C   UNL     1     -14.423   0.499   1.624  1.00  0.00     0.002 C 
ATOM     33  C   UNL     1     -15.673   1.368   1.657  1.00  0.00     0.004 C 
ENDBRANCH  30  32
ENDBRANCH  12  30
ENDBRANCH  10  12
ENDBRANCH   1  10
BRANCH   5  34
ATOM     34  C   UNL     1      -9.117   1.528  -2.686  1.00  0.00     0.242 C 
ATOM     35  O   UNL     1      -9.464   2.664  -3.008  1.00  0.00    -0.273 OA
ATOM     36  N   UNL     1      -7.853   1.042  -2.935  1.00  0.00    -0.354 N 
ATOM     37  H   UNL     1      -7.661   0.056  -2.755  1.00  0.00     0.163 HD
BRANCH  36  38
ATOM     38  C   UNL     1      -6.761   1.901  -3.345  1.00  0.00     0.116 C 
BRANCH  38  39
ATOM     39  C   UNL     1      -5.932   1.207  -4.423  1.00  0.00     0.023 C 
BRANCH  39  40
ATOM     40  C   UNL     1      -5.129   2.192  -5.265  1.00  0.00     0.026 C 
BRANCH  40  41
ATOM     41  C   UNL     1      -5.385   1.965  -6.755  1.00  0.00     0.146 C 
BRANCH  41  42
ATOM     42  N   UNL     1      -6.684   1.333  -6.941  1.00  0.00    -0.254 NA
ATOM     43  C   UNL     1      -7.321   1.505  -8.038  1.00  0.00     0.185 C 
ATOM     44  N   UNL     1      -6.984   2.213  -9.132  1.00  0.00    -0.370 N 
ATOM     45  N   UNL     1      -8.519   0.917  -8.188  1.00  0.00    -0.370 N 
ATOM     46  H   UNL     1      -7.679   2.460  -9.816  1.00  0.00     0.159 HD
ATOM     47  H   UNL     1      -6.102   2.711  -9.194  1.00  0.00     0.159 HD
ATOM     48  H   UNL     1      -8.844   0.356  -7.412  1.00  0.00     0.159 HD
ATOM     49  H   UNL     1      -8.962   0.806  -9.083  1.00  0.00     0.159 HD
ENDBRANCH  41  42
ENDBRANCH  40  41
ENDBRANCH  39  40
ENDBRANCH  38  39
ENDBRANCH  36  38
ENDBRANCH   5  34
BRANCH   8  50
ATOM     50  O   UNL     1     -11.974   0.967  -6.436  1.00  0.00    -0.245 OA
BRANCH  50  51
ATOM     51  S   UNL     1     -12.160   1.006  -8.052  1.00  0.00     0.397 S 
ATOM     52  O   UNL     1     -11.437   2.152  -8.556  1.00  0.00    -0.169 OA
ATOM     53  O   UNL     1     -13.550   0.777  -8.386  1.00  0.00    -0.169 OA
BRANCH  51  54
ATOM     54  O   UNL     1     -11.319  -0.283  -8.518  1.00  0.00    -0.264 OA
ATOM     55  H   UNL     1     -10.967  -0.101  -9.413  1.00  0.00     0.236 HD
ENDBRANCH  51  54
ENDBRANCH  50  51
ENDBRANCH   8  50
TORSDOF 19
ENDMDL
MODEL 7
REMARK VINA RESULT:    -7.421      3.854      5.946
REMARK INTER + INTRA:         -18.812
REMARK INTER:                 -16.451
REMARK INTRA:                  -2.361
REMARK UNBOUND:                -3.798
REMARK SMILES CC[C@@H](C)[C@@H](NC(=O)[C@@H](O)Cc1ccc(O)c(Cl)c1)C(=O)N1[C@H](C(=O)NCCCCN=C(N)N)C[C@H]2CC[C@H](OS(=O)(=O)O)C[C@@H]21
REMARK SMILES IDX 22 1 36 2 46 3 35 4 23 5 45 6 37 7 39 8 38 9 20 10 21 11
REMARK SMILES IDX 5 12 6 13 7 14 8 15 9 17 11 18 12 19 17 20 19 21 15 22 14 23
REMARK SMILES IDX 13 24 18 25 16 26 10 28 3 30 4 31 2 32 1 33 24 34 25 35
REMARK SMILES IDX 26 36 27 38 28 39 29 40 30 41 31 42 32 43 33 44 34 45 40 50
REMARK SMILES IDX 41 51 42 52 43 53 44 54
REMARK H PARENT 6 16 16 27 10 29 26 37 33 46 33 47 34 48 34 49 44 55
ROOT
ATOM      1  N   UNL     1      -5.895   1.617  -3.779  1.00  0.00    -0.326 N 
ATOM      2  C   UNL     1      -4.788   0.857  -1.845  1.00  0.00     0.014 C 
ATOM      3  C   UNL     1      -4.701   1.889  -2.973  1.00  0.00     0.091 C 
ATOM      4  C   UNL     1      -5.408  -0.346  -2.539  1.00  0.00     0.041 C 
ATOM      5  C   UNL     1      -6.525   0.347  -3.340  1.00  0.00     0.175 C 
ATOM      6  C   UNL     1      -4.549   3.275  -2.348  1.00  0.00     0.059 C 
ATOM      7  C   UNL     1      -3.452   0.705  -1.146  1.00  0.00     0.008 C 
ATOM      8  C   UNL     1      -3.780   3.273  -1.010  1.00  0.00     0.143 C 
ATOM      9  C   UNL     1      -2.803   2.084  -0.906  1.00  0.00     0.034 C 
ENDROOT
BRANCH   1  10
ATOM     10  C   UNL     1      -6.338   2.224  -4.941  1.00  0.00     0.246 C 
ATOM     11  O   UNL     1      -7.208   3.099  -4.869  1.00  0.00    -0.272 OA
BRANCH  10  12
ATOM     12  C   UNL     1      -5.704   1.824  -6.305  1.00  0.00     0.174 C 
BRANCH  12  13
ATOM     13  N   UNL     1      -4.304   2.245  -6.347  1.00  0.00    -0.342 N 
ATOM     14  C   UNL     1      -3.259   1.468  -6.793  1.00  0.00     0.249 C 
ATOM     15  O   UNL     1      -3.392   0.334  -7.236  1.00  0.00    -0.272 OA
ATOM     16  H   UNL     1      -4.020   3.096  -5.869  1.00  0.00     0.164 HD
BRANCH  14  17
ATOM     17  C   UNL     1      -1.897   2.189  -6.695  1.00  0.00     0.207 C 
BRANCH  17  18
ATOM     18  C   UNL     1      -1.827   3.029  -5.416  1.00  0.00     0.077 C 
BRANCH  18  19
ATOM     19  C   UNL     1      -0.514   2.840  -4.691  1.00  0.00    -0.043 A 
ATOM     20  C   UNL     1       1.769   2.022  -4.654  1.00  0.00     0.083 A 
ATOM     21  C   UNL     1       0.575   2.241  -5.342  1.00  0.00     0.028 A 
ATOM     22  C   UNL     1       1.883   2.398  -3.315  1.00  0.00     0.134 A 
ATOM     23  C   UNL     1       0.812   2.992  -2.658  1.00  0.00     0.048 A 
ATOM     24  C   UNL     1      -0.385   3.211  -3.343  1.00  0.00     0.008 A 
ATOM     25  Cl  UNL     1       3.097   1.284  -5.472  1.00  0.00    -0.080 Cl
BRANCH  22  26
ATOM     26  O   UNL     1       3.030   2.194  -2.597  1.00  0.00    -0.506 OA
ATOM     27  H   UNL     1       2.905   1.365  -2.099  1.00  0.00     0.293 HD
ENDBRANCH  22  26
ENDBRANCH  18  19
ENDBRANCH  17  18
BRANCH  17  28
ATOM     28  O   UNL     1      -1.677   3.035  -7.835  1.00  0.00    -0.383 OA
ATOM     29  H   UNL     1      -2.444   2.889  -8.434  1.00  0.00     0.211 HD
ENDBRANCH  17  28
ENDBRANCH  14  17
ENDBRANCH  12  13
BRANCH  12  30
ATOM     30  C   UNL     1      -6.516   2.347  -7.521  1.00  0.00     0.018 C 
ATOM     31  C   UNL     1      -7.657   1.380  -7.873  1.00  0.00     0.010 C 
BRANCH  30  32
ATOM     32  C   UNL     1      -5.650   2.627  -8.773  1.00  0.00     0.002 C 
ATOM     33  C   UNL     1      -6.040   1.847 -10.022  1.00  0.00     0.004 C 
ENDBRANCH  30  32
ENDBRANCH  12  30
ENDBRANCH  10  12
ENDBRANCH   1  10
BRANCH   5  34
ATOM     34  C   UNL     1      -7.772   0.628  -2.459  1.00  0.00     0.242 C 
ATOM     35  O   UNL     1      -8.516  -0.271  -2.066  1.00  0.00    -0.273 OA
ATOM     36  N   UNL     1      -8.014   1.957  -2.193  1.00  0.00    -0.354 N 
ATOM     37  H   UNL     1      -7.432   2.663  -2.645  1.00  0.00     0.163 HD
BRANCH  36  38
ATOM     38  C   UNL     1      -8.997   2.384  -1.219  1.00  0.00     0.116 C 
BRANCH  38  39
ATOM     39  C   UNL     1     -10.243   2.903  -1.933  1.00  0.00     0.023 C 
BRANCH  39  40
ATOM     40  C   UNL     1     -11.532   2.479  -1.239  1.00  0.00     0.026 C 
BRANCH  40  41
ATOM     41  C   UNL     1     -11.555   2.968   0.209  1.00  0.00     0.146 C 
BRANCH  41  42
ATOM     42  N   UNL     1     -12.149   1.948   1.064  1.00  0.00    -0.254 NA
ATOM     43  C   UNL     1     -13.123   2.257   1.835  1.00  0.00     0.185 C 
ATOM     44  N   UNL     1     -13.747   3.436   2.012  1.00  0.00    -0.370 N 
ATOM     45  N   UNL     1     -13.653   1.304   2.619  1.00  0.00    -0.370 N 
ATOM     46  H   UNL     1     -14.327   3.594   2.818  1.00  0.00     0.159 HD
ATOM     47  H   UNL     1     -13.481   4.264   1.487  1.00  0.00     0.159 HD
ATOM     48  H   UNL     1     -13.247   0.381   2.540  1.00  0.00     0.159 HD
ATOM     49  H   UNL     1     -14.550   1.400   3.062  1.00  0.00     0.159 HD
ENDBRANCH  41  42
ENDBRANCH  40  41
ENDBRANCH  39  40
ENDBRANCH  38  39
ENDBRANCH  36  38
ENDBRANCH   5  34
BRANCH   8  50
ATOM     50  O   UNL     1      -4.697   3.203   0.083  1.00  0.00    -0.245 OA
BRANCH  50  51
ATOM     51  S   UNL     1      -4.162   3.459   1.597  1.00  0.00     0.397 S 
ATOM     52  O   UNL     1      -3.556   2.234   2.069  1.00  0.00    -0.169 OA
ATOM     53  O   UNL     1      -5.181   4.146   2.363  1.00  0.00    -0.169 OA
BRANCH  51  54
ATOM     54  O   UNL     1      -2.947   4.484   1.356  1.00  0.00    -0.264 OA
ATOM     55  H   UNL     1      -3.245   5.152   0.705  1.00  0.00     0.236 HD
ENDBRANCH  51  54
ENDBRANCH  50  51
ENDBRANCH   8  50
TORSDOF 19
ENDMDL
MODEL 8
REMARK VINA RESULT:    -7.305      9.290     13.353
REMARK INTER + INTRA:         -18.576
REMARK INTER:                 -16.327
REMARK INTRA:                  -2.249
REMARK UNBOUND:                -3.798
REMARK SMILES CC[C@@H](C)[C@@H](NC(=O)[C@@H](O)Cc1ccc(O)c(Cl)c1)C(=O)N1[C@H](C(=O)NCCCCN=C(N)N)C[C@H]2CC[C@H](OS(=O)(=O)O)C[C@@H]21
REMARK SMILES IDX 22 1 36 2 46 3 35 4 23 5 45 6 37 7 39 8 38 9 20 10 21 11
REMARK SMILES IDX 5 12 6 13 7 14 8 15 9 17 11 18 12 19 17 20 19 21 15 22 14 23
REMARK SMILES IDX 13 24 18 25 16 26 10 28 3 30 4 31 2 32 1 33 24 34 25 35
REMARK SMILES IDX 26 36 27 38 28 39 29 40 30 41 31 42 32 43 33 44 34 45 40 50
REMARK SMILES IDX 41 51 42 52 43 53 44 54
REMARK H PARENT 6 16 16 27 10 29 26 37 33 46 33 47 34 48 34 49 44 55
ROOT
ATOM      1  N   UNL     1       2.522   0.145   1.354  1.00  0.00    -0.326 N 
ATOM      2  C   UNL     1       1.675   1.016   3.370  1.00  0.00     0.014 C 
ATOM      3  C   UNL     1       2.900   0.332   2.758  1.00  0.00     0.091 C 
ATOM      4  C   UNL     1       0.522   0.384   2.606  1.00  0.00     0.041 C 
ATOM      5  C   UNL     1       1.080   0.443   1.172  1.00  0.00     0.175 C 
ATOM      6  C   UNL     1       4.133   1.178   3.070  1.00  0.00     0.059 C 
ATOM      7  C   UNL     1       1.702   0.924   4.883  1.00  0.00     0.008 C 
ATOM      8  C   UNL     1       4.045   1.930   4.416  1.00  0.00     0.143 C 
ATOM      9  C   UNL     1       3.120   1.214   5.420  1.00  0.00     0.034 C 
ENDROOT
BRANCH   1  10
ATOM     10  C   UNL     1       3.227  -0.440   0.315  1.00  0.00     0.246 C 
ATOM     11  O   UNL     1       2.873  -1.549  -0.101  1.00  0.00    -0.272 OA
BRANCH  10  12
ATOM     12  C   UNL     1       4.417   0.326  -0.332  1.00  0.00     0.174 C 
BRANCH  12  13
ATOM     13  N   UNL     1       4.414   0.120  -1.780  1.00  0.00    -0.342 N 
ATOM     14  C   UNL     1       3.670   0.849  -2.681  1.00  0.00     0.249 C 
ATOM     15  O   UNL     1       2.940   1.780  -2.366  1.00  0.00    -0.272 OA
ATOM     16  H   UNL     1       4.847  -0.713  -2.171  1.00  0.00     0.164 HD
BRANCH  14  17
ATOM     17  C   UNL     1       3.871   0.378  -4.137  1.00  0.00     0.207 C 
BRANCH  17  18
ATOM     18  C   UNL     1       3.198   1.351  -5.111  1.00  0.00     0.077 C 
BRANCH  18  19
ATOM     19  C   UNL     1       4.011   1.534  -6.373  1.00  0.00    -0.043 A 
ATOM     20  C   UNL     1       5.832   0.845  -7.820  1.00  0.00     0.083 A 
ATOM     21  C   UNL     1       5.052   0.644  -6.681  1.00  0.00     0.028 A 
ATOM     22  C   UNL     1       5.580   1.933  -8.656  1.00  0.00     0.134 A 
ATOM     23  C   UNL     1       4.552   2.822  -8.364  1.00  0.00     0.048 A 
ATOM     24  C   UNL     1       3.771   2.625  -7.223  1.00  0.00     0.008 A 
ATOM     25  Cl  UNL     1       7.106  -0.260  -8.181  1.00  0.00    -0.080 Cl
BRANCH  22  26
ATOM     26  O   UNL     1       6.324   2.177  -9.778  1.00  0.00    -0.506 OA
ATOM     27  H   UNL     1       5.789   2.758 -10.349  1.00  0.00     0.293 HD
ENDBRANCH  22  26
ENDBRANCH  18  19
ENDBRANCH  17  18
BRANCH  17  28
ATOM     28  O   UNL     1       3.334  -0.940  -4.334  1.00  0.00    -0.383 OA
ATOM     29  H   UNL     1       4.087  -1.561  -4.209  1.00  0.00     0.211 HD
ENDBRANCH  17  28
ENDBRANCH  14  17
ENDBRANCH  12  13
BRANCH  12  30
ATOM     30  C   UNL     1       5.782  -0.030   0.315  1.00  0.00     0.018 C 
ATOM     31  C   UNL     1       6.913   0.038  -0.724  1.00  0.00     0.010 C 
BRANCH  30  32
ATOM     32  C   UNL     1       5.794  -1.407   1.024  1.00  0.00     0.002 C 
ATOM     33  C   UNL     1       6.541  -1.449   2.350  1.00  0.00     0.004 C 
ENDBRANCH  30  32
ENDBRANCH  12  30
ENDBRANCH  10  12
ENDBRANCH   1  10
BRANCH   5  34
ATOM     34  C   UNL     1       0.884   1.847   0.539  1.00  0.00     0.242 C 
ATOM     35  O   UNL     1       1.791   2.678   0.487  1.00  0.00    -0.273 OA
ATOM     36  N   UNL     1      -0.390   2.114   0.091  1.00  0.00    -0.354 N 
ATOM     37  H   UNL     1      -1.128   1.432   0.271  1.00  0.00     0.163 HD
BRANCH  36  38
ATOM     38  C   UNL     1      -0.698   3.279  -0.714  1.00  0.00     0.116 C 
BRANCH  38  39
ATOM     39  C   UNL     1      -1.671   2.897  -1.826  1.00  0.00     0.023 C 
BRANCH  39  40
ATOM     40  C   UNL     1      -2.758   1.941  -1.347  1.00  0.00     0.026 C 
BRANCH  40  41
ATOM     41  C   UNL     1      -3.756   2.664  -0.442  1.00  0.00     0.146 C 
BRANCH  41  42
ATOM     42  N   UNL     1      -3.685   2.115   0.906  1.00  0.00    -0.254 NA
ATOM     43  C   UNL     1      -3.380   2.881   1.886  1.00  0.00     0.185 C 
ATOM     44  N   UNL     1      -3.094   4.195   1.900  1.00  0.00    -0.370 N 
ATOM     45  N   UNL     1      -3.316   2.355   3.120  1.00  0.00    -0.370 N 
ATOM     46  H   UNL     1      -2.637   4.612   2.694  1.00  0.00     0.159 HD
ATOM     47  H   UNL     1      -3.110   4.754   1.052  1.00  0.00     0.159 HD
ATOM     48  H   UNL     1      -3.526   1.369   3.199  1.00  0.00     0.159 HD
ATOM     49  H   UNL     1      -3.320   2.917   3.952  1.00  0.00     0.159 HD
ENDBRANCH  41  42
ENDBRANCH  40  41
ENDBRANCH  39  40
ENDBRANCH  38  39
ENDBRANCH  36  38
ENDBRANCH   5  34
BRANCH   8  50
ATOM     50  O   UNL     1       3.551   3.253   4.207  1.00  0.00    -0.245 OA
BRANCH  50  51
ATOM     51  S   UNL     1       3.426   4.272   5.469  1.00  0.00     0.397 S 
ATOM     52  O   UNL     1       4.287   3.785   6.523  1.00  0.00    -0.169 OA
ATOM     53  O   UNL     1       2.031   4.580   5.709  1.00  0.00    -0.169 OA
BRANCH  51  54
ATOM     54  O   UNL     1       4.136   5.598   4.901  1.00  0.00    -0.264 OA
ATOM     55  H   UNL     1       3.431   6.230   4.651  1.00  0.00     0.236 HD
ENDBRANCH  51  54
ENDBRANCH  50  51
ENDBRANCH   8  50
TORSDOF 19
ENDMDL
MODEL 9
REMARK VINA RESULT:    -7.302      4.435      7.978
REMARK INTER + INTRA:         -18.570
REMARK INTER:                 -16.374
REMARK INTRA:                  -2.196
REMARK UNBOUND:                -3.798
REMARK SMILES CC[C@@H](C)[C@@H](NC(=O)[C@@H](O)Cc1ccc(O)c(Cl)c1)C(=O)N1[C@H](C(=O)NCCCCN=C(N)N)C[C@H]2CC[C@H](OS(=O)(=O)O)C[C@@H]21
REMARK SMILES IDX 22 1 36 2 46 3 35 4 23 5 45 6 37 7 39 8 38 9 20 10 21 11
REMARK SMILES IDX 5 12 6 13 7 14 8 15 9 17 11 18 12 19 17 20 19 21 15 22 14 23
REMARK SMILES IDX 13 24 18 25 16 26 10 28 3 30 4 31 2 32 1 33 24 34 25 35
REMARK SMILES IDX 26 36 27 38 28 39 29 40 30 41 31 42 32 43 33 44 34 45 40 50
REMARK SMILES IDX 41 51 42 52 43 53 44 54
REMARK H PARENT 6 16 16 27 10 29 26 37 33 46 33 47 34 48 34 49 44 55
ROOT
ATOM      1  N   UNL     1      -5.414   1.768  -3.813  1.00  0.00    -0.326 N 
ATOM      2  C   UNL     1      -4.529   0.934  -1.797  1.00  0.00     0.014 C 
ATOM      3  C   UNL     1      -4.344   2.033  -2.846  1.00  0.00     0.091 C 
ATOM      4  C   UNL     1      -5.005  -0.247  -2.630  1.00  0.00     0.041 C 
ATOM      5  C   UNL     1      -6.041   0.454  -3.528  1.00  0.00     0.175 C 
ATOM      6  C   UNL     1      -4.330   3.384  -2.133  1.00  0.00     0.059 C 
ATOM      7  C   UNL     1      -3.286   0.786  -0.941  1.00  0.00     0.008 C 
ATOM      8  C   UNL     1      -3.736   3.329  -0.709  1.00  0.00     0.143 C 
ATOM      9  C   UNL     1      -2.731   2.171  -0.545  1.00  0.00     0.034 C 
ENDROOT
BRANCH   1  10
ATOM     10  C   UNL     1      -5.732   2.428  -4.988  1.00  0.00     0.246 C 
ATOM     11  O   UNL     1      -5.522   3.643  -5.071  1.00  0.00    -0.272 OA
BRANCH  10  12
ATOM     12  C   UNL     1      -6.304   1.621  -6.189  1.00  0.00     0.174 C 
BRANCH  12  13
ATOM     13  N   UNL     1      -5.267   1.434  -7.203  1.00  0.00    -0.342 N 
ATOM     14  C   UNL     1      -4.920   2.362  -8.159  1.00  0.00     0.249 C 
ATOM     15  O   UNL     1      -5.430   3.472  -8.248  1.00  0.00    -0.272 OA
ATOM     16  H   UNL     1      -4.869   0.510  -7.352  1.00  0.00     0.164 HD
BRANCH  14  17
ATOM     17  C   UNL     1      -3.802   1.861  -9.097  1.00  0.00     0.207 C 
BRANCH  17  18
ATOM     18  C   UNL     1      -3.715   0.332  -9.059  1.00  0.00     0.077 C 
BRANCH  18  19
ATOM     19  C   UNL     1      -4.468  -0.302 -10.207  1.00  0.00    -0.043 A 
ATOM     20  C   UNL     1      -4.789  -0.623 -12.590  1.00  0.00     0.083 A 
ATOM     21  C   UNL     1      -4.063  -0.076 -11.531  1.00  0.00     0.028 A 
ATOM     22  C   UNL     1      -5.923  -1.395 -12.333  1.00  0.00     0.134 A 
ATOM     23  C   UNL     1      -6.336  -1.627 -11.026  1.00  0.00     0.048 A 
ATOM     24  C   UNL     1      -5.612  -1.079  -9.965  1.00  0.00     0.008 A 
ATOM     25  Cl  UNL     1      -4.276  -0.333 -14.210  1.00  0.00    -0.080 Cl
BRANCH  22  26
ATOM     26  O   UNL     1      -6.673  -1.942 -13.338  1.00  0.00    -0.506 OA
ATOM     27  H   UNL     1      -6.047  -2.261 -14.014  1.00  0.00     0.293 HD
ENDBRANCH  22  26
ENDBRANCH  18  19
ENDBRANCH  17  18
BRANCH  17  28
ATOM     28  O   UNL     1      -2.530   2.420  -8.730  1.00  0.00    -0.383 OA
ATOM     29  H   UNL     1      -2.035   1.697  -8.282  1.00  0.00     0.211 HD
ENDBRANCH  17  28
ENDBRANCH  14  17
ENDBRANCH  12  13
BRANCH  12  30
ATOM     30  C   UNL     1      -7.598   2.251  -6.773  1.00  0.00     0.018 C 
ATOM     31  C   UNL     1      -8.535   2.715  -5.648  1.00  0.00     0.010 C 
BRANCH  30  32
ATOM     32  C   UNL     1      -8.358   1.318  -7.747  1.00  0.00     0.002 C 
ATOM     33  C   UNL     1      -9.390   0.403  -7.101  1.00  0.00     0.004 C 
ENDBRANCH  30  32
ENDBRANCH  12  30
ENDBRANCH  10  12
ENDBRANCH   1  10
BRANCH   5  34
ATOM     34  C   UNL     1      -7.399   0.638  -2.800  1.00  0.00     0.242 C 
ATOM     35  O   UNL     1      -8.331  -0.155  -2.935  1.00  0.00    -0.273 OA
ATOM     36  N   UNL     1      -7.504   1.779  -2.036  1.00  0.00    -0.354 N 
ATOM     37  H   UNL     1      -6.742   2.458  -2.059  1.00  0.00     0.163 HD
BRANCH  36  38
ATOM     38  C   UNL     1      -8.608   2.001  -1.126  1.00  0.00     0.116 C 
BRANCH  38  39
ATOM     39  C   UNL     1      -8.270   1.426   0.248  1.00  0.00     0.023 C 
BRANCH  39  40
ATOM     40  C   UNL     1      -9.385   0.546   0.802  1.00  0.00     0.026 C 
BRANCH  40  41
ATOM     41  C   UNL     1      -9.380   0.561   2.330  1.00  0.00     0.146 C 
BRANCH  41  42
ATOM     42  N   UNL     1      -8.562   1.667   2.809  1.00  0.00    -0.254 NA
ATOM     43  C   UNL     1      -7.822   1.507   3.841  1.00  0.00     0.185 C 
ATOM     44  N   UNL     1      -7.648   0.426   4.622  1.00  0.00    -0.370 N 
ATOM     45  N   UNL     1      -7.079   2.541   4.269  1.00  0.00    -0.370 N 
ATOM     46  H   UNL     1      -7.231   0.513   5.534  1.00  0.00     0.159 HD
ATOM     47  H   UNL     1      -8.125  -0.450   4.433  1.00  0.00     0.159 HD
ATOM     48  H   UNL     1      -7.145   3.394   3.730  1.00  0.00     0.159 HD
ATOM     49  H   UNL     1      -6.311   2.432   4.908  1.00  0.00     0.159 HD
ENDBRANCH  41  42
ENDBRANCH  40  41
ENDBRANCH  39  40
ENDBRANCH  38  39
ENDBRANCH  36  38
ENDBRANCH   5  34
BRANCH   8  50
ATOM     50  O   UNL     1      -4.780   3.163   0.251  1.00  0.00    -0.245 OA
BRANCH  50  51
ATOM     51  S   UNL     1      -4.452   3.349   1.834  1.00  0.00     0.397 S 
ATOM     52  O   UNL     1      -3.294   4.206   1.952  1.00  0.00    -0.169 OA
ATOM     53  O   UNL     1      -4.518   2.064   2.498  1.00  0.00    -0.169 OA
BRANCH  51  54
ATOM     54  O   UNL     1      -5.701   4.230   2.333  1.00  0.00    -0.264 OA
ATOM     55  H   UNL     1      -5.346   5.032   2.769  1.00  0.00     0.236 HD
ENDBRANCH  51  54
ENDBRANCH  50  51
ENDBRANCH   8  50
TORSDOF 19
ENDMDL
MODEL 10
REMARK VINA RESULT:    -7.209      4.090      6.221
REMARK INTER + INTRA:         -18.381
REMARK INTER:                 -16.049
REMARK INTRA:                  -2.333
REMARK UNBOUND:                -3.798
REMARK SMILES CC[C@@H](C)[C@@H](NC(=O)[C@@H](O)Cc1ccc(O)c(Cl)c1)C(=O)N1[C@H](C(=O)NCCCCN=C(N)N)C[C@H]2CC[C@H](OS(=O)(=O)O)C[C@@H]21
REMARK SMILES IDX 22 1 36 2 46 3 35 4 23 5 45 6 37 7 39 8 38 9 20 10 21 11
REMARK SMILES IDX 5 12 6 13 7 14 8 15 9 17 11 18 12 19 17 20 19 21 15 22 14 23
REMARK SMILES IDX 13 24 18 25 16 26 10 28 3 30 4 31 2 32 1 33 24 34 25 35
REMARK SMILES IDX 26 36 27 38 28 39 29 40 30 41 31 42 32 43 33 44 34 45 40 50
REMARK SMILES IDX 41 51 42 52 43 53 44 54
REMARK H PARENT 6 16 16 27 10 29 26 37 33 46 33 47 34 48 34 49 44 55
ROOT
ATOM      1  N   UNL     1      -4.283   2.533  -2.257  1.00  0.00    -0.326 N 
ATOM      2  C   UNL     1      -3.712   1.762  -0.108  1.00  0.00     0.014 C 
ATOM      3  C   UNL     1      -4.016   3.033  -0.906  1.00  0.00     0.091 C 
ATOM      4  C   UNL     1      -3.000   0.888  -1.129  1.00  0.00     0.041 C 
ATOM      5  C   UNL     1      -3.912   1.100  -2.352  1.00  0.00     0.175 C 
ATOM      6  C   UNL     1      -5.122   3.802  -0.185  1.00  0.00     0.059 C 
ATOM      7  C   UNL     1      -3.018   2.094   1.198  1.00  0.00     0.008 C 
ATOM      8  C   UNL     1      -5.098   3.634   1.349  1.00  0.00     0.143 C 
ATOM      9  C   UNL     1      -3.684   3.311   1.875  1.00  0.00     0.034 C 
ENDROOT
BRANCH   1  10
ATOM     10  C   UNL     1      -4.598   3.227  -3.414  1.00  0.00     0.246 C 
ATOM     11  O   UNL     1      -4.693   4.458  -3.370  1.00  0.00    -0.272 OA
BRANCH  10  12
ATOM     12  C   UNL     1      -4.780   2.448  -4.749  1.00  0.00     0.174 C 
BRANCH  12  13
ATOM     13  N   UNL     1      -3.618   2.658  -5.611  1.00  0.00    -0.342 N 
ATOM     14  C   UNL     1      -2.619   1.735  -5.830  1.00  0.00     0.249 C 
ATOM     15  O   UNL     1      -2.609   0.613  -5.341  1.00  0.00    -0.272 OA
ATOM     16  H   UNL     1      -3.410   3.591  -5.958  1.00  0.00     0.164 HD
BRANCH  14  17
ATOM     17  C   UNL     1      -1.520   2.261  -6.777  1.00  0.00     0.207 C 
BRANCH  17  18
ATOM     18  C   UNL     1      -0.797   3.456  -6.148  1.00  0.00     0.077 C 
BRANCH  18  19
ATOM     19  C   UNL     1       0.189   3.021  -5.087  1.00  0.00    -0.043 A 
ATOM     20  C   UNL     1       0.966   3.075  -2.790  1.00  0.00     0.083 A 
ATOM     21  C   UNL     1       0.028   3.437  -3.756  1.00  0.00     0.028 A 
ATOM     22  C   UNL     1       2.070   2.298  -3.144  1.00  0.00     0.134 A 
ATOM     23  C   UNL     1       2.242   1.879  -4.458  1.00  0.00     0.048 A 
ATOM     24  C   UNL     1       1.305   2.241  -5.429  1.00  0.00     0.008 A 
ATOM     25  Cl  UNL     1       0.750   3.597  -1.160  1.00  0.00    -0.080 Cl
BRANCH  22  26
ATOM     26  O   UNL     1       3.022   1.927  -2.234  1.00  0.00    -0.506 OA
ATOM     27  H   UNL     1       2.963   0.958  -2.146  1.00  0.00     0.293 HD
ENDBRANCH  22  26
ENDBRANCH  18  19
ENDBRANCH  17  18
BRANCH  17  28
ATOM     28  O   UNL     1      -2.072   2.651  -8.045  1.00  0.00    -0.383 OA
ATOM     29  H   UNL     1      -1.330   3.049  -8.554  1.00  0.00     0.211 HD
ENDBRANCH  17  28
ENDBRANCH  14  17
ENDBRANCH  12  13
BRANCH  12  30
ATOM     30  C   UNL     1      -6.116   2.787  -5.463  1.00  0.00     0.018 C 
ATOM     31  C   UNL     1      -7.156   1.680  -5.231  1.00  0.00     0.010 C 
BRANCH  30  32
ATOM     32  C   UNL     1      -5.959   3.061  -6.979  1.00  0.00     0.002 C 
ATOM     33  C   UNL     1      -6.924   2.302  -7.881  1.00  0.00     0.004 C 
ENDBRANCH  30  32
ENDBRANCH  12  30
ENDBRANCH  10  12
ENDBRANCH   1  10
BRANCH   5  34
ATOM     34  C   UNL     1      -5.174   0.199  -2.287  1.00  0.00     0.242 C 
ATOM     35  O   UNL     1      -5.188  -0.947  -2.737  1.00  0.00    -0.273 OA
ATOM     36  N   UNL     1      -6.290   0.793  -1.741  1.00  0.00    -0.354 N 
ATOM     37  H   UNL     1      -6.250   1.783  -1.497  1.00  0.00     0.163 HD
BRANCH  36  38
ATOM     38  C   UNL     1      -7.481   0.040  -1.408  1.00  0.00     0.116 C 
BRANCH  38  39
ATOM     39  C   UNL     1      -8.681   0.607  -2.163  1.00  0.00     0.023 C 
BRANCH  39  40
ATOM     40  C   UNL     1      -9.246   1.860  -1.503  1.00  0.00     0.026 C 
BRANCH  40  41
ATOM     41  C   UNL     1     -10.343   1.498  -0.501  1.00  0.00     0.146 C 
BRANCH  41  42
ATOM     42  N   UNL     1     -10.036   0.218   0.123  1.00  0.00    -0.254 NA
ATOM     43  C   UNL     1     -10.209   0.070   1.383  1.00  0.00     0.185 C 
ATOM     44  N   UNL     1     -10.657   0.943   2.303  1.00  0.00    -0.370 N 
ATOM     45  N   UNL     1      -9.917  -1.117   1.940  1.00  0.00    -0.370 N 
ATOM     46  H   UNL     1     -10.512   0.774   3.284  1.00  0.00     0.159 HD
ATOM     47  H   UNL     1     -10.937   1.886   2.051  1.00  0.00     0.159 HD
ATOM     48  H   UNL     1      -9.581  -1.836   1.313  1.00  0.00     0.159 HD
ATOM     49  H   UNL     1     -10.242  -1.385   2.852  1.00  0.00     0.159 HD
ENDBRANCH  41  42
ENDBRANCH  40  41
ENDBRANCH  39  40
ENDBRANCH  38  39
ENDBRANCH  36  38
ENDBRANCH   5  34
BRANCH   8  50
ATOM     50  O   UNL     1      -5.979   2.581   1.741  1.00  0.00    -0.245 OA
BRANCH  50  51
ATOM     51  S   UNL     1      -6.357   2.392   3.311  1.00  0.00     0.397 S 
ATOM     52  O   UNL     1      -6.801   3.670   3.820  1.00  0.00    -0.169 OA
ATOM     53  O   UNL     1      -5.318   1.630   3.973  1.00  0.00    -0.169 OA
BRANCH  51  54
ATOM     54  O   UNL     1      -7.673   1.471   3.231  1.00  0.00    -0.264 OA
ATOM     55  H   UNL     1      -8.283   1.760   3.940  1.00  0.00     0.236 HD
ENDBRANCH  51  54
ENDBRANCH  50  51
ENDBRANCH   8  50
TORSDOF 19
ENDMDL
