MODEL 1
REMARK VINA RESULT:    -7.224      0.000      0.000
REMARK INTER + INTRA:         -18.418
REMARK INTER:                 -14.615
REMARK INTRA:                  -3.803
REMARK UNBOUND:                -3.803
REMARK SMILES CC[C@@H](C)[C@@H](NC(=O)[C@@H](O)Cc1ccc(O)c(Cl)c1)C(=O)N1[C@H](C(=O)NCCCCN=C(N)N)C[C@H]2CC[C@H](OS(=O)(=O)O)C[C@@H]21
REMARK SMILES IDX 22 1 36 2 46 3 35 4 23 5 45 6 37 7 39 8 38 9 20 10 21 11
REMARK SMILES IDX 5 12 6 13 7 14 8 15 9 17 11 18 12 19 17 20 19 21 15 22 14 23
REMARK SMILES IDX 13 24 18 25 16 26 10 28 3 30 4 31 2 32 1 33 24 34 25 35
REMARK SMILES IDX 26 36 27 38 28 39 29 40 30 41 31 42 32 43 33 44 34 45 40 50
REMARK SMILES IDX 41 51 42 52 43 53 44 54
REMARK H PARENT 6 16 16 27 10 29 26 37 33 46 33 47 34 48 34 49 44 55
ROOT
ATOM      1  N   UNL     1      -4.114  14.217   3.274  1.00  0.00    -0.326 N 
ATOM      2  C   UNL     1      -4.162  13.528   5.525  1.00  0.00     0.014 C 
ATOM      3  C   UNL     1      -5.064  13.907   4.347  1.00  0.00     0.091 C 
ATOM      4  C   UNL     1      -2.962  14.444   5.336  1.00  0.00     0.041 C 
ATOM      5  C   UNL     1      -2.736  14.287   3.821  1.00  0.00     0.175 C 
ATOM      6  C   UNL     1      -6.065  12.775   4.122  1.00  0.00     0.059 C 
ATOM      7  C   UNL     1      -4.930  13.570   6.831  1.00  0.00     0.008 C 
ATOM      8  C   UNL     1      -6.464  12.033   5.416  1.00  0.00     0.143 C 
ATOM      9  C   UNL     1      -6.323  12.927   6.664  1.00  0.00     0.034 C 
ENDROOT
BRANCH   1  10
ATOM     10  C   UNL     1      -4.347  14.639   1.977  1.00  0.00     0.246 C 
ATOM     11  O   UNL     1      -4.230  13.830   1.051  1.00  0.00    -0.272 OA
BRANCH  10  12
ATOM     12  C   UNL     1      -4.793  16.107   1.716  1.00  0.00     0.174 C 
BRANCH  12  13
ATOM     13  N   UNL     1      -6.237  16.232   1.910  1.00  0.00    -0.342 N 
ATOM     14  C   UNL     1      -6.840  16.812   3.004  1.00  0.00     0.249 C 
ATOM     15  O   UNL     1      -6.224  17.319   3.934  1.00  0.00    -0.272 OA
ATOM     16  H   UNL     1      -6.873  15.722   1.302  1.00  0.00     0.164 HD
BRANCH  14  17
ATOM     17  C   UNL     1      -8.381  16.775   2.924  1.00  0.00     0.207 C 
BRANCH  17  18
ATOM     18  C   UNL     1      -8.844  15.592   2.068  1.00  0.00     0.077 C 
BRANCH  18  19
ATOM     19  C   UNL     1      -9.279  14.419   2.918  1.00  0.00    -0.043 A 
ATOM     20  C   UNL     1      -9.768  13.467   5.095  1.00  0.00     0.083 A 
ATOM     21  C   UNL     1      -9.415  14.563   4.308  1.00  0.00     0.028 A 
ATOM     22  C   UNL     1      -9.986  12.223   4.502  1.00  0.00     0.134 A 
ATOM     23  C   UNL     1      -9.856  12.066   3.127  1.00  0.00     0.048 A 
ATOM     24  C   UNL     1      -9.500  13.161   2.336  1.00  0.00     0.008 A 
ATOM     25  Cl  UNL     1      -9.929  13.663   6.801  1.00  0.00    -0.080 Cl
BRANCH  22  26
ATOM     26  O   UNL     1     -10.324  11.116   5.234  1.00  0.00    -0.506 OA
ATOM     27  H   UNL     1      -9.608  10.467   5.106  1.00  0.00     0.293 HD
ENDBRANCH  22  26
ENDBRANCH  18  19
ENDBRANCH  17  18
BRANCH  17  28
ATOM     28  O   UNL     1      -8.900  17.995   2.372  1.00  0.00    -0.383 OA
ATOM     29  H   UNL     1      -9.390  18.437   3.102  1.00  0.00     0.211 HD
ENDBRANCH  17  28
ENDBRANCH  14  17
ENDBRANCH  12  13
BRANCH  12  30
ATOM     30  C   UNL     1      -4.334  16.637   0.331  1.00  0.00     0.018 C 
ATOM     31  C   UNL     1      -2.845  17.017   0.357  1.00  0.00     0.010 C 
BRANCH  30  32
ATOM     32  C   UNL     1      -5.177  17.826  -0.191  1.00  0.00     0.002 C 
ATOM     33  C   UNL     1      -4.379  19.042  -0.641  1.00  0.00     0.004 C 
ENDBRANCH  30  32
ENDBRANCH  12  30
ENDBRANCH  10  12
ENDBRANCH   1  10
BRANCH   5  34
ATOM     34  C   UNL     1      -1.947  12.992   3.491  1.00  0.00     0.242 C 
ATOM     35  O   UNL     1      -1.527  12.236   4.367  1.00  0.00    -0.273 OA
ATOM     36  N   UNL     1      -1.705  12.779   2.152  1.00  0.00    -0.354 N 
ATOM     37  H   UNL     1      -1.973  13.502   1.483  1.00  0.00     0.163 HD
BRANCH  36  38
ATOM     38  C   UNL     1      -1.177  11.527   1.652  1.00  0.00     0.116 C 
BRANCH  38  39
ATOM     39  C   UNL     1       0.034  11.793   0.762  1.00  0.00     0.023 C 
BRANCH  39  40
ATOM     40  C   UNL     1       0.633  13.177   0.991  1.00  0.00     0.026 C 
BRANCH  40  41
ATOM     41  C   UNL     1       1.034  13.820  -0.336  1.00  0.00     0.146 C 
BRANCH  41  42
ATOM     42  N   UNL     1       0.593  15.209  -0.363  1.00  0.00    -0.254 NA
ATOM     43  C   UNL     1       1.412  16.140  -0.047  1.00  0.00     0.185 C 
ATOM     44  N   UNL     1       2.701  16.066   0.333  1.00  0.00    -0.370 N 
ATOM     45  N   UNL     1       0.984  17.413  -0.074  1.00  0.00    -0.370 N 
ATOM     46  H   UNL     1       3.148  16.846   0.784  1.00  0.00     0.159 HD
ATOM     47  H   UNL     1       3.189  15.178   0.394  1.00  0.00     0.159 HD
ATOM     48  H   UNL     1       0.025  17.558  -0.359  1.00  0.00     0.159 HD
ATOM     49  H   UNL     1       1.611  18.198  -0.074  1.00  0.00     0.159 HD
ENDBRANCH  41  42
ENDBRANCH  40  41
ENDBRANCH  39  40
ENDBRANCH  38  39
ENDBRANCH  36  38
ENDBRANCH   5  34
BRANCH   8  50
ATOM     50  O   UNL     1      -5.643  10.877   5.591  1.00  0.00    -0.245 OA
BRANCH  50  51
ATOM     51  S   UNL     1      -6.330   9.457   5.987  1.00  0.00     0.397 S 
ATOM     52  O   UNL     1      -5.675   8.417   5.227  1.00  0.00    -0.169 OA
ATOM     53  O   UNL     1      -7.771   9.599   5.995  1.00  0.00    -0.169 OA
BRANCH  51  54
ATOM     54  O   UNL     1      -5.842   9.261   7.507  1.00  0.00    -0.264 OA
ATOM     55  H   UNL     1      -6.586   8.874   8.011  1.00  0.00     0.236 HD
ENDBRANCH  51  54
ENDBRANCH  50  51
ENDBRANCH   8  50
TORSDOF 19
ENDMDL
MODEL 2
REMARK VINA RESULT:    -6.963      3.202      6.023
REMARK INTER + INTRA:         -17.889
REMARK INTER:                 -13.932
REMARK INTRA:                  -3.957
REMARK UNBOUND:                -3.803
REMARK SMILES CC[C@@H](C)[C@@H](NC(=O)[C@@H](O)Cc1ccc(O)c(Cl)c1)C(=O)N1[C@H](C(=O)NCCCCN=C(N)N)C[C@H]2CC[C@H](OS(=O)(=O)O)C[C@@H]21
REMARK SMILES IDX 22 1 36 2 46 3 35 4 23 5 45 6 37 7 39 8 38 9 20 10 21 11
REMARK SMILES IDX 5 12 6 13 7 14 8 15 9 17 11 18 12 19 17 20 19 21 15 22 14 23
REMARK SMILES IDX 13 24 18 25 16 26 10 28 3 30 4 31 2 32 1 33 24 34 25 35
REMARK SMILES IDX 26 36 27 38 28 39 29 40 30 41 31 42 32 43 33 44 34 45 40 50
REMARK SMILES IDX 41 51 42 52 43 53 44 54
REMARK H PARENT 6 16 16 27 10 29 26 37 33 46 33 47 34 48 34 49 44 55
ROOT
ATOM      1  N   UNL     1      -3.887  16.232   3.376  1.00  0.00    -0.326 N 
ATOM      2  C   UNL     1      -4.276  16.056   1.061  1.00  0.00     0.014 C 
ATOM      3  C   UNL     1      -4.160  17.068   2.204  1.00  0.00     0.091 C 
ATOM      4  C   UNL     1      -4.916  14.855   1.741  1.00  0.00     0.041 C 
ATOM      5  C   UNL     1      -4.085  14.801   3.036  1.00  0.00     0.175 C 
ATOM      6  C   UNL     1      -3.128  18.124   1.811  1.00  0.00     0.059 C 
ATOM      7  C   UNL     1      -4.953  16.676  -0.145  1.00  0.00     0.008 C 
ATOM      8  C   UNL     1      -3.071  18.403   0.294  1.00  0.00     0.143 C 
ATOM      9  C   UNL     1      -4.413  18.098  -0.402  1.00  0.00     0.034 C 
ENDROOT
BRANCH   1  10
ATOM     10  C   UNL     1      -3.705  16.592   4.701  1.00  0.00     0.246 C 
ATOM     11  O   UNL     1      -2.569  16.875   5.096  1.00  0.00    -0.272 OA
BRANCH  10  12
ATOM     12  C   UNL     1      -4.935  16.673   5.650  1.00  0.00     0.174 C 
BRANCH  12  13
ATOM     13  N   UNL     1      -5.176  15.370   6.268  1.00  0.00    -0.342 N 
ATOM     14  C   UNL     1      -4.511  14.885   7.372  1.00  0.00     0.249 C 
ATOM     15  O   UNL     1      -3.654  15.511   7.982  1.00  0.00    -0.272 OA
ATOM     16  H   UNL     1      -5.743  14.679   5.783  1.00  0.00     0.164 HD
BRANCH  14  17
ATOM     17  C   UNL     1      -4.979  13.469   7.773  1.00  0.00     0.207 C 
BRANCH  17  18
ATOM     18  C   UNL     1      -6.476  13.472   8.098  1.00  0.00     0.077 C 
BRANCH  18  19
ATOM     19  C   UNL     1      -7.248  12.534   7.197  1.00  0.00    -0.043 A 
ATOM     20  C   UNL     1      -7.557  10.334   6.224  1.00  0.00     0.083 A 
ATOM     21  C   UNL     1      -6.874  11.185   7.093  1.00  0.00     0.028 A 
ATOM     22  C   UNL     1      -8.613  10.823   5.454  1.00  0.00     0.134 A 
ATOM     23  C   UNL     1      -8.994  12.156   5.547  1.00  0.00     0.048 A 
ATOM     24  C   UNL     1      -8.311  13.011   6.415  1.00  0.00     0.008 A 
ATOM     25  Cl  UNL     1      -7.084   8.679   6.109  1.00  0.00    -0.080 Cl
BRANCH  22  26
ATOM     26  O   UNL     1      -9.306  10.029   4.580  1.00  0.00    -0.506 OA
ATOM     27  H   UNL     1      -8.749   9.246   4.411  1.00  0.00     0.293 HD
ENDBRANCH  22  26
ENDBRANCH  18  19
ENDBRANCH  17  18
BRANCH  17  28
ATOM     28  O   UNL     1      -4.245  12.986   8.910  1.00  0.00    -0.383 OA
ATOM     29  H   UNL     1      -3.612  12.318   8.561  1.00  0.00     0.211 HD
ENDBRANCH  17  28
ENDBRANCH  14  17
ENDBRANCH  12  13
BRANCH  12  30
ATOM     30  C   UNL     1      -6.199  17.237   4.946  1.00  0.00     0.018 C 
ATOM     31  C   UNL     1      -6.889  18.292   5.825  1.00  0.00     0.010 C 
BRANCH  30  32
ATOM     32  C   UNL     1      -7.215  16.147   4.526  1.00  0.00     0.002 C 
ATOM     33  C   UNL     1      -8.657  16.406   4.944  1.00  0.00     0.004 C 
ENDBRANCH  30  32
ENDBRANCH  12  30
ENDBRANCH  10  12
ENDBRANCH   1  10
BRANCH   5  34
ATOM     34  C   UNL     1      -2.721  14.095   2.813  1.00  0.00     0.242 C 
ATOM     35  O   UNL     1      -1.650  14.699   2.867  1.00  0.00    -0.273 OA
ATOM     36  N   UNL     1      -2.800  12.757   2.496  1.00  0.00    -0.354 N 
ATOM     37  H   UNL     1      -3.720  12.340   2.347  1.00  0.00     0.163 HD
BRANCH  36  38
ATOM     38  C   UNL     1      -1.633  11.900   2.466  1.00  0.00     0.116 C 
BRANCH  38  39
ATOM     39  C   UNL     1      -1.402  11.387   1.047  1.00  0.00     0.023 C 
BRANCH  39  40
ATOM     40  C   UNL     1       0.052  11.523   0.608  1.00  0.00     0.026 C 
BRANCH  40  41
ATOM     41  C   UNL     1       0.524  12.971   0.736  1.00  0.00     0.146 C 
BRANCH  41  42
ATOM     42  N   UNL     1       0.957  13.465  -0.565  1.00  0.00    -0.254 NA
ATOM     43  C   UNL     1       1.682  14.517  -0.634  1.00  0.00     0.185 C 
ATOM     44  N   UNL     1       2.154  15.309   0.347  1.00  0.00    -0.370 N 
ATOM     45  N   UNL     1       2.067  14.958  -1.843  1.00  0.00    -0.370 N 
ATOM     46  H   UNL     1       2.501  16.230   0.140  1.00  0.00     0.159 HD
ATOM     47  H   UNL     1       1.969  15.112   1.326  1.00  0.00     0.159 HD
ATOM     48  H   UNL     1       1.761  14.413  -2.637  1.00  0.00     0.159 HD
ATOM     49  H   UNL     1       2.814  15.618  -1.969  1.00  0.00     0.159 HD
ENDBRANCH  41  42
ENDBRANCH  40  41
ENDBRANCH  39  40
ENDBRANCH  38  39
ENDBRANCH  36  38
ENDBRANCH   5  34
BRANCH   8  50
ATOM     50  O   UNL     1      -2.054  17.606  -0.314  1.00  0.00    -0.245 OA
BRANCH  50  51
ATOM     51  S   UNL     1      -0.495  17.858   0.077  1.00  0.00     0.397 S 
ATOM     52  O   UNL     1      -0.398  19.154   0.711  1.00  0.00    -0.169 OA
ATOM     53  O   UNL     1       0.351  17.493  -1.040  1.00  0.00    -0.169 OA
BRANCH  51  54
ATOM     54  O   UNL     1      -0.264  16.780   1.248  1.00  0.00    -0.264 OA
ATOM     55  H   UNL     1      -0.968  16.909   1.916  1.00  0.00     0.236 HD
ENDBRANCH  51  54
ENDBRANCH  50  51
ENDBRANCH   8  50
TORSDOF 19
ENDMDL
MODEL 3
REMARK VINA RESULT:    -6.885      3.405      5.655
REMARK INTER + INTRA:         -17.732
REMARK INTER:                 -14.208
REMARK INTRA:                  -3.524
REMARK UNBOUND:                -3.803
REMARK SMILES CC[C@@H](C)[C@@H](NC(=O)[C@@H](O)Cc1ccc(O)c(Cl)c1)C(=O)N1[C@H](C(=O)NCCCCN=C(N)N)C[C@H]2CC[C@H](OS(=O)(=O)O)C[C@@H]21
REMARK SMILES IDX 22 1 36 2 46 3 35 4 23 5 45 6 37 7 39 8 38 9 20 10 21 11
REMARK SMILES IDX 5 12 6 13 7 14 8 15 9 17 11 18 12 19 17 20 19 21 15 22 14 23
REMARK SMILES IDX 13 24 18 25 16 26 10 28 3 30 4 31 2 32 1 33 24 34 25 35
REMARK SMILES IDX 26 36 27 38 28 39 29 40 30 41 31 42 32 43 33 44 34 45 40 50
REMARK SMILES IDX 41 51 42 52 43 53 44 54
REMARK H PARENT 6 16 16 27 10 29 26 37 33 46 33 47 34 48 34 49 44 55
ROOT
ATOM      1  N   UNL     1      -3.044  13.916   2.111  1.00  0.00    -0.326 N 
ATOM      2  C   UNL     1      -0.835  13.124   1.925  1.00  0.00     0.014 C 
ATOM      3  C   UNL     1      -1.940  13.847   1.149  1.00  0.00     0.091 C 
ATOM      4  C   UNL     1      -1.618  12.146   2.789  1.00  0.00     0.041 C 
ATOM      5  C   UNL     1      -2.744  13.068   3.291  1.00  0.00     0.175 C 
ATOM      6  C   UNL     1      -1.370  15.156   0.605  1.00  0.00     0.059 C 
ATOM      7  C   UNL     1       0.231  12.596   0.985  1.00  0.00     0.008 C 
ATOM      8  C   UNL     1       0.133  15.083   0.261  1.00  0.00     0.143 C 
ATOM      9  C   UNL     1       0.579  13.649  -0.088  1.00  0.00     0.034 C 
ENDROOT
BRANCH   1  10
ATOM     10  C   UNL     1      -4.315  14.446   1.966  1.00  0.00     0.246 C 
ATOM     11  O   UNL     1      -5.200  13.753   1.453  1.00  0.00    -0.272 OA
BRANCH  10  12
ATOM     12  C   UNL     1      -4.612  15.881   2.489  1.00  0.00     0.174 C 
BRANCH  12  13
ATOM     13  N   UNL     1      -5.959  15.936   3.057  1.00  0.00    -0.342 N 
ATOM     14  C   UNL     1      -6.283  15.611   4.355  1.00  0.00     0.249 C 
ATOM     15  O   UNL     1      -5.464  15.261   5.195  1.00  0.00    -0.272 OA
ATOM     16  H   UNL     1      -6.760  16.057   2.442  1.00  0.00     0.164 HD
BRANCH  14  17
ATOM     17  C   UNL     1      -7.792  15.754   4.646  1.00  0.00     0.207 C 
BRANCH  17  18
ATOM     18  C   UNL     1      -8.603  15.601   3.355  1.00  0.00     0.077 C 
BRANCH  18  19
ATOM     19  C   UNL     1      -9.278  14.250   3.272  1.00  0.00    -0.043 A 
ATOM     20  C   UNL     1      -9.489  11.955   4.029  1.00  0.00     0.083 A 
ATOM     21  C   UNL     1      -8.899  13.215   4.141  1.00  0.00     0.028 A 
ATOM     22  C   UNL     1     -10.456  11.721   3.051  1.00  0.00     0.134 A 
ATOM     23  C   UNL     1     -10.840  12.738   2.184  1.00  0.00     0.048 A 
ATOM     24  C   UNL     1     -10.250  13.999   2.292  1.00  0.00     0.008 A 
ATOM     25  Cl  UNL     1      -9.010  10.696   5.106  1.00  0.00    -0.080 Cl
BRANCH  22  26
ATOM     26  O   UNL     1     -11.054  10.500   2.896  1.00  0.00    -0.506 OA
ATOM     27  H   UNL     1     -10.559   9.873   3.455  1.00  0.00     0.293 HD
ENDBRANCH  22  26
ENDBRANCH  18  19
ENDBRANCH  17  18
BRANCH  17  28
ATOM     28  O   UNL     1      -8.085  17.027   5.245  1.00  0.00    -0.383 OA
ATOM     29  H   UNL     1      -8.851  17.392   4.746  1.00  0.00     0.211 HD
ENDBRANCH  17  28
ENDBRANCH  14  17
ENDBRANCH  12  13
BRANCH  12  30
ATOM     30  C   UNL     1      -4.379  16.973   1.410  1.00  0.00     0.018 C 
ATOM     31  C   UNL     1      -4.476  18.378   2.025  1.00  0.00     0.010 C 
BRANCH  30  32
ATOM     32  C   UNL     1      -5.330  16.858   0.194  1.00  0.00     0.002 C 
ATOM     33  C   UNL     1      -4.659  16.962  -1.169  1.00  0.00     0.004 C 
ENDBRANCH  30  32
ENDBRANCH  12  30
ENDBRANCH  10  12
ENDBRANCH   1  10
BRANCH   5  34
ATOM     34  C   UNL     1      -2.281  13.937   4.490  1.00  0.00     0.242 C 
ATOM     35  O   UNL     1      -1.959  13.447   5.572  1.00  0.00    -0.273 OA
ATOM     36  N   UNL     1      -2.308  15.297   4.273  1.00  0.00    -0.354 N 
ATOM     37  H   UNL     1      -2.698  15.647   3.397  1.00  0.00     0.163 HD
BRANCH  36  38
ATOM     38  C   UNL     1      -1.710  16.239   5.196  1.00  0.00     0.116 C 
BRANCH  38  39
ATOM     39  C   UNL     1      -2.644  17.430   5.397  1.00  0.00     0.023 C 
BRANCH  39  40
ATOM     40  C   UNL     1      -1.909  18.765   5.329  1.00  0.00     0.026 C 
BRANCH  40  41
ATOM     41  C   UNL     1      -0.522  18.589   4.711  1.00  0.00     0.146 C 
BRANCH  41  42
ATOM     42  N   UNL     1      -0.604  18.737   3.264  1.00  0.00    -0.254 NA
ATOM     43  C   UNL     1      -0.516  19.901   2.740  1.00  0.00     0.185 C 
ATOM     44  N   UNL     1      -0.347  21.102   3.324  1.00  0.00    -0.370 N 
ATOM     45  N   UNL     1      -0.599  20.017   1.405  1.00  0.00    -0.370 N 
ATOM     46  H   UNL     1      -0.540  21.950   2.819  1.00  0.00     0.159 HD
ATOM     47  H   UNL     1      -0.252  21.196   4.331  1.00  0.00     0.159 HD
ATOM     48  H   UNL     1      -0.718  19.157   0.887  1.00  0.00     0.159 HD
ATOM     49  H   UNL     1      -0.307  20.842   0.911  1.00  0.00     0.159 HD
ENDBRANCH  41  42
ENDBRANCH  40  41
ENDBRANCH  39  40
ENDBRANCH  38  39
ENDBRANCH  36  38
ENDBRANCH   5  34
BRANCH   8  50
ATOM     50  O   UNL     1       0.912  15.544   1.365  1.00  0.00    -0.245 OA
BRANCH  50  51
ATOM     51  S   UNL     1       1.938  16.790   1.160  1.00  0.00     0.397 S 
ATOM     52  O   UNL     1       1.231  17.840   0.462  1.00  0.00    -0.169 OA
ATOM     53  O   UNL     1       3.216  16.295   0.694  1.00  0.00    -0.169 OA
BRANCH  51  54
ATOM     54  O   UNL     1       2.130  17.318   2.667  1.00  0.00    -0.264 OA
ATOM     55  H   UNL     1       2.252  18.289   2.629  1.00  0.00     0.236 HD
ENDBRANCH  51  54
ENDBRANCH  50  51
ENDBRANCH   8  50
TORSDOF 19
ENDMDL
MODEL 4
REMARK VINA RESULT:    -6.863      2.873      6.977
REMARK INTER + INTRA:         -17.686
REMARK INTER:                 -12.879
REMARK INTRA:                  -4.808
REMARK UNBOUND:                -3.803
REMARK SMILES CC[C@@H](C)[C@@H](NC(=O)[C@@H](O)Cc1ccc(O)c(Cl)c1)C(=O)N1[C@H](C(=O)NCCCCN=C(N)N)C[C@H]2CC[C@H](OS(=O)(=O)O)C[C@@H]21
REMARK SMILES IDX 22 1 36 2 46 3 35 4 23 5 45 6 37 7 39 8 38 9 20 10 21 11
REMARK SMILES IDX 5 12 6 13 7 14 8 15 9 17 11 18 12 19 17 20 19 21 15 22 14 23
REMARK SMILES IDX 13 24 18 25 16 26 10 28 3 30 4 31 2 32 1 33 24 34 25 35
REMARK SMILES IDX 26 36 27 38 28 39 29 40 30 41 31 42 32 43 33 44 34 45 40 50
REMARK SMILES IDX 41 51 42 52 43 53 44 54
REMARK H PARENT 6 16 16 27 10 29 26 37 33 46 33 47 34 48 34 49 44 55
ROOT
ATOM      1  N   UNL     1      -1.392  17.327   1.693  1.00  0.00    -0.326 N 
ATOM      2  C   UNL     1      -0.675  16.301  -0.300  1.00  0.00     0.014 C 
ATOM      3  C   UNL     1      -0.270  16.552   1.155  1.00  0.00     0.091 C 
ATOM      4  C   UNL     1      -1.420  17.575  -0.666  1.00  0.00     0.041 C 
ATOM      5  C   UNL     1      -2.291  17.752   0.592  1.00  0.00     0.175 C 
ATOM      6  C   UNL     1       0.059  15.209   1.804  1.00  0.00     0.059 C 
ATOM      7  C   UNL     1       0.521  15.874  -1.129  1.00  0.00     0.008 C 
ATOM      8  C   UNL     1       0.655  14.175   0.823  1.00  0.00     0.143 C 
ATOM      9  C   UNL     1       1.379  14.849  -0.360  1.00  0.00     0.034 C 
ENDROOT
BRANCH   1  10
ATOM     10  C   UNL     1      -1.579  17.857   2.959  1.00  0.00     0.246 C 
ATOM     11  O   UNL     1      -1.665  19.082   3.091  1.00  0.00    -0.272 OA
BRANCH  10  12
ATOM     12  C   UNL     1      -1.719  16.899   4.178  1.00  0.00     0.174 C 
BRANCH  12  13
ATOM     13  N   UNL     1      -2.689  15.847   3.876  1.00  0.00    -0.342 N 
ATOM     14  C   UNL     1      -2.563  14.527   4.247  1.00  0.00     0.249 C 
ATOM     15  O   UNL     1      -1.626  14.089   4.903  1.00  0.00    -0.272 OA
ATOM     16  H   UNL     1      -3.435  16.026   3.209  1.00  0.00     0.164 HD
BRANCH  14  17
ATOM     17  C   UNL     1      -3.745  13.658   3.765  1.00  0.00     0.207 C 
BRANCH  17  18
ATOM     18  C   UNL     1      -3.828  12.366   4.584  1.00  0.00     0.077 C 
BRANCH  18  19
ATOM     19  C   UNL     1      -5.176  12.210   5.252  1.00  0.00    -0.043 A 
ATOM     20  C   UNL     1      -7.072  10.827   5.864  1.00  0.00     0.083 A 
ATOM     21  C   UNL     1      -5.807  10.957   5.290  1.00  0.00     0.028 A 
ATOM     22  C   UNL     1      -7.714  11.944   6.400  1.00  0.00     0.134 A 
ATOM     23  C   UNL     1      -7.101  13.191   6.368  1.00  0.00     0.048 A 
ATOM     24  C   UNL     1      -5.835  13.325   5.793  1.00  0.00     0.008 A 
ATOM     25  Cl  UNL     1      -7.831   9.279   5.901  1.00  0.00    -0.080 Cl
BRANCH  22  26
ATOM     26  O   UNL     1      -8.959  11.867   6.963  1.00  0.00    -0.506 OA
ATOM     27  H   UNL     1      -9.228  12.780   7.175  1.00  0.00     0.293 HD
ENDBRANCH  22  26
ENDBRANCH  18  19
ENDBRANCH  17  18
BRANCH  17  28
ATOM     28  O   UNL     1      -3.612  13.332   2.372  1.00  0.00    -0.383 OA
ATOM     29  H   UNL     1      -2.674  13.062   2.244  1.00  0.00     0.211 HD
ENDBRANCH  17  28
ENDBRANCH  14  17
ENDBRANCH  12  13
BRANCH  12  30
ATOM     30  C   UNL     1      -2.050  17.651   5.495  1.00  0.00     0.018 C 
ATOM     31  C   UNL     1      -1.151  17.164   6.642  1.00  0.00     0.010 C 
BRANCH  30  32
ATOM     32  C   UNL     1      -3.539  17.553   5.909  1.00  0.00     0.002 C 
ATOM     33  C   UNL     1      -3.826  16.649   7.101  1.00  0.00     0.004 C 
ENDBRANCH  30  32
ENDBRANCH  12  30
ENDBRANCH  10  12
ENDBRANCH   1  10
BRANCH   5  34
ATOM     34  C   UNL     1      -3.558  16.858   0.540  1.00  0.00     0.242 C 
ATOM     35  O   UNL     1      -3.588  15.730   1.031  1.00  0.00    -0.273 OA
ATOM     36  N   UNL     1      -4.627  17.396  -0.142  1.00  0.00    -0.354 N 
ATOM     37  H   UNL     1      -4.502  18.284  -0.630  1.00  0.00     0.163 HD
BRANCH  36  38
ATOM     38  C   UNL     1      -5.947  16.800  -0.105  1.00  0.00     0.116 C 
BRANCH  38  39
ATOM     39  C   UNL     1      -6.764  17.420   1.026  1.00  0.00     0.023 C 
BRANCH  39  40
ATOM     40  C   UNL     1      -7.815  16.462   1.577  1.00  0.00     0.026 C 
BRANCH  40  41
ATOM     41  C   UNL     1      -7.282  15.718   2.801  1.00  0.00     0.146 C 
BRANCH  41  42
ATOM     42  N   UNL     1      -8.136  14.574   3.093  1.00  0.00    -0.254 NA
ATOM     43  C   UNL     1      -7.809  13.413   2.664  1.00  0.00     0.185 C 
ATOM     44  N   UNL     1      -6.741  13.027   1.942  1.00  0.00    -0.370 N 
ATOM     45  N   UNL     1      -8.612  12.373   2.941  1.00  0.00    -0.370 N 
ATOM     46  H   UNL     1      -6.736  12.138   1.471  1.00  0.00     0.159 HD
ATOM     47  H   UNL     1      -6.024  13.686   1.657  1.00  0.00     0.159 HD
ATOM     48  H   UNL     1      -9.437  12.576   3.490  1.00  0.00     0.159 HD
ATOM     49  H   UNL     1      -8.315  11.418   2.851  1.00  0.00     0.159 HD
ENDBRANCH  41  42
ENDBRANCH  40  41
ENDBRANCH  39  40
ENDBRANCH  38  39
ENDBRANCH  36  38
ENDBRANCH   5  34
BRANCH   8  50
ATOM     50  O   UNL     1      -0.380  13.338   0.305  1.00  0.00    -0.245 OA
BRANCH  50  51
ATOM     51  S   UNL     1      -0.702  11.918   1.029  1.00  0.00     0.397 S 
ATOM     52  O   UNL     1       0.436  11.048   0.831  1.00  0.00    -0.169 OA
ATOM     53  O   UNL     1      -2.047  11.497   0.695  1.00  0.00    -0.169 OA
BRANCH  51  54
ATOM     54  O   UNL     1      -0.680  12.322   2.585  1.00  0.00    -0.264 OA
ATOM     55  H   UNL     1       0.093  12.903   2.731  1.00  0.00     0.236 HD
ENDBRANCH  51  54
ENDBRANCH  50  51
ENDBRANCH   8  50
TORSDOF 19
ENDMDL
MODEL 5
REMARK VINA RESULT:    -6.759      3.228      5.917
REMARK INTER + INTRA:         -17.477
REMARK INTER:                 -12.781
REMARK INTRA:                  -4.696
REMARK UNBOUND:                -3.803
REMARK SMILES CC[C@@H](C)[C@@H](NC(=O)[C@@H](O)Cc1ccc(O)c(Cl)c1)C(=O)N1[C@H](C(=O)NCCCCN=C(N)N)C[C@H]2CC[C@H](OS(=O)(=O)O)C[C@@H]21
REMARK SMILES IDX 22 1 36 2 46 3 35 4 23 5 45 6 37 7 39 8 38 9 20 10 21 11
REMARK SMILES IDX 5 12 6 13 7 14 8 15 9 17 11 18 12 19 17 20 19 21 15 22 14 23
REMARK SMILES IDX 13 24 18 25 16 26 10 28 3 30 4 31 2 32 1 33 24 34 25 35
REMARK SMILES IDX 26 36 27 38 28 39 29 40 30 41 31 42 32 43 33 44 34 45 40 50
REMARK SMILES IDX 41 51 42 52 43 53 44 54
REMARK H PARENT 6 16 16 27 10 29 26 37 33 46 33 47 34 48 34 49 44 55
ROOT
ATOM      1  N   UNL     1      -3.454  14.194   4.260  1.00  0.00    -0.326 N 
ATOM      2  C   UNL     1      -2.894  15.528   2.404  1.00  0.00     0.014 C 
ATOM      3  C   UNL     1      -3.239  15.597   3.894  1.00  0.00     0.091 C 
ATOM      4  C   UNL     1      -3.751  14.372   1.914  1.00  0.00     0.041 C 
ATOM      5  C   UNL     1      -3.502  13.352   3.040  1.00  0.00     0.175 C 
ATOM      6  C   UNL     1      -2.136  16.372   4.611  1.00  0.00     0.059 C 
ATOM      7  C   UNL     1      -3.037  16.889   1.751  1.00  0.00     0.008 C 
ATOM      8  C   UNL     1      -1.482  17.469   3.742  1.00  0.00     0.143 C 
ATOM      9  C   UNL     1      -2.438  17.990   2.651  1.00  0.00     0.034 C 
ENDROOT
BRANCH   1  10
ATOM     10  C   UNL     1      -3.811  13.639   5.477  1.00  0.00     0.246 C 
ATOM     11  O   UNL     1      -2.949  13.070   6.155  1.00  0.00    -0.272 OA
BRANCH  10  12
ATOM     12  C   UNL     1      -5.276  13.780   5.984  1.00  0.00     0.174 C 
BRANCH  12  13
ATOM     13  N   UNL     1      -6.194  13.833   4.847  1.00  0.00    -0.342 N 
ATOM     14  C   UNL     1      -6.789  12.739   4.260  1.00  0.00     0.249 C 
ATOM     15  O   UNL     1      -6.635  11.588   4.649  1.00  0.00    -0.272 OA
ATOM     16  H   UNL     1      -6.295  14.698   4.321  1.00  0.00     0.164 HD
BRANCH  14  17
ATOM     17  C   UNL     1      -7.693  13.120   3.068  1.00  0.00     0.207 C 
BRANCH  17  18
ATOM     18  C   UNL     1      -8.270  14.526   3.262  1.00  0.00     0.077 C 
BRANCH  18  19
ATOM     19  C   UNL     1      -7.585  15.542   2.377  1.00  0.00    -0.043 A 
ATOM     20  C   UNL     1      -6.579  17.729   2.074  1.00  0.00     0.083 A 
ATOM     21  C   UNL     1      -7.167  16.774   2.904  1.00  0.00     0.028 A 
ATOM     22  C   UNL     1      -6.407  17.462   0.715  1.00  0.00     0.134 A 
ATOM     23  C   UNL     1      -6.816  16.246   0.180  1.00  0.00     0.048 A 
ATOM     24  C   UNL     1      -7.407  15.289   1.008  1.00  0.00     0.008 A 
ATOM     25  Cl  UNL     1      -6.072  19.236   2.741  1.00  0.00    -0.080 Cl
BRANCH  22  26
ATOM     26  O   UNL     1      -5.846  18.371  -0.140  1.00  0.00    -0.506 OA
ATOM     27  H   UNL     1      -6.570  18.943  -0.455  1.00  0.00     0.293 HD
ENDBRANCH  22  26
ENDBRANCH  18  19
ENDBRANCH  17  18
BRANCH  17  28
ATOM     28  O   UNL     1      -8.768  12.181   2.913  1.00  0.00    -0.383 OA
ATOM     29  H   UNL     1      -9.580  12.643   3.222  1.00  0.00     0.211 HD
ENDBRANCH  17  28
ENDBRANCH  14  17
ENDBRANCH  12  13
BRANCH  12  30
ATOM     30  C   UNL     1      -5.463  14.979   6.953  1.00  0.00     0.018 C 
ATOM     31  C   UNL     1      -6.147  14.529   8.253  1.00  0.00     0.010 C 
BRANCH  30  32
ATOM     32  C   UNL     1      -6.235  16.167   6.329  1.00  0.00     0.002 C 
ATOM     33  C   UNL     1      -5.427  17.445   6.147  1.00  0.00     0.004 C 
ENDBRANCH  30  32
ENDBRANCH  12  30
ENDBRANCH  10  12
ENDBRANCH   1  10
BRANCH   5  34
ATOM     34  C   UNL     1      -2.162  12.595   2.840  1.00  0.00     0.242 C 
ATOM     35  O   UNL     1      -1.285  12.571   3.703  1.00  0.00    -0.273 OA
ATOM     36  N   UNL     1      -2.003  12.000   1.609  1.00  0.00    -0.354 N 
ATOM     37  H   UNL     1      -2.713  12.156   0.892  1.00  0.00     0.163 HD
BRANCH  36  38
ATOM     38  C   UNL     1      -0.920  11.080   1.328  1.00  0.00     0.116 C 
BRANCH  38  39
ATOM     39  C   UNL     1       0.192  11.804   0.573  1.00  0.00     0.023 C 
BRANCH  39  40
ATOM     40  C   UNL     1      -0.124  13.277   0.341  1.00  0.00     0.026 C 
BRANCH  40  41
ATOM     41  C   UNL     1       1.162  14.091   0.196  1.00  0.00     0.146 C 
BRANCH  41  42
ATOM     42  N   UNL     1       1.101  14.895  -1.018  1.00  0.00    -0.254 NA
ATOM     43  C   UNL     1       0.625  16.082  -0.969  1.00  0.00     0.185 C 
ATOM     44  N   UNL     1       0.135  16.775   0.075  1.00  0.00    -0.370 N 
ATOM     45  N   UNL     1       0.574  16.804  -2.100  1.00  0.00    -0.370 N 
ATOM     46  H   UNL     1      -0.427  17.596  -0.073  1.00  0.00     0.159 HD
ATOM     47  H   UNL     1       0.111  16.382   1.011  1.00  0.00     0.159 HD
ATOM     48  H   UNL     1       0.932  16.358  -2.934  1.00  0.00     0.159 HD
ATOM     49  H   UNL     1       0.442  17.800  -2.104  1.00  0.00     0.159 HD
ENDBRANCH  41  42
ENDBRANCH  40  41
ENDBRANCH  39  40
ENDBRANCH  38  39
ENDBRANCH  36  38
ENDBRANCH   5  34
BRANCH   8  50
ATOM     50  O   UNL     1      -0.308  16.958   3.110  1.00  0.00    -0.245 OA
BRANCH  50  51
ATOM     51  S   UNL     1       1.151  17.537   3.537  1.00  0.00     0.397 S 
ATOM     52  O   UNL     1       2.116  17.077   2.564  1.00  0.00    -0.169 OA
ATOM     53  O   UNL     1       1.353  17.344   4.958  1.00  0.00    -0.169 OA
BRANCH  51  54
ATOM     54  O   UNL     1       0.977  19.113   3.270  1.00  0.00    -0.264 OA
ATOM     55  H   UNL     1       1.867  19.489   3.115  1.00  0.00     0.236 HD
ENDBRANCH  51  54
ENDBRANCH  50  51
ENDBRANCH   8  50
TORSDOF 19
ENDMDL
MODEL 6
REMARK VINA RESULT:    -6.707      3.113      5.700
REMARK INTER + INTRA:         -17.371
REMARK INTER:                 -14.096
REMARK INTRA:                  -3.275
REMARK UNBOUND:                -3.803
REMARK SMILES CC[C@@H](C)[C@@H](NC(=O)[C@@H](O)Cc1ccc(O)c(Cl)c1)C(=O)N1[C@H](C(=O)NCCCCN=C(N)N)C[C@H]2CC[C@H](OS(=O)(=O)O)C[C@@H]21
REMARK SMILES IDX 22 1 36 2 46 3 35 4 23 5 45 6 37 7 39 8 38 9 20 10 21 11
REMARK SMILES IDX 5 12 6 13 7 14 8 15 9 17 11 18 12 19 17 20 19 21 15 22 14 23
REMARK SMILES IDX 13 24 18 25 16 26 10 28 3 30 4 31 2 32 1 33 24 34 25 35
REMARK SMILES IDX 26 36 27 38 28 39 29 40 30 41 31 42 32 43 33 44 34 45 40 50
REMARK SMILES IDX 41 51 42 52 43 53 44 54
REMARK H PARENT 6 16 16 27 10 29 26 37 33 46 33 47 34 48 34 49 44 55
ROOT
ATOM      1  N   UNL     1      -3.807  15.702   2.481  1.00  0.00    -0.326 N 
ATOM      2  C   UNL     1      -2.130  16.596   1.092  1.00  0.00     0.014 C 
ATOM      3  C   UNL     1      -3.090  16.955   2.230  1.00  0.00     0.091 C 
ATOM      4  C   UNL     1      -2.935  15.596   0.278  1.00  0.00     0.041 C 
ATOM      5  C   UNL     1      -3.508  14.722   1.409  1.00  0.00     0.175 C 
ATOM      6  C   UNL     1      -2.279  17.567   3.371  1.00  0.00     0.059 C 
ATOM      7  C   UNL     1      -1.595  17.845   0.419  1.00  0.00     0.008 C 
ATOM      8  C   UNL     1      -1.038  18.355   2.899  1.00  0.00     0.143 C 
ATOM      9  C   UNL     1      -1.212  18.908   1.470  1.00  0.00     0.034 C 
ENDROOT
BRANCH   1  10
ATOM     10  C   UNL     1      -4.815  15.423   3.389  1.00  0.00     0.246 C 
ATOM     11  O   UNL     1      -5.358  16.356   3.990  1.00  0.00    -0.272 OA
BRANCH  10  12
ATOM     12  C   UNL     1      -5.270  13.950   3.600  1.00  0.00     0.174 C 
BRANCH  12  13
ATOM     13  N   UNL     1      -6.719  13.846   3.431  1.00  0.00    -0.342 N 
ATOM     14  C   UNL     1      -7.351  13.369   2.305  1.00  0.00     0.249 C 
ATOM     15  O   UNL     1      -6.760  12.949   1.318  1.00  0.00    -0.272 OA
ATOM     16  H   UNL     1      -7.337  14.300   4.099  1.00  0.00     0.164 HD
BRANCH  14  17
ATOM     17  C   UNL     1      -8.889  13.402   2.426  1.00  0.00     0.207 C 
BRANCH  17  18
ATOM     18  C   UNL     1      -9.314  14.258   3.624  1.00  0.00     0.077 C 
BRANCH  18  19
ATOM     19  C   UNL     1     -10.137  13.467   4.616  1.00  0.00    -0.043 A 
ATOM     20  C   UNL     1     -10.274  12.073   6.596  1.00  0.00     0.083 A 
ATOM     21  C   UNL     1      -9.519  12.843   5.711  1.00  0.00     0.028 A 
ATOM     22  C   UNL     1     -11.646  11.920   6.394  1.00  0.00     0.134 A 
ATOM     23  C   UNL     1     -12.271  12.532   5.313  1.00  0.00     0.048 A 
ATOM     24  C   UNL     1     -11.517  13.302   4.424  1.00  0.00     0.008 A 
ATOM     25  Cl  UNL     1      -9.497  11.314   7.936  1.00  0.00    -0.080 Cl
BRANCH  22  26
ATOM     26  O   UNL     1     -12.426  11.167   7.229  1.00  0.00    -0.506 OA
ATOM     27  H   UNL     1     -13.232  11.686   7.404  1.00  0.00     0.293 HD
ENDBRANCH  22  26
ENDBRANCH  18  19
ENDBRANCH  17  18
BRANCH  17  28
ATOM     28  O   UNL     1      -9.425  12.077   2.572  1.00  0.00    -0.383 OA
ATOM     29  H   UNL     1     -10.387  12.150   2.375  1.00  0.00     0.211 HD
ENDBRANCH  17  28
ENDBRANCH  14  17
ENDBRANCH  12  13
BRANCH  12  30
ATOM     30  C   UNL     1      -4.788  13.361   4.954  1.00  0.00     0.018 C 
ATOM     31  C   UNL     1      -4.127  11.989   4.749  1.00  0.00     0.010 C 
BRANCH  30  32
ATOM     32  C   UNL     1      -5.905  13.260   6.020  1.00  0.00     0.002 C 
ATOM     33  C   UNL     1      -6.108  11.875   6.621  1.00  0.00     0.004 C 
ENDBRANCH  30  32
ENDBRANCH  12  30
ENDBRANCH  10  12
ENDBRANCH   1  10
BRANCH   5  34
ATOM     34  C   UNL     1      -2.477  13.670   1.897  1.00  0.00     0.242 C 
ATOM     35  O   UNL     1      -1.717  13.882   2.842  1.00  0.00    -0.273 OA
ATOM     36  N   UNL     1      -2.436  12.505   1.163  1.00  0.00    -0.354 N 
ATOM     37  H   UNL     1      -3.005  12.436   0.318  1.00  0.00     0.163 HD
BRANCH  36  38
ATOM     38  C   UNL     1      -1.694  11.341   1.601  1.00  0.00     0.116 C 
BRANCH  38  39
ATOM     39  C   UNL     1      -0.698  10.925   0.522  1.00  0.00     0.023 C 
BRANCH  39  40
ATOM     40  C   UNL     1       0.633  11.660   0.643  1.00  0.00     0.026 C 
BRANCH  40  41
ATOM     41  C   UNL     1       0.655  12.893  -0.261  1.00  0.00     0.146 C 
BRANCH  41  42
ATOM     42  N   UNL     1       0.930  14.082   0.535  1.00  0.00    -0.254 NA
ATOM     43  C   UNL     1       1.348  15.146  -0.040  1.00  0.00     0.185 C 
ATOM     44  N   UNL     1       1.598  15.386  -1.341  1.00  0.00    -0.370 N 
ATOM     45  N   UNL     1       1.600  16.230   0.712  1.00  0.00    -0.370 N 
ATOM     46  H   UNL     1       2.151  16.178  -1.619  1.00  0.00     0.159 HD
ATOM     47  H   UNL     1       1.448  14.676  -2.052  1.00  0.00     0.159 HD
ATOM     48  H   UNL     1       1.429  16.137   1.704  1.00  0.00     0.159 HD
ATOM     49  H   UNL     1       1.698  17.151   0.323  1.00  0.00     0.159 HD
ENDBRANCH  41  42
ENDBRANCH  40  41
ENDBRANCH  39  40
ENDBRANCH  38  39
ENDBRANCH  36  38
ENDBRANCH   5  34
BRANCH   8  50
ATOM     50  O   UNL     1       0.115  17.514   2.922  1.00  0.00    -0.245 OA
BRANCH  50  51
ATOM     51  S   UNL     1       1.362  17.887   3.897  1.00  0.00     0.397 S 
ATOM     52  O   UNL     1       2.583  17.733   3.139  1.00  0.00    -0.169 OA
ATOM     53  O   UNL     1       1.181  17.248   5.184  1.00  0.00    -0.169 OA
BRANCH  51  54
ATOM     54  O   UNL     1       1.168  19.471   4.098  1.00  0.00    -0.264 OA
ATOM     55  H   UNL     1       0.342  19.608   4.605  1.00  0.00     0.236 HD
ENDBRANCH  51  54
ENDBRANCH  50  51
ENDBRANCH   8  50
TORSDOF 19
ENDMDL
MODEL 7
REMARK VINA RESULT:    -6.618      3.417      6.237
REMARK INTER + INTRA:         -17.192
REMARK INTER:                 -13.684
REMARK INTRA:                  -3.508
REMARK UNBOUND:                -3.803
REMARK SMILES CC[C@@H](C)[C@@H](NC(=O)[C@@H](O)Cc1ccc(O)c(Cl)c1)C(=O)N1[C@H](C(=O)NCCCCN=C(N)N)C[C@H]2CC[C@H](OS(=O)(=O)O)C[C@@H]21
REMARK SMILES IDX 22 1 36 2 46 3 35 4 23 5 45 6 37 7 39 8 38 9 20 10 21 11
REMARK SMILES IDX 5 12 6 13 7 14 8 15 9 17 11 18 12 19 17 20 19 21 15 22 14 23
REMARK SMILES IDX 13 24 18 25 16 26 10 28 3 30 4 31 2 32 1 33 24 34 25 35
REMARK SMILES IDX 26 36 27 38 28 39 29 40 30 41 31 42 32 43 33 44 34 45 40 50
REMARK SMILES IDX 41 51 42 52 43 53 44 54
REMARK H PARENT 6 16 16 27 10 29 26 37 33 46 33 47 34 48 34 49 44 55
ROOT
ATOM      1  N   UNL     1      -3.557  13.871   2.735  1.00  0.00    -0.326 N 
ATOM      2  C   UNL     1      -1.345  13.068   2.759  1.00  0.00     0.014 C 
ATOM      3  C   UNL     1      -2.535  13.332   1.833  1.00  0.00     0.091 C 
ATOM      4  C   UNL     1      -2.017  12.642   4.055  1.00  0.00     0.041 C 
ATOM      5  C   UNL     1      -3.130  13.702   4.146  1.00  0.00     0.175 C 
ATOM      6  C   UNL     1      -2.060  14.205   0.673  1.00  0.00     0.059 C 
ATOM      7  C   UNL     1      -0.342  12.139   2.101  1.00  0.00     0.008 C 
ATOM      8  C   UNL     1      -0.589  13.960   0.272  1.00  0.00     0.143 C 
ATOM      9  C   UNL     1      -0.123  12.533   0.625  1.00  0.00     0.034 C 
ENDROOT
BRANCH   1  10
ATOM     10  C   UNL     1      -4.854  14.275   2.467  1.00  0.00     0.246 C 
ATOM     11  O   UNL     1      -5.107  14.803   1.378  1.00  0.00    -0.272 OA
BRANCH  10  12
ATOM     12  C   UNL     1      -5.971  14.017   3.520  1.00  0.00     0.174 C 
BRANCH  12  13
ATOM     13  N   UNL     1      -6.005  12.599   3.874  1.00  0.00    -0.342 N 
ATOM     14  C   UNL     1      -5.982  12.105   5.159  1.00  0.00     0.249 C 
ATOM     15  O   UNL     1      -5.958  12.809   6.160  1.00  0.00    -0.272 OA
ATOM     16  H   UNL     1      -5.868  11.896   3.152  1.00  0.00     0.164 HD
BRANCH  14  17
ATOM     17  C   UNL     1      -6.011  10.562   5.204  1.00  0.00     0.207 C 
BRANCH  17  18
ATOM     18  C   UNL     1      -7.421  10.044   4.904  1.00  0.00     0.077 C 
BRANCH  18  19
ATOM     19  C   UNL     1      -8.467  10.741   5.745  1.00  0.00    -0.043 A 
ATOM     20  C   UNL     1      -9.452  11.213   7.911  1.00  0.00     0.083 A 
ATOM     21  C   UNL     1      -8.456  10.609   7.142  1.00  0.00     0.028 A 
ATOM     22  C   UNL     1     -10.461  11.950   7.292  1.00  0.00     0.134 A 
ATOM     23  C   UNL     1     -10.484  12.090   5.909  1.00  0.00     0.048 A 
ATOM     24  C   UNL     1      -9.490  11.485   5.136  1.00  0.00     0.008 A 
ATOM     25  Cl  UNL     1      -9.422  11.038   9.627  1.00  0.00    -0.080 Cl
BRANCH  22  26
ATOM     26  O   UNL     1     -11.464  12.552   8.003  1.00  0.00    -0.506 OA
ATOM     27  H   UNL     1     -12.152  11.875   8.145  1.00  0.00     0.293 HD
ENDBRANCH  22  26
ENDBRANCH  18  19
ENDBRANCH  17  18
BRANCH  17  28
ATOM     28  O   UNL     1      -5.587  10.074   6.487  1.00  0.00    -0.383 OA
ATOM     29  H   UNL     1      -6.253   9.402   6.757  1.00  0.00     0.211 HD
ENDBRANCH  17  28
ENDBRANCH  14  17
ENDBRANCH  12  13
BRANCH  12  30
ATOM     30  C   UNL     1      -7.358  14.548   3.065  1.00  0.00     0.018 C 
ATOM     31  C   UNL     1      -8.170  15.054   4.268  1.00  0.00     0.010 C 
BRANCH  30  32
ATOM     32  C   UNL     1      -8.185  13.515   2.261  1.00  0.00     0.002 C 
ATOM     33  C   UNL     1      -9.694  13.721   2.296  1.00  0.00     0.004 C 
ENDBRANCH  30  32
ENDBRANCH  12  30
ENDBRANCH  10  12
ENDBRANCH   1  10
BRANCH   5  34
ATOM     34  C   UNL     1      -2.600  15.040   4.724  1.00  0.00     0.242 C 
ATOM     35  O   UNL     1      -2.679  16.102   4.106  1.00  0.00    -0.273 OA
ATOM     36  N   UNL     1      -1.986  14.945   5.954  1.00  0.00    -0.354 N 
ATOM     37  H   UNL     1      -1.844  14.020   6.361  1.00  0.00     0.163 HD
BRANCH  36  38
ATOM     38  C   UNL     1      -1.629  16.113   6.732  1.00  0.00     0.116 C 
BRANCH  38  39
ATOM     39  C   UNL     1      -0.116  16.313   6.703  1.00  0.00     0.023 C 
BRANCH  39  40
ATOM     40  C   UNL     1       0.276  17.783   6.601  1.00  0.00     0.026 C 
BRANCH  40  41
ATOM     41  C   UNL     1      -0.266  18.400   5.311  1.00  0.00     0.146 C 
BRANCH  41  42
ATOM     42  N   UNL     1       0.831  18.644   4.384  1.00  0.00    -0.254 NA
ATOM     43  C   UNL     1       1.051  17.817   3.432  1.00  0.00     0.185 C 
ATOM     44  N   UNL     1       0.408  16.681   3.106  1.00  0.00    -0.370 N 
ATOM     45  N   UNL     1       2.070  18.059   2.590  1.00  0.00    -0.370 N 
ATOM     46  H   UNL     1       0.834  16.009   2.491  1.00  0.00     0.159 HD
ATOM     47  H   UNL     1      -0.398  16.356   3.631  1.00  0.00     0.159 HD
ATOM     48  H   UNL     1       2.602  18.901   2.760  1.00  0.00     0.159 HD
ATOM     49  H   UNL     1       2.159  17.602   1.700  1.00  0.00     0.159 HD
ENDBRANCH  41  42
ENDBRANCH  40  41
ENDBRANCH  39  40
ENDBRANCH  38  39
ENDBRANCH  36  38
ENDBRANCH   5  34
BRANCH   8  50
ATOM     50  O   UNL     1       0.262  14.893   0.938  1.00  0.00    -0.245 OA
BRANCH  50  51
ATOM     51  S   UNL     1       1.646  15.367   0.227  1.00  0.00     0.397 S 
ATOM     52  O   UNL     1       1.752  14.683  -1.042  1.00  0.00    -0.169 OA
ATOM     53  O   UNL     1       2.723  15.343   1.195  1.00  0.00    -0.169 OA
BRANCH  51  54
ATOM     54  O   UNL     1       1.332  16.903  -0.128  1.00  0.00    -0.264 OA
ATOM     55  H   UNL     1       1.651  17.453   0.616  1.00  0.00     0.236 HD
ENDBRANCH  51  54
ENDBRANCH  50  51
ENDBRANCH   8  50
TORSDOF 19
ENDMDL
MODEL 8
REMARK VINA RESULT:    -6.605      3.692      6.798
REMARK INTER + INTRA:         -17.165
REMARK INTER:                 -12.148
REMARK INTRA:                  -5.016
REMARK UNBOUND:                -3.803
REMARK SMILES CC[C@@H](C)[C@@H](NC(=O)[C@@H](O)Cc1ccc(O)c(Cl)c1)C(=O)N1[C@H](C(=O)NCCCCN=C(N)N)C[C@H]2CC[C@H](OS(=O)(=O)O)C[C@@H]21
REMARK SMILES IDX 22 1 36 2 46 3 35 4 23 5 45 6 37 7 39 8 38 9 20 10 21 11
REMARK SMILES IDX 5 12 6 13 7 14 8 15 9 17 11 18 12 19 17 20 19 21 15 22 14 23
REMARK SMILES IDX 13 24 18 25 16 26 10 28 3 30 4 31 2 32 1 33 24 34 25 35
REMARK SMILES IDX 26 36 27 38 28 39 29 40 30 41 31 42 32 43 33 44 34 45 40 50
REMARK SMILES IDX 41 51 42 52 43 53 44 54
REMARK H PARENT 6 16 16 27 10 29 26 37 33 46 33 47 34 48 34 49 44 55
ROOT
ATOM      1  N   UNL     1      -3.811  13.925   3.488  1.00  0.00    -0.326 N 
ATOM      2  C   UNL     1      -1.852  12.711   3.008  1.00  0.00     0.014 C 
ATOM      3  C   UNL     1      -3.018  13.453   2.349  1.00  0.00     0.091 C 
ATOM      4  C   UNL     1      -2.500  12.097   4.240  1.00  0.00     0.041 C 
ATOM      5  C   UNL     1      -3.324  13.297   4.741  1.00  0.00     0.175 C 
ATOM      6  C   UNL     1      -2.447  14.491   1.385  1.00  0.00     0.059 C 
ATOM      7  C   UNL     1      -1.150  11.810   2.011  1.00  0.00     0.008 C 
ATOM      8  C   UNL     1      -1.110  14.068   0.738  1.00  0.00     0.143 C 
ATOM      9  C   UNL     1      -0.963  12.535   0.662  1.00  0.00     0.034 C 
ENDROOT
BRANCH   1  10
ATOM     10  C   UNL     1      -4.995  14.642   3.509  1.00  0.00     0.246 C 
ATOM     11  O   UNL     1      -5.096  15.615   4.263  1.00  0.00    -0.272 OA
BRANCH  10  12
ATOM     12  C   UNL     1      -6.155  14.236   2.553  1.00  0.00     0.174 C 
BRANCH  12  13
ATOM     13  N   UNL     1      -6.581  15.393   1.766  1.00  0.00    -0.342 N 
ATOM     14  C   UNL     1      -7.409  16.395   2.219  1.00  0.00     0.249 C 
ATOM     15  O   UNL     1      -7.863  16.444   3.355  1.00  0.00    -0.272 OA
ATOM     16  H   UNL     1      -6.413  15.409   0.763  1.00  0.00     0.164 HD
BRANCH  14  17
ATOM     17  C   UNL     1      -7.688  17.468   1.145  1.00  0.00     0.207 C 
BRANCH  17  18
ATOM     18  C   UNL     1      -6.910  18.751   1.455  1.00  0.00     0.077 C 
BRANCH  18  19
ATOM     19  C   UNL     1      -5.423  18.571   1.249  1.00  0.00    -0.043 A 
ATOM     20  C   UNL     1      -3.558  17.932  -0.165  1.00  0.00     0.083 A 
ATOM     21  C   UNL     1      -4.926  18.145   0.007  1.00  0.00     0.028 A 
ATOM     22  C   UNL     1      -2.680  18.141   0.900  1.00  0.00     0.134 A 
ATOM     23  C   UNL     1      -3.158  18.562   2.135  1.00  0.00     0.048 A 
ATOM     24  C   UNL     1      -4.527  18.775   2.310  1.00  0.00     0.008 A 
ATOM     25  Cl  UNL     1      -2.967  17.409  -1.698  1.00  0.00    -0.080 Cl
BRANCH  22  26
ATOM     26  O   UNL     1      -1.332  17.935   0.782  1.00  0.00    -0.506 OA
ATOM     27  H   UNL     1      -1.160  17.025   1.088  1.00  0.00     0.293 HD
ENDBRANCH  22  26
ENDBRANCH  18  19
ENDBRANCH  17  18
BRANCH  17  28
ATOM     28  O   UNL     1      -9.090  17.768   1.065  1.00  0.00    -0.383 OA
ATOM     29  H   UNL     1      -9.483  17.080   0.481  1.00  0.00     0.211 HD
ENDBRANCH  17  28
ENDBRANCH  14  17
ENDBRANCH  12  13
BRANCH  12  30
ATOM     30  C   UNL     1      -7.337  13.559   3.299  1.00  0.00     0.018 C 
ATOM     31  C   UNL     1      -6.827  12.470   4.256  1.00  0.00     0.010 C 
BRANCH  30  32
ATOM     32  C   UNL     1      -8.414  12.974   2.353  1.00  0.00     0.002 C 
ATOM     33  C   UNL     1      -9.807  13.571   2.505  1.00  0.00     0.004 C 
ENDBRANCH  30  32
ENDBRANCH  12  30
ENDBRANCH  10  12
ENDBRANCH   1  10
BRANCH   5  34
ATOM     34  C   UNL     1      -2.452  14.292   5.552  1.00  0.00     0.242 C 
ATOM     35  O   UNL     1      -1.242  14.413   5.361  1.00  0.00    -0.273 OA
ATOM     36  N   UNL     1      -3.119  14.988   6.535  1.00  0.00    -0.354 N 
ATOM     37  H   UNL     1      -4.094  14.757   6.726  1.00  0.00     0.163 HD
BRANCH  36  38
ATOM     38  C   UNL     1      -2.516  16.103   7.237  1.00  0.00     0.116 C 
BRANCH  38  39
ATOM     39  C   UNL     1      -3.183  17.407   6.806  1.00  0.00     0.023 C 
BRANCH  39  40
ATOM     40  C   UNL     1      -2.389  18.141   5.731  1.00  0.00     0.026 C 
BRANCH  40  41
ATOM     41  C   UNL     1      -0.888  17.913   5.915  1.00  0.00     0.146 C 
BRANCH  41  42
ATOM     42  N   UNL     1      -0.156  18.560   4.834  1.00  0.00    -0.254 NA
ATOM     43  C   UNL     1       0.173  17.884   3.798  1.00  0.00     0.185 C 
ATOM     44  N   UNL     1      -0.052  16.591   3.502  1.00  0.00    -0.370 N 
ATOM     45  N   UNL     1       0.852  18.498   2.815  1.00  0.00    -0.370 N 
ATOM     46  H   UNL     1       0.469  16.134   2.774  1.00  0.00     0.159 HD
ATOM     47  H   UNL     1      -0.565  15.981   4.131  1.00  0.00     0.159 HD
ATOM     48  H   UNL     1       1.055  19.478   2.955  1.00  0.00     0.159 HD
ATOM     49  H   UNL     1       0.935  18.115   1.891  1.00  0.00     0.159 HD
ENDBRANCH  41  42
ENDBRANCH  40  41
ENDBRANCH  39  40
ENDBRANCH  38  39
ENDBRANCH  36  38
ENDBRANCH   5  34
BRANCH   8  50
ATOM     50  O   UNL     1      -0.014  14.592   1.489  1.00  0.00    -0.245 OA
BRANCH  50  51
ATOM     51  S   UNL     1       1.269  15.216   0.708  1.00  0.00     0.397 S 
ATOM     52  O   UNL     1       1.007  16.617   0.466  1.00  0.00    -0.169 OA
ATOM     53  O   UNL     1       1.670  14.323  -0.359  1.00  0.00    -0.169 OA
BRANCH  51  54
ATOM     54  O   UNL     1       2.406  15.173   1.844  1.00  0.00    -0.264 OA
ATOM     55  H   UNL     1       3.110  15.803   1.585  1.00  0.00     0.236 HD
ENDBRANCH  51  54
ENDBRANCH  50  51
ENDBRANCH   8  50
TORSDOF 19
ENDMDL
MODEL 9
REMARK VINA RESULT:    -6.504      3.494      5.925
REMARK INTER + INTRA:         -16.961
REMARK INTER:                 -13.216
REMARK INTRA:                  -3.745
REMARK UNBOUND:                -3.803
REMARK SMILES CC[C@@H](C)[C@@H](NC(=O)[C@@H](O)Cc1ccc(O)c(Cl)c1)C(=O)N1[C@H](C(=O)NCCCCN=C(N)N)C[C@H]2CC[C@H](OS(=O)(=O)O)C[C@@H]21
REMARK SMILES IDX 22 1 36 2 46 3 35 4 23 5 45 6 37 7 39 8 38 9 20 10 21 11
REMARK SMILES IDX 5 12 6 13 7 14 8 15 9 17 11 18 12 19 17 20 19 21 15 22 14 23
REMARK SMILES IDX 13 24 18 25 16 26 10 28 3 30 4 31 2 32 1 33 24 34 25 35
REMARK SMILES IDX 26 36 27 38 28 39 29 40 30 41 31 42 32 43 33 44 34 45 40 50
REMARK SMILES IDX 41 51 42 52 43 53 44 54
REMARK H PARENT 6 16 16 27 10 29 26 37 33 46 33 47 34 48 34 49 44 55
ROOT
ATOM      1  N   UNL     1      -3.030  13.912   2.087  1.00  0.00    -0.326 N 
ATOM      2  C   UNL     1      -0.788  13.214   1.914  1.00  0.00     0.014 C 
ATOM      3  C   UNL     1      -1.907  13.922   1.145  1.00  0.00     0.091 C 
ATOM      4  C   UNL     1      -1.546  12.176   2.727  1.00  0.00     0.041 C 
ATOM      5  C   UNL     1      -2.718  13.034   3.241  1.00  0.00     0.175 C 
ATOM      6  C   UNL     1      -1.380  15.271   0.659  1.00  0.00     0.059 C 
ATOM      7  C   UNL     1       0.314  12.763   0.976  1.00  0.00     0.008 C 
ATOM      8  C   UNL     1       0.131  15.270   0.340  1.00  0.00     0.143 C 
ATOM      9  C   UNL     1       0.639  13.867  -0.052  1.00  0.00     0.034 C 
ENDROOT
BRANCH   1  10
ATOM     10  C   UNL     1      -4.318  14.397   1.937  1.00  0.00     0.246 C 
ATOM     11  O   UNL     1      -5.179  13.670   1.430  1.00  0.00    -0.272 OA
BRANCH  10  12
ATOM     12  C   UNL     1      -4.664  15.826   2.447  1.00  0.00     0.174 C 
BRANCH  12  13
ATOM     13  N   UNL     1      -5.971  15.817   3.105  1.00  0.00    -0.342 N 
ATOM     14  C   UNL     1      -6.186  15.521   4.432  1.00  0.00     0.249 C 
ATOM     15  O   UNL     1      -5.291  15.255   5.225  1.00  0.00    -0.272 OA
ATOM     16  H   UNL     1      -6.817  15.865   2.543  1.00  0.00     0.164 HD
BRANCH  14  17
ATOM     17  C   UNL     1      -7.678  15.580   4.821  1.00  0.00     0.207 C 
BRANCH  17  18
ATOM     18  C   UNL     1      -8.366  14.247   4.510  1.00  0.00     0.077 C 
BRANCH  18  19
ATOM     19  C   UNL     1      -7.805  13.117   5.343  1.00  0.00    -0.043 A 
ATOM     20  C   UNL     1      -7.320  12.143   7.511  1.00  0.00     0.083 A 
ATOM     21  C   UNL     1      -7.883  13.163   6.744  1.00  0.00     0.028 A 
ATOM     22  C   UNL     1      -6.677  11.073   6.887  1.00  0.00     0.134 A 
ATOM     23  C   UNL     1      -6.592  11.015   5.501  1.00  0.00     0.048 A 
ATOM     24  C   UNL     1      -7.153  12.036   4.730  1.00  0.00     0.008 A 
ATOM     25  Cl  UNL     1      -7.426  12.217   9.231  1.00  0.00    -0.080 Cl
BRANCH  22  26
ATOM     26  O   UNL     1      -6.101  10.055   7.598  1.00  0.00    -0.506 OA
ATOM     27  H   UNL     1      -5.155  10.276   7.686  1.00  0.00     0.293 HD
ENDBRANCH  22  26
ENDBRANCH  18  19
ENDBRANCH  17  18
BRANCH  17  28
ATOM     28  O   UNL     1      -8.353  16.639   4.124  1.00  0.00    -0.383 OA
ATOM     29  H   UNL     1      -8.499  16.312   3.207  1.00  0.00     0.211 HD
ENDBRANCH  17  28
ENDBRANCH  14  17
ENDBRANCH  12  13
BRANCH  12  30
ATOM     30  C   UNL     1      -4.570  16.901   1.331  1.00  0.00     0.018 C 
ATOM     31  C   UNL     1      -3.648  18.053   1.760  1.00  0.00     0.010 C 
BRANCH  30  32
ATOM     32  C   UNL     1      -5.944  17.456   0.885  1.00  0.00     0.002 C 
ATOM     33  C   UNL     1      -6.230  18.894   1.297  1.00  0.00     0.004 C 
ENDBRANCH  30  32
ENDBRANCH  12  30
ENDBRANCH  10  12
ENDBRANCH   1  10
BRANCH   5  34
ATOM     34  C   UNL     1      -2.310  13.876   4.479  1.00  0.00     0.242 C 
ATOM     35  O   UNL     1      -2.017  13.360   5.558  1.00  0.00    -0.273 OA
ATOM     36  N   UNL     1      -2.352  15.240   4.299  1.00  0.00    -0.354 N 
ATOM     37  H   UNL     1      -2.718  15.609   3.420  1.00  0.00     0.163 HD
BRANCH  36  38
ATOM     38  C   UNL     1      -1.803  16.165   5.268  1.00  0.00     0.116 C 
BRANCH  38  39
ATOM     39  C   UNL     1      -2.634  17.446   5.291  1.00  0.00     0.023 C 
BRANCH  39  40
ATOM     40  C   UNL     1      -2.193  18.407   6.390  1.00  0.00     0.026 C 
BRANCH  40  41
ATOM     41  C   UNL     1      -1.171  19.410   5.855  1.00  0.00     0.146 C 
BRANCH  41  42
ATOM     42  N   UNL     1      -1.220  19.433   4.399  1.00  0.00    -0.254 NA
ATOM     43  C   UNL     1      -0.133  19.537   3.731  1.00  0.00     0.185 C 
ATOM     44  N   UNL     1       1.139  19.634   4.158  1.00  0.00    -0.370 N 
ATOM     45  N   UNL     1      -0.199  19.560   2.389  1.00  0.00    -0.370 N 
ATOM     46  H   UNL     1       1.865  19.953   3.539  1.00  0.00     0.159 HD
ATOM     47  H   UNL     1       1.373  19.618   5.146  1.00  0.00     0.159 HD
ATOM     48  H   UNL     1      -1.123  19.483   1.985  1.00  0.00     0.159 HD
ATOM     49  H   UNL     1       0.600  19.401   1.802  1.00  0.00     0.159 HD
ENDBRANCH  41  42
ENDBRANCH  40  41
ENDBRANCH  39  40
ENDBRANCH  38  39
ENDBRANCH  36  38
ENDBRANCH   5  34
BRANCH   8  50
ATOM     50  O   UNL     1       0.871  15.720   1.475  1.00  0.00    -0.245 OA
BRANCH  50  51
ATOM     51  S   UNL     1       2.069  16.801   1.274  1.00  0.00     0.397 S 
ATOM     52  O   UNL     1       3.161  16.138   0.597  1.00  0.00    -0.169 OA
ATOM     53  O   UNL     1       2.273  17.535   2.506  1.00  0.00    -0.169 OA
BRANCH  51  54
ATOM     54  O   UNL     1       1.433  17.810   0.196  1.00  0.00    -0.264 OA
ATOM     55  H   UNL     1       2.082  18.526   0.039  1.00  0.00     0.236 HD
ENDBRANCH  51  54
ENDBRANCH  50  51
ENDBRANCH   8  50
TORSDOF 19
ENDMDL
MODEL 10
REMARK VINA RESULT:    -6.489      3.656      7.011
REMARK INTER + INTRA:         -16.929
REMARK INTER:                 -12.007
REMARK INTRA:                  -4.923
REMARK UNBOUND:                -3.803
REMARK SMILES CC[C@@H](C)[C@@H](NC(=O)[C@@H](O)Cc1ccc(O)c(Cl)c1)C(=O)N1[C@H](C(=O)NCCCCN=C(N)N)C[C@H]2CC[C@H](OS(=O)(=O)O)C[C@@H]21
REMARK SMILES IDX 22 1 36 2 46 3 35 4 23 5 45 6 37 7 39 8 38 9 20 10 21 11
REMARK SMILES IDX 5 12 6 13 7 14 8 15 9 17 11 18 12 19 17 20 19 21 15 22 14 23
REMARK SMILES IDX 13 24 18 25 16 26 10 28 3 30 4 31 2 32 1 33 24 34 25 35
REMARK SMILES IDX 26 36 27 38 28 39 29 40 30 41 31 42 32 43 33 44 34 45 40 50
REMARK SMILES IDX 41 51 42 52 43 53 44 54
REMARK H PARENT 6 16 16 27 10 29 26 37 33 46 33 47 34 48 34 49 44 55
ROOT
ATOM      1  N   UNL     1      -2.390  14.350   1.238  1.00  0.00    -0.326 N 
ATOM      2  C   UNL     1      -0.151  13.622   1.208  1.00  0.00     0.014 C 
ATOM      3  C   UNL     1      -1.141  14.551   0.498  1.00  0.00     0.091 C 
ATOM      4  C   UNL     1      -1.026  12.445   1.609  1.00  0.00     0.041 C 
ATOM      5  C   UNL     1      -2.255  13.193   2.157  1.00  0.00     0.175 C 
ATOM      6  C   UNL     1      -0.541  15.955   0.457  1.00  0.00     0.059 C 
ATOM      7  C   UNL     1       1.075  13.379   0.350  1.00  0.00     0.008 C 
ATOM      8  C   UNL     1       1.001  15.970   0.365  1.00  0.00     0.143 C 
ATOM      9  C   UNL     1       1.553  14.694  -0.301  1.00  0.00     0.034 C 
ENDROOT
BRANCH   1  10
ATOM     10  C   UNL     1      -3.639  14.912   1.039  1.00  0.00     0.246 C 
ATOM     11  O   UNL     1      -4.647  14.231   1.258  1.00  0.00    -0.272 OA
BRANCH  10  12
ATOM     12  C   UNL     1      -3.749  16.397   0.588  1.00  0.00     0.174 C 
BRANCH  12  13
ATOM     13  N   UNL     1      -3.674  17.279   1.752  1.00  0.00    -0.342 N 
ATOM     14  C   UNL     1      -2.899  18.414   1.835  1.00  0.00     0.249 C 
ATOM     15  O   UNL     1      -2.200  18.831   0.920  1.00  0.00    -0.272 OA
ATOM     16  H   UNL     1      -4.074  16.980   2.638  1.00  0.00     0.164 HD
BRANCH  14  17
ATOM     17  C   UNL     1      -3.022  19.121   3.202  1.00  0.00     0.207 C 
BRANCH  17  18
ATOM     18  C   UNL     1      -4.066  20.240   3.134  1.00  0.00     0.077 C 
BRANCH  18  19
ATOM     19  C   UNL     1      -5.460  19.726   3.416  1.00  0.00    -0.043 A 
ATOM     20  C   UNL     1      -6.937  18.155   4.527  1.00  0.00     0.083 A 
ATOM     21  C   UNL     1      -5.655  18.659   4.307  1.00  0.00     0.028 A 
ATOM     22  C   UNL     1      -8.030  18.710   3.860  1.00  0.00     0.134 A 
ATOM     23  C   UNL     1      -7.851  19.767   2.975  1.00  0.00     0.048 A 
ATOM     24  C   UNL     1      -6.569  20.273   2.751  1.00  0.00     0.008 A 
ATOM     25  Cl  UNL     1      -7.156  16.843   5.625  1.00  0.00    -0.080 Cl
BRANCH  22  26
ATOM     26  O   UNL     1      -9.304  18.242   4.035  1.00  0.00    -0.506 OA
ATOM     27  H   UNL     1      -9.693  18.756   4.767  1.00  0.00     0.293 HD
ENDBRANCH  22  26
ENDBRANCH  18  19
ENDBRANCH  17  18
BRANCH  17  28
ATOM     28  O   UNL     1      -1.761  19.670   3.615  1.00  0.00    -0.383 OA
ATOM     29  H   UNL     1      -1.069  19.114   3.191  1.00  0.00     0.211 HD
ENDBRANCH  17  28
ENDBRANCH  14  17
ENDBRANCH  12  13
BRANCH  12  30
ATOM     30  C   UNL     1      -5.007  16.669  -0.280  1.00  0.00     0.018 C 
ATOM     31  C   UNL     1      -4.634  17.438  -1.557  1.00  0.00     0.010 C 
BRANCH  30  32
ATOM     32  C   UNL     1      -6.136  17.410   0.476  1.00  0.00     0.002 C 
ATOM     33  C   UNL     1      -7.347  16.559   0.835  1.00  0.00     0.004 C 
ENDBRANCH  30  32
ENDBRANCH  12  30
ENDBRANCH  10  12
ENDBRANCH   1  10
BRANCH   5  34
ATOM     34  C   UNL     1      -2.029  13.672   3.616  1.00  0.00     0.242 C 
ATOM     35  O   UNL     1      -1.601  12.925   4.495  1.00  0.00    -0.273 OA
ATOM     36  N   UNL     1      -2.394  14.976   3.867  1.00  0.00    -0.354 N 
ATOM     37  H   UNL     1      -2.855  15.509   3.128  1.00  0.00     0.163 HD
BRANCH  36  38
ATOM     38  C   UNL     1      -2.055  15.649   5.104  1.00  0.00     0.116 C 
BRANCH  38  39
ATOM     39  C   UNL     1      -3.320  15.896   5.922  1.00  0.00     0.023 C 
BRANCH  39  40
ATOM     40  C   UNL     1      -3.437  14.952   7.114  1.00  0.00     0.026 C 
BRANCH  40  41
ATOM     41  C   UNL     1      -4.656  14.041   6.966  1.00  0.00     0.146 C 
BRANCH  41  42
ATOM     42  N   UNL     1      -5.079  14.006   5.572  1.00  0.00    -0.254 NA
ATOM     43  C   UNL     1      -5.221  12.879   4.982  1.00  0.00     0.185 C 
ATOM     44  N   UNL     1      -5.040  11.629   5.448  1.00  0.00    -0.370 N 
ATOM     45  N   UNL     1      -5.607  12.867   3.696  1.00  0.00    -0.370 N 
ATOM     46  H   UNL     1      -4.950  10.854   4.814  1.00  0.00     0.159 HD
ATOM     47  H   UNL     1      -4.760  11.454   6.408  1.00  0.00     0.159 HD
ATOM     48  H   UNL     1      -5.774  13.769   3.270  1.00  0.00     0.159 HD
ATOM     49  H   UNL     1      -5.965  12.046   3.242  1.00  0.00     0.159 HD
ENDBRANCH  41  42
ENDBRANCH  40  41
ENDBRANCH  39  40
ENDBRANCH  38  39
ENDBRANCH  36  38
ENDBRANCH   5  34
BRANCH   8  50
ATOM     50  O   UNL     1       1.569  16.083   1.670  1.00  0.00    -0.245 OA
BRANCH  50  51
ATOM     51  S   UNL     1       1.290  17.419   2.554  1.00  0.00     0.397 S 
ATOM     52  O   UNL     1       2.546  17.844   3.130  1.00  0.00    -0.169 OA
ATOM     53  O   UNL     1       0.108  17.225   3.369  1.00  0.00    -0.169 OA
BRANCH  51  54
ATOM     54  O   UNL     1       0.938  18.504   1.421  1.00  0.00    -0.264 OA
ATOM     55  H   UNL     1       1.283  19.370   1.720  1.00  0.00     0.236 HD
ENDBRANCH  51  54
ENDBRANCH  50  51
ENDBRANCH   8  50
TORSDOF 19
ENDMDL
