MODEL 1
REMARK VINA RESULT:     8.540      0.000      0.000
REMARK INTER + INTRA:          38.370
REMARK INTER:                  24.516
REMARK INTRA:                  13.854
REMARK UNBOUND:                13.854
REMARK SMILES CCCCCC(=O)N[C@H](CC(=O)O)C(=O)N[C@H]1C(=O)N[C@H](CCCN=C(N)N)C(=O)N[C@@H]2CC[C@H](O)N(C2=O)[C@@H](CC(C)C)C(=O)N(C)[C@@H](Cc2ccccc2)C(=O)N[C@H](C(C)C)C(=O)O[C@@H]1C
REMARK SMILES IDX 30 1 31 2 29 3 32 5 35 6 37 7 34 8 38 9 33 10 39 11 36 12
REMARK SMILES IDX 40 14 41 15 42 16 43 17 44 18 45 19 46 20 47 21 48 22 49 23
REMARK SMILES IDX 50 24 51 25 52 26 56 27 53 28 55 29 54 30 57 31 58 32 59 33
REMARK SMILES IDX 60 35 61 36 62 37 63 38 64 39 65 40 66 41 67 42 68 43 21 45
REMARK SMILES IDX 20 46 18 47 19 48 17 50 16 52 14 53 15 54 9 56 8 57 6 58
REMARK SMILES IDX 7 59 5 61 4 62 3 63 2 64 1 65 10 66 11 67 12 68 13 69 22 71
REMARK SMILES IDX 23 72 24 73 25 74 26 75 27 76 28 77
REMARK H PARENT 31 4 36 13 59 34 20 49 16 55 8 60 13 70 27 78 27 79 28 80
REMARK H PARENT 28 81
REMARK Flexibility Score:  259.900
ROOT
ATOM      1  O   UNL     1       7.356   8.500  -6.056  1.00  0.00    -0.273 OA
ATOM      2  N   UNL     1       9.619   8.334  -6.345  1.00  0.00    -0.343 N 
ATOM      3  C   UNL     1       8.379   7.814  -6.041  1.00  0.00     0.243 C 
ATOM      4  H   UNL     1      10.437   7.737  -6.337  1.00  0.00     0.164 HD
ENDROOT
BRANCH   2   5
ATOM      5  C   UNL     1       9.787   9.764  -6.582  1.00  0.00     0.171 C 
ATOM      6  C   UNL     1       8.452  11.630  -8.355  1.00  0.00     0.214 C 
ATOM      7  N   UNL     1       9.638  10.942  -8.810  1.00  0.00    -0.303 N 
ATOM      8  C   UNL     1       8.432  11.865  -6.852  1.00  0.00     0.057 C 
ATOM      9  C   UNL     1      10.294  10.001  -8.033  1.00  0.00     0.247 C 
ATOM     10  C   UNL     1       8.555  10.544  -6.125  1.00  0.00     0.040 C 
ATOM     11  O   UNL     1      11.258   9.354  -8.463  1.00  0.00    -0.272 OA
BRANCH   6  12
ATOM     12  O   UNL     1       7.335  10.868  -8.749  1.00  0.00    -0.373 OA
ATOM     13  H   UNL     1       7.670   9.990  -9.029  1.00  0.00     0.213 HD
ENDBRANCH   6  12
BRANCH   7  14
ATOM     14  C   UNL     1      10.051  11.173 -10.210  1.00  0.00     0.177 C 
BRANCH  14  15
ATOM     15  C   UNL     1      11.550  10.961 -10.496  1.00  0.00     0.038 C 
BRANCH  15  16
ATOM     16  C   UNL     1      12.532  10.785  -9.316  1.00  0.00    -0.015 C 
ATOM     17  C   UNL     1      13.823  11.587  -9.506  1.00  0.00     0.007 C 
ATOM     18  C   UNL     1      12.903   9.304  -9.167  1.00  0.00     0.007 C 
ENDBRANCH  15  16
ENDBRANCH  14  15
BRANCH  14  19
ATOM     19  C   UNL     1       8.881  10.810 -11.188  1.00  0.00     0.245 C 
ATOM     20  O   UNL     1       8.553  11.677 -12.015  1.00  0.00    -0.272 OA
BRANCH  19  21
ATOM     21  N   UNL     1       8.140   9.644 -11.105  1.00  0.00    -0.332 N 
ATOM     22  C   UNL     1       8.633   8.364 -10.628  1.00  0.00     0.147 C 
BRANCH  21  23
ATOM     23  C   UNL     1       6.719   9.690 -11.549  1.00  0.00     0.178 C 
BRANCH  23  24
ATOM     24  C   UNL     1       6.367  10.880 -12.464  1.00  0.00     0.070 C 
BRANCH  24  25
ATOM     25  C   UNL     1       4.909  11.264 -12.563  1.00  0.00    -0.045 A 
ATOM     26  C   UNL     1       4.335  11.592 -13.798  1.00  0.00     0.004 A 
ATOM     27  C   UNL     1       4.108  11.302 -11.412  1.00  0.00     0.004 A 
ATOM     28  C   UNL     1       2.991  11.962 -13.878  1.00  0.00     0.000 A 
ATOM     29  C   UNL     1       2.764  11.672 -11.494  1.00  0.00     0.000 A 
ATOM     30  C   UNL     1       2.208  12.004 -12.727  1.00  0.00     0.000 A 
ENDBRANCH  24  25
ENDBRANCH  23  24
BRANCH  23  31
ATOM     31  C   UNL     1       6.193   8.317 -12.033  1.00  0.00     0.243 C 
ATOM     32  O   UNL     1       6.644   7.712 -13.002  1.00  0.00    -0.273 OA
ATOM     33  N   UNL     1       5.039   7.909 -11.387  1.00  0.00    -0.341 N 
ATOM     34  H   UNL     1       4.708   8.457 -10.590  1.00  0.00     0.164 HD
BRANCH  33  35
ATOM     35  C   UNL     1       4.299   6.701 -11.762  1.00  0.00     0.194 C 
BRANCH  35  36
ATOM     36  C   UNL     1       2.796   6.727 -11.364  1.00  0.00     0.017 C 
ATOM     37  C   UNL     1       1.996   5.657 -12.127  1.00  0.00     0.010 C 
ATOM     38  C   UNL     1       2.124   8.079 -11.631  1.00  0.00     0.010 C 
ENDBRANCH  35  36
BRANCH  35  39
ATOM     39  C   UNL     1       5.002   5.398 -11.289  1.00  0.00     0.329 C 
ATOM     40  O   UNL     1       5.037   4.361 -11.941  1.00  0.00    -0.250 OA
BRANCH  39  41
ATOM     41  O   UNL     1       5.654   5.562 -10.098  1.00  0.00    -0.458 OA
BRANCH  41  42
ATOM     42  C   UNL     1       5.196   4.740  -8.998  1.00  0.00     0.205 CG0
ATOM     43  C   UNL     1       3.846   4.152  -9.402  1.00  0.00     0.056 C 
ATOM     44  G   UNL     1       5.102   5.619  -7.734  1.00  0.00     0.000 G0
ENDBRANCH  41  42
ENDBRANCH  39  41
ENDBRANCH  35  39
ENDBRANCH  33  35
ENDBRANCH  23  31
ENDBRANCH  21  23
ENDBRANCH  19  21
ENDBRANCH  14  19
ENDBRANCH   7  14
ENDBRANCH   2   5
BRANCH   3  45
ATOM     45  C   UNL     1       8.359   6.317  -5.706  1.00  0.00     0.171 C 
BRANCH  45  46
ATOM     46  N   UNL     1       7.060   5.831  -6.153  1.00  0.00    -0.342 N 
ATOM     47  C   UNL     1       6.585   6.058  -7.420  1.00  0.00     0.247 C 
ATOM     48  O   UNL     1       7.248   6.623  -8.291  1.00  0.00    -0.273 OA
ATOM     49  H   UNL     1       6.502   5.308  -5.480  1.00  0.00     0.164 HD
BRANCH  47  50
ATOM     50  C   UNL     1       5.148   5.580  -7.671  1.00  0.00     0.212 CG0
ATOM     51  G   UNL     1       5.153   4.745  -8.967  1.00  0.00     0.000 G0
BRANCH  50  52
ATOM     52  N   UNL     1       4.783   4.806  -6.487  1.00  0.00    -0.339 N 
ATOM     53  C   UNL     1       4.437   3.477  -6.530  1.00  0.00     0.243 C 
ATOM     54  O   UNL     1       4.357   2.848  -7.581  1.00  0.00    -0.273 OA
ATOM     55  H   UNL     1       4.722   5.301  -5.599  1.00  0.00     0.164 HD
BRANCH  53  56
ATOM     56  C   UNL     1       4.006   2.897  -5.168  1.00  0.00     0.182 C 
BRANCH  56  57
ATOM     57  N   UNL     1       3.863   1.439  -5.238  1.00  0.00    -0.344 N 
ATOM     58  C   UNL     1       4.368   0.602  -4.273  1.00  0.00     0.220 C 
ATOM     59  O   UNL     1       5.034   1.007  -3.327  1.00  0.00    -0.275 OA
ATOM     60  H   UNL     1       3.234   1.072  -5.948  1.00  0.00     0.164 HD
BRANCH  58  61
ATOM     61  C   UNL     1       4.051  -0.861  -4.520  1.00  0.00     0.100 C 
BRANCH  61  62
ATOM     62  C   UNL     1       5.223  -1.656  -5.097  1.00  0.00     0.010 C 
BRANCH  62  63
ATOM     63  C   UNL     1       6.359  -0.786  -5.650  1.00  0.00     0.000 C 
BRANCH  63  64
ATOM     64  C   UNL     1       6.691  -1.048  -7.118  1.00  0.00    -0.003 C 
ATOM     65  C   UNL     1       5.988  -0.055  -8.032  1.00  0.00     0.004 C 
ENDBRANCH  63  64
ENDBRANCH  62  63
ENDBRANCH  61  62
ENDBRANCH  58  61
ENDBRANCH  56  57
BRANCH  56  66
ATOM     66  C   UNL     1       2.742   3.576  -4.644  1.00  0.00     0.157 C 
BRANCH  66  67
ATOM     67  C   UNL     1       1.630   3.505  -5.650  1.00  0.00     0.305 C 
ATOM     68  O   UNL     1       1.731   3.231  -6.837  1.00  0.00    -0.252 OA
BRANCH  67  69
ATOM     69  O   UNL     1       0.423   3.733  -5.097  1.00  0.00    -0.481 OA
ATOM     70  H   UNL     1       0.285   4.700  -5.190  1.00  0.00     0.296 HD
ENDBRANCH  67  69
ENDBRANCH  66  67
ENDBRANCH  56  66
ENDBRANCH  53  56
ENDBRANCH  50  52
ENDBRANCH  47  50
ENDBRANCH  45  46
BRANCH  45  71
ATOM     71  C   UNL     1       8.555   6.105  -4.200  1.00  0.00     0.037 C 
BRANCH  71  72
ATOM     72  C   UNL     1       9.524   7.124  -3.597  1.00  0.00     0.026 C 
BRANCH  72  73
ATOM     73  C   UNL     1      10.138   6.610  -2.296  1.00  0.00     0.146 C 
BRANCH  73  74
ATOM     74  N   UNL     1      10.927   7.693  -1.716  1.00  0.00    -0.254 NA
ATOM     75  C   UNL     1      11.750   8.311  -2.480  1.00  0.00     0.185 C 
ATOM     76  N   UNL     1      12.488   9.312  -1.976  1.00  0.00    -0.370 N 
ATOM     77  N   UNL     1      12.008   8.107  -3.784  1.00  0.00    -0.370 N 
ATOM     78  H   UNL     1      12.361   9.527  -0.997  1.00  0.00     0.159 HD
ATOM     79  H   UNL     1      13.250   9.742  -2.471  1.00  0.00     0.159 HD
ATOM     80  H   UNL     1      11.523   7.387  -4.297  1.00  0.00     0.159 HD
ATOM     81  H   UNL     1      12.594   8.733  -4.311  1.00  0.00     0.159 HD
ENDBRANCH  73  74
ENDBRANCH  72  73
ENDBRANCH  71  72
ENDBRANCH  45  71
ENDBRANCH   3  45
TORSDOF 20
ENDMDL
MODEL 2
REMARK VINA RESULT:     9.394      2.475     10.696
REMARK INTER + INTRA:          40.822
REMARK INTER:                  31.811
REMARK INTRA:                   9.011
REMARK UNBOUND:                13.854
REMARK SMILES CCCCCC(=O)N[C@H](CC(=O)O)C(=O)N[C@H]1C(=O)N[C@H](CCCN=C(N)N)C(=O)N[C@@H]2CC[C@H](O)N(C2=O)[C@@H](CC(C)C)C(=O)N(C)[C@@H](Cc2ccccc2)C(=O)N[C@H](C(C)C)C(=O)O[C@@H]1C
REMARK SMILES IDX 30 1 31 2 29 3 32 5 35 6 37 7 34 8 38 9 33 10 39 11 36 12
REMARK SMILES IDX 40 14 41 15 42 16 43 17 44 18 45 19 46 20 47 21 48 22 49 23
REMARK SMILES IDX 50 24 51 25 52 26 56 27 53 28 55 29 54 30 57 31 58 32 59 33
REMARK SMILES IDX 60 35 61 36 62 37 63 38 64 39 65 40 66 41 67 42 68 43 21 45
REMARK SMILES IDX 20 46 18 47 19 48 17 50 16 52 14 53 15 54 9 56 8 57 6 58
REMARK SMILES IDX 7 59 5 61 4 62 3 63 2 64 1 65 10 66 11 67 12 68 13 69 22 71
REMARK SMILES IDX 23 72 24 73 25 74 26 75 27 76 28 77
REMARK H PARENT 31 4 36 13 59 34 20 49 16 55 8 60 13 70 27 78 27 79 28 80
REMARK H PARENT 28 81
REMARK Flexibility Score:  259.900
ROOT
ATOM      1  O   UNL     1       5.388   4.543 -13.223  1.00  0.00    -0.273 OA
ATOM      2  N   UNL     1       3.427   5.687 -12.951  1.00  0.00    -0.343 N 
ATOM      3  C   UNL     1       4.802   5.599 -12.986  1.00  0.00     0.243 C 
ATOM      4  H   UNL     1       2.979   6.576 -12.767  1.00  0.00     0.164 HD
ENDROOT
BRANCH   2   5
ATOM      5  C   UNL     1       2.603   4.490 -13.077  1.00  0.00     0.171 C 
ATOM      6  C   UNL     1       1.041   2.969 -11.167  1.00  0.00     0.214 C 
ATOM      7  N   UNL     1       2.420   2.610 -11.403  1.00  0.00    -0.303 N 
ATOM      8  C   UNL     1       0.363   3.584 -12.381  1.00  0.00     0.057 C 
ATOM      9  C   UNL     1       3.236   3.325 -12.263  1.00  0.00     0.247 C 
ATOM     10  C   UNL     1       1.130   4.809 -12.830  1.00  0.00     0.040 C 
ATOM     11  O   UNL     1       4.439   3.064 -12.394  1.00  0.00    -0.272 OA
BRANCH   6  12
ATOM     12  O   UNL     1       1.009   3.864 -10.079  1.00  0.00    -0.373 OA
ATOM     13  H   UNL     1       0.873   3.327  -9.269  1.00  0.00     0.213 HD
ENDBRANCH   6  12
BRANCH   7  14
ATOM     14  C   UNL     1       2.981   1.524 -10.571  1.00  0.00     0.177 C 
BRANCH  14  15
ATOM     15  C   UNL     1       3.841   0.494 -11.330  1.00  0.00     0.038 C 
BRANCH  15  16
ATOM     16  C   UNL     1       4.195  -0.848 -10.652  1.00  0.00    -0.015 C 
ATOM     17  C   UNL     1       5.260  -1.630 -11.427  1.00  0.00     0.007 C 
ATOM     18  C   UNL     1       2.940  -1.722 -10.544  1.00  0.00     0.007 C 
ENDBRANCH  15  16
ENDBRANCH  14  15
BRANCH  14  19
ATOM     19  C   UNL     1       3.257   2.040  -9.117  1.00  0.00     0.245 C 
ATOM     20  O   UNL     1       2.515   2.942  -8.693  1.00  0.00    -0.272 OA
BRANCH  19  21
ATOM     21  N   UNL     1       4.330   1.633  -8.345  1.00  0.00    -0.332 N 
ATOM     22  C   UNL     1       5.671   1.369  -8.837  1.00  0.00     0.147 C 
BRANCH  21  23
ATOM     23  C   UNL     1       4.102   1.433  -6.887  1.00  0.00     0.178 C 
BRANCH  23  24
ATOM     24  C   UNL     1       4.861   0.239  -6.272  1.00  0.00     0.070 C 
BRANCH  24  25
ATOM     25  C   UNL     1       4.494  -0.156  -4.860  1.00  0.00    -0.045 A 
ATOM     26  C   UNL     1       5.315  -1.017  -4.120  1.00  0.00     0.004 A 
ATOM     27  C   UNL     1       3.318   0.333  -4.272  1.00  0.00     0.004 A 
ATOM     28  C   UNL     1       4.960  -1.391  -2.822  1.00  0.00     0.000 A 
ATOM     29  C   UNL     1       2.966  -0.041  -2.974  1.00  0.00     0.000 A 
ATOM     30  C   UNL     1       3.786  -0.905  -2.251  1.00  0.00     0.000 A 
ENDBRANCH  24  25
ENDBRANCH  23  24
BRANCH  23  31
ATOM     31  C   UNL     1       4.191   2.749  -6.076  1.00  0.00     0.243 C 
ATOM     32  O   UNL     1       4.084   2.811  -4.854  1.00  0.00    -0.273 OA
ATOM     33  N   UNL     1       4.218   3.885  -6.867  1.00  0.00    -0.341 N 
ATOM     34  H   UNL     1       4.302   3.769  -7.880  1.00  0.00     0.164 HD
BRANCH  33  35
ATOM     35  C   UNL     1       4.182   5.242  -6.317  1.00  0.00     0.194 C 
BRANCH  35  36
ATOM     36  C   UNL     1       2.761   5.728  -5.916  1.00  0.00     0.017 C 
ATOM     37  C   UNL     1       2.627   5.865  -4.389  1.00  0.00     0.010 C 
ATOM     38  C   UNL     1       1.645   4.790  -6.392  1.00  0.00     0.010 C 
ENDBRANCH  35  36
BRANCH  35  39
ATOM     39  C   UNL     1       4.914   6.274  -7.221  1.00  0.00     0.329 C 
ATOM     40  O   UNL     1       4.402   7.306  -7.637  1.00  0.00    -0.250 OA
BRANCH  39  41
ATOM     41  O   UNL     1       6.225   5.943  -7.430  1.00  0.00    -0.458 OA
BRANCH  41  42
ATOM     42  C   UNL     1       6.708   6.069  -8.789  1.00  0.00     0.205 CG0
ATOM     43  C   UNL     1       8.052   5.347  -8.862  1.00  0.00     0.056 C 
ATOM     44  G   UNL     1       6.823   7.567  -9.134  1.00  0.00     0.000 G0
ENDBRANCH  41  42
ENDBRANCH  39  41
ENDBRANCH  35  39
ENDBRANCH  33  35
ENDBRANCH  23  31
ENDBRANCH  21  23
ENDBRANCH  19  21
ENDBRANCH  14  19
ENDBRANCH   7  14
ENDBRANCH   2   5
BRANCH   3  45
ATOM     45  C   UNL     1       5.551   6.914 -12.731  1.00  0.00     0.171 C 
BRANCH  45  46
ATOM     46  N   UNL     1       5.732   6.990 -11.287  1.00  0.00    -0.342 N 
ATOM     47  C   UNL     1       6.743   7.716 -10.709  1.00  0.00     0.247 C 
ATOM     48  O   UNL     1       7.523   8.413 -11.361  1.00  0.00    -0.273 OA
ATOM     49  H   UNL     1       5.074   6.473 -10.707  1.00  0.00     0.164 HD
BRANCH  47  50
ATOM     50  C   UNL     1       6.853   7.578  -9.184  1.00  0.00     0.212 CG0
ATOM     51  G   UNL     1       6.755   6.078  -8.843  1.00  0.00     0.000 G0
BRANCH  50  52
ATOM     52  N   UNL     1       8.143   8.167  -8.832  1.00  0.00    -0.339 N 
ATOM     53  C   UNL     1       9.223   8.183  -9.680  1.00  0.00     0.243 C 
ATOM     54  O   UNL     1       9.204   7.652 -10.787  1.00  0.00    -0.273 OA
ATOM     55  H   UNL     1       8.256   8.524  -7.885  1.00  0.00     0.164 HD
BRANCH  53  56
ATOM     56  C   UNL     1      10.501   8.780  -9.057  1.00  0.00     0.182 C 
BRANCH  56  57
ATOM     57  N   UNL     1      10.279   9.154  -7.656  1.00  0.00    -0.344 N 
ATOM     58  C   UNL     1      11.208   8.913  -6.674  1.00  0.00     0.220 C 
ATOM     59  O   UNL     1      12.252   8.305  -6.883  1.00  0.00    -0.275 OA
ATOM     60  H   UNL     1       9.477   9.747  -7.460  1.00  0.00     0.164 HD
BRANCH  58  61
ATOM     61  C   UNL     1      10.792   9.436  -5.311  1.00  0.00     0.100 C 
BRANCH  61  62
ATOM     62  C   UNL     1      10.492   8.336  -4.294  1.00  0.00     0.010 C 
BRANCH  62  63
ATOM     63  C   UNL     1      11.567   8.172  -3.212  1.00  0.00     0.000 C 
BRANCH  63  64
ATOM     64  C   UNL     1      11.580   9.286  -2.167  1.00  0.00    -0.003 C 
ATOM     65  C   UNL     1      12.981   9.516  -1.617  1.00  0.00     0.004 C 
ENDBRANCH  63  64
ENDBRANCH  62  63
ENDBRANCH  61  62
ENDBRANCH  58  61
ENDBRANCH  56  57
BRANCH  56  66
ATOM     66  C   UNL     1      11.037   9.946  -9.887  1.00  0.00     0.157 C 
BRANCH  66  67
ATOM     67  C   UNL     1      11.328  11.140  -9.023  1.00  0.00     0.305 C 
ATOM     68  O   UNL     1      10.516  11.814  -8.408  1.00  0.00    -0.252 OA
BRANCH  67  69
ATOM     69  O   UNL     1      12.646  11.398  -8.934  1.00  0.00    -0.481 OA
ATOM     70  H   UNL     1      12.862  11.885  -9.757  1.00  0.00     0.296 HD
ENDBRANCH  67  69
ENDBRANCH  66  67
ENDBRANCH  56  66
ENDBRANCH  53  56
ENDBRANCH  50  52
ENDBRANCH  47  50
ENDBRANCH  45  46
BRANCH  45  71
ATOM     71  C   UNL     1       4.741   8.102 -13.262  1.00  0.00     0.037 C 
BRANCH  71  72
ATOM     72  C   UNL     1       3.889   8.753 -12.169  1.00  0.00     0.026 C 
BRANCH  72  73
ATOM     73  C   UNL     1       2.824   9.672 -12.763  1.00  0.00     0.146 C 
BRANCH  73  74
ATOM     74  N   UNL     1       2.160  10.358 -11.658  1.00  0.00    -0.254 NA
ATOM     75  C   UNL     1       0.945  10.041 -11.400  1.00  0.00     0.185 C 
ATOM     76  N   UNL     1       0.308  10.654 -10.389  1.00  0.00    -0.370 N 
ATOM     77  N   UNL     1       0.158   9.140 -12.013  1.00  0.00    -0.370 N 
ATOM     78  H   UNL     1       0.828  11.354  -9.878  1.00  0.00     0.159 HD
ATOM     79  H   UNL     1      -0.678  10.565 -10.221  1.00  0.00     0.159 HD
ATOM     80  H   UNL     1       0.506   8.599 -12.790  1.00  0.00     0.159 HD
ATOM     81  H   UNL     1      -0.746   8.893 -11.646  1.00  0.00     0.159 HD
ENDBRANCH  73  74
ENDBRANCH  72  73
ENDBRANCH  71  72
ENDBRANCH  45  71
ENDBRANCH   3  45
TORSDOF 20
ENDMDL
MODEL 3
REMARK VINA RESULT:    10.741      2.509      7.610
REMARK INTER + INTRA:          44.689
REMARK INTER:                  33.142
REMARK INTRA:                  11.548
REMARK UNBOUND:                13.854
REMARK SMILES CCCCCC(=O)N[C@H](CC(=O)O)C(=O)N[C@H]1C(=O)N[C@H](CCCN=C(N)N)C(=O)N[C@@H]2CC[C@H](O)N(C2=O)[C@@H](CC(C)C)C(=O)N(C)[C@@H](Cc2ccccc2)C(=O)N[C@H](C(C)C)C(=O)O[C@@H]1C
REMARK SMILES IDX 30 1 31 2 29 3 32 5 35 6 37 7 34 8 38 9 33 10 39 11 36 12
REMARK SMILES IDX 40 14 41 15 42 16 43 17 44 18 45 19 46 20 47 21 48 22 49 23
REMARK SMILES IDX 50 24 51 25 52 26 56 27 53 28 55 29 54 30 57 31 58 32 59 33
REMARK SMILES IDX 60 35 61 36 62 37 63 38 64 39 65 40 66 41 67 42 68 43 21 45
REMARK SMILES IDX 20 46 18 47 19 48 17 50 16 52 14 53 15 54 9 56 8 57 6 58
REMARK SMILES IDX 7 59 5 61 4 62 3 63 2 64 1 65 10 66 11 67 12 68 13 69 22 71
REMARK SMILES IDX 23 72 24 73 25 74 26 75 27 76 28 77
REMARK H PARENT 31 4 36 13 59 34 20 49 16 55 8 60 13 70 27 78 27 79 28 80
REMARK H PARENT 28 81
REMARK Flexibility Score:  259.900
ROOT
ATOM      1  O   UNL     1       3.476   6.952 -12.195  1.00  0.00    -0.273 OA
ATOM      2  N   UNL     1       5.551   6.603 -11.298  1.00  0.00    -0.343 N 
ATOM      3  C   UNL     1       4.253   6.227 -11.573  1.00  0.00     0.243 C 
ATOM      4  H   UNL     1       6.166   5.974 -10.796  1.00  0.00     0.164 HD
ENDROOT
BRANCH   2   5
ATOM      5  C   UNL     1       6.024   7.941 -11.634  1.00  0.00     0.171 C 
ATOM      6  C   UNL     1       8.668   9.126 -11.720  1.00  0.00     0.214 C 
ATOM      7  N   UNL     1       7.896   9.200 -10.502  1.00  0.00    -0.303 N 
ATOM      8  C   UNL     1       7.810   9.096 -12.975  1.00  0.00     0.057 C 
ATOM      9  C   UNL     1       6.648   8.611 -10.376  1.00  0.00     0.247 C 
ATOM     10  C   UNL     1       6.856   7.923 -12.915  1.00  0.00     0.040 C 
ATOM     11  O   UNL     1       6.031   8.604  -9.303  1.00  0.00    -0.272 OA
BRANCH   6  12
ATOM     12  O   UNL     1       9.477   7.975 -11.649  1.00  0.00    -0.373 OA
ATOM     13  H   UNL     1      10.410   8.277 -11.664  1.00  0.00     0.213 HD
ENDBRANCH   6  12
BRANCH   7  14
ATOM     14  C   UNL     1       8.555   9.809  -9.327  1.00  0.00     0.177 C 
BRANCH  14  15
ATOM     15  C   UNL     1       8.473  11.346  -9.252  1.00  0.00     0.038 C 
BRANCH  15  16
ATOM     16  C   UNL     1       9.640  12.198  -9.800  1.00  0.00    -0.015 C 
ATOM     17  C   UNL     1       9.665  12.238 -11.330  1.00  0.00     0.007 C 
ATOM     18  C   UNL     1      10.975  11.622  -9.312  1.00  0.00     0.007 C 
ENDBRANCH  15  16
ENDBRANCH  14  15
BRANCH  14  19
ATOM     19  C   UNL     1       8.485   8.836  -8.099  1.00  0.00     0.245 C 
ATOM     20  O   UNL     1       8.176   7.657  -8.337  1.00  0.00    -0.272 OA
BRANCH  19  21
ATOM     21  N   UNL     1       8.635   9.241  -6.785  1.00  0.00    -0.332 N 
ATOM     22  C   UNL     1       7.554   9.597  -5.884  1.00  0.00     0.147 C 
BRANCH  21  23
ATOM     23  C   UNL     1      10.018   9.334  -6.239  1.00  0.00     0.178 C 
BRANCH  23  24
ATOM     24  C   UNL     1      10.129  10.061  -4.883  1.00  0.00     0.070 C 
BRANCH  24  25
ATOM     25  C   UNL     1      11.230   9.612  -3.950  1.00  0.00    -0.045 A 
ATOM     26  C   UNL     1      12.577   9.767  -4.303  1.00  0.00     0.004 A 
ATOM     27  C   UNL     1      10.915   9.028  -2.714  1.00  0.00     0.004 A 
ATOM     28  C   UNL     1      13.588   9.334  -3.443  1.00  0.00     0.000 A 
ATOM     29  C   UNL     1      11.927   8.597  -1.855  1.00  0.00     0.000 A 
ATOM     30  C   UNL     1      13.263   8.748  -2.221  1.00  0.00     0.000 A 
ENDBRANCH  24  25
ENDBRANCH  23  24
BRANCH  23  31
ATOM     31  C   UNL     1      10.793   7.998  -6.328  1.00  0.00     0.243 C 
ATOM     32  O   UNL     1      11.958   7.854  -5.964  1.00  0.00    -0.273 OA
ATOM     33  N   UNL     1      10.118   7.012  -7.028  1.00  0.00    -0.341 N 
ATOM     34  H   UNL     1       9.152   7.193  -7.310  1.00  0.00     0.164 HD
BRANCH  33  35
ATOM     35  C   UNL     1      10.708   5.707  -7.339  1.00  0.00     0.194 C 
BRANCH  35  36
ATOM     36  C   UNL     1      12.011   5.784  -8.183  1.00  0.00     0.017 C 
ATOM     37  C   UNL     1      12.950   4.606  -7.869  1.00  0.00     0.010 C 
ATOM     38  C   UNL     1      12.804   7.076  -7.954  1.00  0.00     0.010 C 
ENDBRANCH  35  36
BRANCH  35  39
ATOM     39  C   UNL     1       9.678   4.716  -7.950  1.00  0.00     0.329 C 
ATOM     40  O   UNL     1       9.635   3.521  -7.684  1.00  0.00    -0.250 OA
BRANCH  39  41
ATOM     41  O   UNL     1       8.767   5.343  -8.754  1.00  0.00    -0.458 OA
BRANCH  41  42
ATOM     42  C   UNL     1       7.534   5.761  -8.121  1.00  0.00     0.205 CG0
ATOM     43  C   UNL     1       7.842   6.012  -6.646  1.00  0.00     0.056 C 
ATOM     44  G   UNL     1       6.478   4.656  -8.323  1.00  0.00     0.000 G0
ENDBRANCH  41  42
ENDBRANCH  39  41
ENDBRANCH  35  39
ENDBRANCH  33  35
ENDBRANCH  23  31
ENDBRANCH  21  23
ENDBRANCH  19  21
ENDBRANCH  14  19
ENDBRANCH   7  14
ENDBRANCH   2   5
BRANCH   3  45
ATOM     45  C   UNL     1       3.851   4.835 -11.070  1.00  0.00     0.171 C 
BRANCH  45  46
ATOM     46  N   UNL     1       4.898   4.435 -10.139  1.00  0.00    -0.342 N 
ATOM     47  C   UNL     1       5.263   5.209  -9.065  1.00  0.00     0.247 C 
ATOM     48  O   UNL     1       4.687   6.256  -8.770  1.00  0.00    -0.273 OA
ATOM     49  H   UNL     1       5.363   3.547 -10.314  1.00  0.00     0.164 HD
BRANCH  47  50
ATOM     50  C   UNL     1       6.467   4.688  -8.268  1.00  0.00     0.212 CG0
ATOM     51  G   UNL     1       7.486   5.839  -8.154  1.00  0.00     0.000 G0
BRANCH  50  52
ATOM     52  N   UNL     1       5.927   4.266  -6.978  1.00  0.00    -0.339 N 
ATOM     53  C   UNL     1       4.961   3.298  -6.844  1.00  0.00     0.243 C 
ATOM     54  O   UNL     1       4.436   2.748  -7.808  1.00  0.00    -0.273 OA
ATOM     55  H   UNL     1       6.242   4.764  -6.148  1.00  0.00     0.164 HD
BRANCH  53  56
ATOM     56  C   UNL     1       4.486   3.084  -5.392  1.00  0.00     0.182 C 
BRANCH  56  57
ATOM     57  N   UNL     1       4.897   1.768  -4.893  1.00  0.00    -0.344 N 
ATOM     58  C   UNL     1       4.881   1.450  -3.557  1.00  0.00     0.220 C 
ATOM     59  O   UNL     1       4.592   2.262  -2.685  1.00  0.00    -0.275 OA
ATOM     60  H   UNL     1       5.045   1.038  -5.585  1.00  0.00     0.164 HD
BRANCH  58  61
ATOM     61  C   UNL     1       5.290   0.016  -3.274  1.00  0.00     0.100 C 
BRANCH  61  62
ATOM     62  C   UNL     1       6.350  -0.522  -4.236  1.00  0.00     0.010 C 
BRANCH  62  63
ATOM     63  C   UNL     1       5.936  -1.802  -4.973  1.00  0.00     0.000 C 
BRANCH  63  64
ATOM     64  C   UNL     1       7.045  -2.847  -5.086  1.00  0.00    -0.003 C 
ATOM     65  C   UNL     1       6.688  -3.927  -6.097  1.00  0.00     0.004 C 
ENDBRANCH  63  64
ENDBRANCH  62  63
ENDBRANCH  61  62
ENDBRANCH  58  61
ENDBRANCH  56  57
BRANCH  56  66
ATOM     66  C   UNL     1       2.981   3.307  -5.257  1.00  0.00     0.157 C 
BRANCH  66  67
ATOM     67  C   UNL     1       2.276   2.040  -4.864  1.00  0.00     0.305 C 
ATOM     68  O   UNL     1       1.622   1.850  -3.850  1.00  0.00    -0.252 OA
BRANCH  67  69
ATOM     69  O   UNL     1       2.388   1.081  -5.802  1.00  0.00    -0.481 OA
ATOM     70  H   UNL     1       1.919   0.307  -5.425  1.00  0.00     0.296 HD
ENDBRANCH  67  69
ENDBRANCH  66  67
ENDBRANCH  56  66
ENDBRANCH  53  56
ENDBRANCH  50  52
ENDBRANCH  47  50
ENDBRANCH  45  46
BRANCH  45  71
ATOM     71  C   UNL     1       3.736   3.856 -12.244  1.00  0.00     0.037 C 
BRANCH  71  72
ATOM     72  C   UNL     1       2.282   3.479 -12.538  1.00  0.00     0.026 C 
BRANCH  72  73
ATOM     73  C   UNL     1       1.323   4.117 -11.535  1.00  0.00     0.146 C 
BRANCH  73  74
ATOM     74  N   UNL     1       0.038   4.302 -12.200  1.00  0.00    -0.254 NA
ATOM     75  C   UNL     1      -0.202   5.443 -12.734  1.00  0.00     0.185 C 
ATOM     76  N   UNL     1      -1.376   5.644 -13.354  1.00  0.00    -0.370 N 
ATOM     77  N   UNL     1       0.579   6.537 -12.775  1.00  0.00    -0.370 N 
ATOM     78  H   UNL     1      -2.027   4.872 -13.362  1.00  0.00     0.159 HD
ATOM     79  H   UNL     1      -1.690   6.546 -13.665  1.00  0.00     0.159 HD
ATOM     80  H   UNL     1       1.495   6.531 -12.352  1.00  0.00     0.159 HD
ATOM     81  H   UNL     1       0.331   7.343 -13.326  1.00  0.00     0.159 HD
ENDBRANCH  73  74
ENDBRANCH  72  73
ENDBRANCH  71  72
ENDBRANCH  45  71
ENDBRANCH   3  45
TORSDOF 20
ENDMDL
