MODEL 1
REMARK VINA RESULT:    -3.388      0.000      0.000
REMARK INTER + INTRA:          -7.144
REMARK INTER:                  -5.765
REMARK INTRA:                  -1.379
REMARK UNBOUND:                -1.379
REMARK SMILES CC[C@H](C)[C@@H]1NC(=O)[C@H]2CSC(=N2)[C@@H]([C@@H](C)CC)NC(=O)c2csc(n2)CNC(=O)[C@H]2N=C1O[C@@H]2C
REMARK SMILES IDX 27 1 25 2 22 3 26 4 23 5 24 6 20 7 19 8 21 9 14 11 12 12
REMARK SMILES IDX 11 13 10 14 13 15 9 16 15 18 16 19 17 20 18 21 28 22 29 23
REMARK SMILES IDX 30 24 31 26 32 27 35 28 33 29 34 30 36 31 5 32 6 33 7 34
REMARK SMILES IDX 8 35 3 38 4 39 2 40 1 41
REMARK H PARENT 19 10 28 25 6 36
REMARK Flexibility Score:   91.900
ROOT
ATOM      1  C   UNL     1       2.337   1.600 -13.196  1.00  0.00     0.183 C 
ENDROOT
BRANCH   1   2
ATOM      2  C   UNL     1       3.054   1.270 -11.919  1.00  0.00     0.113 A 
ATOM      3  C   UNL     1       3.801   1.487  -9.830  1.00  0.00     0.139 A 
ATOM      4  N   UNL     1       2.926   1.969 -10.806  1.00  0.00    -0.234 NA
ATOM      5  C   UNL     1       4.536   0.384 -10.216  1.00  0.00     0.101 A 
ATOM      6  S   UNL     1       4.151  -0.048 -11.832  1.00  0.00    -0.125 S 
BRANCH   3   7
ATOM      7  C   UNL     1       3.908   2.172  -8.540  1.00  0.00     0.271 C 
ATOM      8  N   UNL     1       3.095   3.277  -8.484  1.00  0.00    -0.341 N 
ATOM      9  O   UNL     1       4.659   1.815  -7.641  1.00  0.00    -0.267 OA
ATOM     10  H   UNL     1       2.508   3.434  -9.303  1.00  0.00     0.164 HD
BRANCH   8  11
ATOM     11  C   UNL     1       3.121   4.258  -7.412  1.00  0.00     0.140 C 
BRANCH  11  12
ATOM     12  C   UNL     1       3.688   5.562  -7.982  1.00  0.00     0.091 C 
ATOM     13  S   UNL     1       3.448   7.076  -7.141  1.00  0.00    -0.106 SA
ATOM     14  C   UNL     1       4.655   7.879  -8.218  1.00  0.00     0.113 C 
ATOM     15  N   UNL     1       4.293   5.605  -9.127  1.00  0.00    -0.267 NA
ATOM     16  C   UNL     1       4.639   7.019  -9.473  1.00  0.00     0.205 CG0
ATOM     17  G   UNL     1       3.655   7.588 -10.508  1.00  0.00     0.000 G0
ENDBRANCH  11  12
BRANCH  11  18
ATOM     18  C   UNL     1       1.789   4.370  -6.627  1.00  0.00     0.015 C 
ATOM     19  C   UNL     1       0.634   3.782  -7.447  1.00  0.00     0.010 C 
BRANCH  18  20
ATOM     20  C   UNL     1       1.828   3.779  -5.203  1.00  0.00     0.002 C 
ATOM     21  C   UNL     1       0.507   3.140  -4.788  1.00  0.00     0.004 C 
ENDBRANCH  18  20
ENDBRANCH  11  18
ENDBRANCH   8  11
ENDBRANCH   3   7
ENDBRANCH   1   2
BRANCH   1  22
ATOM     22  N   UNL     1       1.534   2.777 -12.950  1.00  0.00    -0.348 N 
ATOM     23  C   UNL     1       0.311   2.771 -12.337  1.00  0.00     0.249 C 
ATOM     24  O   UNL     1      -0.195   1.764 -11.854  1.00  0.00    -0.272 OA
ATOM     25  H   UNL     1       1.851   3.668 -13.330  1.00  0.00     0.163 HD
BRANCH  23  26
ATOM     26  C   UNL     1      -0.327   4.167 -12.267  1.00  0.00     0.238 C 
ATOM     27  N   UNL     1       0.586   5.088 -11.533  1.00  0.00    -0.236 NA
ATOM     28  C   UNL     1      -0.502   4.782 -13.645  1.00  0.00     0.206 C 
ATOM     29  C   UNL     1       1.000   5.899 -12.460  1.00  0.00     0.208 C 
ATOM     30  O   UNL     1       0.544   5.750 -13.728  1.00  0.00    -0.474 OA
ATOM     31  C   UNL     1      -1.838   5.496 -13.801  1.00  0.00     0.056 C 
BRANCH  29  32
ATOM     32  C   UNL     1       2.024   7.017 -12.291  1.00  0.00     0.171 C 
BRANCH  32  33
ATOM     33  N   UNL     1       3.024   6.661 -11.297  1.00  0.00    -0.342 N 
ATOM     34  C   UNL     1       3.642   7.595 -10.500  1.00  0.00     0.246 CG0
ATOM     35  O   UNL     1       3.420   8.800 -10.584  1.00  0.00    -0.273 OA
ATOM     36  H   UNL     1       3.329   5.701 -11.181  1.00  0.00     0.164 HD
ATOM     37  G   UNL     1       4.624   7.007  -9.473  1.00  0.00     0.000 G0
ENDBRANCH  32  33
BRANCH  32  38
ATOM     38  C   UNL     1       2.653   7.388 -13.660  1.00  0.00     0.017 C 
ATOM     39  C   UNL     1       2.291   8.831 -14.034  1.00  0.00     0.010 C 
BRANCH  38  40
ATOM     40  C   UNL     1       4.181   7.155 -13.704  1.00  0.00     0.002 C 
ATOM     41  C   UNL     1       4.992   8.442 -13.781  1.00  0.00     0.004 C 
ENDBRANCH  38  40
ENDBRANCH  32  38
ENDBRANCH  29  32
ENDBRANCH  23  26
ENDBRANCH   1  22
TORSDOF 4
ENDMDL
MODEL 2
REMARK VINA RESULT:    -1.565      3.408      6.524
REMARK INTER + INTRA:          -4.043
REMARK INTER:                  -3.185
REMARK INTRA:                  -0.857
REMARK UNBOUND:                -1.379
REMARK SMILES CC[C@H](C)[C@@H]1NC(=O)[C@H]2CSC(=N2)[C@@H]([C@@H](C)CC)NC(=O)c2csc(n2)CNC(=O)[C@H]2N=C1O[C@@H]2C
REMARK SMILES IDX 27 1 25 2 22 3 26 4 23 5 24 6 20 7 19 8 21 9 14 11 12 12
REMARK SMILES IDX 11 13 10 14 13 15 9 16 15 18 16 19 17 20 18 21 28 22 29 23
REMARK SMILES IDX 30 24 31 26 32 27 35 28 33 29 34 30 36 31 5 32 6 33 7 34
REMARK SMILES IDX 8 35 3 38 4 39 2 40 1 41
REMARK H PARENT 19 10 28 25 6 36
REMARK Flexibility Score:   91.900
ROOT
ATOM      1  C   UNL     1       0.761   3.985  -5.641  1.00  0.00     0.183 C 
ENDROOT
BRANCH   1   2
ATOM      2  C   UNL     1       1.404   2.829  -4.930  1.00  0.00     0.113 A 
ATOM      3  C   UNL     1       2.825   1.162  -4.523  1.00  0.00     0.139 A 
ATOM      4  N   UNL     1       2.546   2.283  -5.306  1.00  0.00    -0.234 NA
ATOM      5  C   UNL     1       1.904   0.919  -3.523  1.00  0.00     0.101 A 
ATOM      6  S   UNL     1       0.653   2.093  -3.574  1.00  0.00    -0.125 S 
BRANCH   3   7
ATOM      7  C   UNL     1       3.995   0.332  -4.821  1.00  0.00     0.271 C 
ATOM      8  N   UNL     1       4.454   0.545  -6.097  1.00  0.00    -0.341 N 
ATOM      9  O   UNL     1       4.476  -0.473  -4.034  1.00  0.00    -0.267 OA
ATOM     10  H   UNL     1       3.965   1.265  -6.627  1.00  0.00     0.164 HD
BRANCH   8  11
ATOM     11  C   UNL     1       5.478  -0.260  -6.742  1.00  0.00     0.140 C 
BRANCH  11  12
ATOM     12  C   UNL     1       5.156  -0.321  -8.238  1.00  0.00     0.091 C 
ATOM     13  S   UNL     1       6.425  -0.591  -9.409  1.00  0.00    -0.106 SA
ATOM     14  C   UNL     1       5.193  -0.869 -10.699  1.00  0.00     0.113 C 
ATOM     15  N   UNL     1       3.962  -0.104  -8.692  1.00  0.00    -0.267 NA
ATOM     16  C   UNL     1       3.970  -0.123 -10.189  1.00  0.00     0.205 CG0
ATOM     17  G   UNL     1       3.929   1.306 -10.755  1.00  0.00     0.000 G0
ENDBRANCH  11  12
BRANCH  11  18
ATOM     18  C   UNL     1       6.927   0.143  -6.365  1.00  0.00     0.015 C 
ATOM     19  C   UNL     1       6.963   1.587  -5.847  1.00  0.00     0.010 C 
BRANCH  18  20
ATOM     20  C   UNL     1       7.632  -0.822  -5.391  1.00  0.00     0.002 C 
ATOM     21  C   UNL     1       7.816  -0.233  -3.997  1.00  0.00     0.004 C 
ENDBRANCH  18  20
ENDBRANCH  11  18
ENDBRANCH   8  11
ENDBRANCH   3   7
ENDBRANCH   1   2
BRANCH   1  22
ATOM     22  N   UNL     1       1.643   4.376  -6.718  1.00  0.00    -0.348 N 
ATOM     23  C   UNL     1       2.867   4.965  -6.547  1.00  0.00     0.249 C 
ATOM     24  O   UNL     1       3.379   5.146  -5.448  1.00  0.00    -0.272 OA
ATOM     25  H   UNL     1       1.306   4.291  -7.676  1.00  0.00     0.163 HD
BRANCH  23  26
ATOM     26  C   UNL     1       3.548   5.317  -7.878  1.00  0.00     0.238 C 
ATOM     27  N   UNL     1       3.665   4.087  -8.710  1.00  0.00    -0.236 NA
ATOM     28  C   UNL     1       2.721   6.288  -8.702  1.00  0.00     0.206 C 
ATOM     29  C   UNL     1       2.832   4.306  -9.683  1.00  0.00     0.208 C 
ATOM     30  O   UNL     1       2.145   5.474  -9.722  1.00  0.00    -0.474 OA
ATOM     31  C   UNL     1       3.570   7.366  -9.362  1.00  0.00     0.056 C 
BRANCH  29  32
ATOM     32  C   UNL     1       2.483   3.337 -10.810  1.00  0.00     0.171 C 
BRANCH  32  33
ATOM     33  N   UNL     1       2.741   1.963 -10.412  1.00  0.00    -0.342 N 
ATOM     34  C   UNL     1       3.891   1.295 -10.758  1.00  0.00     0.246 CG0
ATOM     35  O   UNL     1       4.774   1.795 -11.450  1.00  0.00    -0.273 OA
ATOM     36  H   UNL     1       2.055   1.430  -9.888  1.00  0.00     0.164 HD
ATOM     37  G   UNL     1       3.997  -0.129 -10.189  1.00  0.00     0.000 G0
ENDBRANCH  32  33
BRANCH  32  38
ATOM     38  C   UNL     1       1.020   3.556 -11.279  1.00  0.00     0.017 C 
ATOM     39  C   UNL     1       0.932   3.433 -12.805  1.00  0.00     0.010 C 
BRANCH  38  40
ATOM     40  C   UNL     1       0.014   2.616 -10.574  1.00  0.00     0.002 C 
ATOM     41  C   UNL     1      -1.053   2.056 -11.506  1.00  0.00     0.004 C 
ENDBRANCH  38  40
ENDBRANCH  32  38
ENDBRANCH  29  32
ENDBRANCH  23  26
ENDBRANCH   1  22
TORSDOF 4
ENDMDL
MODEL 3
REMARK VINA RESULT:    -0.812      2.185      2.891
REMARK INTER + INTRA:          -2.761
REMARK INTER:                  -4.254
REMARK INTRA:                   1.493
REMARK UNBOUND:                -1.379
REMARK SMILES CC[C@H](C)[C@@H]1NC(=O)[C@H]2CSC(=N2)[C@@H]([C@@H](C)CC)NC(=O)c2csc(n2)CNC(=O)[C@H]2N=C1O[C@@H]2C
REMARK SMILES IDX 27 1 25 2 22 3 26 4 23 5 24 6 20 7 19 8 21 9 14 11 12 12
REMARK SMILES IDX 11 13 10 14 13 15 9 16 15 18 16 19 17 20 18 21 28 22 29 23
REMARK SMILES IDX 30 24 31 26 32 27 35 28 33 29 34 30 36 31 5 32 6 33 7 34
REMARK SMILES IDX 8 35 3 38 4 39 2 40 1 41
REMARK H PARENT 19 10 28 25 6 36
REMARK Flexibility Score:   91.900
ROOT
ATOM      1  C   UNL     1       4.524  -0.202 -10.637  1.00  0.00     0.183 C 
ENDROOT
BRANCH   1   2
ATOM      2  C   UNL     1       5.048  -0.044  -9.239  1.00  0.00     0.113 A 
ATOM      3  C   UNL     1       5.305   0.797  -7.191  1.00  0.00     0.139 A 
ATOM      4  N   UNL     1       4.536   0.794  -8.356  1.00  0.00    -0.234 NA
ATOM      5  C   UNL     1       6.360  -0.094  -7.200  1.00  0.00     0.101 A 
ATOM      6  S   UNL     1       6.412  -0.934  -8.696  1.00  0.00    -0.125 S 
BRANCH   3   7
ATOM      7  C   UNL     1       4.986   1.726  -6.104  1.00  0.00     0.271 C 
ATOM      8  N   UNL     1       3.755   2.307  -6.281  1.00  0.00    -0.341 N 
ATOM      9  O   UNL     1       5.745   1.973  -5.176  1.00  0.00    -0.267 OA
ATOM     10  H   UNL     1       3.227   1.983  -7.090  1.00  0.00     0.164 HD
BRANCH   8  11
ATOM     11  C   UNL     1       3.245   3.403  -5.473  1.00  0.00     0.140 C 
BRANCH  11  12
ATOM     12  C   UNL     1       2.758   4.500  -6.423  1.00  0.00     0.091 C 
ATOM     13  S   UNL     1       1.059   4.655  -6.804  1.00  0.00    -0.106 SA
ATOM     14  C   UNL     1       1.364   6.258  -7.575  1.00  0.00     0.113 C 
ATOM     15  N   UNL     1       3.580   5.297  -7.031  1.00  0.00    -0.267 NA
ATOM     16  C   UNL     1       2.830   6.188  -7.972  1.00  0.00     0.205 CG0
ATOM     17  G   UNL     1       2.978   5.701  -9.423  1.00  0.00     0.000 G0
ENDBRANCH  11  12
BRANCH  11  18
ATOM     18  C   UNL     1       2.255   2.962  -4.364  1.00  0.00     0.015 C 
ATOM     19  C   UNL     1       0.884   3.614  -4.581  1.00  0.00     0.010 C 
BRANCH  18  20
ATOM     20  C   UNL     1       2.131   1.435  -4.182  1.00  0.00     0.002 C 
ATOM     21  C   UNL     1       1.144   1.045  -3.087  1.00  0.00     0.004 C 
ENDBRANCH  18  20
ENDBRANCH  11  18
ENDBRANCH   8  11
ENDBRANCH   3   7
ENDBRANCH   1   2
BRANCH   1  22
ATOM     22  N   UNL     1       3.284   0.537 -10.721  1.00  0.00    -0.348 N 
ATOM     23  C   UNL     1       2.724   0.992 -11.884  1.00  0.00     0.249 C 
ATOM     24  O   UNL     1       3.182   0.741 -12.993  1.00  0.00    -0.272 OA
ATOM     25  H   UNL     1       2.829   0.820  -9.853  1.00  0.00     0.163 HD
BRANCH  23  26
ATOM     26  C   UNL     1       1.435   1.793 -11.650  1.00  0.00     0.238 C 
ATOM     27  N   UNL     1       1.761   3.045 -10.912  1.00  0.00    -0.236 NA
ATOM     28  C   UNL     1       0.802   2.244 -12.955  1.00  0.00     0.206 C 
ATOM     29  C   UNL     1       1.556   3.974 -11.796  1.00  0.00     0.208 C 
ATOM     30  O   UNL     1       1.123   3.632 -13.035  1.00  0.00    -0.474 OA
ATOM     31  C   UNL     1      -0.714   2.096 -12.952  1.00  0.00     0.056 C 
BRANCH  29  32
ATOM     32  C   UNL     1       1.804   5.469 -11.612  1.00  0.00     0.171 C 
BRANCH  32  33
ATOM     33  N   UNL     1       1.842   5.819 -10.201  1.00  0.00    -0.342 N 
ATOM     34  C   UNL     1       2.980   5.704  -9.439  1.00  0.00     0.246 CG0
ATOM     35  O   UNL     1       4.042   5.274  -9.882  1.00  0.00    -0.273 OA
ATOM     36  H   UNL     1       1.007   6.130  -9.715  1.00  0.00     0.164 HD
ATOM     37  G   UNL     1       2.825   6.182  -7.986  1.00  0.00     0.000 G0
ENDBRANCH  32  33
BRANCH  32  38
ATOM     38  C   UNL     1       3.088   5.903 -12.367  1.00  0.00     0.017 C 
ATOM     39  C   UNL     1       3.278   5.041 -13.622  1.00  0.00     0.010 C 
BRANCH  38  40
ATOM     40  C   UNL     1       3.108   7.411 -12.705  1.00  0.00     0.002 C 
ATOM     41  C   UNL     1       4.042   8.223 -11.817  1.00  0.00     0.004 C 
ENDBRANCH  38  40
ENDBRANCH  32  38
ENDBRANCH  29  32
ENDBRANCH  23  26
ENDBRANCH   1  22
TORSDOF 4
ENDMDL
MODEL 4
REMARK VINA RESULT:    -0.464      3.731      6.619
REMARK INTER + INTRA:          -2.169
REMARK INTER:                  -1.470
REMARK INTRA:                  -0.699
REMARK UNBOUND:                -1.379
REMARK SMILES CC[C@H](C)[C@@H]1NC(=O)[C@H]2CSC(=N2)[C@@H]([C@@H](C)CC)NC(=O)c2csc(n2)CNC(=O)[C@H]2N=C1O[C@@H]2C
REMARK SMILES IDX 27 1 25 2 22 3 26 4 23 5 24 6 20 7 19 8 21 9 14 11 12 12
REMARK SMILES IDX 11 13 10 14 13 15 9 16 15 18 16 19 17 20 18 21 28 22 29 23
REMARK SMILES IDX 30 24 31 26 32 27 35 28 33 29 34 30 36 31 5 32 6 33 7 34
REMARK SMILES IDX 8 35 3 38 4 39 2 40 1 41
REMARK H PARENT 19 10 28 25 6 36
REMARK Flexibility Score:   91.900
ROOT
ATOM      1  C   UNL     1       1.175   5.140  -6.411  1.00  0.00     0.183 C 
ENDROOT
BRANCH   1   2
ATOM      2  C   UNL     1       1.229   3.915  -5.544  1.00  0.00     0.113 A 
ATOM      3  C   UNL     1       2.044   2.080  -4.575  1.00  0.00     0.139 A 
ATOM      4  N   UNL     1       2.333   3.224  -5.323  1.00  0.00    -0.234 NA
ATOM      5  C   UNL     1       0.721   1.964  -4.196  1.00  0.00     0.101 A 
ATOM      6  S   UNL     1      -0.187   3.289  -4.802  1.00  0.00    -0.125 S 
BRANCH   3   7
ATOM      7  C   UNL     1       3.099   1.105  -4.290  1.00  0.00     0.271 C 
ATOM      8  N   UNL     1       4.272   1.430  -4.925  1.00  0.00    -0.341 N 
ATOM      9  O   UNL     1       2.935   0.108  -3.598  1.00  0.00    -0.267 OA
ATOM     10  H   UNL     1       4.263   2.304  -5.448  1.00  0.00     0.164 HD
BRANCH   8  11
ATOM     11  C   UNL     1       5.436   0.561  -4.984  1.00  0.00     0.140 C 
BRANCH  11  12
ATOM     12  C   UNL     1       5.778   0.333  -6.460  1.00  0.00     0.091 C 
ATOM     13  S   UNL     1       6.802   1.460  -7.318  1.00  0.00    -0.106 SA
ATOM     14  C   UNL     1       6.947   0.300  -8.694  1.00  0.00     0.113 C 
ATOM     15  N   UNL     1       5.269  -0.647  -7.139  1.00  0.00    -0.267 NA
ATOM     16  C   UNL     1       5.695  -0.555  -8.571  1.00  0.00     0.205 CG0
ATOM     17  G   UNL     1       4.563   0.010  -9.444  1.00  0.00     0.000 G0
ENDBRANCH  11  12
BRANCH  11  18
ATOM     18  C   UNL     1       6.604   1.008  -4.068  1.00  0.00     0.015 C 
ATOM     19  C   UNL     1       6.123   2.065  -3.065  1.00  0.00     0.010 C 
BRANCH  18  20
ATOM     20  C   UNL     1       7.345  -0.144  -3.360  1.00  0.00     0.002 C 
ATOM     21  C   UNL     1       8.692  -0.467  -3.998  1.00  0.00     0.004 C 
ENDBRANCH  18  20
ENDBRANCH  11  18
ENDBRANCH   8  11
ENDBRANCH   3   7
ENDBRANCH   1   2
BRANCH   1  22
ATOM     22  N   UNL     1       2.245   5.034  -7.378  1.00  0.00    -0.348 N 
ATOM     23  C   UNL     1       2.518   5.965  -8.343  1.00  0.00     0.249 C 
ATOM     24  O   UNL     1       1.928   7.035  -8.431  1.00  0.00    -0.272 OA
ATOM     25  H   UNL     1       2.787   4.171  -7.407  1.00  0.00     0.163 HD
BRANCH  23  26
ATOM     26  C   UNL     1       3.680   5.549  -9.258  1.00  0.00     0.238 C 
ATOM     27  N   UNL     1       3.988   4.109  -9.038  1.00  0.00    -0.236 NA
ATOM     28  C   UNL     1       3.316   5.667 -10.728  1.00  0.00     0.206 C 
ATOM     29  C   UNL     1       3.606   3.550 -10.147  1.00  0.00     0.208 C 
ATOM     30  O   UNL     1       3.094   4.319 -11.139  1.00  0.00    -0.474 OA
ATOM     31  C   UNL     1       4.446   6.251 -11.565  1.00  0.00     0.056 C 
BRANCH  29  32
ATOM     32  C   UNL     1       3.619   2.056 -10.458  1.00  0.00     0.171 C 
BRANCH  32  33
ATOM     33  N   UNL     1       4.556   1.353  -9.594  1.00  0.00    -0.342 N 
ATOM     34  C   UNL     1       4.577  -0.016  -9.483  1.00  0.00     0.246 CG0
ATOM     35  O   UNL     1       3.794  -0.750 -10.081  1.00  0.00    -0.273 OA
ATOM     36  H   UNL     1       5.210   1.861  -9.008  1.00  0.00     0.164 HD
ATOM     37  G   UNL     1       5.681  -0.564  -8.563  1.00  0.00     0.000 G0
ENDBRANCH  32  33
BRANCH  32  38
ATOM     38  C   UNL     1       2.184   1.472 -10.378  1.00  0.00     0.017 C 
ATOM     39  C   UNL     1       1.423   2.104  -9.206  1.00  0.00     0.010 C 
BRANCH  38  40
ATOM     40  C   UNL     1       1.403   1.610 -11.705  1.00  0.00     0.002 C 
ATOM     41  C   UNL     1       2.275   1.464 -12.944  1.00  0.00     0.004 C 
ENDBRANCH  38  40
ENDBRANCH  32  38
ENDBRANCH  29  32
ENDBRANCH  23  26
ENDBRANCH   1  22
TORSDOF 4
ENDMDL
