MODEL 1
REMARK VINA RESULT:    -6.187      0.000      0.000
REMARK INTER + INTRA:         -23.190
REMARK INTER:                 -17.762
REMARK INTRA:                  -5.429
REMARK UNBOUND:                -5.429
REMARK SMILES CCCCCC(=O)N[C@H](CC(=O)O)C(=O)N[C@H]1C(=O)N[C@H](CCCN=C(N)N)C(=O)N[C@@H]2CC[C@H](O)N(C2=O)[C@@H](CC(C)C)C(=O)N(C)[C@@H](Cc2ccccc2)C(=O)N[C@H](C(C)C)C(=O)O[C@@H]1C
REMARK SMILES IDX 30 1 31 2 29 3 32 5 35 6 37 7 34 8 38 9 33 10 39 11 36 12
REMARK SMILES IDX 40 14 41 15 42 16 43 17 44 18 45 19 46 20 47 21 48 22 49 23
REMARK SMILES IDX 50 24 51 25 52 26 56 27 53 28 55 29 54 30 57 31 58 32 59 33
REMARK SMILES IDX 60 35 61 36 62 37 63 38 64 39 65 40 66 41 67 42 68 43 21 45
REMARK SMILES IDX 20 46 18 47 19 48 17 50 16 52 14 53 15 54 9 56 8 57 6 58
REMARK SMILES IDX 7 59 5 61 4 62 3 63 2 64 1 65 10 66 11 67 12 68 13 69 22 71
REMARK SMILES IDX 23 72 24 73 25 74 26 75 27 76 28 77
REMARK H PARENT 31 4 36 13 59 34 20 49 16 55 8 60 13 70 27 78 27 79 28 80
REMARK H PARENT 28 81
REMARK Flexibility Score:  259.900
ROOT
ATOM      1  O   UNL     1      -5.442   7.374   0.692  1.00  0.00    -0.273 OA
ATOM      2  N   UNL     1      -6.831   6.989  -1.083  1.00  0.00    -0.343 N 
ATOM      3  C   UNL     1      -6.540   7.519   0.155  1.00  0.00     0.243 C 
ATOM      4  H   UNL     1      -7.741   7.142  -1.501  1.00  0.00     0.164 HD
ENDROOT
BRANCH   2   5
ATOM      5  C   UNL     1      -5.874   6.123  -1.763  1.00  0.00     0.171 C 
ATOM      6  C   UNL     1      -5.807   4.980  -4.427  1.00  0.00     0.214 C 
ATOM      7  N   UNL     1      -6.421   4.238  -3.351  1.00  0.00    -0.303 N 
ATOM      8  C   UNL     1      -4.680   5.890  -3.964  1.00  0.00     0.057 C 
ATOM      9  C   UNL     1      -6.532   4.746  -2.067  1.00  0.00     0.247 C 
ATOM     10  C   UNL     1      -5.197   6.856  -2.920  1.00  0.00     0.040 C 
ATOM     11  O   UNL     1      -7.136   4.141  -1.172  1.00  0.00    -0.272 OA
BRANCH   6  12
ATOM     12  O   UNL     1      -6.815   5.731  -5.063  1.00  0.00    -0.373 OA
ATOM     13  H   UNL     1      -7.192   6.336  -4.388  1.00  0.00     0.213 HD
ENDBRANCH   6  12
BRANCH   7  14
ATOM     14  C   UNL     1      -7.068   2.957  -3.704  1.00  0.00     0.177 C 
BRANCH  14  15
ATOM     15  C   UNL     1      -8.227   3.063  -4.713  1.00  0.00     0.038 C 
BRANCH  15  16
ATOM     16  C   UNL     1      -9.685   3.036  -4.203  1.00  0.00    -0.015 C 
ATOM     17  C   UNL     1     -10.291   4.438  -4.090  1.00  0.00     0.007 C 
ATOM     18  C   UNL     1      -9.738   2.377  -2.819  1.00  0.00     0.007 C 
ENDBRANCH  15  16
ENDBRANCH  14  15
BRANCH  14  19
ATOM     19  C   UNL     1      -6.027   1.786  -3.640  1.00  0.00     0.245 C 
ATOM     20  O   UNL     1      -5.278   1.648  -4.622  1.00  0.00    -0.272 OA
BRANCH  19  21
ATOM     21  N   UNL     1      -5.978   0.853  -2.619  1.00  0.00    -0.332 N 
ATOM     22  C   UNL     1      -6.877   0.802  -1.480  1.00  0.00     0.147 C 
BRANCH  21  23
ATOM     23  C   UNL     1      -4.912  -0.185  -2.676  1.00  0.00     0.178 C 
BRANCH  23  24
ATOM     24  C   UNL     1      -3.756   0.022  -1.675  1.00  0.00     0.070 C 
BRANCH  24  25
ATOM     25  C   UNL     1      -2.351  -0.154  -2.201  1.00  0.00    -0.045 A 
ATOM     26  C   UNL     1      -2.124  -0.553  -3.524  1.00  0.00     0.004 A 
ATOM     27  C   UNL     1      -1.248   0.077  -1.364  1.00  0.00     0.004 A 
ATOM     28  C   UNL     1      -0.822  -0.729  -3.998  1.00  0.00     0.000 A 
ATOM     29  C   UNL     1       0.053  -0.098  -1.839  1.00  0.00     0.000 A 
ATOM     30  C   UNL     1       0.264  -0.504  -3.155  1.00  0.00     0.000 A 
ENDBRANCH  24  25
ENDBRANCH  23  24
BRANCH  23  31
ATOM     31  C   UNL     1      -5.474  -1.625  -2.734  1.00  0.00     0.243 C 
ATOM     32  O   UNL     1      -6.300  -2.007  -3.558  1.00  0.00    -0.273 OA
ATOM     33  N   UNL     1      -5.102  -2.408  -1.653  1.00  0.00    -0.341 N 
ATOM     34  H   UNL     1      -4.414  -2.032  -0.996  1.00  0.00     0.164 HD
BRANCH  33  35
ATOM     35  C   UNL     1      -5.611  -3.765  -1.438  1.00  0.00     0.194 C 
BRANCH  35  36
ATOM     36  C   UNL     1      -6.512  -3.913  -0.179  1.00  0.00     0.017 C 
ATOM     37  C   UNL     1      -8.000  -3.756  -0.534  1.00  0.00     0.010 C 
ATOM     38  C   UNL     1      -6.191  -2.889   0.917  1.00  0.00     0.010 C 
ENDBRANCH  35  36
BRANCH  35  39
ATOM     39  C   UNL     1      -4.488  -4.838  -1.477  1.00  0.00     0.329 C 
ATOM     40  O   UNL     1      -3.613  -4.948  -0.626  1.00  0.00    -0.250 OA
BRANCH  39  41
ATOM     41  O   UNL     1      -4.633  -5.705  -2.525  1.00  0.00    -0.458 OA
BRANCH  41  42
ATOM     42  C   UNL     1      -3.965  -6.983  -2.397  1.00  0.00     0.205 CG0
ATOM     43  C   UNL     1      -3.184  -7.218  -3.688  1.00  0.00     0.056 C 
ATOM     44  G   UNL     1      -5.028  -8.071  -2.145  1.00  0.00     0.000 G0
ENDBRANCH  41  42
ENDBRANCH  39  41
ENDBRANCH  35  39
ENDBRANCH  33  35
ENDBRANCH  23  31
ENDBRANCH  21  23
ENDBRANCH  19  21
ENDBRANCH  14  19
ENDBRANCH   7  14
ENDBRANCH   2   5
BRANCH   3  45
ATOM     45  C   UNL     1      -7.673   8.322   0.809  1.00  0.00     0.171 C 
BRANCH  45  46
ATOM     46  N   UNL     1      -7.571   9.667   0.260  1.00  0.00    -0.342 N 
ATOM     47  C   UNL     1      -8.619  10.286  -0.374  1.00  0.00     0.247 C 
ATOM     48  O   UNL     1      -9.739   9.781  -0.461  1.00  0.00    -0.273 OA
ATOM     49  H   UNL     1      -6.676  10.144   0.360  1.00  0.00     0.164 HD
BRANCH  47  50
ATOM     50  C   UNL     1      -8.288  11.650  -0.997  1.00  0.00     0.212 CG0
ATOM     51  G   UNL     1      -9.535  12.544  -0.851  1.00  0.00     0.000 G0
BRANCH  50  52
ATOM     52  N   UNL     1      -7.132  12.146  -0.256  1.00  0.00    -0.339 N 
ATOM     53  C   UNL     1      -7.059  13.412   0.272  1.00  0.00     0.243 C 
ATOM     54  O   UNL     1      -7.946  14.247   0.115  1.00  0.00    -0.273 OA
ATOM     55  H   UNL     1      -6.318  11.538  -0.188  1.00  0.00     0.164 HD
BRANCH  53  56
ATOM     56  C   UNL     1      -5.706  13.738   0.936  1.00  0.00     0.182 C 
BRANCH  56  57
ATOM     57  N   UNL     1      -4.591  13.198   0.152  1.00  0.00    -0.344 N 
ATOM     58  C   UNL     1      -4.095  13.835  -0.959  1.00  0.00     0.220 C 
ATOM     59  O   UNL     1      -4.594  14.858  -1.415  1.00  0.00    -0.275 OA
ATOM     60  H   UNL     1      -4.086  12.411   0.552  1.00  0.00     0.164 HD
BRANCH  58  61
ATOM     61  C   UNL     1      -2.904  13.126  -1.577  1.00  0.00     0.100 C 
BRANCH  61  62
ATOM     62  C   UNL     1      -3.073  12.823  -3.066  1.00  0.00     0.010 C 
BRANCH  62  63
ATOM     63  C   UNL     1      -2.028  13.496  -3.966  1.00  0.00     0.000 C 
BRANCH  63  64
ATOM     64  C   UNL     1      -2.045  15.022  -3.912  1.00  0.00    -0.003 C 
ATOM     65  C   UNL     1      -0.934  15.620  -4.764  1.00  0.00     0.004 C 
ENDBRANCH  63  64
ENDBRANCH  62  63
ENDBRANCH  61  62
ENDBRANCH  58  61
ENDBRANCH  56  57
BRANCH  56  66
ATOM     66  C   UNL     1      -5.669  13.271   2.390  1.00  0.00     0.157 C 
BRANCH  66  67
ATOM     67  C   UNL     1      -6.102  14.365   3.324  1.00  0.00     0.305 C 
ATOM     68  O   UNL     1      -7.248  14.647   3.639  1.00  0.00    -0.252 OA
BRANCH  67  69
ATOM     69  O   UNL     1      -5.057  15.023   3.861  1.00  0.00    -0.481 OA
ATOM     70  H   UNL     1      -5.301  15.971   3.802  1.00  0.00     0.296 HD
ENDBRANCH  67  69
ENDBRANCH  66  67
ENDBRANCH  56  66
ENDBRANCH  53  56
ENDBRANCH  50  52
ENDBRANCH  47  50
ENDBRANCH  45  46
BRANCH  45  71
ATOM     71  C   UNL     1      -7.518   8.320   2.334  1.00  0.00     0.037 C 
BRANCH  71  72
ATOM     72  C   UNL     1      -7.145   9.701   2.876  1.00  0.00     0.026 C 
BRANCH  72  73
ATOM     73  C   UNL     1      -8.215  10.239   3.825  1.00  0.00     0.146 C 
BRANCH  73  74
ATOM     74  N   UNL     1      -8.470  11.631   3.468  1.00  0.00    -0.254 NA
ATOM     75  C   UNL     1      -9.537  11.894   2.808  1.00  0.00     0.185 C 
ATOM     76  N   UNL     1      -9.800  13.166   2.466  1.00  0.00    -0.370 N 
ATOM     77  N   UNL     1     -10.493  11.053   2.378  1.00  0.00    -0.370 N 
ATOM     78  H   UNL     1      -9.126  13.863   2.745  1.00  0.00     0.159 HD
ATOM     79  H   UNL     1     -10.533  13.428   1.831  1.00  0.00     0.159 HD
ATOM     80  H   UNL     1     -10.430  10.064   2.566  1.00  0.00     0.159 HD
ATOM     81  H   UNL     1     -11.348  11.390   1.967  1.00  0.00     0.159 HD
ENDBRANCH  73  74
ENDBRANCH  72  73
ENDBRANCH  71  72
ENDBRANCH  45  71
ENDBRANCH   3  45
TORSDOF 20
ENDMDL
MODEL 2
REMARK VINA RESULT:    -6.142      6.153     10.861
REMARK INTER + INTRA:         -23.060
REMARK INTER:                 -16.013
REMARK INTRA:                  -7.047
REMARK UNBOUND:                -5.429
REMARK SMILES CCCCCC(=O)N[C@H](CC(=O)O)C(=O)N[C@H]1C(=O)N[C@H](CCCN=C(N)N)C(=O)N[C@@H]2CC[C@H](O)N(C2=O)[C@@H](CC(C)C)C(=O)N(C)[C@@H](Cc2ccccc2)C(=O)N[C@H](C(C)C)C(=O)O[C@@H]1C
REMARK SMILES IDX 30 1 31 2 29 3 32 5 35 6 37 7 34 8 38 9 33 10 39 11 36 12
REMARK SMILES IDX 40 14 41 15 42 16 43 17 44 18 45 19 46 20 47 21 48 22 49 23
REMARK SMILES IDX 50 24 51 25 52 26 56 27 53 28 55 29 54 30 57 31 58 32 59 33
REMARK SMILES IDX 60 35 61 36 62 37 63 38 64 39 65 40 66 41 67 42 68 43 21 45
REMARK SMILES IDX 20 46 18 47 19 48 17 50 16 52 14 53 15 54 9 56 8 57 6 58
REMARK SMILES IDX 7 59 5 61 4 62 3 63 2 64 1 65 10 66 11 67 12 68 13 69 22 71
REMARK SMILES IDX 23 72 24 73 25 74 26 75 27 76 28 77
REMARK H PARENT 31 4 36 13 59 34 20 49 16 55 8 60 13 70 27 78 27 79 28 80
REMARK H PARENT 28 81
REMARK Flexibility Score:  259.900
ROOT
ATOM      1  O   UNL     1      -5.327  11.678   1.346  1.00  0.00    -0.273 OA
ATOM      2  N   UNL     1      -5.458  13.961   1.335  1.00  0.00    -0.343 N 
ATOM      3  C   UNL     1      -5.060  12.752   0.806  1.00  0.00     0.243 C 
ATOM      4  H   UNL     1      -5.233  14.824   0.856  1.00  0.00     0.164 HD
ENDROOT
BRANCH   2   5
ATOM      5  C   UNL     1      -6.118  14.022   2.634  1.00  0.00     0.171 C 
ATOM      6  C   UNL     1      -7.085  11.974   4.444  1.00  0.00     0.214 C 
ATOM      7  N   UNL     1      -7.976  12.517   3.445  1.00  0.00    -0.303 N 
ATOM      8  C   UNL     1      -6.032  12.965   4.914  1.00  0.00     0.057 C 
ATOM      9  C   UNL     1      -7.565  13.460   2.517  1.00  0.00     0.247 C 
ATOM     10  C   UNL     1      -5.222  13.451   3.732  1.00  0.00     0.040 C 
ATOM     11  O   UNL     1      -8.309  13.857   1.611  1.00  0.00    -0.272 OA
BRANCH   6  12
ATOM     12  O   UNL     1      -6.474  10.828   3.898  1.00  0.00    -0.373 OA
ATOM     13  H   UNL     1      -5.852  11.137   3.205  1.00  0.00     0.213 HD
ENDBRANCH   6  12
BRANCH   7  14
ATOM     14  C   UNL     1      -9.324  11.918   3.351  1.00  0.00     0.177 C 
BRANCH  14  15
ATOM     15  C   UNL     1     -10.495  12.905   3.520  1.00  0.00     0.038 C 
BRANCH  15  16
ATOM     16  C   UNL     1     -11.239  12.979   4.872  1.00  0.00    -0.015 C 
ATOM     17  C   UNL     1     -10.289  13.214   6.050  1.00  0.00     0.007 C 
ATOM     18  C   UNL     1     -11.997  11.669   5.120  1.00  0.00     0.007 C 
ENDBRANCH  15  16
ENDBRANCH  14  15
BRANCH  14  19
ATOM     19  C   UNL     1      -9.306  10.690   2.376  1.00  0.00     0.245 C 
ATOM     20  O   UNL     1      -8.612  10.800   1.352  1.00  0.00    -0.272 OA
BRANCH  19  21
ATOM     21  N   UNL     1     -10.094   9.565   2.538  1.00  0.00    -0.332 N 
ATOM     22  C   UNL     1     -11.522   9.492   2.281  1.00  0.00     0.147 C 
BRANCH  21  23
ATOM     23  C   UNL     1      -9.439   8.321   3.027  1.00  0.00     0.178 C 
BRANCH  23  24
ATOM     24  C   UNL     1     -10.146   7.644   4.219  1.00  0.00     0.070 C 
BRANCH  24  25
ATOM     25  C   UNL     1     -10.187   8.411   5.520  1.00  0.00    -0.045 A 
ATOM     26  C   UNL     1      -9.121   9.236   5.902  1.00  0.00     0.004 A 
ATOM     27  C   UNL     1     -11.298   8.303   6.370  1.00  0.00     0.004 A 
ATOM     28  C   UNL     1      -9.160   9.928   7.114  1.00  0.00     0.000 A 
ATOM     29  C   UNL     1     -11.336   8.996   7.581  1.00  0.00     0.000 A 
ATOM     30  C   UNL     1     -10.266   9.806   7.953  1.00  0.00     0.000 A 
ENDBRANCH  24  25
ENDBRANCH  23  24
BRANCH  23  31
ATOM     31  C   UNL     1      -9.031   7.363   1.882  1.00  0.00     0.243 C 
ATOM     32  O   UNL     1      -9.719   6.420   1.498  1.00  0.00    -0.273 OA
ATOM     33  N   UNL     1      -7.730   7.546   1.445  1.00  0.00    -0.341 N 
ATOM     34  H   UNL     1      -7.204   8.345   1.806  1.00  0.00     0.164 HD
BRANCH  33  35
ATOM     35  C   UNL     1      -7.091   6.677   0.453  1.00  0.00     0.194 C 
BRANCH  35  36
ATOM     36  C   UNL     1      -5.912   5.832   1.014  1.00  0.00     0.017 C 
ATOM     37  C   UNL     1      -6.366   4.406   1.371  1.00  0.00     0.010 C 
ATOM     38  C   UNL     1      -5.277   6.441   2.270  1.00  0.00     0.010 C 
ENDBRANCH  35  36
BRANCH  35  39
ATOM     39  C   UNL     1      -6.695   7.439  -0.842  1.00  0.00     0.329 C 
ATOM     40  O   UNL     1      -7.458   7.643  -1.779  1.00  0.00    -0.250 OA
BRANCH  39  41
ATOM     41  O   UNL     1      -5.421   7.934  -0.785  1.00  0.00    -0.458 OA
BRANCH  41  42
ATOM     42  C   UNL     1      -4.815   8.291  -2.050  1.00  0.00     0.205 CG0
ATOM     43  C   UNL     1      -4.353   6.995  -2.714  1.00  0.00     0.056 C 
ATOM     44  G   UNL     1      -3.649   9.263  -1.780  1.00  0.00     0.000 G0
ENDBRANCH  41  42
ENDBRANCH  39  41
ENDBRANCH  35  39
ENDBRANCH  33  35
ENDBRANCH  23  31
ENDBRANCH  21  23
ENDBRANCH  19  21
ENDBRANCH  14  19
ENDBRANCH   7  14
ENDBRANCH   2   5
BRANCH   3  45
ATOM     45  C   UNL     1      -4.279  12.836  -0.512  1.00  0.00     0.171 C 
BRANCH  45  46
ATOM     46  N   UNL     1      -3.758  11.496  -0.748  1.00  0.00    -0.342 N 
ATOM     47  C   UNL     1      -4.233  10.687  -1.750  1.00  0.00     0.247 C 
ATOM     48  O   UNL     1      -5.079  11.059  -2.565  1.00  0.00    -0.273 OA
ATOM     49  H   UNL     1      -3.017  11.169  -0.131  1.00  0.00     0.164 HD
BRANCH  47  50
ATOM     50  C   UNL     1      -3.654   9.266  -1.768  1.00  0.00     0.212 CG0
ATOM     51  G   UNL     1      -4.806   8.295  -2.094  1.00  0.00     0.000 G0
BRANCH  50  52
ATOM     52  N   UNL     1      -2.608   9.285  -2.787  1.00  0.00    -0.339 N 
ATOM     53  C   UNL     1      -1.288   9.016  -2.521  1.00  0.00     0.243 C 
ATOM     54  O   UNL     1      -0.874   8.790  -1.387  1.00  0.00    -0.273 OA
ATOM     55  H   UNL     1      -2.870   9.574  -3.728  1.00  0.00     0.164 HD
BRANCH  53  56
ATOM     56  C   UNL     1      -0.356   9.181  -3.738  1.00  0.00     0.182 C 
BRANCH  56  57
ATOM     57  N   UNL     1      -0.738   8.270  -4.822  1.00  0.00    -0.344 N 
ATOM     58  C   UNL     1      -1.242   8.719  -6.018  1.00  0.00     0.220 C 
ATOM     59  O   UNL     1      -1.475   9.902  -6.237  1.00  0.00    -0.275 OA
ATOM     60  H   UNL     1      -0.467   7.295  -4.720  1.00  0.00     0.164 HD
BRANCH  58  61
ATOM     61  C   UNL     1      -1.512   7.605  -7.012  1.00  0.00     0.100 C 
BRANCH  61  62
ATOM     62  C   UNL     1      -0.306   7.247  -7.881  1.00  0.00     0.010 C 
BRANCH  62  63
ATOM     63  C   UNL     1       0.613   8.434  -8.197  1.00  0.00     0.000 C 
BRANCH  63  64
ATOM     64  C   UNL     1       2.066   8.232  -7.770  1.00  0.00    -0.003 C 
ATOM     65  C   UNL     1       3.013   8.335  -8.957  1.00  0.00     0.004 C 
ENDBRANCH  63  64
ENDBRANCH  62  63
ENDBRANCH  61  62
ENDBRANCH  58  61
ENDBRANCH  56  57
BRANCH  56  66
ATOM     66  C   UNL     1       1.112   9.026  -3.345  1.00  0.00     0.157 C 
BRANCH  66  67
ATOM     67  C   UNL     1       2.002   9.854  -4.227  1.00  0.00     0.305 C 
ATOM     68  O   UNL     1       3.220   9.795  -4.300  1.00  0.00    -0.252 OA
BRANCH  67  69
ATOM     69  O   UNL     1       1.303  10.689  -5.019  1.00  0.00    -0.481 OA
ATOM     70  H   UNL     1       1.030  11.423  -4.430  1.00  0.00     0.296 HD
ENDBRANCH  67  69
ENDBRANCH  66  67
ENDBRANCH  56  66
ENDBRANCH  53  56
ENDBRANCH  50  52
ENDBRANCH  47  50
ENDBRANCH  45  46
BRANCH  45  71
ATOM     71  C   UNL     1      -3.153  13.869  -0.400  1.00  0.00     0.037 C 
BRANCH  71  72
ATOM     72  C   UNL     1      -3.281  14.978  -1.448  1.00  0.00     0.026 C 
BRANCH  72  73
ATOM     73  C   UNL     1      -3.460  14.403  -2.852  1.00  0.00     0.146 C 
BRANCH  73  74
ATOM     74  N   UNL     1      -2.149  13.973  -3.329  1.00  0.00    -0.254 NA
ATOM     75  C   UNL     1      -2.104  12.994  -4.155  1.00  0.00     0.185 C 
ATOM     76  N   UNL     1      -0.912  12.576  -4.613  1.00  0.00    -0.370 N 
ATOM     77  N   UNL     1      -3.117  12.274  -4.669  1.00  0.00    -0.370 N 
ATOM     78  H   UNL     1      -0.095  13.061  -4.270  1.00  0.00     0.159 HD
ATOM     79  H   UNL     1      -0.788  11.732  -5.143  1.00  0.00     0.159 HD
ATOM     80  H   UNL     1      -4.072  12.479  -4.416  1.00  0.00     0.159 HD
ATOM     81  H   UNL     1      -2.967  11.600  -5.401  1.00  0.00     0.159 HD
ENDBRANCH  73  74
ENDBRANCH  72  73
ENDBRANCH  71  72
ENDBRANCH  45  71
ENDBRANCH   3  45
TORSDOF 20
ENDMDL
MODEL 3
REMARK VINA RESULT:    -5.873     14.204     18.885
REMARK INTER + INTRA:         -22.288
REMARK INTER:                 -18.369
REMARK INTRA:                  -3.920
REMARK UNBOUND:                -5.429
REMARK SMILES CCCCCC(=O)N[C@H](CC(=O)O)C(=O)N[C@H]1C(=O)N[C@H](CCCN=C(N)N)C(=O)N[C@@H]2CC[C@H](O)N(C2=O)[C@@H](CC(C)C)C(=O)N(C)[C@@H](Cc2ccccc2)C(=O)N[C@H](C(C)C)C(=O)O[C@@H]1C
REMARK SMILES IDX 30 1 31 2 29 3 32 5 35 6 37 7 34 8 38 9 33 10 39 11 36 12
REMARK SMILES IDX 40 14 41 15 42 16 43 17 44 18 45 19 46 20 47 21 48 22 49 23
REMARK SMILES IDX 50 24 51 25 52 26 56 27 53 28 55 29 54 30 57 31 58 32 59 33
REMARK SMILES IDX 60 35 61 36 62 37 63 38 64 39 65 40 66 41 67 42 68 43 21 45
REMARK SMILES IDX 20 46 18 47 19 48 17 50 16 52 14 53 15 54 9 56 8 57 6 58
REMARK SMILES IDX 7 59 5 61 4 62 3 63 2 64 1 65 10 66 11 67 12 68 13 69 22 71
REMARK SMILES IDX 23 72 24 73 25 74 26 75 27 76 28 77
REMARK H PARENT 31 4 36 13 59 34 20 49 16 55 8 60 13 70 27 78 27 79 28 80
REMARK H PARENT 28 81
REMARK Flexibility Score:  259.900
ROOT
ATOM      1  O   UNL     1      -1.292  -5.587  -3.647  1.00  0.00    -0.273 OA
ATOM      2  N   UNL     1      -0.998  -6.798  -5.565  1.00  0.00    -0.343 N 
ATOM      3  C   UNL     1      -1.744  -6.362  -4.491  1.00  0.00     0.243 C 
ATOM      4  H   UNL     1      -1.407  -7.424  -6.247  1.00  0.00     0.164 HD
ENDROOT
BRANCH   2   5
ATOM      5  C   UNL     1       0.413  -6.446  -5.681  1.00  0.00     0.171 C 
ATOM      6  C   UNL     1       2.137  -5.966  -7.962  1.00  0.00     0.214 C 
ATOM      7  N   UNL     1       2.035  -7.300  -7.417  1.00  0.00    -0.303 N 
ATOM      8  C   UNL     1       1.933  -4.875  -6.924  1.00  0.00     0.057 C 
ATOM      9  C   UNL     1       1.192  -7.608  -6.361  1.00  0.00     0.247 C 
ATOM     10  C   UNL     1       0.583  -5.043  -6.261  1.00  0.00     0.040 C 
ATOM     11  O   UNL     1       1.045  -8.769  -5.956  1.00  0.00    -0.272 OA
BRANCH   6  12
ATOM     12  O   UNL     1       1.184  -5.849  -8.993  1.00  0.00    -0.373 OA
ATOM     13  H   UNL     1       0.313  -5.711  -8.565  1.00  0.00     0.213 HD
ENDBRANCH   6  12
BRANCH   7  14
ATOM     14  C   UNL     1       2.762  -8.372  -8.128  1.00  0.00     0.177 C 
BRANCH  14  15
ATOM     15  C   UNL     1       1.954  -9.661  -8.375  1.00  0.00     0.038 C 
BRANCH  15  16
ATOM     16  C   UNL     1       2.616 -11.034  -8.126  1.00  0.00    -0.015 C 
ATOM     17  C   UNL     1       1.690 -12.004  -7.387  1.00  0.00     0.007 C 
ATOM     18  C   UNL     1       3.888 -10.852  -7.288  1.00  0.00     0.007 C 
ENDBRANCH  15  16
ENDBRANCH  14  15
BRANCH  14  19
ATOM     19  C   UNL     1       3.809  -7.755  -9.118  1.00  0.00     0.245 C 
ATOM     20  O   UNL     1       3.373  -7.330 -10.201  1.00  0.00    -0.272 OA
BRANCH  19  21
ATOM     21  N   UNL     1       5.175  -7.763  -8.899  1.00  0.00    -0.332 N 
ATOM     22  C   UNL     1       5.958  -8.919  -8.499  1.00  0.00     0.147 C 
BRANCH  21  23
ATOM     23  C   UNL     1       5.916  -6.483  -9.074  1.00  0.00     0.178 C 
BRANCH  23  24
ATOM     24  C   UNL     1       6.406  -5.836  -7.763  1.00  0.00     0.070 C 
BRANCH  24  25
ATOM     25  C   UNL     1       6.472  -4.327  -7.722  1.00  0.00    -0.045 A 
ATOM     26  C   UNL     1       7.679  -3.655  -7.953  1.00  0.00     0.004 A 
ATOM     27  C   UNL     1       5.319  -3.576  -7.447  1.00  0.00     0.004 A 
ATOM     28  C   UNL     1       7.735  -2.261  -7.896  1.00  0.00     0.000 A 
ATOM     29  C   UNL     1       5.376  -2.183  -7.392  1.00  0.00     0.000 A 
ATOM     30  C   UNL     1       6.585  -1.526  -7.614  1.00  0.00     0.000 A 
ENDBRANCH  24  25
ENDBRANCH  23  24
BRANCH  23  31
ATOM     31  C   UNL     1       6.972  -6.546 -10.204  1.00  0.00     0.243 C 
ATOM     32  O   UNL     1       8.181  -6.639 -10.009  1.00  0.00    -0.273 OA
ATOM     33  N   UNL     1       6.450  -6.301 -11.463  1.00  0.00    -0.341 N 
ATOM     34  H   UNL     1       5.434  -6.227 -11.561  1.00  0.00     0.164 HD
BRANCH  33  35
ATOM     35  C   UNL     1       7.281  -6.194 -12.665  1.00  0.00     0.194 C 
BRANCH  35  36
ATOM     36  C   UNL     1       6.949  -4.966 -13.559  1.00  0.00     0.017 C 
ATOM     37  C   UNL     1       7.778  -3.736 -13.149  1.00  0.00     0.010 C 
ATOM     38  C   UNL     1       5.471  -4.562 -13.506  1.00  0.00     0.010 C 
ENDBRANCH  35  36
BRANCH  35  39
ATOM     39  C   UNL     1       7.320  -7.514 -13.484  1.00  0.00     0.329 C 
ATOM     40  O   UNL     1       6.457  -7.850 -14.287  1.00  0.00    -0.250 OA
BRANCH  39  41
ATOM     41  O   UNL     1       8.472  -8.222 -13.276  1.00  0.00    -0.458 OA
BRANCH  41  42
ATOM     42  C   UNL     1       9.059  -8.849 -14.441  1.00  0.00     0.205 CG0
ATOM     43  C   UNL     1       9.191 -10.340 -14.136  1.00  0.00     0.056 C 
ATOM     44  G   UNL     1      10.420  -8.182 -14.725  1.00  0.00     0.000 G0
ENDBRANCH  41  42
ENDBRANCH  39  41
ENDBRANCH  35  39
ENDBRANCH  33  35
ENDBRANCH  23  31
ENDBRANCH  21  23
ENDBRANCH  19  21
ENDBRANCH  14  19
ENDBRANCH   7  14
ENDBRANCH   2   5
BRANCH   3  45
ATOM     45  C   UNL     1      -3.182  -6.892  -4.431  1.00  0.00     0.171 C 
BRANCH  45  46
ATOM     46  N   UNL     1      -3.387  -7.322  -3.054  1.00  0.00    -0.342 N 
ATOM     47  C   UNL     1      -4.315  -6.737  -2.230  1.00  0.00     0.247 C 
ATOM     48  O   UNL     1      -5.091  -5.861  -2.614  1.00  0.00    -0.273 OA
ATOM     49  H   UNL     1      -2.804  -8.084  -2.712  1.00  0.00     0.164 HD
BRANCH  47  50
ATOM     50  C   UNL     1      -4.303  -7.236  -0.778  1.00  0.00     0.212 CG0
ATOM     51  G   UNL     1      -4.329  -5.999   0.141  1.00  0.00     0.000 G0
BRANCH  50  52
ATOM     52  N   UNL     1      -5.487  -8.080  -0.646  1.00  0.00    -0.339 N 
ATOM     53  C   UNL     1      -5.527  -9.395  -1.041  1.00  0.00     0.243 C 
ATOM     54  O   UNL     1      -4.579  -9.950  -1.589  1.00  0.00    -0.273 OA
ATOM     55  H   UNL     1      -6.341  -7.645  -0.301  1.00  0.00     0.164 HD
BRANCH  53  56
ATOM     56  C   UNL     1      -6.911 -10.056  -0.883  1.00  0.00     0.182 C 
BRANCH  56  57
ATOM     57  N   UNL     1      -7.908  -9.403  -1.737  1.00  0.00    -0.344 N 
ATOM     58  C   UNL     1      -8.043  -9.702  -3.071  1.00  0.00     0.220 C 
ATOM     59  O   UNL     1      -7.295 -10.478  -3.656  1.00  0.00    -0.275 OA
ATOM     60  H   UNL     1      -8.610  -8.833  -1.273  1.00  0.00     0.164 HD
BRANCH  58  61
ATOM     61  C   UNL     1      -9.175  -8.950  -3.745  1.00  0.00     0.100 C 
BRANCH  61  62
ATOM     62  C   UNL     1      -9.145  -9.028  -5.271  1.00  0.00     0.010 C 
BRANCH  62  63
ATOM     63  C   UNL     1     -10.344  -9.763  -5.886  1.00  0.00     0.000 C 
BRANCH  63  64
ATOM     64  C   UNL     1     -10.309 -11.280  -5.705  1.00  0.00    -0.003 C 
ATOM     65  C   UNL     1     -10.319 -11.999  -7.046  1.00  0.00     0.004 C 
ENDBRANCH  63  64
ENDBRANCH  62  63
ENDBRANCH  61  62
ENDBRANCH  58  61
ENDBRANCH  56  57
BRANCH  56  66
ATOM     66  C   UNL     1      -7.347 -10.100   0.581  1.00  0.00     0.157 C 
BRANCH  66  67
ATOM     67  C   UNL     1      -8.523  -9.199   0.825  1.00  0.00     0.305 C 
ATOM     68  O   UNL     1      -9.698  -9.528   0.885  1.00  0.00    -0.252 OA
BRANCH  67  69
ATOM     69  O   UNL     1      -8.154  -7.921   1.037  1.00  0.00    -0.481 OA
ATOM     70  H   UNL     1      -7.200  -7.970   1.257  1.00  0.00     0.296 HD
ENDBRANCH  67  69
ENDBRANCH  66  67
ENDBRANCH  56  66
ENDBRANCH  53  56
ENDBRANCH  50  52
ENDBRANCH  47  50
ENDBRANCH  45  46
BRANCH  45  71
ATOM     71  C   UNL     1      -3.366  -8.050  -5.418  1.00  0.00     0.037 C 
BRANCH  71  72
ATOM     72  C   UNL     1      -4.448  -7.754  -6.459  1.00  0.00     0.026 C 
BRANCH  72  73
ATOM     73  C   UNL     1      -4.853  -9.014  -7.221  1.00  0.00     0.146 C 
BRANCH  73  74
ATOM     74  N   UNL     1      -5.500  -8.598  -8.461  1.00  0.00    -0.254 NA
ATOM     75  C   UNL     1      -6.439  -9.337  -8.924  1.00  0.00     0.185 C 
ATOM     76  N   UNL     1      -7.054  -8.980 -10.063  1.00  0.00    -0.370 N 
ATOM     77  N   UNL     1      -6.938 -10.481  -8.424  1.00  0.00    -0.370 N 
ATOM     78  H   UNL     1      -6.734  -8.133 -10.510  1.00  0.00     0.159 HD
ATOM     79  H   UNL     1      -7.692  -9.578 -10.559  1.00  0.00     0.159 HD
ATOM     80  H   UNL     1      -6.574 -10.869  -7.567  1.00  0.00     0.159 HD
ATOM     81  H   UNL     1      -7.758 -10.915  -8.815  1.00  0.00     0.159 HD
ENDBRANCH  73  74
ENDBRANCH  72  73
ENDBRANCH  71  72
ENDBRANCH  45  71
ENDBRANCH   3  45
TORSDOF 20
ENDMDL
MODEL 4
REMARK VINA RESULT:    -5.789      6.328     11.178
REMARK INTER + INTRA:         -22.046
REMARK INTER:                 -16.403
REMARK INTRA:                  -5.643
REMARK UNBOUND:                -5.429
REMARK SMILES CCCCCC(=O)N[C@H](CC(=O)O)C(=O)N[C@H]1C(=O)N[C@H](CCCN=C(N)N)C(=O)N[C@@H]2CC[C@H](O)N(C2=O)[C@@H](CC(C)C)C(=O)N(C)[C@@H](Cc2ccccc2)C(=O)N[C@H](C(C)C)C(=O)O[C@@H]1C
REMARK SMILES IDX 30 1 31 2 29 3 32 5 35 6 37 7 34 8 38 9 33 10 39 11 36 12
REMARK SMILES IDX 40 14 41 15 42 16 43 17 44 18 45 19 46 20 47 21 48 22 49 23
REMARK SMILES IDX 50 24 51 25 52 26 56 27 53 28 55 29 54 30 57 31 58 32 59 33
REMARK SMILES IDX 60 35 61 36 62 37 63 38 64 39 65 40 66 41 67 42 68 43 21 45
REMARK SMILES IDX 20 46 18 47 19 48 17 50 16 52 14 53 15 54 9 56 8 57 6 58
REMARK SMILES IDX 7 59 5 61 4 62 3 63 2 64 1 65 10 66 11 67 12 68 13 69 22 71
REMARK SMILES IDX 23 72 24 73 25 74 26 75 27 76 28 77
REMARK H PARENT 31 4 36 13 59 34 20 49 16 55 8 60 13 70 27 78 27 79 28 80
REMARK H PARENT 28 81
REMARK Flexibility Score:  259.900
ROOT
ATOM      1  O   UNL     1      -5.408  11.967   1.366  1.00  0.00    -0.273 OA
ATOM      2  N   UNL     1      -5.588  14.210   0.961  1.00  0.00    -0.343 N 
ATOM      3  C   UNL     1      -5.244  12.923   0.608  1.00  0.00     0.243 C 
ATOM      4  H   UNL     1      -5.453  14.970   0.306  1.00  0.00     0.164 HD
ENDROOT
BRANCH   2   5
ATOM      5  C   UNL     1      -6.056  14.511   2.310  1.00  0.00     0.171 C 
ATOM      6  C   UNL     1      -6.492  12.858   4.651  1.00  0.00     0.214 C 
ATOM      7  N   UNL     1      -7.578  13.077   3.724  1.00  0.00    -0.303 N 
ATOM      8  C   UNL     1      -5.512  14.018   4.715  1.00  0.00     0.057 C 
ATOM      9  C   UNL     1      -7.424  13.813   2.561  1.00  0.00     0.247 C 
ATOM     10  C   UNL     1      -4.947  14.289   3.337  1.00  0.00     0.040 C 
ATOM     11  O   UNL     1      -8.334  13.924   1.729  1.00  0.00    -0.272 OA
BRANCH   6  12
ATOM     12  O   UNL     1      -5.830  11.675   4.267  1.00  0.00    -0.373 OA
ATOM     13  H   UNL     1      -6.193  10.950   4.819  1.00  0.00     0.213 HD
ENDBRANCH   6  12
BRANCH   7  14
ATOM     14  C   UNL     1      -8.841  12.356   3.989  1.00  0.00     0.177 C 
BRANCH  14  15
ATOM     15  C   UNL     1     -10.004  13.233   4.492  1.00  0.00     0.038 C 
BRANCH  15  16
ATOM     16  C   UNL     1     -10.224  13.407   6.011  1.00  0.00    -0.015 C 
ATOM     17  C   UNL     1     -11.667  13.114   6.430  1.00  0.00     0.007 C 
ATOM     18  C   UNL     1      -9.887  14.846   6.422  1.00  0.00     0.007 C 
ENDBRANCH  15  16
ENDBRANCH  14  15
BRANCH  14  19
ATOM     19  C   UNL     1      -8.981  11.131   3.020  1.00  0.00     0.245 C 
ATOM     20  O   UNL     1      -8.240  11.119   2.023  1.00  0.00    -0.272 OA
BRANCH  19  21
ATOM     21  N   UNL     1      -9.943  10.147   3.156  1.00  0.00    -0.332 N 
ATOM     22  C   UNL     1     -11.363  10.314   2.899  1.00  0.00     0.147 C 
BRANCH  21  23
ATOM     23  C   UNL     1      -9.502   8.801   3.615  1.00  0.00     0.178 C 
BRANCH  23  24
ATOM     24  C   UNL     1     -10.366   8.184   4.734  1.00  0.00     0.070 C 
BRANCH  24  25
ATOM     25  C   UNL     1     -10.374   8.894   6.068  1.00  0.00    -0.045 A 
ATOM     26  C   UNL     1     -11.448   8.743   6.954  1.00  0.00     0.004 A 
ATOM     27  C   UNL     1      -9.302   9.721   6.435  1.00  0.00     0.004 A 
ATOM     28  C   UNL     1     -11.456   9.416   8.178  1.00  0.00     0.000 A 
ATOM     29  C   UNL     1      -9.311  10.392   7.659  1.00  0.00     0.000 A 
ATOM     30  C   UNL     1     -10.389  10.241   8.528  1.00  0.00     0.000 A 
ENDBRANCH  24  25
ENDBRANCH  23  24
BRANCH  23  31
ATOM     31  C   UNL     1      -9.169   7.843   2.446  1.00  0.00     0.243 C 
ATOM     32  O   UNL     1      -9.747   6.778   2.245  1.00  0.00    -0.273 OA
ATOM     33  N   UNL     1      -8.031   8.202   1.743  1.00  0.00    -0.341 N 
ATOM     34  H   UNL     1      -7.590   9.099   1.960  1.00  0.00     0.164 HD
BRANCH  33  35
ATOM     35  C   UNL     1      -7.461   7.380   0.673  1.00  0.00     0.194 C 
BRANCH  35  36
ATOM     36  C   UNL     1      -6.398   6.354   1.157  1.00  0.00     0.017 C 
ATOM     37  C   UNL     1      -6.840   4.910   0.867  1.00  0.00     0.010 C 
ATOM     38  C   UNL     1      -6.105   6.452   2.660  1.00  0.00     0.010 C 
ENDBRANCH  35  36
BRANCH  35  39
ATOM     39  C   UNL     1      -6.946   8.229  -0.523  1.00  0.00     0.329 C 
ATOM     40  O   UNL     1      -7.664   8.930  -1.226  1.00  0.00    -0.250 OA
BRANCH  39  41
ATOM     41  O   UNL     1      -5.586   8.174  -0.652  1.00  0.00    -0.458 OA
BRANCH  41  42
ATOM     42  C   UNL     1      -5.062   8.321  -1.993  1.00  0.00     0.205 CG0
ATOM     43  C   UNL     1      -4.790   6.917  -2.530  1.00  0.00     0.056 C 
ATOM     44  G   UNL     1      -3.787   9.186  -1.932  1.00  0.00     0.000 G0
ENDBRANCH  41  42
ENDBRANCH  39  41
ENDBRANCH  35  39
ENDBRANCH  33  35
ENDBRANCH  23  31
ENDBRANCH  21  23
ENDBRANCH  19  21
ENDBRANCH  14  19
ENDBRANCH   7  14
ENDBRANCH   2   5
BRANCH   3  45
ATOM     45  C   UNL     1      -4.664  12.762  -0.803  1.00  0.00     0.171 C 
BRANCH  45  46
ATOM     46  N   UNL     1      -4.190  11.386  -0.879  1.00  0.00    -0.342 N 
ATOM     47  C   UNL     1      -4.201  10.666  -2.047  1.00  0.00     0.247 C 
ATOM     48  O   UNL     1      -4.543  11.150  -3.127  1.00  0.00    -0.273 OA
ATOM     49  H   UNL     1      -3.845  10.964  -0.018  1.00  0.00     0.164 HD
BRANCH  47  50
ATOM     50  C   UNL     1      -3.782   9.196  -1.909  1.00  0.00     0.212 CG0
ATOM     51  G   UNL     1      -5.059   8.336  -1.993  1.00  0.00     0.000 G0
BRANCH  50  52
ATOM     52  N   UNL     1      -2.849   8.952  -3.006  1.00  0.00    -0.339 N 
ATOM     53  C   UNL     1      -1.489   8.864  -2.836  1.00  0.00     0.243 C 
ATOM     54  O   UNL     1      -0.945   9.038  -1.748  1.00  0.00    -0.273 OA
ATOM     55  H   UNL     1      -3.229   8.910  -3.949  1.00  0.00     0.164 HD
BRANCH  53  56
ATOM     56  C   UNL     1      -0.702   8.689  -4.150  1.00  0.00     0.182 C 
BRANCH  56  57
ATOM     57  N   UNL     1       0.215   9.813  -4.369  1.00  0.00    -0.344 N 
ATOM     58  C   UNL     1       1.534   9.771  -3.988  1.00  0.00     0.220 C 
ATOM     59  O   UNL     1       2.018   8.826  -3.375  1.00  0.00    -0.275 OA
ATOM     60  H   UNL     1      -0.118  10.570  -4.960  1.00  0.00     0.164 HD
BRANCH  58  61
ATOM     61  C   UNL     1       2.308  11.021  -4.365  1.00  0.00     0.100 C 
BRANCH  61  62
ATOM     62  C   UNL     1       2.008  11.530  -5.775  1.00  0.00     0.010 C 
BRANCH  62  63
ATOM     63  C   UNL     1       1.931  13.058  -5.887  1.00  0.00     0.000 C 
BRANCH  63  64
ATOM     64  C   UNL     1       0.586  13.583  -6.385  1.00  0.00    -0.003 C 
ATOM     65  C   UNL     1       0.612  13.844  -7.885  1.00  0.00     0.004 C 
ENDBRANCH  63  64
ENDBRANCH  62  63
ENDBRANCH  61  62
ENDBRANCH  58  61
ENDBRANCH  56  57
BRANCH  56  66
ATOM     66  C   UNL     1      -1.637   8.469  -5.338  1.00  0.00     0.157 C 
BRANCH  66  67
ATOM     67  C   UNL     1      -0.937   8.739  -6.639  1.00  0.00     0.305 C 
ATOM     68  O   UNL     1      -0.440   7.912  -7.388  1.00  0.00    -0.252 OA
BRANCH  67  69
ATOM     69  O   UNL     1      -0.944  10.046  -6.962  1.00  0.00    -0.481 OA
ATOM     70  H   UNL     1      -1.740  10.409  -6.520  1.00  0.00     0.296 HD
ENDBRANCH  67  69
ENDBRANCH  66  67
ENDBRANCH  56  66
ENDBRANCH  53  56
ENDBRANCH  50  52
ENDBRANCH  47  50
ENDBRANCH  45  46
BRANCH  45  71
ATOM     71  C   UNL     1      -3.527  13.765  -1.031  1.00  0.00     0.037 C 
BRANCH  71  72
ATOM     72  C   UNL     1      -3.796  14.677  -2.230  1.00  0.00     0.026 C 
BRANCH  72  73
ATOM     73  C   UNL     1      -2.602  14.717  -3.182  1.00  0.00     0.146 C 
BRANCH  73  74
ATOM     74  N   UNL     1      -2.906  13.852  -4.317  1.00  0.00    -0.254 NA
ATOM     75  C   UNL     1      -2.312  12.718  -4.383  1.00  0.00     0.185 C 
ATOM     76  N   UNL     1      -2.571  11.900  -5.415  1.00  0.00    -0.370 N 
ATOM     77  N   UNL     1      -1.416  12.184  -3.534  1.00  0.00    -0.370 N 
ATOM     78  H   UNL     1      -3.230  12.230  -6.106  1.00  0.00     0.159 HD
ATOM     79  H   UNL     1      -2.042  11.068  -5.609  1.00  0.00     0.159 HD
ATOM     80  H   UNL     1      -1.128  12.686  -2.708  1.00  0.00     0.159 HD
ATOM     81  H   UNL     1      -1.102  11.232  -3.628  1.00  0.00     0.159 HD
ENDBRANCH  73  74
ENDBRANCH  72  73
ENDBRANCH  71  72
ENDBRANCH  45  71
ENDBRANCH   3  45
TORSDOF 20
ENDMDL
MODEL 5
REMARK VINA RESULT:    -5.707      6.554     15.266
REMARK INTER + INTRA:         -21.811
REMARK INTER:                 -17.039
REMARK INTRA:                  -4.772
REMARK UNBOUND:                -5.429
REMARK SMILES CCCCCC(=O)N[C@H](CC(=O)O)C(=O)N[C@H]1C(=O)N[C@H](CCCN=C(N)N)C(=O)N[C@@H]2CC[C@H](O)N(C2=O)[C@@H](CC(C)C)C(=O)N(C)[C@@H](Cc2ccccc2)C(=O)N[C@H](C(C)C)C(=O)O[C@@H]1C
REMARK SMILES IDX 30 1 31 2 29 3 32 5 35 6 37 7 34 8 38 9 33 10 39 11 36 12
REMARK SMILES IDX 40 14 41 15 42 16 43 17 44 18 45 19 46 20 47 21 48 22 49 23
REMARK SMILES IDX 50 24 51 25 52 26 56 27 53 28 55 29 54 30 57 31 58 32 59 33
REMARK SMILES IDX 60 35 61 36 62 37 63 38 64 39 65 40 66 41 67 42 68 43 21 45
REMARK SMILES IDX 20 46 18 47 19 48 17 50 16 52 14 53 15 54 9 56 8 57 6 58
REMARK SMILES IDX 7 59 5 61 4 62 3 63 2 64 1 65 10 66 11 67 12 68 13 69 22 71
REMARK SMILES IDX 23 72 24 73 25 74 26 75 27 76 28 77
REMARK H PARENT 31 4 36 13 59 34 20 49 16 55 8 60 13 70 27 78 27 79 28 80
REMARK H PARENT 28 81
REMARK Flexibility Score:  259.900
ROOT
ATOM      1  O   UNL     1      -2.586  -5.696  -2.206  1.00  0.00    -0.273 OA
ATOM      2  N   UNL     1      -4.696  -4.821  -2.323  1.00  0.00    -0.343 N 
ATOM      3  C   UNL     1      -3.518  -5.265  -2.885  1.00  0.00     0.243 C 
ATOM      4  H   UNL     1      -5.447  -4.487  -2.914  1.00  0.00     0.164 HD
ENDROOT
BRANCH   2   5
ATOM      5  C   UNL     1      -4.840  -4.733  -0.874  1.00  0.00     0.171 C 
ATOM      6  C   UNL     1      -6.907  -3.626   0.831  1.00  0.00     0.214 C 
ATOM      7  N   UNL     1      -5.799  -2.792   0.424  1.00  0.00    -0.303 N 
ATOM      8  C   UNL     1      -6.544  -5.098   0.939  1.00  0.00     0.057 C 
ATOM      9  C   UNL     1      -4.805  -3.243  -0.430  1.00  0.00     0.247 C 
ATOM     10  C   UNL     1      -6.005  -5.592  -0.386  1.00  0.00     0.040 C 
ATOM     11  O   UNL     1      -3.907  -2.497  -0.843  1.00  0.00    -0.272 OA
BRANCH   6  12
ATOM     12  O   UNL     1      -7.948  -3.442  -0.100  1.00  0.00    -0.373 OA
ATOM     13  H   UNL     1      -8.190  -2.492  -0.078  1.00  0.00     0.213 HD
ENDBRANCH   6  12
BRANCH   7  14
ATOM     14  C   UNL     1      -5.840  -1.374   0.839  1.00  0.00     0.177 C 
BRANCH  14  15
ATOM     15  C   UNL     1      -7.216  -0.692   0.712  1.00  0.00     0.038 C 
BRANCH  15  16
ATOM     16  C   UNL     1      -7.466   0.307  -0.439  1.00  0.00    -0.015 C 
ATOM     17  C   UNL     1      -8.623  -0.125  -1.346  1.00  0.00     0.007 C 
ATOM     18  C   UNL     1      -6.203   0.435  -1.300  1.00  0.00     0.007 C 
ENDBRANCH  15  16
ENDBRANCH  14  15
BRANCH  14  19
ATOM     19  C   UNL     1      -4.800  -1.113   1.983  1.00  0.00     0.245 C 
ATOM     20  O   UNL     1      -4.859  -1.860   2.974  1.00  0.00    -0.272 OA
BRANCH  19  21
ATOM     21  N   UNL     1      -3.917  -0.048   1.994  1.00  0.00    -0.332 N 
ATOM     22  C   UNL     1      -3.111   0.391   0.868  1.00  0.00     0.147 C 
BRANCH  21  23
ATOM     23  C   UNL     1      -3.763   0.715   3.263  1.00  0.00     0.178 C 
BRANCH  23  24
ATOM     24  C   UNL     1      -2.398   1.413   3.435  1.00  0.00     0.070 C 
BRANCH  24  25
ATOM     25  C   UNL     1      -1.339   0.670   4.216  1.00  0.00    -0.045 A 
ATOM     26  C   UNL     1      -0.386  -0.120   3.560  1.00  0.00     0.004 A 
ATOM     27  C   UNL     1      -1.299   0.758   5.616  1.00  0.00     0.004 A 
ATOM     28  C   UNL     1       0.579  -0.817   4.290  1.00  0.00     0.000 A 
ATOM     29  C   UNL     1      -0.333   0.062   6.344  1.00  0.00     0.000 A 
ATOM     30  C   UNL     1       0.603  -0.728   5.680  1.00  0.00     0.000 A 
ENDBRANCH  24  25
ENDBRANCH  23  24
BRANCH  23  31
ATOM     31  C   UNL     1      -4.991   1.598   3.590  1.00  0.00     0.243 C 
ATOM     32  O   UNL     1      -6.129   1.161   3.744  1.00  0.00    -0.273 OA
ATOM     33  N   UNL     1      -4.733   2.956   3.513  1.00  0.00    -0.341 N 
ATOM     34  H   UNL     1      -3.765   3.259   3.377  1.00  0.00     0.164 HD
BRANCH  33  35
ATOM     35  C   UNL     1      -5.773   3.976   3.667  1.00  0.00     0.194 C 
BRANCH  35  36
ATOM     36  C   UNL     1      -5.425   5.342   3.010  1.00  0.00     0.017 C 
ATOM     37  C   UNL     1      -6.474   5.739   1.956  1.00  0.00     0.010 C 
ATOM     38  C   UNL     1      -4.056   5.349   2.319  1.00  0.00     0.010 C 
ENDBRANCH  35  36
BRANCH  35  39
ATOM     39  C   UNL     1      -6.234   4.143   5.142  1.00  0.00     0.329 C 
ATOM     40  O   UNL     1      -5.472   4.148   6.102  1.00  0.00    -0.250 OA
BRANCH  39  41
ATOM     41  O   UNL     1      -7.578   4.371   5.244  1.00  0.00    -0.458 OA
BRANCH  41  42
ATOM     42  C   UNL     1      -8.045   4.894   6.511  1.00  0.00     0.205 CG0
ATOM     43  C   UNL     1      -8.872   3.797   7.178  1.00  0.00     0.056 C 
ATOM     44  G   UNL     1      -8.866   6.171   6.243  1.00  0.00     0.000 G0
ENDBRANCH  41  42
ENDBRANCH  39  41
ENDBRANCH  35  39
ENDBRANCH  33  35
ENDBRANCH  23  31
ENDBRANCH  21  23
ENDBRANCH  19  21
ENDBRANCH  14  19
ENDBRANCH   7  14
ENDBRANCH   2   5
BRANCH   3  45
ATOM     45  C   UNL     1      -3.458  -5.205  -4.417  1.00  0.00     0.171 C 
BRANCH  45  46
ATOM     46  N   UNL     1      -2.398  -6.126  -4.806  1.00  0.00    -0.342 N 
ATOM     47  C   UNL     1      -2.650  -7.295  -5.480  1.00  0.00     0.247 C 
ATOM     48  O   UNL     1      -3.775  -7.614  -5.868  1.00  0.00    -0.273 OA
ATOM     49  H   UNL     1      -1.445  -5.873  -4.554  1.00  0.00     0.164 HD
BRANCH  47  50
ATOM     50  C   UNL     1      -1.427  -8.198  -5.694  1.00  0.00     0.212 CG0
ATOM     51  G   UNL     1      -1.831  -9.302  -6.692  1.00  0.00     0.000 G0
BRANCH  50  52
ATOM     52  N   UNL     1      -0.377  -7.318  -6.201  1.00  0.00    -0.339 N 
ATOM     53  C   UNL     1       0.938  -7.698  -6.313  1.00  0.00     0.243 C 
ATOM     54  O   UNL     1       1.344  -8.796  -5.943  1.00  0.00    -0.273 OA
ATOM     55  H   UNL     1      -0.631  -6.357  -6.420  1.00  0.00     0.164 HD
BRANCH  53  56
ATOM     56  C   UNL     1       1.878  -6.572  -6.791  1.00  0.00     0.182 C 
BRANCH  56  57
ATOM     57  N   UNL     1       3.154  -7.117  -7.264  1.00  0.00    -0.344 N 
ATOM     58  C   UNL     1       3.373  -7.441  -8.581  1.00  0.00     0.220 C 
ATOM     59  O   UNL     1       2.498  -7.366  -9.437  1.00  0.00    -0.275 OA
ATOM     60  H   UNL     1       3.933  -7.099  -6.611  1.00  0.00     0.164 HD
BRANCH  58  61
ATOM     61  C   UNL     1       4.783  -7.931  -8.854  1.00  0.00     0.100 C 
BRANCH  61  62
ATOM     62  C   UNL     1       5.864  -6.886  -8.575  1.00  0.00     0.010 C 
BRANCH  62  63
ATOM     63  C   UNL     1       5.741  -5.615  -9.425  1.00  0.00     0.000 C 
BRANCH  63  64
ATOM     64  C   UNL     1       6.252  -4.350  -8.737  1.00  0.00    -0.003 C 
ATOM     65  C   UNL     1       7.363  -4.667  -7.746  1.00  0.00     0.004 C 
ENDBRANCH  63  64
ENDBRANCH  62  63
ENDBRANCH  61  62
ENDBRANCH  58  61
ENDBRANCH  56  57
BRANCH  56  66
ATOM     66  C   UNL     1       2.070  -5.507  -5.712  1.00  0.00     0.157 C 
BRANCH  66  67
ATOM     67  C   UNL     1       3.099  -4.495  -6.125  1.00  0.00     0.305 C 
ATOM     68  O   UNL     1       3.118  -3.851  -7.163  1.00  0.00    -0.252 OA
BRANCH  67  69
ATOM     69  O   UNL     1       4.036  -4.302  -5.177  1.00  0.00    -0.481 OA
ATOM     70  H   UNL     1       4.601  -3.581  -5.527  1.00  0.00     0.296 HD
ENDBRANCH  67  69
ENDBRANCH  66  67
ENDBRANCH  56  66
ENDBRANCH  53  56
ENDBRANCH  50  52
ENDBRANCH  47  50
ENDBRANCH  45  46
BRANCH  45  71
ATOM     71  C   UNL     1      -3.163  -3.775  -4.884  1.00  0.00     0.037 C 
BRANCH  71  72
ATOM     72  C   UNL     1      -1.680  -3.418  -4.745  1.00  0.00     0.026 C 
BRANCH  72  73
ATOM     73  C   UNL     1      -1.493  -1.992  -4.229  1.00  0.00     0.146 C 
BRANCH  73  74
ATOM     74  N   UNL     1      -2.597  -1.184  -4.739  1.00  0.00    -0.254 NA
ATOM     75  C   UNL     1      -3.164  -0.367  -3.931  1.00  0.00     0.185 C 
ATOM     76  N   UNL     1      -4.182   0.391  -4.371  1.00  0.00    -0.370 N 
ATOM     77  N   UNL     1      -2.889  -0.131  -2.636  1.00  0.00    -0.370 N 
ATOM     78  H   UNL     1      -4.459   0.270  -5.334  1.00  0.00     0.159 HD
ATOM     79  H   UNL     1      -4.763   0.942  -3.765  1.00  0.00     0.159 HD
ATOM     80  H   UNL     1      -2.143  -0.627  -2.171  1.00  0.00     0.159 HD
ATOM     81  H   UNL     1      -3.328   0.621  -2.131  1.00  0.00     0.159 HD
ENDBRANCH  73  74
ENDBRANCH  72  73
ENDBRANCH  71  72
ENDBRANCH  45  71
ENDBRANCH   3  45
TORSDOF 20
ENDMDL
MODEL 6
REMARK VINA RESULT:    -5.696      1.885      2.441
REMARK INTER + INTRA:         -21.781
REMARK INTER:                 -16.685
REMARK INTRA:                  -5.096
REMARK UNBOUND:                -5.429
REMARK SMILES CCCCCC(=O)N[C@H](CC(=O)O)C(=O)N[C@H]1C(=O)N[C@H](CCCN=C(N)N)C(=O)N[C@@H]2CC[C@H](O)N(C2=O)[C@@H](CC(C)C)C(=O)N(C)[C@@H](Cc2ccccc2)C(=O)N[C@H](C(C)C)C(=O)O[C@@H]1C
REMARK SMILES IDX 30 1 31 2 29 3 32 5 35 6 37 7 34 8 38 9 33 10 39 11 36 12
REMARK SMILES IDX 40 14 41 15 42 16 43 17 44 18 45 19 46 20 47 21 48 22 49 23
REMARK SMILES IDX 50 24 51 25 52 26 56 27 53 28 55 29 54 30 57 31 58 32 59 33
REMARK SMILES IDX 60 35 61 36 62 37 63 38 64 39 65 40 66 41 67 42 68 43 21 45
REMARK SMILES IDX 20 46 18 47 19 48 17 50 16 52 14 53 15 54 9 56 8 57 6 58
REMARK SMILES IDX 7 59 5 61 4 62 3 63 2 64 1 65 10 66 11 67 12 68 13 69 22 71
REMARK SMILES IDX 23 72 24 73 25 74 26 75 27 76 28 77
REMARK H PARENT 31 4 36 13 59 34 20 49 16 55 8 60 13 70 27 78 27 79 28 80
REMARK H PARENT 28 81
REMARK Flexibility Score:  259.900
ROOT
ATOM      1  O   UNL     1      -5.548   6.727  -0.006  1.00  0.00    -0.273 OA
ATOM      2  N   UNL     1      -7.222   6.037  -1.403  1.00  0.00    -0.343 N 
ATOM      3  C   UNL     1      -6.718   6.813  -0.382  1.00  0.00     0.243 C 
ATOM      4  H   UNL     1      -8.186   6.146  -1.696  1.00  0.00     0.164 HD
ENDROOT
BRANCH   2   5
ATOM      5  C   UNL     1      -6.411   4.986  -2.007  1.00  0.00     0.171 C 
ATOM      6  C   UNL     1      -6.998   2.938  -3.974  1.00  0.00     0.214 C 
ATOM      7  N   UNL     1      -7.167   2.644  -2.570  1.00  0.00    -0.303 N 
ATOM      8  C   UNL     1      -5.906   3.960  -4.247  1.00  0.00     0.057 C 
ATOM      9  C   UNL     1      -6.953   3.591  -1.582  1.00  0.00     0.247 C 
ATOM     10  C   UNL     1      -6.205   5.242  -3.500  1.00  0.00     0.040 C 
ATOM     11  O   UNL     1      -7.183   3.358  -0.388  1.00  0.00    -0.272 OA
BRANCH   6  12
ATOM     12  O   UNL     1      -8.235   3.394  -4.470  1.00  0.00    -0.373 OA
ATOM     13  H   UNL     1      -8.418   2.891  -5.292  1.00  0.00     0.213 HD
ENDBRANCH   6  12
BRANCH   7  14
ATOM     14  C   UNL     1      -7.724   1.319  -2.225  1.00  0.00     0.177 C 
BRANCH  14  15
ATOM     15  C   UNL     1      -9.225   1.139  -2.528  1.00  0.00     0.038 C 
BRANCH  15  16
ATOM     16  C   UNL     1      -9.687  -0.042  -3.409  1.00  0.00    -0.015 C 
ATOM     17  C   UNL     1     -10.002   0.388  -4.845  1.00  0.00     0.007 C 
ATOM     18  C   UNL     1     -10.949  -0.675  -2.809  1.00  0.00     0.007 C 
ENDBRANCH  15  16
ENDBRANCH  14  15
BRANCH  14  19
ATOM     19  C   UNL     1      -6.628   0.210  -2.382  1.00  0.00     0.245 C 
ATOM     20  O   UNL     1      -6.326  -0.118  -3.542  1.00  0.00    -0.272 OA
BRANCH  19  21
ATOM     21  N   UNL     1      -6.076  -0.485  -1.321  1.00  0.00    -0.332 N 
ATOM     22  C   UNL     1      -6.073  -0.047   0.063  1.00  0.00     0.147 C 
BRANCH  21  23
ATOM     23  C   UNL     1      -5.417  -1.789  -1.610  1.00  0.00     0.178 C 
BRANCH  23  24
ATOM     24  C   UNL     1      -3.901  -1.822  -1.327  1.00  0.00     0.070 C 
BRANCH  24  25
ATOM     25  C   UNL     1      -2.982  -1.971  -2.517  1.00  0.00    -0.045 A 
ATOM     26  C   UNL     1      -2.099  -0.944  -2.874  1.00  0.00     0.004 A 
ATOM     27  C   UNL     1      -3.005  -3.143  -3.287  1.00  0.00     0.004 A 
ATOM     28  C   UNL     1      -1.265  -1.081  -3.985  1.00  0.00     0.000 A 
ATOM     29  C   UNL     1      -2.170  -3.280  -4.397  1.00  0.00     0.000 A 
ATOM     30  C   UNL     1      -1.302  -2.247  -4.747  1.00  0.00     0.000 A 
ENDBRANCH  24  25
ENDBRANCH  23  24
BRANCH  23  31
ATOM     31  C   UNL     1      -6.209  -3.000  -1.063  1.00  0.00     0.243 C 
ATOM     32  O   UNL     1      -7.361  -3.273  -1.391  1.00  0.00    -0.273 OA
ATOM     33  N   UNL     1      -5.571  -3.654  -0.022  1.00  0.00    -0.341 N 
ATOM     34  H   UNL     1      -4.613  -3.378   0.209  1.00  0.00     0.164 HD
BRANCH  33  35
ATOM     35  C   UNL     1      -6.185  -4.754   0.726  1.00  0.00     0.194 C 
BRANCH  35  36
ATOM     36  C   UNL     1      -6.405  -4.450   2.235  1.00  0.00     0.017 C 
ATOM     37  C   UNL     1      -7.696  -5.105   2.755  1.00  0.00     0.010 C 
ATOM     38  C   UNL     1      -6.495  -2.950   2.543  1.00  0.00     0.010 C 
ENDBRANCH  35  36
BRANCH  35  39
ATOM     39  C   UNL     1      -5.454  -6.108   0.508  1.00  0.00     0.329 C 
ATOM     40  O   UNL     1      -4.308  -6.337   0.878  1.00  0.00    -0.250 OA
BRANCH  39  41
ATOM     41  O   UNL     1      -6.262  -7.048  -0.069  1.00  0.00    -0.458 OA
BRANCH  41  42
ATOM     42  C   UNL     1      -5.660  -7.867  -1.099  1.00  0.00     0.205 CG0
ATOM     43  C   UNL     1      -6.786  -8.641  -1.781  1.00  0.00     0.056 C 
ATOM     44  G   UNL     1      -4.619  -8.797  -0.443  1.00  0.00     0.000 G0
ENDBRANCH  41  42
ENDBRANCH  39  41
ENDBRANCH  35  39
ENDBRANCH  33  35
ENDBRANCH  23  31
ENDBRANCH  21  23
ENDBRANCH  19  21
ENDBRANCH  14  19
ENDBRANCH   7  14
ENDBRANCH   2   5
BRANCH   3  45
ATOM     45  C   UNL     1      -7.708   7.806   0.240  1.00  0.00     0.171 C 
BRANCH  45  46
ATOM     46  N   UNL     1      -7.469   9.075  -0.435  1.00  0.00    -0.342 N 
ATOM     47  C   UNL     1      -8.479   9.959  -0.720  1.00  0.00     0.247 C 
ATOM     48  O   UNL     1      -9.644   9.780  -0.364  1.00  0.00    -0.273 OA
ATOM     49  H   UNL     1      -6.509   9.289  -0.698  1.00  0.00     0.164 HD
BRANCH  47  50
ATOM     50  C   UNL     1      -8.058  11.184  -1.544  1.00  0.00     0.212 CG0
ATOM     51  G   UNL     1      -9.335  11.809  -2.140  1.00  0.00     0.000 G0
BRANCH  50  52
ATOM     52  N   UNL     1      -7.367  12.066  -0.607  1.00  0.00    -0.339 N 
ATOM     53  C   UNL     1      -7.964  13.148  -0.008  1.00  0.00     0.243 C 
ATOM     54  O   UNL     1      -9.116  13.490  -0.257  1.00  0.00    -0.273 OA
ATOM     55  H   UNL     1      -6.376  11.899  -0.445  1.00  0.00     0.164 HD
BRANCH  53  56
ATOM     56  C   UNL     1      -7.012  13.980   0.875  1.00  0.00     0.182 C 
BRANCH  56  57
ATOM     57  N   UNL     1      -5.614  13.597   0.649  1.00  0.00    -0.344 N 
ATOM     58  C   UNL     1      -4.799  14.272  -0.227  1.00  0.00     0.220 C 
ATOM     59  O   UNL     1      -5.200  15.191  -0.933  1.00  0.00    -0.275 OA
ATOM     60  H   UNL     1      -5.216  12.911   1.284  1.00  0.00     0.164 HD
BRANCH  58  61
ATOM     61  C   UNL     1      -3.378  13.740  -0.257  1.00  0.00     0.100 C 
BRANCH  61  62
ATOM     62  C   UNL     1      -3.222  12.444  -1.054  1.00  0.00     0.010 C 
BRANCH  62  63
ATOM     63  C   UNL     1      -2.743  12.649  -2.496  1.00  0.00     0.000 C 
BRANCH  63  64
ATOM     64  C   UNL     1      -2.294  14.074  -2.812  1.00  0.00    -0.003 C 
ATOM     65  C   UNL     1      -3.058  14.648  -3.996  1.00  0.00     0.004 C 
ENDBRANCH  63  64
ENDBRANCH  62  63
ENDBRANCH  61  62
ENDBRANCH  58  61
ENDBRANCH  56  57
BRANCH  56  66
ATOM     66  C   UNL     1      -7.401  13.897   2.350  1.00  0.00     0.157 C 
BRANCH  66  67
ATOM     67  C   UNL     1      -7.574  12.471   2.788  1.00  0.00     0.305 C 
ATOM     68  O   UNL     1      -6.832  11.534   2.541  1.00  0.00    -0.252 OA
BRANCH  67  69
ATOM     69  O   UNL     1      -8.659  12.304   3.568  1.00  0.00    -0.481 OA
ATOM     70  H   UNL     1      -9.282  11.780   3.021  1.00  0.00     0.296 HD
ENDBRANCH  67  69
ENDBRANCH  66  67
ENDBRANCH  56  66
ENDBRANCH  53  56
ENDBRANCH  50  52
ENDBRANCH  47  50
ENDBRANCH  45  46
BRANCH  45  71
ATOM     71  C   UNL     1      -7.477   7.917   1.751  1.00  0.00     0.037 C 
BRANCH  71  72
ATOM     72  C   UNL     1      -8.748   7.624   2.551  1.00  0.00     0.026 C 
BRANCH  72  73
ATOM     73  C   UNL     1      -9.377   8.906   3.092  1.00  0.00     0.146 C 
BRANCH  73  74
ATOM     74  N   UNL     1      -9.641   8.709   4.514  1.00  0.00    -0.254 NA
ATOM     75  C   UNL     1      -8.808   9.206   5.352  1.00  0.00     0.185 C 
ATOM     76  N   UNL     1      -9.024   9.043   6.668  1.00  0.00    -0.370 N 
ATOM     77  N   UNL     1      -7.685   9.907   5.114  1.00  0.00    -0.370 N 
ATOM     78  H   UNL     1      -9.845   8.519   6.935  1.00  0.00     0.159 HD
ATOM     79  H   UNL     1      -8.347   9.274   7.373  1.00  0.00     0.159 HD
ATOM     80  H   UNL     1      -7.398  10.110   4.168  1.00  0.00     0.159 HD
ATOM     81  H   UNL     1      -7.169  10.347   5.858  1.00  0.00     0.159 HD
ENDBRANCH  73  74
ENDBRANCH  72  73
ENDBRANCH  71  72
ENDBRANCH  45  71
ENDBRANCH   3  45
TORSDOF 20
ENDMDL
MODEL 7
REMARK VINA RESULT:    -5.669      4.946     11.667
REMARK INTER + INTRA:         -21.703
REMARK INTER:                 -15.459
REMARK INTRA:                  -6.244
REMARK UNBOUND:                -5.429
REMARK SMILES CCCCCC(=O)N[C@H](CC(=O)O)C(=O)N[C@H]1C(=O)N[C@H](CCCN=C(N)N)C(=O)N[C@@H]2CC[C@H](O)N(C2=O)[C@@H](CC(C)C)C(=O)N(C)[C@@H](Cc2ccccc2)C(=O)N[C@H](C(C)C)C(=O)O[C@@H]1C
REMARK SMILES IDX 30 1 31 2 29 3 32 5 35 6 37 7 34 8 38 9 33 10 39 11 36 12
REMARK SMILES IDX 40 14 41 15 42 16 43 17 44 18 45 19 46 20 47 21 48 22 49 23
REMARK SMILES IDX 50 24 51 25 52 26 56 27 53 28 55 29 54 30 57 31 58 32 59 33
REMARK SMILES IDX 60 35 61 36 62 37 63 38 64 39 65 40 66 41 67 42 68 43 21 45
REMARK SMILES IDX 20 46 18 47 19 48 17 50 16 52 14 53 15 54 9 56 8 57 6 58
REMARK SMILES IDX 7 59 5 61 4 62 3 63 2 64 1 65 10 66 11 67 12 68 13 69 22 71
REMARK SMILES IDX 23 72 24 73 25 74 26 75 27 76 28 77
REMARK H PARENT 31 4 36 13 59 34 20 49 16 55 8 60 13 70 27 78 27 79 28 80
REMARK H PARENT 28 81
REMARK Flexibility Score:  259.900
ROOT
ATOM      1  O   UNL     1      -5.516  11.595   0.939  1.00  0.00    -0.273 OA
ATOM      2  N   UNL     1      -6.272  13.436  -0.188  1.00  0.00    -0.343 N 
ATOM      3  C   UNL     1      -5.670  12.198  -0.124  1.00  0.00     0.243 C 
ATOM      4  H   UNL     1      -6.395  13.896  -1.082  1.00  0.00     0.164 HD
ENDROOT
BRANCH   2   5
ATOM      5  C   UNL     1      -6.649  14.143   1.031  1.00  0.00     0.171 C 
ATOM      6  C   UNL     1      -6.233  13.569   3.842  1.00  0.00     0.214 C 
ATOM      7  N   UNL     1      -7.433  13.097   3.191  1.00  0.00    -0.303 N 
ATOM      8  C   UNL     1      -5.690  14.857   3.244  1.00  0.00     0.057 C 
ATOM      9  C   UNL     1      -7.670  13.292   1.840  1.00  0.00     0.247 C 
ATOM     10  C   UNL     1      -5.415  14.660   1.769  1.00  0.00     0.040 C 
ATOM     11  O   UNL     1      -8.658  12.810   1.270  1.00  0.00    -0.272 OA
BRANCH   6  12
ATOM     12  O   UNL     1      -5.269  12.545   3.764  1.00  0.00    -0.373 OA
ATOM     13  H   UNL     1      -5.157  12.185   4.669  1.00  0.00     0.213 HD
ENDBRANCH   6  12
BRANCH   7  14
ATOM     14  C   UNL     1      -8.346  12.257   3.994  1.00  0.00     0.177 C 
BRANCH  14  15
ATOM     15  C   UNL     1      -9.657  12.943   4.427  1.00  0.00     0.038 C 
BRANCH  15  16
ATOM     16  C   UNL     1      -9.626  14.009   5.544  1.00  0.00    -0.015 C 
ATOM     17  C   UNL     1      -8.541  13.730   6.588  1.00  0.00     0.007 C 
ATOM     18  C   UNL     1     -10.982  14.051   6.260  1.00  0.00     0.007 C 
ENDBRANCH  15  16
ENDBRANCH  14  15
BRANCH  14  19
ATOM     19  C   UNL     1      -8.203  10.751   3.585  1.00  0.00     0.245 C 
ATOM     20  O   UNL     1      -7.062  10.358   3.291  1.00  0.00    -0.272 OA
BRANCH  19  21
ATOM     21  N   UNL     1      -9.274   9.889   3.429  1.00  0.00    -0.332 N 
ATOM     22  C   UNL     1     -10.433  10.129   2.588  1.00  0.00     0.147 C 
BRANCH  21  23
ATOM     23  C   UNL     1      -9.253   8.609   4.189  1.00  0.00     0.178 C 
BRANCH  23  24
ATOM     24  C   UNL     1     -10.518   8.337   5.029  1.00  0.00     0.070 C 
BRANCH  24  25
ATOM     25  C   UNL     1     -10.647   9.080   6.339  1.00  0.00    -0.045 A 
ATOM     26  C   UNL     1     -11.613   8.708   7.282  1.00  0.00     0.004 A 
ATOM     27  C   UNL     1      -9.799  10.160   6.626  1.00  0.00     0.004 A 
ATOM     28  C   UNL     1     -11.737   9.411   8.483  1.00  0.00     0.000 A 
ATOM     29  C   UNL     1      -9.924  10.860   7.827  1.00  0.00     0.000 A 
ATOM     30  C   UNL     1     -10.895  10.487   8.753  1.00  0.00     0.000 A 
ENDBRANCH  24  25
ENDBRANCH  23  24
BRANCH  23  31
ATOM     31  C   UNL     1      -8.765   7.411   3.340  1.00  0.00     0.243 C 
ATOM     32  O   UNL     1      -9.512   6.651   2.730  1.00  0.00    -0.273 OA
ATOM     33  N   UNL     1      -7.411   7.152   3.477  1.00  0.00    -0.341 N 
ATOM     34  H   UNL     1      -6.841   7.818   4.003  1.00  0.00     0.164 HD
BRANCH  33  35
ATOM     35  C   UNL     1      -6.753   5.996   2.861  1.00  0.00     0.194 C 
BRANCH  35  36
ATOM     36  C   UNL     1      -6.274   4.922   3.878  1.00  0.00     0.017 C 
ATOM     37  C   UNL     1      -5.922   3.601   3.172  1.00  0.00     0.010 C 
ATOM     38  C   UNL     1      -7.317   4.602   4.956  1.00  0.00     0.010 C 
ENDBRANCH  35  36
BRANCH  35  39
ATOM     39  C   UNL     1      -5.624   6.407   1.875  1.00  0.00     0.329 C 
ATOM     40  O   UNL     1      -4.483   6.693   2.219  1.00  0.00    -0.250 OA
BRANCH  39  41
ATOM     41  O   UNL     1      -6.021   6.328   0.569  1.00  0.00    -0.458 OA
BRANCH  41  42
ATOM     42  C   UNL     1      -6.464   7.564  -0.042  1.00  0.00     0.205 CG0
ATOM     43  C   UNL     1      -7.963   7.429  -0.302  1.00  0.00     0.056 C 
ATOM     44  G   UNL     1      -5.658   7.789  -1.336  1.00  0.00     0.000 G0
ENDBRANCH  41  42
ENDBRANCH  39  41
ENDBRANCH  35  39
ENDBRANCH  33  35
ENDBRANCH  23  31
ENDBRANCH  21  23
ENDBRANCH  19  21
ENDBRANCH  14  19
ENDBRANCH   7  14
ENDBRANCH   2   5
BRANCH   3  45
ATOM     45  C   UNL     1      -5.224  11.613  -1.471  1.00  0.00     0.171 C 
BRANCH  45  46
ATOM     46  N   UNL     1      -5.064  10.183  -1.245  1.00  0.00    -0.342 N 
ATOM     47  C   UNL     1      -5.902   9.251  -1.803  1.00  0.00     0.247 C 
ATOM     48  O   UNL     1      -6.803   9.547  -2.589  1.00  0.00    -0.273 OA
ATOM     49  H   UNL     1      -4.295   9.889  -0.645  1.00  0.00     0.164 HD
BRANCH  47  50
ATOM     50  C   UNL     1      -5.656   7.803  -1.354  1.00  0.00     0.212 CG0
ATOM     51  G   UNL     1      -6.454   7.575  -0.055  1.00  0.00     0.000 G0
BRANCH  50  52
ATOM     52  N   UNL     1      -6.109   6.969  -2.463  1.00  0.00    -0.339 N 
ATOM     53  C   UNL     1      -5.258   6.414  -3.388  1.00  0.00     0.243 C 
ATOM     54  O   UNL     1      -4.048   6.622  -3.382  1.00  0.00    -0.273 OA
ATOM     55  H   UNL     1      -7.112   6.850  -2.587  1.00  0.00     0.164 HD
BRANCH  53  56
ATOM     56  C   UNL     1      -5.973   5.644  -4.517  1.00  0.00     0.182 C 
BRANCH  56  57
ATOM     57  N   UNL     1      -6.902   4.650  -3.970  1.00  0.00    -0.344 N 
ATOM     58  C   UNL     1      -8.232   4.619  -4.312  1.00  0.00     0.220 C 
ATOM     59  O   UNL     1      -8.750   5.460  -5.039  1.00  0.00    -0.275 OA
ATOM     60  H   UNL     1      -6.496   3.879  -3.447  1.00  0.00     0.164 HD
BRANCH  58  61
ATOM     61  C   UNL     1      -8.991   3.471  -3.673  1.00  0.00     0.100 C 
BRANCH  61  62
ATOM     62  C   UNL     1     -10.510   3.601  -3.781  1.00  0.00     0.010 C 
BRANCH  62  63
ATOM     63  C   UNL     1     -11.148   2.662  -4.814  1.00  0.00     0.000 C 
BRANCH  63  64
ATOM     64  C   UNL     1     -10.878   3.052  -6.266  1.00  0.00    -0.003 C 
ATOM     65  C   UNL     1     -11.607   4.334  -6.642  1.00  0.00     0.004 C 
ENDBRANCH  63  64
ENDBRANCH  62  63
ENDBRANCH  61  62
ENDBRANCH  58  61
ENDBRANCH  56  57
BRANCH  56  66
ATOM     66  C   UNL     1      -4.974   5.024  -5.492  1.00  0.00     0.157 C 
BRANCH  66  67
ATOM     67  C   UNL     1      -5.269   3.569  -5.721  1.00  0.00     0.305 C 
ATOM     68  O   UNL     1      -6.059   3.100  -6.525  1.00  0.00    -0.252 OA
BRANCH  67  69
ATOM     69  O   UNL     1      -4.507   2.766  -4.954  1.00  0.00    -0.481 OA
ATOM     70  H   UNL     1      -3.953   3.378  -4.425  1.00  0.00     0.296 HD
ENDBRANCH  67  69
ENDBRANCH  66  67
ENDBRANCH  56  66
ENDBRANCH  53  56
ENDBRANCH  50  52
ENDBRANCH  47  50
ENDBRANCH  45  46
BRANCH  45  71
ATOM     71  C   UNL     1      -3.914  12.264  -1.928  1.00  0.00     0.037 C 
BRANCH  71  72
ATOM     72  C   UNL     1      -3.401  11.666  -3.240  1.00  0.00     0.026 C 
BRANCH  72  73
ATOM     73  C   UNL     1      -1.975  11.139  -3.096  1.00  0.00     0.146 C 
BRANCH  73  74
ATOM     74  N   UNL     1      -2.004  10.023  -2.155  1.00  0.00    -0.254 NA
ATOM     75  C   UNL     1      -1.837   8.841  -2.622  1.00  0.00     0.185 C 
ATOM     76  N   UNL     1      -1.857   7.794  -1.781  1.00  0.00    -0.370 N 
ATOM     77  N   UNL     1      -1.632   8.456  -3.894  1.00  0.00    -0.370 N 
ATOM     78  H   UNL     1      -2.013   7.996  -0.804  1.00  0.00     0.159 HD
ATOM     79  H   UNL     1      -1.878   6.838  -2.088  1.00  0.00     0.159 HD
ATOM     80  H   UNL     1      -1.589   9.138  -4.636  1.00  0.00     0.159 HD
ATOM     81  H   UNL     1      -1.398   7.505  -4.127  1.00  0.00     0.159 HD
ENDBRANCH  73  74
ENDBRANCH  72  73
ENDBRANCH  71  72
ENDBRANCH  45  71
ENDBRANCH   3  45
TORSDOF 20
ENDMDL
MODEL 8
REMARK VINA RESULT:    -5.633      7.846     11.589
REMARK INTER + INTRA:         -21.599
REMARK INTER:                 -13.993
REMARK INTRA:                  -7.606
REMARK UNBOUND:                -5.429
REMARK SMILES CCCCCC(=O)N[C@H](CC(=O)O)C(=O)N[C@H]1C(=O)N[C@H](CCCN=C(N)N)C(=O)N[C@@H]2CC[C@H](O)N(C2=O)[C@@H](CC(C)C)C(=O)N(C)[C@@H](Cc2ccccc2)C(=O)N[C@H](C(C)C)C(=O)O[C@@H]1C
REMARK SMILES IDX 30 1 31 2 29 3 32 5 35 6 37 7 34 8 38 9 33 10 39 11 36 12
REMARK SMILES IDX 40 14 41 15 42 16 43 17 44 18 45 19 46 20 47 21 48 22 49 23
REMARK SMILES IDX 50 24 51 25 52 26 56 27 53 28 55 29 54 30 57 31 58 32 59 33
REMARK SMILES IDX 60 35 61 36 62 37 63 38 64 39 65 40 66 41 67 42 68 43 21 45
REMARK SMILES IDX 20 46 18 47 19 48 17 50 16 52 14 53 15 54 9 56 8 57 6 58
REMARK SMILES IDX 7 59 5 61 4 62 3 63 2 64 1 65 10 66 11 67 12 68 13 69 22 71
REMARK SMILES IDX 23 72 24 73 25 74 26 75 27 76 28 77
REMARK H PARENT 31 4 36 13 59 34 20 49 16 55 8 60 13 70 27 78 27 79 28 80
REMARK H PARENT 28 81
REMARK Flexibility Score:  259.900
ROOT
ATOM      1  O   UNL     1      -5.013  -1.832  -3.138  1.00  0.00    -0.273 OA
ATOM      2  N   UNL     1      -2.784  -1.841  -2.627  1.00  0.00    -0.343 N 
ATOM      3  C   UNL     1      -4.019  -1.236  -2.723  1.00  0.00     0.243 C 
ATOM      4  H   UNL     1      -1.991  -1.324  -2.267  1.00  0.00     0.164 HD
ENDROOT
BRANCH   2   5
ATOM      5  C   UNL     1      -2.578  -3.194  -3.133  1.00  0.00     0.171 C 
ATOM      6  C   UNL     1      -4.384  -5.170  -4.246  1.00  0.00     0.214 C 
ATOM      7  N   UNL     1      -4.127  -5.163  -2.825  1.00  0.00    -0.303 N 
ATOM      8  C   UNL     1      -3.211  -4.665  -5.072  1.00  0.00     0.057 C 
ATOM      9  C   UNL     1      -3.316  -4.216  -2.222  1.00  0.00     0.247 C 
ATOM     10  C   UNL     1      -2.844  -3.263  -4.636  1.00  0.00     0.040 C 
ATOM     11  O   UNL     1      -3.170  -4.163  -0.993  1.00  0.00    -0.272 OA
BRANCH   6  12
ATOM     12  O   UNL     1      -5.527  -4.381  -4.481  1.00  0.00    -0.373 OA
ATOM     13  H   UNL     1      -5.551  -4.189  -5.443  1.00  0.00     0.213 HD
ENDBRANCH   6  12
BRANCH   7  14
ATOM     14  C   UNL     1      -4.887  -6.127  -2.002  1.00  0.00     0.177 C 
BRANCH  14  15
ATOM     15  C   UNL     1      -4.070  -7.317  -1.463  1.00  0.00     0.038 C 
BRANCH  15  16
ATOM     16  C   UNL     1      -4.041  -8.642  -2.256  1.00  0.00    -0.015 C 
ATOM     17  C   UNL     1      -5.037  -8.648  -3.420  1.00  0.00     0.007 C 
ATOM     18  C   UNL     1      -4.382  -9.812  -1.325  1.00  0.00     0.007 C 
ENDBRANCH  15  16
ENDBRANCH  14  15
BRANCH  14  19
ATOM     19  C   UNL     1      -6.039  -5.395  -1.231  1.00  0.00     0.245 C 
ATOM     20  O   UNL     1      -6.526  -4.390  -1.776  1.00  0.00    -0.272 OA
BRANCH  19  21
ATOM     21  N   UNL     1      -6.451  -5.735   0.045  1.00  0.00    -0.332 N 
ATOM     22  C   UNL     1      -5.581  -5.898   1.196  1.00  0.00     0.147 C 
BRANCH  21  23
ATOM     23  C   UNL     1      -7.905  -5.967   0.268  1.00  0.00     0.178 C 
BRANCH  23  24
ATOM     24  C   UNL     1      -8.268  -7.395   0.728  1.00  0.00     0.070 C 
BRANCH  24  25
ATOM     25  C   UNL     1      -8.235  -8.484  -0.319  1.00  0.00    -0.045 A 
ATOM     26  C   UNL     1      -8.485  -8.192  -1.666  1.00  0.00     0.004 A 
ATOM     27  C   UNL     1      -7.957  -9.809   0.047  1.00  0.00     0.004 A 
ATOM     28  C   UNL     1      -8.470  -9.207  -2.625  1.00  0.00     0.000 A 
ATOM     29  C   UNL     1      -7.941 -10.822  -0.912  1.00  0.00     0.000 A 
ATOM     30  C   UNL     1      -8.201 -10.521  -2.248  1.00  0.00     0.000 A 
ENDBRANCH  24  25
ENDBRANCH  23  24
BRANCH  23  31
ATOM     31  C   UNL     1      -8.581  -4.832   1.073  1.00  0.00     0.243 C 
ATOM     32  O   UNL     1      -8.965  -4.948   2.234  1.00  0.00    -0.273 OA
ATOM     33  N   UNL     1      -8.888  -3.719   0.309  1.00  0.00    -0.341 N 
ATOM     34  H   UNL     1      -8.546  -3.683  -0.654  1.00  0.00     0.164 HD
BRANCH  33  35
ATOM     35  C   UNL     1      -9.635  -2.572   0.833  1.00  0.00     0.194 C 
BRANCH  35  36
ATOM     36  C   UNL     1     -11.111  -2.502   0.348  1.00  0.00     0.017 C 
ATOM     37  C   UNL     1     -12.066  -3.146   1.368  1.00  0.00     0.010 C 
ATOM     38  C   UNL     1     -11.339  -3.199  -0.999  1.00  0.00     0.010 C 
ENDBRANCH  35  36
BRANCH  35  39
ATOM     39  C   UNL     1      -8.890  -1.225   0.620  1.00  0.00     0.329 C 
ATOM     40  O   UNL     1      -9.232  -0.372  -0.190  1.00  0.00    -0.250 OA
BRANCH  39  41
ATOM     41  O   UNL     1      -7.857  -1.058   1.500  1.00  0.00    -0.458 OA
BRANCH  41  42
ATOM     42  C   UNL     1      -6.522  -1.191   0.955  1.00  0.00     0.205 CG0
ATOM     43  C   UNL     1      -5.870  -2.391   1.638  1.00  0.00     0.056 C 
ATOM     44  G   UNL     1      -5.755   0.122   1.210  1.00  0.00     0.000 G0
ENDBRANCH  41  42
ENDBRANCH  39  41
ENDBRANCH  35  39
ENDBRANCH  33  35
ENDBRANCH  23  31
ENDBRANCH  21  23
ENDBRANCH  19  21
ENDBRANCH  14  19
ENDBRANCH   7  14
ENDBRANCH   2   5
BRANCH   3  45
ATOM     45  C   UNL     1      -4.073   0.224  -2.255  1.00  0.00     0.171 C 
BRANCH  45  46
ATOM     46  N   UNL     1      -5.013   0.247  -1.142  1.00  0.00    -0.342 N 
ATOM     47  C   UNL     1      -4.604   0.226   0.168  1.00  0.00     0.247 C 
ATOM     48  O   UNL     1      -3.418   0.261   0.498  1.00  0.00    -0.273 OA
ATOM     49  H   UNL     1      -6.005   0.275  -1.371  1.00  0.00     0.164 HD
BRANCH  47  50
ATOM     50  C   UNL     1      -5.736   0.128   1.200  1.00  0.00     0.212 CG0
ATOM     51  G   UNL     1      -6.482  -1.199   0.952  1.00  0.00     0.000 G0
BRANCH  50  52
ATOM     52  N   UNL     1      -5.080   0.186   2.504  1.00  0.00    -0.339 N 
ATOM     53  C   UNL     1      -5.306   1.184   3.420  1.00  0.00     0.243 C 
ATOM     54  O   UNL     1      -6.042   2.139   3.190  1.00  0.00    -0.273 OA
ATOM     55  H   UNL     1      -4.374  -0.518   2.710  1.00  0.00     0.164 HD
BRANCH  53  56
ATOM     56  C   UNL     1      -4.435   1.081   4.688  1.00  0.00     0.182 C 
BRANCH  56  57
ATOM     57  N   UNL     1      -5.264   1.085   5.898  1.00  0.00    -0.344 N 
ATOM     58  C   UNL     1      -5.426  -0.031   6.683  1.00  0.00     0.220 C 
ATOM     59  O   UNL     1      -4.952  -1.123   6.389  1.00  0.00    -0.275 OA
ATOM     60  H   UNL     1      -5.590   1.989   6.230  1.00  0.00     0.164 HD
BRANCH  58  61
ATOM     61  C   UNL     1      -6.277   0.219   7.914  1.00  0.00     0.100 C 
BRANCH  61  62
ATOM     62  C   UNL     1      -7.741   0.527   7.600  1.00  0.00     0.010 C 
BRANCH  62  63
ATOM     63  C   UNL     1      -8.739  -0.447   8.240  1.00  0.00     0.000 C 
BRANCH  63  64
ATOM     64  C   UNL     1      -9.238  -1.542   7.300  1.00  0.00    -0.003 C 
ATOM     65  C   UNL     1      -8.275  -2.720   7.259  1.00  0.00     0.004 C 
ENDBRANCH  63  64
ENDBRANCH  62  63
ENDBRANCH  61  62
ENDBRANCH  58  61
ENDBRANCH  56  57
BRANCH  56  66
ATOM     66  C   UNL     1      -3.362   2.168   4.721  1.00  0.00     0.157 C 
BRANCH  66  67
ATOM     67  C   UNL     1      -3.555   3.088   5.892  1.00  0.00     0.305 C 
ATOM     68  O   UNL     1      -3.061   2.973   7.003  1.00  0.00    -0.252 OA
BRANCH  67  69
ATOM     69  O   UNL     1      -4.328   4.147   5.589  1.00  0.00    -0.481 OA
ATOM     70  H   UNL     1      -4.465   4.088   4.620  1.00  0.00     0.296 HD
ENDBRANCH  67  69
ENDBRANCH  66  67
ENDBRANCH  56  66
ENDBRANCH  53  56
ENDBRANCH  50  52
ENDBRANCH  47  50
ENDBRANCH  45  46
BRANCH  45  71
ATOM     71  C   UNL     1      -4.530   1.135  -3.400  1.00  0.00     0.037 C 
BRANCH  71  72
ATOM     72  C   UNL     1      -5.863   1.822  -3.092  1.00  0.00     0.026 C 
BRANCH  72  73
ATOM     73  C   UNL     1      -6.941   1.431  -4.102  1.00  0.00     0.146 C 
BRANCH  73  74
ATOM     74  N   UNL     1      -7.959   0.662  -3.393  1.00  0.00    -0.254 NA
ATOM     75  C   UNL     1      -8.161  -0.548  -3.764  1.00  0.00     0.185 C 
ATOM     76  N   UNL     1      -9.091  -1.282  -3.131  1.00  0.00    -0.370 N 
ATOM     77  N   UNL     1      -7.557  -1.244  -4.743  1.00  0.00    -0.370 N 
ATOM     78  H   UNL     1      -9.599  -0.831  -2.384  1.00  0.00     0.159 HD
ATOM     79  H   UNL     1      -9.404  -2.180  -3.457  1.00  0.00     0.159 HD
ATOM     80  H   UNL     1      -6.832  -0.820  -5.302  1.00  0.00     0.159 HD
ATOM     81  H   UNL     1      -7.719  -2.230  -4.868  1.00  0.00     0.159 HD
ENDBRANCH  73  74
ENDBRANCH  72  73
ENDBRANCH  71  72
ENDBRANCH  45  71
ENDBRANCH   3  45
TORSDOF 20
ENDMDL
MODEL 9
REMARK VINA RESULT:    -5.507      3.130      5.142
REMARK INTER + INTRA:         -21.236
REMARK INTER:                 -16.188
REMARK INTRA:                  -5.048
REMARK UNBOUND:                -5.429
REMARK SMILES CCCCCC(=O)N[C@H](CC(=O)O)C(=O)N[C@H]1C(=O)N[C@H](CCCN=C(N)N)C(=O)N[C@@H]2CC[C@H](O)N(C2=O)[C@@H](CC(C)C)C(=O)N(C)[C@@H](Cc2ccccc2)C(=O)N[C@H](C(C)C)C(=O)O[C@@H]1C
REMARK SMILES IDX 30 1 31 2 29 3 32 5 35 6 37 7 34 8 38 9 33 10 39 11 36 12
REMARK SMILES IDX 40 14 41 15 42 16 43 17 44 18 45 19 46 20 47 21 48 22 49 23
REMARK SMILES IDX 50 24 51 25 52 26 56 27 53 28 55 29 54 30 57 31 58 32 59 33
REMARK SMILES IDX 60 35 61 36 62 37 63 38 64 39 65 40 66 41 67 42 68 43 21 45
REMARK SMILES IDX 20 46 18 47 19 48 17 50 16 52 14 53 15 54 9 56 8 57 6 58
REMARK SMILES IDX 7 59 5 61 4 62 3 63 2 64 1 65 10 66 11 67 12 68 13 69 22 71
REMARK SMILES IDX 23 72 24 73 25 74 26 75 27 76 28 77
REMARK H PARENT 31 4 36 13 59 34 20 49 16 55 8 60 13 70 27 78 27 79 28 80
REMARK H PARENT 28 81
REMARK Flexibility Score:  259.900
ROOT
ATOM      1  O   UNL     1      -6.559   4.565   0.024  1.00  0.00    -0.273 OA
ATOM      2  N   UNL     1      -7.451   4.045  -2.017  1.00  0.00    -0.343 N 
ATOM      3  C   UNL     1      -7.395   4.782  -0.853  1.00  0.00     0.243 C 
ATOM      4  H   UNL     1      -8.143   4.262  -2.723  1.00  0.00     0.164 HD
ENDROOT
BRANCH   2   5
ATOM      5  C   UNL     1      -6.583   2.888  -2.205  1.00  0.00     0.171 C 
ATOM      6  C   UNL     1      -6.254   1.014  -4.392  1.00  0.00     0.214 C 
ATOM      7  N   UNL     1      -7.199   0.719  -3.341  1.00  0.00    -0.303 N 
ATOM      8  C   UNL     1      -5.071   1.846  -3.923  1.00  0.00     0.057 C 
ATOM      9  C   UNL     1      -7.442   1.594  -2.294  1.00  0.00     0.247 C 
ATOM     10  C   UNL     1      -5.564   3.141  -3.315  1.00  0.00     0.040 C 
ATOM     11  O   UNL     1      -8.315   1.374  -1.444  1.00  0.00    -0.272 OA
BRANCH   6  12
ATOM     12  O   UNL     1      -6.949   1.682  -5.420  1.00  0.00    -0.373 OA
ATOM     13  H   UNL     1      -6.376   1.658  -6.216  1.00  0.00     0.213 HD
ENDBRANCH   6  12
BRANCH   7  14
ATOM     14  C   UNL     1      -8.018  -0.501  -3.498  1.00  0.00     0.177 C 
BRANCH  14  15
ATOM     15  C   UNL     1      -9.293  -0.331  -4.346  1.00  0.00     0.038 C 
BRANCH  15  16
ATOM     16  C   UNL     1     -10.675  -0.354  -3.656  1.00  0.00    -0.015 C 
ATOM     17  C   UNL     1     -11.194   1.052  -3.339  1.00  0.00     0.007 C 
ATOM     18  C   UNL     1     -10.585  -1.141  -2.342  1.00  0.00     0.007 C 
ENDBRANCH  15  16
ENDBRANCH  14  15
BRANCH  14  19
ATOM     19  C   UNL     1      -7.104  -1.775  -3.479  1.00  0.00     0.245 C 
ATOM     20  O   UNL     1      -6.924  -2.350  -4.566  1.00  0.00    -0.272 OA
BRANCH  19  21
ATOM     21  N   UNL     1      -6.595  -2.342  -2.325  1.00  0.00    -0.332 N 
ATOM     22  C   UNL     1      -7.060  -2.071  -0.976  1.00  0.00     0.147 C 
BRANCH  21  23
ATOM     23  C   UNL     1      -5.466  -3.304  -2.461  1.00  0.00     0.178 C 
BRANCH  23  24
ATOM     24  C   UNL     1      -4.286  -3.055  -1.500  1.00  0.00     0.070 C 
BRANCH  24  25
ATOM     25  C   UNL     1      -3.310  -1.964  -1.876  1.00  0.00    -0.045 A 
ATOM     26  C   UNL     1      -2.252  -2.220  -2.758  1.00  0.00     0.004 A 
ATOM     27  C   UNL     1      -3.450  -0.674  -1.341  1.00  0.00     0.004 A 
ATOM     28  C   UNL     1      -1.345  -1.211  -3.087  1.00  0.00     0.000 A 
ATOM     29  C   UNL     1      -2.543   0.334  -1.672  1.00  0.00     0.000 A 
ATOM     30  C   UNL     1      -1.489   0.064  -2.543  1.00  0.00     0.000 A 
ENDBRANCH  24  25
ENDBRANCH  23  24
BRANCH  23  31
ATOM     31  C   UNL     1      -5.935  -4.776  -2.550  1.00  0.00     0.243 C 
ATOM     32  O   UNL     1      -7.100  -5.136  -2.402  1.00  0.00    -0.273 OA
ATOM     33  N   UNL     1      -4.893  -5.684  -2.628  1.00  0.00    -0.341 N 
ATOM     34  H   UNL     1      -3.943  -5.324  -2.744  1.00  0.00     0.164 HD
BRANCH  33  35
ATOM     35  C   UNL     1      -5.095  -7.135  -2.602  1.00  0.00     0.194 C 
BRANCH  35  36
ATOM     36  C   UNL     1      -4.747  -7.801  -1.241  1.00  0.00     0.017 C 
ATOM     37  C   UNL     1      -3.560  -7.096  -0.561  1.00  0.00     0.010 C 
ATOM     38  C   UNL     1      -4.386  -9.286  -1.369  1.00  0.00     0.010 C 
ENDBRANCH  35  36
BRANCH  35  39
ATOM     39  C   UNL     1      -4.405  -7.856  -3.794  1.00  0.00     0.329 C 
ATOM     40  O   UNL     1      -3.207  -7.782  -4.040  1.00  0.00    -0.250 OA
BRANCH  39  41
ATOM     41  O   UNL     1      -5.269  -8.656  -4.489  1.00  0.00    -0.458 OA
BRANCH  41  42
ATOM     42  C   UNL     1      -4.680  -9.518  -5.492  1.00  0.00     0.205 CG0
ATOM     43  C   UNL     1      -5.497  -9.351  -6.771  1.00  0.00     0.056 C 
ATOM     44  G   UNL     1      -4.697 -10.967  -4.966  1.00  0.00     0.000 G0
ENDBRANCH  41  42
ENDBRANCH  39  41
ENDBRANCH  35  39
ENDBRANCH  33  35
ENDBRANCH  23  31
ENDBRANCH  21  23
ENDBRANCH  19  21
ENDBRANCH  14  19
ENDBRANCH   7  14
ENDBRANCH   2   5
BRANCH   3  45
ATOM     45  C   UNL     1      -8.435   5.904  -0.736  1.00  0.00     0.171 C 
BRANCH  45  46
ATOM     46  N   UNL     1      -7.817   6.929   0.094  1.00  0.00    -0.342 N 
ATOM     47  C   UNL     1      -7.191   8.029  -0.437  1.00  0.00     0.247 C 
ATOM     48  O   UNL     1      -7.171   8.267  -1.646  1.00  0.00    -0.273 OA
ATOM     49  H   UNL     1      -7.860   6.800   1.103  1.00  0.00     0.164 HD
BRANCH  47  50
ATOM     50  C   UNL     1      -6.490   8.935   0.584  1.00  0.00     0.212 CG0
ATOM     51  G   UNL     1      -5.452   9.783  -0.178  1.00  0.00     0.000 G0
BRANCH  50  52
ATOM     52  N   UNL     1      -7.552   9.732   1.193  1.00  0.00    -0.339 N 
ATOM     53  C   UNL     1      -7.965  10.945   0.698  1.00  0.00     0.243 C 
ATOM     54  O   UNL     1      -7.432  11.480  -0.271  1.00  0.00    -0.273 OA
ATOM     55  H   UNL     1      -7.957   9.393   2.063  1.00  0.00     0.164 HD
BRANCH  53  56
ATOM     56  C   UNL     1      -9.040  11.640   1.557  1.00  0.00     0.182 C 
BRANCH  56  57
ATOM     57  N   UNL     1      -8.440  12.291   2.726  1.00  0.00    -0.344 N 
ATOM     58  C   UNL     1      -7.838  13.524   2.653  1.00  0.00     0.220 C 
ATOM     59  O   UNL     1      -7.695  14.131   1.598  1.00  0.00    -0.275 OA
ATOM     60  H   UNL     1      -8.625  11.871   3.633  1.00  0.00     0.164 HD
BRANCH  58  61
ATOM     61  C   UNL     1      -7.339  14.029   3.994  1.00  0.00     0.100 C 
BRANCH  61  62
ATOM     62  C   UNL     1      -5.977  13.464   4.398  1.00  0.00     0.010 C 
BRANCH  62  63
ATOM     63  C   UNL     1      -5.985  12.697   5.727  1.00  0.00     0.000 C 
BRANCH  63  64
ATOM     64  C   UNL     1      -6.564  11.287   5.633  1.00  0.00    -0.003 C 
ATOM     65  C   UNL     1      -7.547  11.014   6.763  1.00  0.00     0.004 C 
ENDBRANCH  63  64
ENDBRANCH  62  63
ENDBRANCH  61  62
ENDBRANCH  58  61
ENDBRANCH  56  57
BRANCH  56  66
ATOM     66  C   UNL     1     -10.157  10.674   1.946  1.00  0.00     0.157 C 
BRANCH  66  67
ATOM     67  C   UNL     1     -10.571  10.867   3.377  1.00  0.00     0.305 C 
ATOM     68  O   UNL     1     -10.201  10.215   4.341  1.00  0.00    -0.252 OA
BRANCH  67  69
ATOM     69  O   UNL     1     -11.398  11.918   3.532  1.00  0.00    -0.481 OA
ATOM     70  H   UNL     1     -12.300  11.537   3.472  1.00  0.00     0.296 HD
ENDBRANCH  67  69
ENDBRANCH  66  67
ENDBRANCH  56  66
ENDBRANCH  53  56
ENDBRANCH  50  52
ENDBRANCH  47  50
ENDBRANCH  45  46
BRANCH  45  71
ATOM     71  C   UNL     1      -9.727   5.371  -0.107  1.00  0.00     0.037 C 
BRANCH  71  72
ATOM     72  C   UNL     1     -10.748   6.484   0.143  1.00  0.00     0.026 C 
BRANCH  72  73
ATOM     73  C   UNL     1     -12.171   6.018  -0.158  1.00  0.00     0.146 C 
BRANCH  73  74
ATOM     74  N   UNL     1     -12.246   5.701  -1.581  1.00  0.00    -0.254 NA
ATOM     75  C   UNL     1     -13.336   5.193  -2.025  1.00  0.00     0.185 C 
ATOM     76  N   UNL     1     -13.436   4.892  -3.330  1.00  0.00    -0.370 N 
ATOM     77  N   UNL     1     -14.464   4.896  -1.356  1.00  0.00    -0.370 N 
ATOM     78  H   UNL     1     -12.626   5.077  -3.905  1.00  0.00     0.159 HD
ATOM     79  H   UNL     1     -14.196   4.363  -3.720  1.00  0.00     0.159 HD
ATOM     80  H   UNL     1     -14.535   5.073  -0.365  1.00  0.00     0.159 HD
ATOM     81  H   UNL     1     -15.301   4.607  -1.834  1.00  0.00     0.159 HD
ENDBRANCH  73  74
ENDBRANCH  72  73
ENDBRANCH  71  72
ENDBRANCH  45  71
ENDBRANCH   3  45
TORSDOF 20
ENDMDL
MODEL 10
REMARK VINA RESULT:    -5.506      2.106      2.994
REMARK INTER + INTRA:         -21.234
REMARK INTER:                 -16.456
REMARK INTRA:                  -4.778
REMARK UNBOUND:                -5.429
REMARK SMILES CCCCCC(=O)N[C@H](CC(=O)O)C(=O)N[C@H]1C(=O)N[C@H](CCCN=C(N)N)C(=O)N[C@@H]2CC[C@H](O)N(C2=O)[C@@H](CC(C)C)C(=O)N(C)[C@@H](Cc2ccccc2)C(=O)N[C@H](C(C)C)C(=O)O[C@@H]1C
REMARK SMILES IDX 30 1 31 2 29 3 32 5 35 6 37 7 34 8 38 9 33 10 39 11 36 12
REMARK SMILES IDX 40 14 41 15 42 16 43 17 44 18 45 19 46 20 47 21 48 22 49 23
REMARK SMILES IDX 50 24 51 25 52 26 56 27 53 28 55 29 54 30 57 31 58 32 59 33
REMARK SMILES IDX 60 35 61 36 62 37 63 38 64 39 65 40 66 41 67 42 68 43 21 45
REMARK SMILES IDX 20 46 18 47 19 48 17 50 16 52 14 53 15 54 9 56 8 57 6 58
REMARK SMILES IDX 7 59 5 61 4 62 3 63 2 64 1 65 10 66 11 67 12 68 13 69 22 71
REMARK SMILES IDX 23 72 24 73 25 74 26 75 27 76 28 77
REMARK H PARENT 31 4 36 13 59 34 20 49 16 55 8 60 13 70 27 78 27 79 28 80
REMARK H PARENT 28 81
REMARK Flexibility Score:  259.900
ROOT
ATOM      1  O   UNL     1      -5.780   6.547  -0.455  1.00  0.00    -0.273 OA
ATOM      2  N   UNL     1      -7.480   5.035  -0.686  1.00  0.00    -0.343 N 
ATOM      3  C   UNL     1      -6.900   6.154  -0.128  1.00  0.00     0.243 C 
ATOM      4  H   UNL     1      -8.409   4.749  -0.404  1.00  0.00     0.164 HD
ENDROOT
BRANCH   2   5
ATOM      5  C   UNL     1      -6.730   4.195  -1.614  1.00  0.00     0.171 C 
ATOM      6  C   UNL     1      -7.549   2.286  -3.636  1.00  0.00     0.214 C 
ATOM      7  N   UNL     1      -7.297   1.830  -2.290  1.00  0.00    -0.303 N 
ATOM      8  C   UNL     1      -6.713   3.494  -4.029  1.00  0.00     0.057 C 
ATOM      9  C   UNL     1      -6.952   2.695  -1.264  1.00  0.00     0.247 C 
ATOM     10  C   UNL     1      -6.966   4.629  -3.060  1.00  0.00     0.040 C 
ATOM     11  O   UNL     1      -6.822   2.309  -0.095  1.00  0.00    -0.272 OA
BRANCH   6  12
ATOM     12  O   UNL     1      -8.923   2.583  -3.740  1.00  0.00    -0.373 OA
ATOM     13  H   UNL     1      -9.285   2.021  -4.457  1.00  0.00     0.213 HD
ENDBRANCH   6  12
BRANCH   7  14
ATOM     14  C   UNL     1      -7.565   0.404  -2.004  1.00  0.00     0.177 C 
BRANCH  14  15
ATOM     15  C   UNL     1      -9.054   0.006  -1.990  1.00  0.00     0.038 C 
BRANCH  15  16
ATOM     16  C   UNL     1      -9.447  -1.463  -1.722  1.00  0.00    -0.015 C 
ATOM     17  C   UNL     1     -10.917  -1.743  -2.046  1.00  0.00     0.007 C 
ATOM     18  C   UNL     1      -9.206  -1.804  -0.246  1.00  0.00     0.007 C 
ENDBRANCH  15  16
ENDBRANCH  14  15
BRANCH  14  19
ATOM     19  C   UNL     1      -6.393  -0.488  -2.541  1.00  0.00     0.245 C 
ATOM     20  O   UNL     1      -6.213  -0.494  -3.770  1.00  0.00    -0.272 OA
BRANCH  19  21
ATOM     21  N   UNL     1      -5.642  -1.335  -1.746  1.00  0.00    -0.332 N 
ATOM     22  C   UNL     1      -5.474  -1.213  -0.308  1.00  0.00     0.147 C 
BRANCH  21  23
ATOM     23  C   UNL     1      -4.932  -2.464  -2.408  1.00  0.00     0.178 C 
BRANCH  23  24
ATOM     24  C   UNL     1      -3.448  -2.612  -2.016  1.00  0.00     0.070 C 
BRANCH  24  25
ATOM     25  C   UNL     1      -2.424  -2.420  -3.111  1.00  0.00    -0.045 A 
ATOM     26  C   UNL     1      -2.267  -3.377  -4.122  1.00  0.00     0.004 A 
ATOM     27  C   UNL     1      -1.611  -1.277  -3.128  1.00  0.00     0.004 A 
ATOM     28  C   UNL     1      -1.307  -3.201  -5.121  1.00  0.00     0.000 A 
ATOM     29  C   UNL     1      -0.654  -1.101  -4.128  1.00  0.00     0.000 A 
ATOM     30  C   UNL     1      -0.500  -2.065  -5.122  1.00  0.00     0.000 A 
ENDBRANCH  24  25
ENDBRANCH  23  24
BRANCH  23  31
ATOM     31  C   UNL     1      -5.744  -3.781  -2.391  1.00  0.00     0.243 C 
ATOM     32  O   UNL     1      -6.964  -3.833  -2.254  1.00  0.00    -0.273 OA
ATOM     33  N   UNL     1      -4.955  -4.917  -2.358  1.00  0.00    -0.341 N 
ATOM     34  H   UNL     1      -3.944  -4.809  -2.471  1.00  0.00     0.164 HD
BRANCH  33  35
ATOM     35  C   UNL     1      -5.505  -6.269  -2.220  1.00  0.00     0.194 C 
BRANCH  35  36
ATOM     36  C   UNL     1      -4.921  -7.073  -1.024  1.00  0.00     0.017 C 
ATOM     37  C   UNL     1      -5.851  -8.231  -0.622  1.00  0.00     0.010 C 
ATOM     38  C   UNL     1      -4.690  -6.215   0.225  1.00  0.00     0.010 C 
ENDBRANCH  35  36
BRANCH  35  39
ATOM     39  C   UNL     1      -5.446  -7.077  -3.547  1.00  0.00     0.329 C 
ATOM     40  O   UNL     1      -6.432  -7.385  -4.207  1.00  0.00    -0.250 OA
BRANCH  39  41
ATOM     41  O   UNL     1      -4.163  -7.332  -3.944  1.00  0.00    -0.458 OA
BRANCH  41  42
ATOM     42  C   UNL     1      -4.003  -8.278  -5.028  1.00  0.00     0.205 CG0
ATOM     43  C   UNL     1      -3.521  -7.494  -6.247  1.00  0.00     0.056 C 
ATOM     44  G   UNL     1      -5.355  -8.977  -5.274  1.00  0.00     0.000 G0
ENDBRANCH  41  42
ENDBRANCH  39  41
ENDBRANCH  35  39
ENDBRANCH  33  35
ENDBRANCH  23  31
ENDBRANCH  21  23
ENDBRANCH  19  21
ENDBRANCH  14  19
ENDBRANCH   7  14
ENDBRANCH   2   5
BRANCH   3  45
ATOM     45  C   UNL     1      -7.755   6.886   0.914  1.00  0.00     0.171 C 
BRANCH  45  46
ATOM     46  N   UNL     1      -7.940   8.235   0.394  1.00  0.00    -0.342 N 
ATOM     47  C   UNL     1      -9.176   8.739   0.077  1.00  0.00     0.247 C 
ATOM     48  O   UNL     1     -10.222   8.120   0.277  1.00  0.00    -0.273 OA
ATOM     49  H   UNL     1      -7.104   8.803   0.267  1.00  0.00     0.164 HD
BRANCH  47  50
ATOM     50  C   UNL     1      -9.164  10.130  -0.573  1.00  0.00     0.212 CG0
ATOM     51  G   UNL     1     -10.537  10.780  -0.313  1.00  0.00     0.000 G0
BRANCH  50  52
ATOM     52  N   UNL     1      -8.058  10.845   0.057  1.00  0.00    -0.339 N 
ATOM     53  C   UNL     1      -7.914  12.210   0.007  1.00  0.00     0.243 C 
ATOM     54  O   UNL     1      -8.682  12.934  -0.622  1.00  0.00    -0.273 OA
ATOM     55  H   UNL     1      -7.327  10.291   0.500  1.00  0.00     0.164 HD
BRANCH  53  56
ATOM     56  C   UNL     1      -6.623  12.731   0.670  1.00  0.00     0.182 C 
BRANCH  56  57
ATOM     57  N   UNL     1      -5.835  13.534  -0.269  1.00  0.00    -0.344 N 
ATOM     58  C   UNL     1      -5.085  14.612   0.133  1.00  0.00     0.220 C 
ATOM     59  O   UNL     1      -5.079  15.022   1.289  1.00  0.00    -0.275 OA
ATOM     60  H   UNL     1      -5.732  13.170  -1.213  1.00  0.00     0.164 HD
BRANCH  58  61
ATOM     61  C   UNL     1      -4.306  15.259  -0.997  1.00  0.00     0.100 C 
BRANCH  61  62
ATOM     62  C   UNL     1      -3.215  14.363  -1.584  1.00  0.00     0.010 C 
BRANCH  62  63
ATOM     63  C   UNL     1      -3.184  14.335  -3.118  1.00  0.00     0.000 C 
BRANCH  63  64
ATOM     64  C   UNL     1      -1.834  13.934  -3.710  1.00  0.00    -0.003 C 
ATOM     65  C   UNL     1      -1.617  12.430  -3.630  1.00  0.00     0.004 C 
ENDBRANCH  63  64
ENDBRANCH  62  63
ENDBRANCH  61  62
ENDBRANCH  58  61
ENDBRANCH  56  57
BRANCH  56  66
ATOM     66  C   UNL     1      -5.808  11.591   1.279  1.00  0.00     0.157 C 
BRANCH  66  67
ATOM     67  C   UNL     1      -6.183  11.360   2.715  1.00  0.00     0.305 C 
ATOM     68  O   UNL     1      -5.835  12.024   3.679  1.00  0.00    -0.252 OA
BRANCH  67  69
ATOM     69  O   UNL     1      -7.030  10.323   2.862  1.00  0.00    -0.481 OA
ATOM     70  H   UNL     1      -7.390  10.421   3.768  1.00  0.00     0.296 HD
ENDBRANCH  67  69
ENDBRANCH  66  67
ENDBRANCH  56  66
ENDBRANCH  53  56
ENDBRANCH  50  52
ENDBRANCH  47  50
ENDBRANCH  45  46
BRANCH  45  71
ATOM     71  C   UNL     1      -7.048   6.897   2.274  1.00  0.00     0.037 C 
BRANCH  71  72
ATOM     72  C   UNL     1      -7.814   6.091   3.327  1.00  0.00     0.026 C 
BRANCH  72  73
ATOM     73  C   UNL     1      -9.270   6.540   3.426  1.00  0.00     0.146 C 
BRANCH  73  74
ATOM     74  N   UNL     1      -9.399   7.382   4.612  1.00  0.00    -0.254 NA
ATOM     75  C   UNL     1      -9.678   8.621   4.439  1.00  0.00     0.185 C 
ATOM     76  N   UNL     1      -9.804   9.420   5.511  1.00  0.00    -0.370 N 
ATOM     77  N   UNL     1      -9.879   9.290   3.291  1.00  0.00    -0.370 N 
ATOM     78  H   UNL     1      -9.661   8.997   6.417  1.00  0.00     0.159 HD
ATOM     79  H   UNL     1      -9.878  10.421   5.450  1.00  0.00     0.159 HD
ATOM     80  H   UNL     1      -9.820   8.815   2.403  1.00  0.00     0.159 HD
ATOM     81  H   UNL     1     -10.208  10.241   3.284  1.00  0.00     0.159 HD
ENDBRANCH  73  74
ENDBRANCH  72  73
ENDBRANCH  71  72
ENDBRANCH  45  71
ENDBRANCH   3  45
TORSDOF 20
ENDMDL
