MODEL 1
REMARK VINA RESULT:    -6.321      0.000      0.000
REMARK INTER + INTRA:         -12.456
REMARK INTER:                 -10.756
REMARK INTRA:                  -1.700
REMARK UNBOUND:                -1.700
REMARK SMILES CC[C@H](C)[C@@H]1NC(=O)[C@H]2CSC(=N2)[C@@H]([C@@H](C)CC)NC(=O)c2csc(n2)CNC(=O)[C@H]2N=C1O[C@@H]2C
REMARK SMILES IDX 27 1 25 2 22 3 26 4 23 5 24 6 20 7 19 8 21 9 14 11 12 12
REMARK SMILES IDX 11 13 10 14 13 15 9 16 15 18 16 19 17 20 18 21 28 22 29 23
REMARK SMILES IDX 30 24 31 26 32 27 35 28 33 29 34 30 36 31 5 32 6 33 7 34
REMARK SMILES IDX 8 35 3 38 4 39 2 40 1 41
REMARK H PARENT 19 10 28 25 6 36
REMARK Flexibility Score:   91.900
ROOT
ATOM      1  C   UNL     1      -2.669  -2.402   6.622  1.00  0.00     0.183 C 
ENDROOT
BRANCH   1   2
ATOM      2  C   UNL     1      -2.768  -2.828   8.058  1.00  0.00     0.113 A 
ATOM      3  C   UNL     1      -2.951  -2.666  10.274  1.00  0.00     0.139 A 
ATOM      4  N   UNL     1      -3.040  -1.999   9.050  1.00  0.00    -0.234 NA
ATOM      5  C   UNL     1      -2.667  -4.014  10.171  1.00  0.00     0.101 A 
ATOM      6  S   UNL     1      -2.483  -4.456   8.523  1.00  0.00    -0.125 S 
BRANCH   3   7
ATOM      7  C   UNL     1      -3.115  -1.924  11.526  1.00  0.00     0.271 C 
ATOM      8  N   UNL     1      -4.001  -0.885  11.386  1.00  0.00    -0.341 N 
ATOM      9  O   UNL     1      -2.506  -2.185  12.556  1.00  0.00    -0.267 OA
ATOM     10  H   UNL     1      -4.449  -0.807  10.473  1.00  0.00     0.164 HD
BRANCH   8  11
ATOM     11  C   UNL     1      -4.228   0.137  12.395  1.00  0.00     0.140 C 
BRANCH  11  12
ATOM     12  C   UNL     1      -3.321   1.327  12.069  1.00  0.00     0.091 C 
ATOM     13  S   UNL     1      -3.692   2.920  12.686  1.00  0.00    -0.106 SA
ATOM     14  C   UNL     1      -2.062   3.510  12.180  1.00  0.00     0.113 C 
ATOM     15  N   UNL     1      -2.303   1.218  11.275  1.00  0.00    -0.267 NA
ATOM     16  C   UNL     1      -1.673   2.558  11.059  1.00  0.00     0.205 CG0
ATOM     17  G   UNL     1      -2.071   3.138   9.692  1.00  0.00     0.000 G0
ENDBRANCH  11  12
BRANCH  11  18
ATOM     18  C   UNL     1      -5.724   0.458  12.642  1.00  0.00     0.015 C 
ATOM     19  C   UNL     1      -6.579  -0.036  11.467  1.00  0.00     0.010 C 
BRANCH  18  20
ATOM     20  C   UNL     1      -6.277  -0.045  13.991  1.00  0.00     0.002 C 
ATOM     21  C   UNL     1      -5.239  -0.797  14.816  1.00  0.00     0.004 C 
ENDBRANCH  18  20
ENDBRANCH  11  18
ENDBRANCH   8  11
ENDBRANCH   3   7
ENDBRANCH   1   2
BRANCH   1  22
ATOM     22  N   UNL     1      -3.134  -1.035   6.543  1.00  0.00    -0.348 N 
ATOM     23  C   UNL     1      -4.437  -0.666   6.344  1.00  0.00     0.249 C 
ATOM     24  O   UNL     1      -5.363  -1.467   6.297  1.00  0.00    -0.272 OA
ATOM     25  H   UNL     1      -2.443  -0.287   6.548  1.00  0.00     0.163 HD
BRANCH  23  26
ATOM     26  C   UNL     1      -4.616   0.857   6.249  1.00  0.00     0.238 C 
ATOM     27  N   UNL     1      -3.810   1.514   7.316  1.00  0.00    -0.236 NA
ATOM     28  C   UNL     1      -4.085   1.411   4.938  1.00  0.00     0.206 C 
ATOM     29  C   UNL     1      -2.867   2.111   6.651  1.00  0.00     0.208 C 
ATOM     30  O   UNL     1      -2.848   2.025   5.298  1.00  0.00    -0.474 OA
ATOM     31  C   UNL     1      -4.998   2.472   4.339  1.00  0.00     0.056 C 
BRANCH  29  32
ATOM     32  C   UNL     1      -1.696   2.890   7.244  1.00  0.00     0.171 C 
BRANCH  32  33
ATOM     33  N   UNL     1      -1.456   2.497   8.623  1.00  0.00    -0.342 N 
ATOM     34  C   UNL     1      -2.016   3.158   9.690  1.00  0.00     0.246 CG0
ATOM     35  O   UNL     1      -2.739   4.143   9.564  1.00  0.00    -0.273 OA
ATOM     36  H   UNL     1      -0.828   1.733   8.849  1.00  0.00     0.164 HD
ATOM     37  G   UNL     1      -1.685   2.548  11.062  1.00  0.00     0.000 G0
ENDBRANCH  32  33
BRANCH  32  38
ATOM     38  C   UNL     1      -0.435   2.736   6.353  1.00  0.00     0.017 C 
ATOM     39  C   UNL     1       0.439   3.992   6.457  1.00  0.00     0.010 C 
BRANCH  38  40
ATOM     40  C   UNL     1       0.371   1.455   6.666  1.00  0.00     0.002 C 
ATOM     41  C   UNL     1       0.397   0.456   5.516  1.00  0.00     0.004 C 
ENDBRANCH  38  40
ENDBRANCH  32  38
ENDBRANCH  29  32
ENDBRANCH  23  26
ENDBRANCH   1  22
TORSDOF 4
ENDMDL
MODEL 2
REMARK VINA RESULT:    -5.960      1.752      2.662
REMARK INTER + INTRA:         -11.842
REMARK INTER:                 -10.061
REMARK INTRA:                  -1.781
REMARK UNBOUND:                -1.700
REMARK SMILES CC[C@H](C)[C@@H]1NC(=O)[C@H]2CSC(=N2)[C@@H]([C@@H](C)CC)NC(=O)c2csc(n2)CNC(=O)[C@H]2N=C1O[C@@H]2C
REMARK SMILES IDX 27 1 25 2 22 3 26 4 23 5 24 6 20 7 19 8 21 9 14 11 12 12
REMARK SMILES IDX 11 13 10 14 13 15 9 16 15 18 16 19 17 20 18 21 28 22 29 23
REMARK SMILES IDX 30 24 31 26 32 27 35 28 33 29 34 30 36 31 5 32 6 33 7 34
REMARK SMILES IDX 8 35 3 38 4 39 2 40 1 41
REMARK H PARENT 19 10 28 25 6 36
REMARK Flexibility Score:   91.900
ROOT
ATOM      1  C   UNL     1      -2.616  -2.523   7.081  1.00  0.00     0.183 C 
ENDROOT
BRANCH   1   2
ATOM      2  C   UNL     1      -2.634  -2.634   8.579  1.00  0.00     0.113 A 
ATOM      3  C   UNL     1      -3.222  -2.240  10.692  1.00  0.00     0.139 A 
ATOM      4  N   UNL     1      -3.535  -2.047   9.345  1.00  0.00    -0.234 NA
ATOM      5  C   UNL     1      -2.110  -3.028  10.913  1.00  0.00     0.101 A 
ATOM      6  S   UNL     1      -1.425  -3.518   9.418  1.00  0.00    -0.125 S 
BRANCH   3   7
ATOM      7  C   UNL     1      -4.027  -1.594  11.731  1.00  0.00     0.271 C 
ATOM      8  N   UNL     1      -4.869  -0.647  11.203  1.00  0.00    -0.341 N 
ATOM      9  O   UNL     1      -3.928  -1.850  12.925  1.00  0.00    -0.267 OA
ATOM     10  H   UNL     1      -4.857  -0.563  10.188  1.00  0.00     0.164 HD
BRANCH   8  11
ATOM     11  C   UNL     1      -5.652   0.284  11.999  1.00  0.00     0.140 C 
BRANCH  11  12
ATOM     12  C   UNL     1      -4.873   1.600  12.083  1.00  0.00     0.091 C 
ATOM     13  S   UNL     1      -5.683   3.085  12.522  1.00  0.00    -0.106 SA
ATOM     14  C   UNL     1      -4.090   3.910  12.724  1.00  0.00     0.113 C 
ATOM     15  N   UNL     1      -3.619   1.676  11.766  1.00  0.00    -0.267 NA
ATOM     16  C   UNL     1      -3.155   3.098  11.841  1.00  0.00     0.205 CG0
ATOM     17  G   UNL     1      -3.057   3.718  10.438  1.00  0.00     0.000 G0
ENDBRANCH  11  12
BRANCH  11  18
ATOM     18  C   UNL     1      -7.137   0.390  11.566  1.00  0.00     0.015 C 
ATOM     19  C   UNL     1      -7.239   0.579  10.047  1.00  0.00     0.010 C 
BRANCH  18  20
ATOM     20  C   UNL     1      -8.034  -0.768  12.051  1.00  0.00     0.002 C 
ATOM     21  C   UNL     1      -9.300  -0.929  11.218  1.00  0.00     0.004 C 
ENDBRANCH  18  20
ENDBRANCH  11  18
ENDBRANCH   8  11
ENDBRANCH   3   7
ENDBRANCH   1   2
BRANCH   1  22
ATOM     22  N   UNL     1      -1.966  -1.275   6.748  1.00  0.00    -0.348 N 
ATOM     23  C   UNL     1      -2.594  -0.193   6.193  1.00  0.00     0.249 C 
ATOM     24  O   UNL     1      -3.804  -0.144   5.999  1.00  0.00    -0.272 OA
ATOM     25  H   UNL     1      -0.954  -1.214   6.849  1.00  0.00     0.163 HD
BRANCH  23  26
ATOM     26  C   UNL     1      -1.632   0.968   5.899  1.00  0.00     0.238 C 
ATOM     27  N   UNL     1      -2.232   2.239   6.392  1.00  0.00    -0.236 NA
ATOM     28  C   UNL     1      -0.319   0.821   6.648  1.00  0.00     0.206 C 
ATOM     29  C   UNL     1      -1.473   2.556   7.398  1.00  0.00     0.208 C 
ATOM     30  O   UNL     1      -0.422   1.761   7.716  1.00  0.00    -0.474 OA
ATOM     31  C   UNL     1       0.886   1.188   5.792  1.00  0.00     0.056 C 
BRANCH  29  32
ATOM     32  C   UNL     1      -1.664   3.745   8.336  1.00  0.00     0.171 C 
BRANCH  32  33
ATOM     33  N   UNL     1      -1.933   3.297   9.693  1.00  0.00    -0.342 N 
ATOM     34  C   UNL     1      -3.013   3.740  10.419  1.00  0.00     0.246 CG0
ATOM     35  O   UNL     1      -3.816   4.565   9.990  1.00  0.00    -0.273 OA
ATOM     36  H   UNL     1      -1.303   2.660  10.170  1.00  0.00     0.164 HD
ATOM     37  G   UNL     1      -3.151   3.100  11.811  1.00  0.00     0.000 G0
ENDBRANCH  32  33
BRANCH  32  38
ATOM     38  C   UNL     1      -0.444   4.701   8.256  1.00  0.00     0.017 C 
ATOM     39  C   UNL     1      -0.803   5.944   7.434  1.00  0.00     0.010 C 
BRANCH  38  40
ATOM     40  C   UNL     1       0.116   5.080   9.647  1.00  0.00     0.002 C 
ATOM     41  C   UNL     1       0.039   6.571   9.948  1.00  0.00     0.004 C 
ENDBRANCH  38  40
ENDBRANCH  32  38
ENDBRANCH  29  32
ENDBRANCH  23  26
ENDBRANCH   1  22
TORSDOF 4
ENDMDL
MODEL 3
REMARK VINA RESULT:    -5.907      2.478      5.623
REMARK INTER + INTRA:         -11.751
REMARK INTER:                 -10.078
REMARK INTRA:                  -1.673
REMARK UNBOUND:                -1.700
REMARK SMILES CC[C@H](C)[C@@H]1NC(=O)[C@H]2CSC(=N2)[C@@H]([C@@H](C)CC)NC(=O)c2csc(n2)CNC(=O)[C@H]2N=C1O[C@@H]2C
REMARK SMILES IDX 27 1 25 2 22 3 26 4 23 5 24 6 20 7 19 8 21 9 14 11 12 12
REMARK SMILES IDX 11 13 10 14 13 15 9 16 15 18 16 19 17 20 18 21 28 22 29 23
REMARK SMILES IDX 30 24 31 26 32 27 35 28 33 29 34 30 36 31 5 32 6 33 7 34
REMARK SMILES IDX 8 35 3 38 4 39 2 40 1 41
REMARK H PARENT 19 10 28 25 6 36
REMARK Flexibility Score:   91.900
ROOT
ATOM      1  C   UNL     1      -3.646   5.214  11.093  1.00  0.00     0.183 C 
ENDROOT
BRANCH   1   2
ATOM      2  C   UNL     1      -4.289   3.893  11.405  1.00  0.00     0.113 A 
ATOM      3  C   UNL     1      -4.975   1.790  11.130  1.00  0.00     0.139 A 
ATOM      4  N   UNL     1      -4.174   2.824  10.639  1.00  0.00    -0.234 NA
ATOM      5  C   UNL     1      -5.638   2.089  12.304  1.00  0.00     0.101 A 
ATOM      6  S   UNL     1      -5.280   3.695  12.793  1.00  0.00    -0.125 S 
BRANCH   3   7
ATOM      7  C   UNL     1      -5.087   0.534  10.386  1.00  0.00     0.271 C 
ATOM      8  N   UNL     1      -3.935  -0.209  10.472  1.00  0.00    -0.341 N 
ATOM      9  O   UNL     1      -6.077   0.210   9.742  1.00  0.00    -0.267 OA
ATOM     10  H   UNL     1      -3.203   0.180  11.065  1.00  0.00     0.164 HD
BRANCH   8  11
ATOM     11  C   UNL     1      -3.676  -1.408   9.692  1.00  0.00     0.140 C 
BRANCH  11  12
ATOM     12  C   UNL     1      -2.443  -1.147   8.823  1.00  0.00     0.091 C 
ATOM     13  S   UNL     1      -0.964  -0.551   9.538  1.00  0.00    -0.106 SA
ATOM     14  C   UNL     1      -0.071  -0.890   8.006  1.00  0.00     0.113 C 
ATOM     15  N   UNL     1      -2.469  -1.284   7.535  1.00  0.00    -0.267 NA
ATOM     16  C   UNL     1      -1.160  -0.858   6.946  1.00  0.00     0.205 CG0
ATOM     17  G   UNL     1      -1.270   0.543   6.321  1.00  0.00     0.000 G0
ENDBRANCH  11  12
BRANCH  11  18
ATOM     18  C   UNL     1      -3.666  -2.714  10.528  1.00  0.00     0.015 C 
ATOM     19  C   UNL     1      -5.049  -3.379  10.498  1.00  0.00     0.010 C 
BRANCH  18  20
ATOM     20  C   UNL     1      -2.552  -3.712  10.152  1.00  0.00     0.002 C 
ATOM     21  C   UNL     1      -2.928  -4.608   8.978  1.00  0.00     0.004 C 
ENDBRANCH  18  20
ENDBRANCH  11  18
ENDBRANCH   8  11
ENDBRANCH   3   7
ENDBRANCH   1   2
BRANCH   1  22
ATOM     22  N   UNL     1      -2.786   5.015   9.948  1.00  0.00    -0.348 N 
ATOM     23  C   UNL     1      -1.429   4.845  10.012  1.00  0.00     0.249 C 
ATOM     24  O   UNL     1      -0.812   4.758  11.067  1.00  0.00    -0.272 OA
ATOM     25  H   UNL     1      -3.193   5.091   9.016  1.00  0.00     0.163 HD
BRANCH  23  26
ATOM     26  C   UNL     1      -0.780   4.714   8.626  1.00  0.00     0.238 C 
ATOM     27  N   UNL     1      -1.089   3.370   8.064  1.00  0.00    -0.236 NA
ATOM     28  C   UNL     1      -1.351   5.711   7.633  1.00  0.00     0.206 C 
ATOM     29  C   UNL     1      -1.895   3.637   7.080  1.00  0.00     0.208 C 
ATOM     30  O   UNL     1      -2.215   4.927   6.812  1.00  0.00    -0.474 OA
ATOM     31  C   UNL     1      -0.280   6.338   6.751  1.00  0.00     0.056 C 
BRANCH  29  32
ATOM     32  C   UNL     1      -2.596   2.620   6.184  1.00  0.00     0.171 C 
BRANCH  32  33
ATOM     33  N   UNL     1      -2.363   1.264   6.655  1.00  0.00    -0.342 N 
ATOM     34  C   UNL     1      -1.243   0.543   6.314  1.00  0.00     0.246 CG0
ATOM     35  O   UNL     1      -0.370   0.976   5.567  1.00  0.00    -0.273 OA
ATOM     36  H   UNL     1      -3.047   0.784   7.230  1.00  0.00     0.164 HD
ATOM     37  G   UNL     1      -1.158  -0.847   6.964  1.00  0.00     0.000 G0
ENDBRANCH  32  33
BRANCH  32  38
ATOM     38  C   UNL     1      -4.106   2.955   6.060  1.00  0.00     0.017 C 
ATOM     39  C   UNL     1      -4.593   2.677   4.633  1.00  0.00     0.010 C 
BRANCH  38  40
ATOM     40  C   UNL     1      -4.974   2.223   7.110  1.00  0.00     0.002 C 
ATOM     41  C   UNL     1      -6.455   2.568   7.024  1.00  0.00     0.004 C 
ENDBRANCH  38  40
ENDBRANCH  32  38
ENDBRANCH  29  32
ENDBRANCH  23  26
ENDBRANCH   1  22
TORSDOF 4
ENDMDL
MODEL 4
REMARK VINA RESULT:    -5.670      2.670      4.837
REMARK INTER + INTRA:         -11.348
REMARK INTER:                  -9.981
REMARK INTRA:                  -1.367
REMARK UNBOUND:                -1.700
REMARK SMILES CC[C@H](C)[C@@H]1NC(=O)[C@H]2CSC(=N2)[C@@H]([C@@H](C)CC)NC(=O)c2csc(n2)CNC(=O)[C@H]2N=C1O[C@@H]2C
REMARK SMILES IDX 27 1 25 2 22 3 26 4 23 5 24 6 20 7 19 8 21 9 14 11 12 12
REMARK SMILES IDX 11 13 10 14 13 15 9 16 15 18 16 19 17 20 18 21 28 22 29 23
REMARK SMILES IDX 30 24 31 26 32 27 35 28 33 29 34 30 36 31 5 32 6 33 7 34
REMARK SMILES IDX 8 35 3 38 4 39 2 40 1 41
REMARK H PARENT 19 10 28 25 6 36
REMARK Flexibility Score:   91.900
ROOT
ATOM      1  C   UNL     1      -8.174  -2.753   9.320  1.00  0.00     0.183 C 
ENDROOT
BRANCH   1   2
ATOM      2  C   UNL     1      -7.720  -2.064  10.575  1.00  0.00     0.113 A 
ATOM      3  C   UNL     1      -6.346  -1.134  12.063  1.00  0.00     0.139 A 
ATOM      4  N   UNL     1      -6.490  -1.622  10.763  1.00  0.00    -0.234 NA
ATOM      5  C   UNL     1      -7.502  -1.166  12.817  1.00  0.00     0.101 A 
ATOM      6  S   UNL     1      -8.788  -1.839  11.900  1.00  0.00    -0.125 S 
BRANCH   3   7
ATOM      7  C   UNL     1      -5.036  -0.680  12.535  1.00  0.00     0.271 C 
ATOM      8  N   UNL     1      -4.537   0.330  11.750  1.00  0.00    -0.341 N 
ATOM      9  O   UNL     1      -4.450  -1.171  13.492  1.00  0.00    -0.267 OA
ATOM     10  H   UNL     1      -5.151   0.650  11.001  1.00  0.00     0.164 HD
BRANCH   8  11
ATOM     11  C   UNL     1      -3.185   0.854  11.854  1.00  0.00     0.140 C 
BRANCH  11  12
ATOM     12  C   UNL     1      -2.632   1.012  10.434  1.00  0.00     0.091 C 
ATOM     13  S   UNL     1      -3.526   1.906   9.227  1.00  0.00    -0.106 SA
ATOM     14  C   UNL     1      -2.089   1.893   8.135  1.00  0.00     0.113 C 
ATOM     15  N   UNL     1      -1.534   0.436  10.057  1.00  0.00    -0.267 NA
ATOM     16  C   UNL     1      -1.301   0.678   8.599  1.00  0.00     0.205 CG0
ATOM     17  G   UNL     1      -1.675  -0.561   7.770  1.00  0.00     0.000 G0
ENDBRANCH  11  12
BRANCH  11  18
ATOM     18  C   UNL     1      -3.058   2.088  12.784  1.00  0.00     0.015 C 
ATOM     19  C   UNL     1      -2.028   3.077  12.223  1.00  0.00     0.010 C 
BRANCH  18  20
ATOM     20  C   UNL     1      -4.392   2.789  13.111  1.00  0.00     0.002 C 
ATOM     21  C   UNL     1      -4.665   3.996  12.220  1.00  0.00     0.004 C 
ENDBRANCH  18  20
ENDBRANCH  11  18
ENDBRANCH   8  11
ENDBRANCH   3   7
ENDBRANCH   1   2
BRANCH   1  22
ATOM     22  N   UNL     1      -7.176  -2.503   8.304  1.00  0.00    -0.348 N 
ATOM     23  C   UNL     1      -7.355  -1.687   7.221  1.00  0.00     0.249 C 
ATOM     24  O   UNL     1      -8.363  -1.011   7.047  1.00  0.00    -0.272 OA
ATOM     25  H   UNL     1      -6.305  -3.032   8.340  1.00  0.00     0.163 HD
BRANCH  23  26
ATOM     26  C   UNL     1      -6.137  -1.663   6.285  1.00  0.00     0.238 C 
ATOM     27  N   UNL     1      -4.918  -1.332   7.075  1.00  0.00    -0.236 NA
ATOM     28  C   UNL     1      -5.865  -3.026   5.671  1.00  0.00     0.206 C 
ATOM     29  C   UNL     1      -4.245  -2.444   7.064  1.00  0.00     0.208 C 
ATOM     30  O   UNL     1      -4.740  -3.516   6.399  1.00  0.00    -0.474 OA
ATOM     31  C   UNL     1      -5.491  -2.938   4.198  1.00  0.00     0.056 C 
BRANCH  29  32
ATOM     32  C   UNL     1      -2.928  -2.711   7.788  1.00  0.00     0.171 C 
BRANCH  32  33
ATOM     33  N   UNL     1      -2.429  -1.500   8.421  1.00  0.00    -0.342 N 
ATOM     34  C   UNL     1      -1.679  -0.567   7.746  1.00  0.00     0.246 CG0
ATOM     35  O   UNL     1      -1.352  -0.694   6.569  1.00  0.00    -0.273 OA
ATOM     36  H   UNL     1      -2.588  -1.320   9.406  1.00  0.00     0.164 HD
ATOM     37  G   UNL     1      -1.300   0.669   8.579  1.00  0.00     0.000 G0
ENDBRANCH  32  33
BRANCH  32  38
ATOM     38  C   UNL     1      -3.089  -3.883   8.792  1.00  0.00     0.017 C 
ATOM     39  C   UNL     1      -1.821  -4.747   8.800  1.00  0.00     0.010 C 
BRANCH  38  40
ATOM     40  C   UNL     1      -3.466  -3.411  10.215  1.00  0.00     0.002 C 
ATOM     41  C   UNL     1      -2.270  -2.965  11.045  1.00  0.00     0.004 C 
ENDBRANCH  38  40
ENDBRANCH  32  38
ENDBRANCH  29  32
ENDBRANCH  23  26
ENDBRANCH   1  22
TORSDOF 4
ENDMDL
MODEL 5
REMARK VINA RESULT:    -5.658      2.561      5.371
REMARK INTER + INTRA:         -11.328
REMARK INTER:                  -9.656
REMARK INTRA:                  -1.672
REMARK UNBOUND:                -1.700
REMARK SMILES CC[C@H](C)[C@@H]1NC(=O)[C@H]2CSC(=N2)[C@@H]([C@@H](C)CC)NC(=O)c2csc(n2)CNC(=O)[C@H]2N=C1O[C@@H]2C
REMARK SMILES IDX 27 1 25 2 22 3 26 4 23 5 24 6 20 7 19 8 21 9 14 11 12 12
REMARK SMILES IDX 11 13 10 14 13 15 9 16 15 18 16 19 17 20 18 21 28 22 29 23
REMARK SMILES IDX 30 24 31 26 32 27 35 28 33 29 34 30 36 31 5 32 6 33 7 34
REMARK SMILES IDX 8 35 3 38 4 39 2 40 1 41
REMARK H PARENT 19 10 28 25 6 36
REMARK Flexibility Score:   91.900
ROOT
ATOM      1  C   UNL     1       0.149   0.291   6.066  1.00  0.00     0.183 C 
ENDROOT
BRANCH   1   2
ATOM      2  C   UNL     1      -0.186   1.662   6.577  1.00  0.00     0.113 A 
ATOM      3  C   UNL     1      -1.352   3.306   7.527  1.00  0.00     0.139 A 
ATOM      4  N   UNL     1      -1.255   1.931   7.303  1.00  0.00    -0.234 NA
ATOM      5  C   UNL     1      -0.308   4.046   7.008  1.00  0.00     0.101 A 
ATOM      6  S   UNL     1       0.803   3.015   6.203  1.00  0.00    -0.125 S 
BRANCH   3   7
ATOM      7  C   UNL     1      -2.516   3.854   8.227  1.00  0.00     0.271 C 
ATOM      8  N   UNL     1      -2.470   3.585   9.573  1.00  0.00    -0.341 N 
ATOM      9  O   UNL     1      -3.430   4.447   7.668  1.00  0.00    -0.267 OA
ATOM     10  H   UNL     1      -1.633   3.101   9.897  1.00  0.00     0.164 HD
BRANCH   8  11
ATOM     11  C   UNL     1      -3.566   3.835  10.495  1.00  0.00     0.140 C 
BRANCH  11  12
ATOM     12  C   UNL     1      -4.137   2.481  10.925  1.00  0.00     0.091 C 
ATOM     13  S   UNL     1      -3.083   1.228  11.538  1.00  0.00    -0.106 SA
ATOM     14  C   UNL     1      -4.514   0.276  12.089  1.00  0.00     0.113 C 
ATOM     15  N   UNL     1      -5.392   2.189  10.785  1.00  0.00    -0.267 NA
ATOM     16  C   UNL     1      -5.637   0.768  11.189  1.00  0.00     0.205 CG0
ATOM     17  G   UNL     1      -5.778  -0.136   9.953  1.00  0.00     0.000 G0
ENDBRANCH  11  12
BRANCH  11  18
ATOM     18  C   UNL     1      -3.218   4.830  11.632  1.00  0.00     0.015 C 
ATOM     19  C   UNL     1      -2.578   6.099  11.056  1.00  0.00     0.010 C 
BRANCH  18  20
ATOM     20  C   UNL     1      -4.392   5.168  12.574  1.00  0.00     0.002 C 
ATOM     21  C   UNL     1      -4.372   4.358  13.865  1.00  0.00     0.004 C 
ENDBRANCH  18  20
ENDBRANCH  11  18
ENDBRANCH   8  11
ENDBRANCH   3   7
ENDBRANCH   1   2
BRANCH   1  22
ATOM     22  N   UNL     1      -0.943  -0.585   6.429  1.00  0.00    -0.348 N 
ATOM     23  C   UNL     1      -0.947  -1.416   7.516  1.00  0.00     0.249 C 
ATOM     24  O   UNL     1      -0.048  -1.439   8.348  1.00  0.00    -0.272 OA
ATOM     25  H   UNL     1      -1.735  -0.661   5.792  1.00  0.00     0.163 HD
BRANCH  23  26
ATOM     26  C   UNL     1      -2.223  -2.266   7.610  1.00  0.00     0.238 C 
ATOM     27  N   UNL     1      -3.278  -1.491   8.320  1.00  0.00    -0.236 NA
ATOM     28  C   UNL     1      -2.801  -2.579   6.240  1.00  0.00     0.206 C 
ATOM     29  C   UNL     1      -4.145  -1.240   7.384  1.00  0.00     0.208 C 
ATOM     30  O   UNL     1      -3.923  -1.705   6.130  1.00  0.00    -0.474 OA
ATOM     31  C   UNL     1      -3.291  -4.016   6.127  1.00  0.00     0.056 C 
BRANCH  29  32
ATOM     32  C   UNL     1      -5.413  -0.404   7.526  1.00  0.00     0.171 C 
BRANCH  32  33
ATOM     33  N   UNL     1      -5.396   0.360   8.763  1.00  0.00    -0.342 N 
ATOM     34  C   UNL     1      -5.807  -0.165   9.964  1.00  0.00     0.246 CG0
ATOM     35  O   UNL     1      -6.244  -1.308  10.082  1.00  0.00    -0.273 OA
ATOM     36  H   UNL     1      -5.109   1.334   8.774  1.00  0.00     0.164 HD
ATOM     37  G   UNL     1      -5.654   0.786  11.162  1.00  0.00     0.000 G0
ENDBRANCH  32  33
BRANCH  32  38
ATOM     38  C   UNL     1      -5.614   0.493   6.276  1.00  0.00     0.017 C 
ATOM     39  C   UNL     1      -6.975   1.197   6.346  1.00  0.00     0.010 C 
BRANCH  38  40
ATOM     40  C   UNL     1      -4.461   1.502   6.066  1.00  0.00     0.002 C 
ATOM     41  C   UNL     1      -4.629   2.371   4.827  1.00  0.00     0.004 C 
ENDBRANCH  38  40
ENDBRANCH  32  38
ENDBRANCH  29  32
ENDBRANCH  23  26
ENDBRANCH   1  22
TORSDOF 4
ENDMDL
MODEL 6
REMARK VINA RESULT:    -5.607      2.523      6.299
REMARK INTER + INTRA:         -11.241
REMARK INTER:                  -9.285
REMARK INTRA:                  -1.956
REMARK UNBOUND:                -1.700
REMARK SMILES CC[C@H](C)[C@@H]1NC(=O)[C@H]2CSC(=N2)[C@@H]([C@@H](C)CC)NC(=O)c2csc(n2)CNC(=O)[C@H]2N=C1O[C@@H]2C
REMARK SMILES IDX 27 1 25 2 22 3 26 4 23 5 24 6 20 7 19 8 21 9 14 11 12 12
REMARK SMILES IDX 11 13 10 14 13 15 9 16 15 18 16 19 17 20 18 21 28 22 29 23
REMARK SMILES IDX 30 24 31 26 32 27 35 28 33 29 34 30 36 31 5 32 6 33 7 34
REMARK SMILES IDX 8 35 3 38 4 39 2 40 1 41
REMARK H PARENT 19 10 28 25 6 36
REMARK Flexibility Score:   91.900
ROOT
ATOM      1  C   UNL     1      -1.585  -1.583   9.798  1.00  0.00     0.183 C 
ENDROOT
BRANCH   1   2
ATOM      2  C   UNL     1      -1.432  -0.740   8.564  1.00  0.00     0.113 A 
ATOM      3  C   UNL     1      -1.545   1.040   7.228  1.00  0.00     0.139 A 
ATOM      4  N   UNL     1      -1.661   0.560   8.535  1.00  0.00    -0.234 NA
ATOM      5  C   UNL     1      -1.170   0.089   6.300  1.00  0.00     0.101 A 
ATOM      6  S   UNL     1      -0.981  -1.438   7.062  1.00  0.00    -0.125 S 
BRANCH   3   7
ATOM      7  C   UNL     1      -1.854   2.441   6.933  1.00  0.00     0.271 C 
ATOM      8  N   UNL     1      -1.661   3.244   8.030  1.00  0.00    -0.341 N 
ATOM      9  O   UNL     1      -2.265   2.833   5.848  1.00  0.00    -0.267 OA
ATOM     10  H   UNL     1      -1.292   2.778   8.858  1.00  0.00     0.164 HD
BRANCH   8  11
ATOM     11  C   UNL     1      -2.059   4.641   8.100  1.00  0.00     0.140 C 
BRANCH  11  12
ATOM     12  C   UNL     1      -2.744   4.867   9.451  1.00  0.00     0.091 C 
ATOM     13  S   UNL     1      -1.925   4.458  10.940  1.00  0.00    -0.106 SA
ATOM     14  C   UNL     1      -3.187   5.334  11.889  1.00  0.00     0.113 C 
ATOM     15  N   UNL     1      -3.964   5.293   9.539  1.00  0.00    -0.267 NA
ATOM     16  C   UNL     1      -4.399   5.314  10.971  1.00  0.00     0.205 CG0
ATOM     17  G   UNL     1      -5.301   4.111  11.288  1.00  0.00     0.000 G0
ENDBRANCH  11  12
BRANCH  11  18
ATOM     18  C   UNL     1      -0.932   5.636   7.724  1.00  0.00     0.015 C 
ATOM     19  C   UNL     1       0.445   4.994   7.942  1.00  0.00     0.010 C 
BRANCH  18  20
ATOM     20  C   UNL     1      -1.053   6.243   6.311  1.00  0.00     0.002 C 
ATOM     21  C   UNL     1      -2.497   6.497   5.894  1.00  0.00     0.004 C 
ENDBRANCH  18  20
ENDBRANCH  11  18
ENDBRANCH   8  11
ENDBRANCH   3   7
ENDBRANCH   1   2
BRANCH   1  22
ATOM     22  N   UNL     1      -2.370  -0.825  10.746  1.00  0.00    -0.348 N 
ATOM     23  C   UNL     1      -2.991  -1.355  11.844  1.00  0.00     0.249 C 
ATOM     24  O   UNL     1      -2.872  -2.527  12.183  1.00  0.00    -0.272 OA
ATOM     25  H   UNL     1      -2.552   0.158  10.548  1.00  0.00     0.163 HD
BRANCH  23  26
ATOM     26  C   UNL     1      -3.798  -0.313  12.632  1.00  0.00     0.238 C 
ATOM     27  N   UNL     1      -4.000   0.896  11.785  1.00  0.00    -0.236 NA
ATOM     28  C   UNL     1      -5.194  -0.810  12.969  1.00  0.00     0.206 C 
ATOM     29  C   UNL     1      -5.274   0.872  11.531  1.00  0.00     0.208 C 
ATOM     30  O   UNL     1      -6.039  -0.119  12.051  1.00  0.00    -0.474 OA
ATOM     31  C   UNL     1      -5.616  -0.448  14.387  1.00  0.00     0.056 C 
BRANCH  29  32
ATOM     32  C   UNL     1      -6.036   1.844  10.634  1.00  0.00     0.171 C 
BRANCH  32  33
ATOM     33  N   UNL     1      -5.281   3.072  10.440  1.00  0.00    -0.342 N 
ATOM     34  C   UNL     1      -5.331   4.121  11.327  1.00  0.00     0.246 CG0
ATOM     35  O   UNL     1      -6.034   4.114  12.334  1.00  0.00    -0.273 OA
ATOM     36  H   UNL     1      -4.712   3.212   9.612  1.00  0.00     0.164 HD
ATOM     37  G   UNL     1      -4.414   5.302  10.969  1.00  0.00     0.000 G0
ENDBRANCH  32  33
BRANCH  32  38
ATOM     38  C   UNL     1      -6.416   1.161   9.294  1.00  0.00     0.017 C 
ATOM     39  C   UNL     1      -7.041   2.186   8.339  1.00  0.00     0.010 C 
BRANCH  38  40
ATOM     40  C   UNL     1      -5.228   0.422   8.636  1.00  0.00     0.002 C 
ATOM     41  C   UNL     1      -5.342   0.313   7.121  1.00  0.00     0.004 C 
ENDBRANCH  38  40
ENDBRANCH  32  38
ENDBRANCH  29  32
ENDBRANCH  23  26
ENDBRANCH   1  22
TORSDOF 4
ENDMDL
MODEL 7
REMARK VINA RESULT:    -5.492      2.499      6.898
REMARK INTER + INTRA:         -11.046
REMARK INTER:                 -10.057
REMARK INTRA:                  -0.989
REMARK UNBOUND:                -1.700
REMARK SMILES CC[C@H](C)[C@@H]1NC(=O)[C@H]2CSC(=N2)[C@@H]([C@@H](C)CC)NC(=O)c2csc(n2)CNC(=O)[C@H]2N=C1O[C@@H]2C
REMARK SMILES IDX 27 1 25 2 22 3 26 4 23 5 24 6 20 7 19 8 21 9 14 11 12 12
REMARK SMILES IDX 11 13 10 14 13 15 9 16 15 18 16 19 17 20 18 21 28 22 29 23
REMARK SMILES IDX 30 24 31 26 32 27 35 28 33 29 34 30 36 31 5 32 6 33 7 34
REMARK SMILES IDX 8 35 3 38 4 39 2 40 1 41
REMARK H PARENT 19 10 28 25 6 36
REMARK Flexibility Score:   91.900
ROOT
ATOM      1  C   UNL     1      -6.341   1.425  13.089  1.00  0.00     0.183 C 
ENDROOT
BRANCH   1   2
ATOM      2  C   UNL     1      -5.815   2.696  12.487  1.00  0.00     0.113 A 
ATOM      3  C   UNL     1      -4.578   4.046  11.216  1.00  0.00     0.139 A 
ATOM      4  N   UNL     1      -4.969   2.730  11.474  1.00  0.00    -0.234 NA
ATOM      5  C   UNL     1      -5.192   4.992  12.014  1.00  0.00     0.101 A 
ATOM      6  S   UNL     1      -6.257   4.228  13.123  1.00  0.00    -0.125 S 
BRANCH   3   7
ATOM      7  C   UNL     1      -3.564   4.323  10.197  1.00  0.00     0.271 C 
ATOM      8  N   UNL     1      -2.639   3.312  10.116  1.00  0.00    -0.341 N 
ATOM      9  O   UNL     1      -3.533   5.349   9.529  1.00  0.00    -0.267 OA
ATOM     10  H   UNL     1      -2.809   2.509  10.720  1.00  0.00     0.164 HD
BRANCH   8  11
ATOM     11  C   UNL     1      -1.415   3.384   9.334  1.00  0.00     0.140 C 
BRANCH  11  12
ATOM     12  C   UNL     1      -1.633   2.585   8.045  1.00  0.00     0.091 C 
ATOM     13  S   UNL     1      -2.851   3.078   6.891  1.00  0.00    -0.106 SA
ATOM     14  C   UNL     1      -2.183   1.923   5.675  1.00  0.00     0.113 C 
ATOM     15  N   UNL     1      -0.987   1.490   7.799  1.00  0.00    -0.267 NA
ATOM     16  C   UNL     1      -1.482   0.876   6.527  1.00  0.00     0.205 CG0
ATOM     17  G   UNL     1      -2.422  -0.306   6.818  1.00  0.00     0.000 G0
ENDBRANCH  11  12
BRANCH  11  18
ATOM     18  C   UNL     1      -0.857   4.821   9.168  1.00  0.00     0.015 C 
ATOM     19  C   UNL     1      -0.174   5.282  10.462  1.00  0.00     0.010 C 
BRANCH  18  20
ATOM     20  C   UNL     1       0.060   5.019   7.945  1.00  0.00     0.002 C 
ATOM     21  C   UNL     1      -0.079   6.399   7.313  1.00  0.00     0.004 C 
ENDBRANCH  18  20
ENDBRANCH  11  18
ENDBRANCH   8  11
ENDBRANCH   3   7
ENDBRANCH   1   2
BRANCH   1  22
ATOM     22  N   UNL     1      -5.389   0.378  12.789  1.00  0.00    -0.348 N 
ATOM     23  C   UNL     1      -5.620  -0.663  11.931  1.00  0.00     0.249 C 
ATOM     24  O   UNL     1      -6.640  -0.767  11.259  1.00  0.00    -0.272 OA
ATOM     25  H   UNL     1      -4.514   0.355  13.310  1.00  0.00     0.163 HD
BRANCH  23  26
ATOM     26  C   UNL     1      -4.443  -1.647  11.859  1.00  0.00     0.238 C 
ATOM     27  N   UNL     1      -4.433  -2.304  10.523  1.00  0.00    -0.236 NA
ATOM     28  C   UNL     1      -3.103  -0.940  11.974  1.00  0.00     0.206 C 
ATOM     29  C   UNL     1      -3.373  -1.811   9.956  1.00  0.00     0.208 C 
ATOM     30  O   UNL     1      -2.600  -0.931  10.639  1.00  0.00    -0.474 OA
ATOM     31  C   UNL     1      -2.119  -1.694  12.859  1.00  0.00     0.056 C 
BRANCH  29  32
ATOM     32  C   UNL     1      -2.902  -2.079   8.529  1.00  0.00     0.171 C 
BRANCH  32  33
ATOM     33  N   UNL     1      -2.117  -0.964   8.023  1.00  0.00    -0.342 N 
ATOM     34  C   UNL     1      -2.410  -0.328   6.840  1.00  0.00     0.246 CG0
ATOM     35  O   UNL     1      -3.337  -0.666   6.109  1.00  0.00    -0.273 OA
ATOM     36  H   UNL     1      -1.292  -0.638   8.516  1.00  0.00     0.164 HD
ATOM     37  G   UNL     1      -1.494   0.863   6.515  1.00  0.00     0.000 G0
ENDBRANCH  32  33
BRANCH  32  38
ATOM     38  C   UNL     1      -2.138  -3.427   8.454  1.00  0.00     0.017 C 
ATOM     39  C   UNL     1      -1.851  -3.950   9.867  1.00  0.00     0.010 C 
BRANCH  38  40
ATOM     40  C   UNL     1      -2.866  -4.485   7.593  1.00  0.00     0.002 C 
ATOM     41  C   UNL     1      -4.115  -3.954   6.902  1.00  0.00     0.004 C 
ENDBRANCH  38  40
ENDBRANCH  32  38
ENDBRANCH  29  32
ENDBRANCH  23  26
ENDBRANCH   1  22
TORSDOF 4
ENDMDL
MODEL 8
REMARK VINA RESULT:    -5.480      2.979      6.408
REMARK INTER + INTRA:         -11.025
REMARK INTER:                  -9.282
REMARK INTRA:                  -1.743
REMARK UNBOUND:                -1.700
REMARK SMILES CC[C@H](C)[C@@H]1NC(=O)[C@H]2CSC(=N2)[C@@H]([C@@H](C)CC)NC(=O)c2csc(n2)CNC(=O)[C@H]2N=C1O[C@@H]2C
REMARK SMILES IDX 27 1 25 2 22 3 26 4 23 5 24 6 20 7 19 8 21 9 14 11 12 12
REMARK SMILES IDX 11 13 10 14 13 15 9 16 15 18 16 19 17 20 18 21 28 22 29 23
REMARK SMILES IDX 30 24 31 26 32 27 35 28 33 29 34 30 36 31 5 32 6 33 7 34
REMARK SMILES IDX 8 35 3 38 4 39 2 40 1 41
REMARK H PARENT 19 10 28 25 6 36
REMARK Flexibility Score:   91.900
ROOT
ATOM      1  C   UNL     1      -8.195  -0.286  10.628  1.00  0.00     0.183 C 
ENDROOT
BRANCH   1   2
ATOM      2  C   UNL     1      -8.171  -0.644   9.170  1.00  0.00     0.113 A 
ATOM      3  C   UNL     1      -7.351  -1.160   7.163  1.00  0.00     0.139 A 
ATOM      4  N   UNL     1      -7.077  -1.003   8.523  1.00  0.00    -0.234 NA
ATOM      5  C   UNL     1      -8.675  -0.970   6.820  1.00  0.00     0.101 A 
ATOM      6  S   UNL     1      -9.593  -0.563   8.212  1.00  0.00    -0.125 S 
BRANCH   3   7
ATOM      7  C   UNL     1      -6.266  -1.461   6.226  1.00  0.00     0.271 C 
ATOM      8  N   UNL     1      -5.545  -2.560   6.623  1.00  0.00    -0.341 N 
ATOM      9  O   UNL     1      -6.018  -0.788   5.233  1.00  0.00    -0.267 OA
ATOM     10  H   UNL     1      -5.886  -3.032   7.460  1.00  0.00     0.164 HD
BRANCH   8  11
ATOM     11  C   UNL     1      -4.302  -2.989   6.004  1.00  0.00     0.140 C 
BRANCH  11  12
ATOM     12  C   UNL     1      -3.199  -2.915   7.063  1.00  0.00     0.091 C 
ATOM     13  S   UNL     1      -3.457  -3.577   8.661  1.00  0.00    -0.106 SA
ATOM     14  C   UNL     1      -1.698  -3.406   9.030  1.00  0.00     0.113 C 
ATOM     15  N   UNL     1      -2.077  -2.304   6.846  1.00  0.00    -0.267 NA
ATOM     16  C   UNL     1      -1.244  -2.301   8.089  1.00  0.00     0.205 CG0
ATOM     17  G   UNL     1      -1.305  -0.933   8.788  1.00  0.00     0.000 G0
ENDBRANCH  11  12
BRANCH  11  18
ATOM     18  C   UNL     1      -4.416  -4.322   5.219  1.00  0.00     0.015 C 
ATOM     19  C   UNL     1      -5.323  -4.146   3.995  1.00  0.00     0.010 C 
BRANCH  18  20
ATOM     20  C   UNL     1      -3.066  -4.960   4.834  1.00  0.00     0.002 C 
ATOM     21  C   UNL     1      -3.222  -6.198   3.957  1.00  0.00     0.004 C 
ENDBRANCH  18  20
ENDBRANCH  11  18
ENDBRANCH   8  11
ENDBRANCH   3   7
ENDBRANCH   1   2
BRANCH   1  22
ATOM     22  N   UNL     1      -6.916   0.306  10.949  1.00  0.00    -0.348 N 
ATOM     23  C   UNL     1      -5.905  -0.334  11.614  1.00  0.00     0.249 C 
ATOM     24  O   UNL     1      -5.953  -1.517  11.933  1.00  0.00    -0.272 OA
ATOM     25  H   UNL     1      -6.776   1.296  10.748  1.00  0.00     0.163 HD
BRANCH  23  26
ATOM     26  C   UNL     1      -4.688   0.571  11.859  1.00  0.00     0.238 C 
ATOM     27  N   UNL     1      -3.575   0.150  10.963  1.00  0.00    -0.236 NA
ATOM     28  C   UNL     1      -4.974   2.019  11.501  1.00  0.00     0.206 C 
ATOM     29  C   UNL     1      -3.479   1.138  10.124  1.00  0.00     0.208 C 
ATOM     30  O   UNL     1      -4.304   2.206  10.255  1.00  0.00    -0.474 OA
ATOM     31  C   UNL     1      -4.396   2.997  12.515  1.00  0.00     0.056 C 
BRANCH  29  32
ATOM     32  C   UNL     1      -2.540   1.217   8.924  1.00  0.00     0.171 C 
BRANCH  32  33
ATOM     33  N   UNL     1      -2.310  -0.102   8.356  1.00  0.00    -0.342 N 
ATOM     34  C   UNL     1      -1.275  -0.912   8.758  1.00  0.00     0.246 CG0
ATOM     35  O   UNL     1      -0.452  -0.576   9.606  1.00  0.00    -0.273 OA
ATOM     36  H   UNL     1      -2.893  -0.459   7.607  1.00  0.00     0.164 HD
ATOM     37  G   UNL     1      -1.243  -2.290   8.076  1.00  0.00     0.000 G0
ENDBRANCH  32  33
BRANCH  32  38
ATOM     38  C   UNL     1      -3.078   2.229   7.879  1.00  0.00     0.017 C 
ATOM     39  C   UNL     1      -2.005   3.277   7.558  1.00  0.00     0.010 C 
BRANCH  38  40
ATOM     40  C   UNL     1      -3.609   1.547   6.597  1.00  0.00     0.002 C 
ATOM     41  C   UNL     1      -4.893   2.168   6.063  1.00  0.00     0.004 C 
ENDBRANCH  38  40
ENDBRANCH  32  38
ENDBRANCH  29  32
ENDBRANCH  23  26
ENDBRANCH   1  22
TORSDOF 4
ENDMDL
MODEL 9
REMARK VINA RESULT:    -5.368      2.974      6.101
REMARK INTER + INTRA:         -10.833
REMARK INTER:                  -9.914
REMARK INTRA:                  -0.919
REMARK UNBOUND:                -1.700
REMARK SMILES CC[C@H](C)[C@@H]1NC(=O)[C@H]2CSC(=N2)[C@@H]([C@@H](C)CC)NC(=O)c2csc(n2)CNC(=O)[C@H]2N=C1O[C@@H]2C
REMARK SMILES IDX 27 1 25 2 22 3 26 4 23 5 24 6 20 7 19 8 21 9 14 11 12 12
REMARK SMILES IDX 11 13 10 14 13 15 9 16 15 18 16 19 17 20 18 21 28 22 29 23
REMARK SMILES IDX 30 24 31 26 32 27 35 28 33 29 34 30 36 31 5 32 6 33 7 34
REMARK SMILES IDX 8 35 3 38 4 39 2 40 1 41
REMARK H PARENT 19 10 28 25 6 36
REMARK Flexibility Score:   91.900
ROOT
ATOM      1  C   UNL     1      -4.780  -2.062  11.258  1.00  0.00     0.183 C 
ENDROOT
BRANCH   1   2
ATOM      2  C   UNL     1      -3.562  -2.210  10.392  1.00  0.00     0.113 A 
ATOM      3  C   UNL     1      -2.133  -1.839   8.723  1.00  0.00     0.139 A 
ATOM      4  N   UNL     1      -3.253  -1.376   9.417  1.00  0.00    -0.234 NA
ATOM      5  C   UNL     1      -1.582  -2.997   9.236  1.00  0.00     0.101 A 
ATOM      6  S   UNL     1      -2.488  -3.534  10.590  1.00  0.00    -0.125 S 
BRANCH   3   7
ATOM      7  C   UNL     1      -1.661  -1.128   7.533  1.00  0.00     0.271 C 
ATOM      8  N   UNL     1      -1.729   0.234   7.697  1.00  0.00    -0.341 N 
ATOM      9  O   UNL     1      -1.288  -1.687   6.510  1.00  0.00    -0.267 OA
ATOM     10  H   UNL     1      -2.039   0.552   8.615  1.00  0.00     0.164 HD
BRANCH   8  11
ATOM     11  C   UNL     1      -1.508   1.197   6.632  1.00  0.00     0.140 C 
BRANCH  11  12
ATOM     12  C   UNL     1      -2.764   2.065   6.515  1.00  0.00     0.091 C 
ATOM     13  S   UNL     1      -3.341   2.981   7.887  1.00  0.00    -0.106 SA
ATOM     14  C   UNL     1      -4.484   3.884   6.820  1.00  0.00     0.113 C 
ATOM     15  N   UNL     1      -3.480   2.095   5.435  1.00  0.00    -0.267 NA
ATOM     16  C   UNL     1      -4.698   2.939   5.648  1.00  0.00     0.205 CG0
ATOM     17  G   UNL     1      -5.940   2.062   5.876  1.00  0.00     0.000 G0
ENDBRANCH  11  12
BRANCH  11  18
ATOM     18  C   UNL     1      -0.157   1.951   6.734  1.00  0.00     0.015 C 
ATOM     19  C   UNL     1       0.906   1.266   5.865  1.00  0.00     0.010 C 
BRANCH  18  20
ATOM     20  C   UNL     1      -0.238   3.463   6.437  1.00  0.00     0.002 C 
ATOM     21  C   UNL     1       0.128   4.326   7.639  1.00  0.00     0.004 C 
ENDBRANCH  18  20
ENDBRANCH  11  18
ENDBRANCH   8  11
ENDBRANCH   3   7
ENDBRANCH   1   2
BRANCH   1  22
ATOM     22  N   UNL     1      -5.737  -1.261  10.526  1.00  0.00    -0.348 N 
ATOM     23  C   UNL     1      -6.541  -0.304  11.083  1.00  0.00     0.249 C 
ATOM     24  O   UNL     1      -6.469   0.032  12.260  1.00  0.00    -0.272 OA
ATOM     25  H   UNL     1      -5.893  -1.473   9.541  1.00  0.00     0.163 HD
BRANCH  23  26
ATOM     26  C   UNL     1      -7.493   0.339  10.064  1.00  0.00     0.238 C 
ATOM     27  N   UNL     1      -6.728   0.708   8.841  1.00  0.00    -0.236 NA
ATOM     28  C   UNL     1      -8.565  -0.630   9.596  1.00  0.00     0.206 C 
ATOM     29  C   UNL     1      -7.176  -0.121   7.947  1.00  0.00     0.208 C 
ATOM     30  O   UNL     1      -8.139  -1.013   8.289  1.00  0.00    -0.474 OA
ATOM     31  C   UNL     1      -9.937   0.023   9.488  1.00  0.00     0.056 C 
BRANCH  29  32
ATOM     32  C   UNL     1      -6.689  -0.250   6.507  1.00  0.00     0.171 C 
BRANCH  32  33
ATOM     33  N   UNL     1      -5.660   0.736   6.217  1.00  0.00    -0.342 N 
ATOM     34  C   UNL     1      -5.953   2.033   5.869  1.00  0.00     0.246 CG0
ATOM     35  O   UNL     1      -7.102   2.452   5.752  1.00  0.00    -0.273 OA
ATOM     36  H   UNL     1      -4.677   0.486   6.225  1.00  0.00     0.164 HD
ATOM     37  G   UNL     1      -4.723   2.931   5.662  1.00  0.00     0.000 G0
ENDBRANCH  32  33
BRANCH  32  38
ATOM     38  C   UNL     1      -6.220  -1.701   6.220  1.00  0.00     0.017 C 
ATOM     39  C   UNL     1      -5.048  -1.690   5.230  1.00  0.00     0.010 C 
BRANCH  38  40
ATOM     40  C   UNL     1      -5.873  -2.487   7.505  1.00  0.00     0.002 C 
ATOM     41  C   UNL     1      -4.904  -3.639   7.271  1.00  0.00     0.004 C 
ENDBRANCH  38  40
ENDBRANCH  32  38
ENDBRANCH  29  32
ENDBRANCH  23  26
ENDBRANCH   1  22
TORSDOF 4
ENDMDL
MODEL 10
REMARK VINA RESULT:    -5.339      3.318      6.819
REMARK INTER + INTRA:         -10.784
REMARK INTER:                  -8.967
REMARK INTRA:                  -1.817
REMARK UNBOUND:                -1.700
REMARK SMILES CC[C@H](C)[C@@H]1NC(=O)[C@H]2CSC(=N2)[C@@H]([C@@H](C)CC)NC(=O)c2csc(n2)CNC(=O)[C@H]2N=C1O[C@@H]2C
REMARK SMILES IDX 27 1 25 2 22 3 26 4 23 5 24 6 20 7 19 8 21 9 14 11 12 12
REMARK SMILES IDX 11 13 10 14 13 15 9 16 15 18 16 19 17 20 18 21 28 22 29 23
REMARK SMILES IDX 30 24 31 26 32 27 35 28 33 29 34 30 36 31 5 32 6 33 7 34
REMARK SMILES IDX 8 35 3 38 4 39 2 40 1 41
REMARK H PARENT 19 10 28 25 6 36
REMARK Flexibility Score:   91.900
ROOT
ATOM      1  C   UNL     1      -3.930  -2.693   9.844  1.00  0.00     0.183 C 
ENDROOT
BRANCH   1   2
ATOM      2  C   UNL     1      -3.219  -1.968   8.738  1.00  0.00     0.113 A 
ATOM      3  C   UNL     1      -2.684  -0.329   7.326  1.00  0.00     0.139 A 
ATOM      4  N   UNL     1      -3.390  -0.685   8.477  1.00  0.00    -0.234 NA
ATOM      5  C   UNL     1      -1.941  -1.352   6.771  1.00  0.00     0.101 A 
ATOM      6  S   UNL     1      -2.143  -2.791   7.685  1.00  0.00    -0.125 S 
BRANCH   3   7
ATOM      7  C   UNL     1      -2.803   1.026   6.783  1.00  0.00     0.271 C 
ATOM      8  N   UNL     1      -3.027   1.950   7.773  1.00  0.00    -0.341 N 
ATOM      9  O   UNL     1      -2.744   1.288   5.588  1.00  0.00    -0.267 OA
ATOM     10  H   UNL     1      -3.027   1.585   8.725  1.00  0.00     0.164 HD
BRANCH   8  11
ATOM     11  C   UNL     1      -3.371   3.342   7.530  1.00  0.00     0.140 C 
BRANCH  11  12
ATOM     12  C   UNL     1      -4.599   3.678   8.381  1.00  0.00     0.091 C 
ATOM     13  S   UNL     1      -4.465   4.764   9.744  1.00  0.00    -0.106 SA
ATOM     14  C   UNL     1      -6.264   4.854   9.866  1.00  0.00     0.113 C 
ATOM     15  N   UNL     1      -5.751   3.121   8.174  1.00  0.00    -0.267 NA
ATOM     16  C   UNL     1      -6.729   3.558   9.220  1.00  0.00     0.205 CG0
ATOM     17  G   UNL     1      -6.924   2.461  10.280  1.00  0.00     0.000 G0
ENDBRANCH  11  12
BRANCH  11  18
ATOM     18  C   UNL     1      -2.170   4.316   7.639  1.00  0.00     0.015 C 
ATOM     19  C   UNL     1      -1.034   3.677   8.449  1.00  0.00     0.010 C 
BRANCH  18  20
ATOM     20  C   UNL     1      -1.661   4.866   6.291  1.00  0.00     0.002 C 
ATOM     21  C   UNL     1      -2.426   6.100   5.825  1.00  0.00     0.004 C 
ENDBRANCH  18  20
ENDBRANCH  11  18
ENDBRANCH   8  11
ENDBRANCH   3   7
ENDBRANCH   1   2
BRANCH   1  22
ATOM     22  N   UNL     1      -5.345  -2.437   9.691  1.00  0.00    -0.348 N 
ATOM     23  C   UNL     1      -6.331  -3.364   9.889  1.00  0.00     0.249 C 
ATOM     24  O   UNL     1      -6.115  -4.497  10.305  1.00  0.00    -0.272 OA
ATOM     25  H   UNL     1      -5.636  -1.530   9.327  1.00  0.00     0.163 HD
BRANCH  23  26
ATOM     26  C   UNL     1      -7.734  -2.813   9.595  1.00  0.00     0.238 C 
ATOM     27  N   UNL     1      -8.162  -1.932  10.718  1.00  0.00    -0.236 NA
ATOM     28  C   UNL     1      -7.751  -1.931   8.358  1.00  0.00     0.206 C 
ATOM     29  C   UNL     1      -8.157  -0.747  10.185  1.00  0.00     0.208 C 
ATOM     30  O   UNL     1      -7.823  -0.605   8.879  1.00  0.00    -0.474 OA
ATOM     31  C   UNL     1      -8.973  -2.177   7.482  1.00  0.00     0.056 C 
BRANCH  29  32
ATOM     32  C   UNL     1      -8.447   0.568  10.902  1.00  0.00     0.171 C 
BRANCH  32  33
ATOM     33  N   UNL     1      -8.084   1.705  10.071  1.00  0.00    -0.342 N 
ATOM     34  C   UNL     1      -6.946   2.446  10.285  1.00  0.00     0.246 CG0
ATOM     35  O   UNL     1      -6.165   2.224  11.206  1.00  0.00    -0.273 OA
ATOM     36  H   UNL     1      -8.686   2.015   9.316  1.00  0.00     0.164 HD
ATOM     37  G   UNL     1      -6.715   3.567   9.258  1.00  0.00     0.000 G0
ENDBRANCH  32  33
BRANCH  32  38
ATOM     38  C   UNL     1      -9.927   0.619  11.366  1.00  0.00     0.017 C 
ATOM     39  C   UNL     1     -10.118   1.739  12.396  1.00  0.00     0.010 C 
BRANCH  38  40
ATOM     40  C   UNL     1     -10.922   0.752  10.190  1.00  0.00     0.002 C 
ATOM     41  C   UNL     1     -11.662  -0.540   9.869  1.00  0.00     0.004 C 
ENDBRANCH  38  40
ENDBRANCH  32  38
ENDBRANCH  29  32
ENDBRANCH  23  26
ENDBRANCH   1  22
TORSDOF 4
ENDMDL
