MODEL 1
REMARK VINA RESULT:    -7.261      0.000      0.000
REMARK INTER + INTRA:         -29.258
REMARK INTER:                 -21.692
REMARK INTRA:                  -7.566
REMARK UNBOUND:                -7.566
REMARK SMILES C=C1C(=O)N[C@H](C)C(=O)N[C@@H](CC(C)C)C(=O)N[C@@H](C(=O)O)[C@H](C)C(=O)N[C@@H](CCCN=C(N)N)C(=O)N[C@@H](/C=C/C(C)=C/[C@H](C)[C@H](Cc2ccccc2)OC)[C@H](C)C(=O)N[C@@H](C(=O)O)CCC(=O)N1C
REMARK SMILES IDX 39 1 38 2 37 3 36 4 28 6 27 7 25 8 26 9 23 11 24 12 19 13
REMARK SMILES IDX 18 14 16 15 17 16 11 18 10 19 8 20 9 21 12 24 13 25 14 26
REMARK SMILES IDX 15 27 20 28 21 29 22 30 29 32 30 33 31 34 32 35 33 36 34 37
REMARK SMILES IDX 35 38 57 43 58 44 59 45 60 46 61 47 62 49 66 50 67 51 68 52
REMARK SMILES IDX 69 53 70 54 71 55 2 56 1 57 3 58 4 59 5 60 6 62 7 63 63 65
REMARK SMILES IDX 64 66 65 67 40 69 41 70 42 71 44 72 43 73 45 74 46 75 47 76
REMARK SMILES IDX 55 77 56 78 48 79 49 80 50 81 54 82 51 83 53 84 52 85
REMARK H PARENT 38 5 27 10 18 17 10 22 22 31 34 39 34 40 35 41 35 42 61 48
REMARK H PARENT 5 61 65 68
REMARK Flexibility Score:  369.900
ROOT
ATOM      1  C   UNL     1      -0.375  -6.402  -0.061  1.00  0.00     0.117 C 
ENDROOT
BRANCH   1   2
ATOM      2  N   UNL     1      -1.799  -6.738  -0.056  1.00  0.00    -0.347 N 
ATOM      3  O   UNL     1      -2.360  -5.752  -2.052  1.00  0.00    -0.273 OA
ATOM      4  C   UNL     1      -2.662  -6.464  -1.099  1.00  0.00     0.243 C 
ATOM      5  H   UNL     1      -2.184  -7.244   0.727  1.00  0.00     0.164 HD
BRANCH   4   6
ATOM      6  C   UNL     1      -4.098  -7.002  -0.878  1.00  0.00     0.171 C 
BRANCH   6   7
ATOM      7  N   UNL     1      -4.425  -7.019   0.557  1.00  0.00    -0.344 N 
ATOM      8  C   UNL     1      -5.167  -8.048   1.097  1.00  0.00     0.226 C 
ATOM      9  O   UNL     1      -5.603  -8.972   0.421  1.00  0.00    -0.275 OA
ATOM     10  H   UNL     1      -4.140  -6.238   1.135  1.00  0.00     0.164 HD
BRANCH   8  11
ATOM     11  C   UNL     1      -5.373  -7.949   2.598  1.00  0.00     0.109 C 
ATOM     12  C   UNL     1      -5.547  -9.345   3.198  1.00  0.00     0.021 C 
BRANCH  11  13
ATOM     13  C   UNL     1      -4.242  -7.111   3.226  1.00  0.00     0.204 C 
BRANCH  13  14
ATOM     14  N   UNL     1      -4.675  -6.428   4.449  1.00  0.00    -0.340 N 
ATOM     15  C   UNL     1      -4.797  -5.059   4.539  1.00  0.00     0.243 C 
ATOM     16  O   UNL     1      -4.609  -4.315   3.578  1.00  0.00    -0.273 OA
ATOM     17  H   UNL     1      -4.699  -6.969   5.318  1.00  0.00     0.164 HD
BRANCH  15  18
ATOM     18  C   UNL     1      -5.064  -4.554   5.979  1.00  0.00     0.171 C 
BRANCH  18  19
ATOM     19  N   UNL     1      -5.560  -5.700   6.738  1.00  0.00    -0.343 N 
ATOM     20  C   UNL     1      -6.811  -5.700   7.325  1.00  0.00     0.242 CG0
ATOM     21  O   UNL     1      -7.510  -4.689   7.348  1.00  0.00    -0.273 OA
ATOM     22  H   UNL     1      -4.971  -6.518   6.846  1.00  0.00     0.164 HD
ATOM     23  G   UNL     1      -7.191  -7.025   8.016  1.00  0.00     0.000 G0
ENDBRANCH  18  19
BRANCH  18  24
ATOM     24  C   UNL     1      -3.784  -3.981   6.598  1.00  0.00     0.038 C 
BRANCH  24  25
ATOM     25  C   UNL     1      -4.016  -2.892   7.666  1.00  0.00    -0.015 C 
ATOM     26  C   UNL     1      -4.137  -3.471   9.076  1.00  0.00     0.007 C 
ATOM     27  C   UNL     1      -5.280  -2.098   7.325  1.00  0.00     0.007 C 
ENDBRANCH  24  25
ENDBRANCH  18  24
ENDBRANCH  15  18
ENDBRANCH  13  14
BRANCH  13  28
ATOM     28  C   UNL     1      -3.003  -7.938   3.582  1.00  0.00     0.327 C 
ATOM     29  O   UNL     1      -2.583  -8.163   4.707  1.00  0.00    -0.250 OA
BRANCH  28  30
ATOM     30  O   UNL     1      -2.301  -8.332   2.500  1.00  0.00    -0.480 OA
ATOM     31  H   UNL     1      -1.395  -8.000   2.666  1.00  0.00     0.296 HD
ENDBRANCH  28  30
ENDBRANCH  13  28
ENDBRANCH  11  13
ENDBRANCH   8  11
ENDBRANCH   6   7
BRANCH   6  32
ATOM     32  C   UNL     1      -5.089  -6.128  -1.654  1.00  0.00     0.037 C 
BRANCH  32  33
ATOM     33  C   UNL     1      -5.703  -5.028  -0.777  1.00  0.00     0.026 C 
BRANCH  33  34
ATOM     34  C   UNL     1      -5.807  -3.688  -1.505  1.00  0.00     0.146 C 
BRANCH  34  35
ATOM     35  N   UNL     1      -4.473  -3.269  -1.913  1.00  0.00    -0.254 NA
ATOM     36  C   UNL     1      -4.208  -3.191  -3.164  1.00  0.00     0.185 C 
ATOM     37  N   UNL     1      -2.984  -2.802  -3.550  1.00  0.00    -0.370 N 
ATOM     38  N   UNL     1      -5.008  -3.450  -4.214  1.00  0.00    -0.370 N 
ATOM     39  H   UNL     1      -2.325  -2.577  -2.815  1.00  0.00     0.159 HD
ATOM     40  H   UNL     1      -2.753  -2.549  -4.496  1.00  0.00     0.159 HD
ATOM     41  H   UNL     1      -4.641  -3.486  -5.151  1.00  0.00     0.159 HD
ATOM     42  H   UNL     1      -5.954  -3.768  -4.072  1.00  0.00     0.159 HD
ENDBRANCH  34  35
ENDBRANCH  33  34
ENDBRANCH  32  33
ENDBRANCH   6  32
ENDBRANCH   4   6
ENDBRANCH   1   2
BRANCH   1  43
ATOM     43  C   UNL     1       0.408  -7.573  -0.721  1.00  0.00     0.102 C 
ATOM     44  C   UNL     1       1.321  -8.329   0.259  1.00  0.00     0.020 C 
BRANCH  43  45
ATOM     45  C   UNL     1       1.116  -7.111  -1.999  1.00  0.00     0.225 C 
ATOM     46  O   UNL     1       2.304  -7.326  -2.222  1.00  0.00    -0.275 OA
ATOM     47  N   UNL     1       0.355  -6.348  -2.855  1.00  0.00    -0.342 N 
ATOM     48  H   UNL     1      -0.647  -6.310  -2.734  1.00  0.00     0.164 HD
BRANCH  47  49
ATOM     49  C   UNL     1       0.890  -5.867  -4.132  1.00  0.00     0.192 C 
BRANCH  49  50
ATOM     50  C   UNL     1       1.418  -4.440  -3.963  1.00  0.00     0.047 C 
BRANCH  50  51
ATOM     51  C   UNL     1       2.925  -4.341  -4.236  1.00  0.00     0.103 C 
BRANCH  51  52
ATOM     52  C   UNL     1       3.235  -4.280  -5.730  1.00  0.00     0.226 C 
ATOM     53  O   UNL     1       3.406  -5.325  -6.361  1.00  0.00    -0.275 OA
BRANCH  52  54
ATOM     54  N   UNL     1       3.230  -3.002  -6.320  1.00  0.00    -0.311 N 
ATOM     55  C   UNL     1       3.499  -1.800  -5.520  1.00  0.00     0.153 C 
BRANCH  54  56
ATOM     56  C   UNL     1       2.976  -2.829  -7.690  1.00  0.00     0.102 C 
ATOM     57  C   UNL     1       3.902  -2.509  -8.609  1.00  0.00     0.043 C 
BRANCH  56  58
ATOM     58  C   UNL     1       1.592  -3.044  -8.255  1.00  0.00     0.268 C 
ATOM     59  O   UNL     1       0.571  -2.700  -7.675  1.00  0.00    -0.268 OA
ATOM     60  N   UNL     1       1.602  -3.603  -9.511  1.00  0.00    -0.339 N 
ATOM     61  H   UNL     1       2.490  -3.869  -9.919  1.00  0.00     0.164 HD
BRANCH  60  62
ATOM     62  C   UNL     1       0.373  -3.840 -10.268  1.00  0.00     0.168 CG0
ATOM     63  C   UNL     1       0.028  -5.324 -10.300  1.00  0.00     0.041 C 
ATOM     64  G   UNL     1       0.533  -3.285 -11.698  1.00  0.00     0.000 G0
ENDBRANCH  60  62
ENDBRANCH  56  58
ENDBRANCH  54  56
ENDBRANCH  52  54
ENDBRANCH  51  52
ENDBRANCH  50  51
ENDBRANCH  49  50
BRANCH  49  65
ATOM     65  C   UNL     1      -0.178  -5.886  -5.237  1.00  0.00     0.326 C 
ATOM     66  O   UNL     1       0.027  -5.700  -6.427  1.00  0.00    -0.250 OA
BRANCH  65  67
ATOM     67  O   UNL     1      -1.442  -6.075  -4.796  1.00  0.00    -0.480 OA
ATOM     68  H   UNL     1      -1.321  -6.515  -3.927  1.00  0.00     0.296 HD
ENDBRANCH  65  67
ENDBRANCH  49  65
ENDBRANCH  47  49
ENDBRANCH  43  45
ENDBRANCH   1  43
BRANCH   1  69
ATOM     69  C   UNL     1      -0.029  -5.998   1.360  1.00  0.00    -0.001 C 
ATOM     70  C   UNL     1      -0.745  -5.211   2.183  1.00  0.00     0.001 C 
BRANCH  70  71
ATOM     71  C   UNL     1      -0.412  -4.846   3.561  1.00  0.00    -0.055 C 
ATOM     72  C   UNL     1       0.186  -5.780   4.331  1.00  0.00    -0.018 C 
ATOM     73  C   UNL     1      -0.751  -3.452   4.020  1.00  0.00     0.044 C 
BRANCH  72  74
ATOM     74  C   UNL     1       0.644  -5.684   5.780  1.00  0.00     0.038 C 
ATOM     75  C   UNL     1       1.966  -4.908   5.786  1.00  0.00     0.015 C 
BRANCH  74  76
ATOM     76  C   UNL     1       0.727  -7.121   6.374  1.00  0.00     0.128 C 
BRANCH  76  77
ATOM     77  O   UNL     1      -0.554  -7.510   6.898  1.00  0.00    -0.381 OA
ATOM     78  C   UNL     1      -1.260  -6.449   7.527  1.00  0.00     0.195 C 
ENDBRANCH  76  77
BRANCH  76  79
ATOM     79  C   UNL     1       1.321  -8.171   5.402  1.00  0.00     0.068 C 
BRANCH  79  80
ATOM     80  C   UNL     1       2.783  -8.520   5.546  1.00  0.00    -0.045 A 
ATOM     81  C   UNL     1       3.748  -7.950   4.705  1.00  0.00     0.004 A 
ATOM     82  C   UNL     1       3.196  -9.450   6.513  1.00  0.00     0.004 A 
ATOM     83  C   UNL     1       5.096  -8.289   4.836  1.00  0.00     0.000 A 
ATOM     84  C   UNL     1       4.545  -9.789   6.641  1.00  0.00     0.000 A 
ATOM     85  C   UNL     1       5.494  -9.208   5.804  1.00  0.00     0.000 A 
ENDBRANCH  79  80
ENDBRANCH  76  79
ENDBRANCH  74  76
ENDBRANCH  72  74
ENDBRANCH  70  71
ENDBRANCH   1  69
TORSDOF 17
ENDMDL
MODEL 2
REMARK VINA RESULT:    -7.101      3.166      7.565
REMARK INTER + INTRA:         -28.781
REMARK INTER:                 -22.167
REMARK INTRA:                  -6.614
REMARK UNBOUND:                -7.566
REMARK SMILES C=C1C(=O)N[C@H](C)C(=O)N[C@@H](CC(C)C)C(=O)N[C@@H](C(=O)O)[C@H](C)C(=O)N[C@@H](CCCN=C(N)N)C(=O)N[C@@H](/C=C/C(C)=C/[C@H](C)[C@H](Cc2ccccc2)OC)[C@H](C)C(=O)N[C@@H](C(=O)O)CCC(=O)N1C
REMARK SMILES IDX 39 1 38 2 37 3 36 4 28 6 27 7 25 8 26 9 23 11 24 12 19 13
REMARK SMILES IDX 18 14 16 15 17 16 11 18 10 19 8 20 9 21 12 24 13 25 14 26
REMARK SMILES IDX 15 27 20 28 21 29 22 30 29 32 30 33 31 34 32 35 33 36 34 37
REMARK SMILES IDX 35 38 57 43 58 44 59 45 60 46 61 47 62 49 66 50 67 51 68 52
REMARK SMILES IDX 69 53 70 54 71 55 2 56 1 57 3 58 4 59 5 60 6 62 7 63 63 65
REMARK SMILES IDX 64 66 65 67 40 69 41 70 42 71 44 72 43 73 45 74 46 75 47 76
REMARK SMILES IDX 55 77 56 78 48 79 49 80 50 81 54 82 51 83 53 84 52 85
REMARK H PARENT 38 5 27 10 18 17 10 22 22 31 34 39 34 40 35 41 35 42 61 48
REMARK H PARENT 5 61 65 68
REMARK Flexibility Score:  369.900
ROOT
ATOM      1  C   UNL     1      -0.853  -5.884  -0.921  1.00  0.00     0.117 C 
ENDROOT
BRANCH   1   2
ATOM      2  N   UNL     1      -0.601  -6.059   0.510  1.00  0.00    -0.347 N 
ATOM      3  O   UNL     1       0.615  -8.002   0.378  1.00  0.00    -0.273 OA
ATOM      4  C   UNL     1       0.194  -7.058   1.038  1.00  0.00     0.243 C 
ATOM      5  H   UNL     1      -0.980  -5.391   1.164  1.00  0.00     0.164 HD
BRANCH   4   6
ATOM      6  C   UNL     1       0.369  -6.968   2.575  1.00  0.00     0.171 C 
BRANCH   6   7
ATOM      7  N   UNL     1      -0.899  -7.275   3.256  1.00  0.00    -0.344 N 
ATOM      8  C   UNL     1      -1.454  -6.381   4.146  1.00  0.00     0.226 C 
ATOM      9  O   UNL     1      -0.921  -5.315   4.429  1.00  0.00    -0.275 OA
ATOM     10  H   UNL     1      -1.335  -8.175   3.099  1.00  0.00     0.164 HD
BRANCH   8  11
ATOM     11  C   UNL     1      -2.789  -6.818   4.722  1.00  0.00     0.109 C 
ATOM     12  C   UNL     1      -3.132  -5.978   5.952  1.00  0.00     0.021 C 
BRANCH  11  13
ATOM     13  C   UNL     1      -3.862  -6.815   3.615  1.00  0.00     0.204 C 
BRANCH  13  14
ATOM     14  N   UNL     1      -4.885  -7.841   3.835  1.00  0.00    -0.340 N 
ATOM     15  C   UNL     1      -4.990  -8.972   3.054  1.00  0.00     0.243 C 
ATOM     16  O   UNL     1      -4.192  -9.230   2.155  1.00  0.00    -0.273 OA
ATOM     17  H   UNL     1      -5.664  -7.618   4.460  1.00  0.00     0.164 HD
BRANCH  15  18
ATOM     18  C   UNL     1      -6.265  -9.804   3.338  1.00  0.00     0.171 C 
BRANCH  18  19
ATOM     19  N   UNL     1      -7.214  -8.905   3.993  1.00  0.00    -0.343 N 
ATOM     20  C   UNL     1      -8.300  -9.382   4.700  1.00  0.00     0.242 CG0
ATOM     21  O   UNL     1      -8.595 -10.575   4.700  1.00  0.00    -0.273 OA
ATOM     22  H   UNL     1      -7.078  -7.903   3.924  1.00  0.00     0.164 HD
ATOM     23  G   UNL     1      -9.143  -8.288   5.387  1.00  0.00     0.000 G0
ENDBRANCH  18  19
BRANCH  18  24
ATOM     24  C   UNL     1      -6.840 -10.375   2.036  1.00  0.00     0.038 C 
BRANCH  24  25
ATOM     25  C   UNL     1      -6.745 -11.910   1.908  1.00  0.00    -0.015 C 
ATOM     26  C   UNL     1      -5.398 -12.369   1.349  1.00  0.00     0.007 C 
ATOM     27  C   UNL     1      -7.877 -12.423   1.014  1.00  0.00     0.007 C 
ENDBRANCH  24  25
ENDBRANCH  18  24
ENDBRANCH  15  18
ENDBRANCH  13  14
BRANCH  13  28
ATOM     28  C   UNL     1      -4.587  -5.472   3.482  1.00  0.00     0.327 C 
ATOM     29  O   UNL     1      -4.127  -4.446   3.006  1.00  0.00    -0.250 OA
BRANCH  28  30
ATOM     30  O   UNL     1      -5.804  -5.469   4.063  1.00  0.00    -0.480 OA
ATOM     31  H   UNL     1      -5.780  -6.231   4.678  1.00  0.00     0.296 HD
ENDBRANCH  28  30
ENDBRANCH  13  28
ENDBRANCH  11  13
ENDBRANCH   8  11
ENDBRANCH   6   7
BRANCH   6  32
ATOM     32  C   UNL     1       1.474  -7.935   3.014  1.00  0.00     0.037 C 
BRANCH  32  33
ATOM     33  C   UNL     1       2.004  -7.610   4.418  1.00  0.00     0.026 C 
BRANCH  33  34
ATOM     34  C   UNL     1       1.537  -8.619   5.468  1.00  0.00     0.146 C 
BRANCH  34  35
ATOM     35  N   UNL     1       2.167  -8.298   6.741  1.00  0.00    -0.254 NA
ATOM     36  C   UNL     1       3.083  -9.075   7.186  1.00  0.00     0.185 C 
ATOM     37  N   UNL     1       3.674  -8.787   8.356  1.00  0.00    -0.370 N 
ATOM     38  N   UNL     1       3.576 -10.200   6.638  1.00  0.00    -0.370 N 
ATOM     39  H   UNL     1       3.363  -7.946   8.827  1.00  0.00     0.159 HD
ATOM     40  H   UNL     1       4.509  -9.241   8.684  1.00  0.00     0.159 HD
ATOM     41  H   UNL     1       4.199 -10.801   7.154  1.00  0.00     0.159 HD
ATOM     42  H   UNL     1       3.213 -10.547   5.764  1.00  0.00     0.159 HD
ENDBRANCH  34  35
ENDBRANCH  33  34
ENDBRANCH  32  33
ENDBRANCH   6  32
ENDBRANCH   4   6
ENDBRANCH   1   2
BRANCH   1  43
ATOM     43  C   UNL     1      -0.122  -4.597  -1.399  1.00  0.00     0.102 C 
ATOM     44  C   UNL     1      -1.055  -3.581  -2.080  1.00  0.00     0.020 C 
BRANCH  43  45
ATOM     45  C   UNL     1       1.123  -4.944  -2.220  1.00  0.00     0.225 C 
ATOM     46  O   UNL     1       2.035  -4.148  -2.425  1.00  0.00    -0.275 OA
ATOM     47  N   UNL     1       1.119  -6.191  -2.803  1.00  0.00    -0.342 N 
ATOM     48  H   UNL     1       0.444  -6.881  -2.505  1.00  0.00     0.164 HD
BRANCH  47  49
ATOM     49  C   UNL     1       2.260  -6.673  -3.588  1.00  0.00     0.192 C 
BRANCH  49  50
ATOM     50  C   UNL     1       1.843  -6.847  -5.050  1.00  0.00     0.047 C 
BRANCH  50  51
ATOM     51  C   UNL     1       1.360  -5.533  -5.678  1.00  0.00     0.103 C 
BRANCH  51  52
ATOM     52  C   UNL     1       2.406  -4.924  -6.609  1.00  0.00     0.226 C 
ATOM     53  O   UNL     1       3.127  -5.662  -7.283  1.00  0.00    -0.275 OA
BRANCH  52  54
ATOM     54  N   UNL     1       2.426  -3.519  -6.696  1.00  0.00    -0.311 N 
ATOM     55  C   UNL     1       2.831  -2.697  -5.548  1.00  0.00     0.153 C 
BRANCH  54  56
ATOM     56  C   UNL     1       2.069  -2.853  -7.880  1.00  0.00     0.102 C 
ATOM     57  C   UNL     1       0.825  -2.452  -8.190  1.00  0.00     0.043 C 
BRANCH  56  58
ATOM     58  C   UNL     1       3.112  -2.487  -8.908  1.00  0.00     0.268 C 
ATOM     59  O   UNL     1       3.571  -1.358  -9.024  1.00  0.00    -0.268 OA
ATOM     60  N   UNL     1       3.538  -3.561  -9.652  1.00  0.00    -0.339 N 
ATOM     61  H   UNL     1       3.100  -4.462  -9.502  1.00  0.00     0.164 HD
BRANCH  60  62
ATOM     62  C   UNL     1       4.589  -3.442 -10.662  1.00  0.00     0.168 CG0
ATOM     63  C   UNL     1       5.835  -4.215 -10.248  1.00  0.00     0.041 C 
ATOM     64  G   UNL     1       4.921  -1.953 -10.890  1.00  0.00     0.000 G0
ENDBRANCH  60  62
ENDBRANCH  56  58
ENDBRANCH  54  56
ENDBRANCH  52  54
ENDBRANCH  51  52
ENDBRANCH  50  51
ENDBRANCH  49  50
BRANCH  49  65
ATOM     65  C   UNL     1       2.794  -8.009  -3.048  1.00  0.00     0.326 C 
ATOM     66  O   UNL     1       2.209  -9.081  -3.100  1.00  0.00    -0.250 OA
BRANCH  65  67
ATOM     67  O   UNL     1       3.991  -7.928  -2.426  1.00  0.00    -0.480 OA
ATOM     68  H   UNL     1       4.579  -7.533  -3.105  1.00  0.00     0.296 HD
ENDBRANCH  65  67
ENDBRANCH  49  65
ENDBRANCH  47  49
ENDBRANCH  43  45
ENDBRANCH   1  43
BRANCH   1  69
ATOM     69  C   UNL     1      -2.357  -5.984  -1.101  1.00  0.00    -0.001 C 
ATOM     70  C   UNL     1      -3.311  -5.425  -0.335  1.00  0.00     0.001 C 
BRANCH  70  71
ATOM     71  C   UNL     1      -4.759  -5.510  -0.531  1.00  0.00    -0.055 C 
ATOM     72  C   UNL     1      -5.381  -6.639  -0.130  1.00  0.00    -0.018 C 
ATOM     73  C   UNL     1      -5.454  -4.329  -1.158  1.00  0.00     0.044 C 
BRANCH  72  74
ATOM     74  C   UNL     1      -6.857  -7.003  -0.204  1.00  0.00     0.038 C 
ATOM     75  C   UNL     1      -7.432  -6.850   1.209  1.00  0.00     0.015 C 
BRANCH  74  76
ATOM     76  C   UNL     1      -6.991  -8.430  -0.813  1.00  0.00     0.128 C 
BRANCH  76  77
ATOM     77  O   UNL     1      -7.721  -8.369  -2.050  1.00  0.00    -0.381 OA
ATOM     78  C   UNL     1      -8.429  -7.151  -2.236  1.00  0.00     0.195 C 
ENDBRANCH  76  77
BRANCH  76  79
ATOM     79  C   UNL     1      -5.646  -9.187  -0.946  1.00  0.00     0.068 C 
BRANCH  79  80
ATOM     80  C   UNL     1      -5.518 -10.213  -2.046  1.00  0.00    -0.045 A 
ATOM     81  C   UNL     1      -4.661 -10.002  -3.134  1.00  0.00     0.004 A 
ATOM     82  C   UNL     1      -6.282 -11.389  -2.007  1.00  0.00     0.004 A 
ATOM     83  C   UNL     1      -4.559 -10.950  -4.154  1.00  0.00     0.000 A 
ATOM     84  C   UNL     1      -6.179 -12.337  -3.028  1.00  0.00     0.000 A 
ATOM     85  C   UNL     1      -5.317 -12.118  -4.100  1.00  0.00     0.000 A 
ENDBRANCH  79  80
ENDBRANCH  76  79
ENDBRANCH  74  76
ENDBRANCH  72  74
ENDBRANCH  70  71
ENDBRANCH   1  69
TORSDOF 17
ENDMDL
MODEL 3
REMARK VINA RESULT:    -7.088      2.897     13.032
REMARK INTER + INTRA:         -28.743
REMARK INTER:                 -22.256
REMARK INTRA:                  -6.487
REMARK UNBOUND:                -7.566
REMARK SMILES C=C1C(=O)N[C@H](C)C(=O)N[C@@H](CC(C)C)C(=O)N[C@@H](C(=O)O)[C@H](C)C(=O)N[C@@H](CCCN=C(N)N)C(=O)N[C@@H](/C=C/C(C)=C/[C@H](C)[C@H](Cc2ccccc2)OC)[C@H](C)C(=O)N[C@@H](C(=O)O)CCC(=O)N1C
REMARK SMILES IDX 39 1 38 2 37 3 36 4 28 6 27 7 25 8 26 9 23 11 24 12 19 13
REMARK SMILES IDX 18 14 16 15 17 16 11 18 10 19 8 20 9 21 12 24 13 25 14 26
REMARK SMILES IDX 15 27 20 28 21 29 22 30 29 32 30 33 31 34 32 35 33 36 34 37
REMARK SMILES IDX 35 38 57 43 58 44 59 45 60 46 61 47 62 49 66 50 67 51 68 52
REMARK SMILES IDX 69 53 70 54 71 55 2 56 1 57 3 58 4 59 5 60 6 62 7 63 63 65
REMARK SMILES IDX 64 66 65 67 40 69 41 70 42 71 44 72 43 73 45 74 46 75 47 76
REMARK SMILES IDX 55 77 56 78 48 79 49 80 50 81 54 82 51 83 53 84 52 85
REMARK H PARENT 38 5 27 10 18 17 10 22 22 31 34 39 34 40 35 41 35 42 61 48
REMARK H PARENT 5 61 65 68
REMARK Flexibility Score:  369.900
ROOT
ATOM      1  C   UNL     1      -3.293  -4.959  -0.935  1.00  0.00     0.117 C 
ENDROOT
BRANCH   1   2
ATOM      2  N   UNL     1      -2.262  -5.608  -1.745  1.00  0.00    -0.347 N 
ATOM      3  O   UNL     1      -2.464  -4.295  -3.618  1.00  0.00    -0.273 OA
ATOM      4  C   UNL     1      -1.866  -5.164  -2.992  1.00  0.00     0.243 C 
ATOM      5  H   UNL     1      -1.762  -6.400  -1.369  1.00  0.00     0.164 HD
BRANCH   4   6
ATOM      6  C   UNL     1      -0.695  -5.978  -3.600  1.00  0.00     0.171 C 
BRANCH   6   7
ATOM      7  N   UNL     1       0.421  -5.086  -3.954  1.00  0.00    -0.344 N 
ATOM      8  C   UNL     1       0.808  -4.931  -5.268  1.00  0.00     0.226 C 
ATOM      9  O   UNL     1       0.269  -5.532  -6.190  1.00  0.00    -0.275 OA
ATOM     10  H   UNL     1       0.935  -4.625  -3.214  1.00  0.00     0.164 HD
BRANCH   8  11
ATOM     11  C   UNL     1       1.937  -3.937  -5.475  1.00  0.00     0.109 C 
ATOM     12  C   UNL     1       2.528  -3.525  -4.127  1.00  0.00     0.021 C 
BRANCH  11  13
ATOM     13  C   UNL     1       2.956  -4.508  -6.482  1.00  0.00     0.204 C 
BRANCH  13  14
ATOM     14  N   UNL     1       2.580  -4.220  -7.870  1.00  0.00    -0.340 N 
ATOM     15  C   UNL     1       2.946  -5.025  -8.926  1.00  0.00     0.243 C 
ATOM     16  O   UNL     1       3.563  -6.077  -8.772  1.00  0.00    -0.273 OA
ATOM     17  H   UNL     1       2.203  -3.292  -8.082  1.00  0.00     0.164 HD
BRANCH  15  18
ATOM     18  C   UNL     1       2.619  -4.414 -10.311  1.00  0.00     0.171 C 
BRANCH  18  19
ATOM     19  N   UNL     1       3.872  -3.879 -10.840  1.00  0.00    -0.343 N 
ATOM     20  C   UNL     1       4.390  -2.674 -10.407  1.00  0.00     0.242 CG0
ATOM     21  O   UNL     1       3.757  -1.934  -9.657  1.00  0.00    -0.273 OA
ATOM     22  H   UNL     1       4.375  -4.401 -11.549  1.00  0.00     0.164 HD
ATOM     23  G   UNL     1       5.759  -2.312 -11.020  1.00  0.00     0.000 G0
ENDBRANCH  18  19
BRANCH  18  24
ATOM     24  C   UNL     1       2.023  -5.476 -11.244  1.00  0.00     0.038 C 
BRANCH  24  25
ATOM     25  C   UNL     1       0.492  -5.391 -11.423  1.00  0.00    -0.015 C 
ATOM     26  C   UNL     1      -0.176  -4.534 -10.348  1.00  0.00     0.007 C 
ATOM     27  C   UNL     1      -0.107  -6.800 -11.405  1.00  0.00     0.007 C 
ENDBRANCH  24  25
ENDBRANCH  18  24
ENDBRANCH  15  18
ENDBRANCH  13  14
BRANCH  13  28
ATOM     28  C   UNL     1       4.375  -3.971  -6.274  1.00  0.00     0.327 C 
ATOM     29  O   UNL     1       5.269  -4.514  -5.644  1.00  0.00    -0.250 OA
BRANCH  28  30
ATOM     30  O   UNL     1       4.548  -2.729  -6.771  1.00  0.00    -0.480 OA
ATOM     31  H   UNL     1       4.987  -2.874  -7.636  1.00  0.00     0.296 HD
ENDBRANCH  28  30
ENDBRANCH  13  28
ENDBRANCH  11  13
ENDBRANCH   8  11
ENDBRANCH   6   7
BRANCH   6  32
ATOM     32  C   UNL     1      -0.247  -7.044  -2.594  1.00  0.00     0.037 C 
BRANCH  32  33
ATOM     33  C   UNL     1       1.241  -6.916  -2.240  1.00  0.00     0.026 C 
BRANCH  33  34
ATOM     34  C   UNL     1       1.503  -7.090  -0.743  1.00  0.00     0.146 C 
BRANCH  34  35
ATOM     35  N   UNL     1       0.608  -8.115  -0.226  1.00  0.00    -0.254 NA
ATOM     36  C   UNL     1       0.510  -8.262   1.043  1.00  0.00     0.185 C 
ATOM     37  N   UNL     1      -0.316  -9.201   1.531  1.00  0.00    -0.370 N 
ATOM     38  N   UNL     1       1.136  -7.586   2.023  1.00  0.00    -0.370 N 
ATOM     39  H   UNL     1      -0.834  -9.747   0.854  1.00  0.00     0.159 HD
ATOM     40  H   UNL     1      -0.579  -9.261   2.499  1.00  0.00     0.159 HD
ATOM     41  H   UNL     1       1.080  -7.888   2.982  1.00  0.00     0.159 HD
ATOM     42  H   UNL     1       1.800  -6.860   1.801  1.00  0.00     0.159 HD
ENDBRANCH  34  35
ENDBRANCH  33  34
ENDBRANCH  32  33
ENDBRANCH   6  32
ENDBRANCH   4   6
ENDBRANCH   1   2
BRANCH   1  43
ATOM     43  C   UNL     1      -2.739  -4.764   0.507  1.00  0.00     0.102 C 
ATOM     44  C   UNL     1      -1.269  -5.188   0.660  1.00  0.00     0.020 C 
BRANCH  43  45
ATOM     45  C   UNL     1      -3.677  -5.387   1.545  1.00  0.00     0.225 C 
ATOM     46  O   UNL     1      -4.672  -4.813   1.980  1.00  0.00    -0.275 OA
ATOM     47  N   UNL     1      -3.285  -6.609   2.040  1.00  0.00    -0.342 N 
ATOM     48  H   UNL     1      -2.559  -7.130   1.569  1.00  0.00     0.164 HD
BRANCH  47  49
ATOM     49  C   UNL     1      -4.103  -7.340   3.013  1.00  0.00     0.192 C 
BRANCH  49  50
ATOM     50  C   UNL     1      -3.194  -8.122   3.965  1.00  0.00     0.047 C 
BRANCH  50  51
ATOM     51  C   UNL     1      -1.890  -7.373   4.271  1.00  0.00     0.103 C 
BRANCH  51  52
ATOM     52  C   UNL     1      -1.790  -6.972   5.741  1.00  0.00     0.226 C 
ATOM     53  O   UNL     1      -1.322  -7.765   6.560  1.00  0.00    -0.275 OA
BRANCH  52  54
ATOM     54  N   UNL     1      -2.181  -5.658   6.061  1.00  0.00    -0.311 N 
ATOM     55  C   UNL     1      -1.228  -4.544   5.977  1.00  0.00     0.153 C 
BRANCH  54  56
ATOM     56  C   UNL     1      -3.494  -5.363   6.464  1.00  0.00     0.102 C 
ATOM     57  C   UNL     1      -4.437  -4.821   5.676  1.00  0.00     0.043 C 
BRANCH  56  58
ATOM     58  C   UNL     1      -3.968  -5.691   7.861  1.00  0.00     0.268 C 
ATOM     59  O   UNL     1      -3.224  -5.713   8.832  1.00  0.00    -0.268 OA
ATOM     60  N   UNL     1      -5.325  -5.895   7.937  1.00  0.00    -0.339 N 
ATOM     61  H   UNL     1      -5.870  -5.870   7.083  1.00  0.00     0.164 HD
BRANCH  60  62
ATOM     62  C   UNL     1      -6.002  -6.164   9.205  1.00  0.00     0.168 CG0
ATOM     63  C   UNL     1      -7.478  -6.469   8.982  1.00  0.00     0.041 C 
ATOM     64  G   UNL     1      -5.831  -4.956  10.148  1.00  0.00     0.000 G0
ENDBRANCH  60  62
ENDBRANCH  56  58
ENDBRANCH  54  56
ENDBRANCH  52  54
ENDBRANCH  51  52
ENDBRANCH  50  51
ENDBRANCH  49  50
BRANCH  49  65
ATOM     65  C   UNL     1      -5.073  -8.311   2.323  1.00  0.00     0.326 C 
ATOM     66  O   UNL     1      -6.146  -8.008   1.821  1.00  0.00    -0.250 OA
BRANCH  65  67
ATOM     67  O   UNL     1      -4.686  -9.606   2.347  1.00  0.00    -0.480 OA
ATOM     68  H   UNL     1      -5.203 -10.015   1.619  1.00  0.00     0.296 HD
ENDBRANCH  65  67
ENDBRANCH  49  65
ENDBRANCH  47  49
ENDBRANCH  43  45
ENDBRANCH   1  43
BRANCH   1  69
ATOM     69  C   UNL     1      -4.559  -5.772  -1.130  1.00  0.00    -0.001 C 
ATOM     70  C   UNL     1      -4.655  -7.094  -1.355  1.00  0.00     0.001 C 
BRANCH  70  71
ATOM     71  C   UNL     1      -5.885  -7.871  -1.521  1.00  0.00    -0.055 C 
ATOM     72  C   UNL     1      -5.782  -9.217  -1.517  1.00  0.00    -0.018 C 
ATOM     73  C   UNL     1      -7.179  -7.115  -1.676  1.00  0.00     0.044 C 
BRANCH  72  74
ATOM     74  C   UNL     1      -6.875 -10.267  -1.664  1.00  0.00     0.038 C 
ATOM     75  C   UNL     1      -7.583 -10.375  -0.308  1.00  0.00     0.015 C 
BRANCH  74  76
ATOM     76  C   UNL     1      -6.232 -11.591  -2.173  1.00  0.00     0.128 C 
BRANCH  76  77
ATOM     77  O   UNL     1      -5.882 -11.465  -3.561  1.00  0.00    -0.381 OA
ATOM     78  C   UNL     1      -4.774 -12.267  -3.946  1.00  0.00     0.195 C 
ENDBRANCH  76  77
BRANCH  76  79
ATOM     79  C   UNL     1      -5.054 -12.094  -1.301  1.00  0.00     0.068 C 
BRANCH  79  80
ATOM     80  C   UNL     1      -5.315 -13.238  -0.352  1.00  0.00    -0.045 A 
ATOM     81  C   UNL     1      -6.192 -14.276  -0.695  1.00  0.00     0.004 A 
ATOM     82  C   UNL     1      -4.700 -13.266   0.909  1.00  0.00     0.004 A 
ATOM     83  C   UNL     1      -6.439 -15.323   0.194  1.00  0.00     0.000 A 
ATOM     84  C   UNL     1      -4.948 -14.314   1.798  1.00  0.00     0.000 A 
ATOM     85  C   UNL     1      -5.816 -15.343   1.440  1.00  0.00     0.000 A 
ENDBRANCH  79  80
ENDBRANCH  76  79
ENDBRANCH  74  76
ENDBRANCH  72  74
ENDBRANCH  70  71
ENDBRANCH   1  69
TORSDOF 17
ENDMDL
MODEL 4
REMARK VINA RESULT:    -7.080      2.912      5.152
REMARK INTER + INTRA:         -28.720
REMARK INTER:                 -22.416
REMARK INTRA:                  -6.304
REMARK UNBOUND:                -7.566
REMARK SMILES C=C1C(=O)N[C@H](C)C(=O)N[C@@H](CC(C)C)C(=O)N[C@@H](C(=O)O)[C@H](C)C(=O)N[C@@H](CCCN=C(N)N)C(=O)N[C@@H](/C=C/C(C)=C/[C@H](C)[C@H](Cc2ccccc2)OC)[C@H](C)C(=O)N[C@@H](C(=O)O)CCC(=O)N1C
REMARK SMILES IDX 39 1 38 2 37 3 36 4 28 6 27 7 25 8 26 9 23 11 24 12 19 13
REMARK SMILES IDX 18 14 16 15 17 16 11 18 10 19 8 20 9 21 12 24 13 25 14 26
REMARK SMILES IDX 15 27 20 28 21 29 22 30 29 32 30 33 31 34 32 35 33 36 34 37
REMARK SMILES IDX 35 38 57 43 58 44 59 45 60 46 61 47 62 49 66 50 67 51 68 52
REMARK SMILES IDX 69 53 70 54 71 55 2 56 1 57 3 58 4 59 5 60 6 62 7 63 63 65
REMARK SMILES IDX 64 66 65 67 40 69 41 70 42 71 44 72 43 73 45 74 46 75 47 76
REMARK SMILES IDX 55 77 56 78 48 79 49 80 50 81 54 82 51 83 53 84 52 85
REMARK H PARENT 38 5 27 10 18 17 10 22 22 31 34 39 34 40 35 41 35 42 61 48
REMARK H PARENT 5 61 65 68
REMARK Flexibility Score:  369.900
ROOT
ATOM      1  C   UNL     1       0.358  -6.594   0.283  1.00  0.00     0.117 C 
ENDROOT
BRANCH   1   2
ATOM      2  N   UNL     1      -0.998  -7.037  -0.044  1.00  0.00    -0.347 N 
ATOM      3  O   UNL     1      -2.071  -5.035   0.291  1.00  0.00    -0.273 OA
ATOM      4  C   UNL     1      -2.093  -6.197  -0.102  1.00  0.00     0.243 C 
ATOM      5  H   UNL     1      -1.156  -8.001  -0.293  1.00  0.00     0.164 HD
BRANCH   4   6
ATOM      6  C   UNL     1      -3.396  -6.902  -0.556  1.00  0.00     0.171 C 
BRANCH   6   7
ATOM      7  N   UNL     1      -4.285  -7.132   0.594  1.00  0.00    -0.344 N 
ATOM      8  C   UNL     1      -4.048  -8.170   1.469  1.00  0.00     0.226 C 
ATOM      9  O   UNL     1      -3.118  -8.955   1.325  1.00  0.00    -0.275 OA
ATOM     10  H   UNL     1      -5.102  -6.545   0.708  1.00  0.00     0.164 HD
BRANCH   8  11
ATOM     11  C   UNL     1      -5.020  -8.241   2.633  1.00  0.00     0.109 C 
ATOM     12  C   UNL     1      -5.618  -6.860   2.904  1.00  0.00     0.021 C 
BRANCH  11  13
ATOM     13  C   UNL     1      -6.053  -9.358   2.383  1.00  0.00     0.204 C 
BRANCH  13  14
ATOM     14  N   UNL     1      -5.659 -10.235   1.276  1.00  0.00    -0.340 N 
ATOM     15  C   UNL     1      -6.567 -10.777   0.392  1.00  0.00     0.243 C 
ATOM     16  O   UNL     1      -7.767 -10.513   0.433  1.00  0.00    -0.273 OA
ATOM     17  H   UNL     1      -4.708 -10.613   1.278  1.00  0.00     0.164 HD
BRANCH  15  18
ATOM     18  C   UNL     1      -5.950 -11.833  -0.558  1.00  0.00     0.171 C 
BRANCH  18  19
ATOM     19  N   UNL     1      -6.194 -13.138   0.051  1.00  0.00    -0.343 N 
ATOM     20  C   UNL     1      -5.359 -13.657   1.022  1.00  0.00     0.242 CG0
ATOM     21  O   UNL     1      -4.302 -13.108   1.322  1.00  0.00    -0.273 OA
ATOM     22  H   UNL     1      -6.994 -13.685  -0.248  1.00  0.00     0.164 HD
ATOM     23  G   UNL     1      -5.822 -15.010   1.602  1.00  0.00     0.000 G0
ENDBRANCH  18  19
BRANCH  18  24
ATOM     24  C   UNL     1      -6.578 -11.737  -1.954  1.00  0.00     0.038 C 
BRANCH  24  25
ATOM     25  C   UNL     1      -5.603 -11.308  -3.072  1.00  0.00    -0.015 C 
ATOM     26  C   UNL     1      -4.678 -12.444  -3.509  1.00  0.00     0.007 C 
ATOM     27  C   UNL     1      -4.767 -10.117  -2.596  1.00  0.00     0.007 C 
ENDBRANCH  24  25
ENDBRANCH  18  24
ENDBRANCH  15  18
ENDBRANCH  13  14
BRANCH  13  28
ATOM     28  C   UNL     1      -6.288 -10.248   3.607  1.00  0.00     0.327 C 
ATOM     29  O   UNL     1      -7.372 -10.574   4.066  1.00  0.00    -0.250 OA
BRANCH  28  30
ATOM     30  O   UNL     1      -5.148 -10.577   4.248  1.00  0.00    -0.480 OA
ATOM     31  H   UNL     1      -4.452 -10.489   3.564  1.00  0.00     0.296 HD
ENDBRANCH  28  30
ENDBRANCH  13  28
ENDBRANCH  11  13
ENDBRANCH   8  11
ENDBRANCH   6   7
BRANCH   6  32
ATOM     32  C   UNL     1      -4.089  -6.043  -1.620  1.00  0.00     0.037 C 
BRANCH  32  33
ATOM     33  C   UNL     1      -5.287  -5.270  -1.051  1.00  0.00     0.026 C 
BRANCH  33  34
ATOM     34  C   UNL     1      -5.294  -3.802  -1.479  1.00  0.00     0.146 C 
BRANCH  34  35
ATOM     35  N   UNL     1      -5.761  -3.717  -2.856  1.00  0.00    -0.254 NA
ATOM     36  C   UNL     1      -5.010  -3.152  -3.726  1.00  0.00     0.185 C 
ATOM     37  N   UNL     1      -5.428  -3.073  -4.999  1.00  0.00    -0.370 N 
ATOM     38  N   UNL     1      -3.798  -2.593  -3.560  1.00  0.00    -0.370 N 
ATOM     39  H   UNL     1      -6.330  -3.482  -5.207  1.00  0.00     0.159 HD
ATOM     40  H   UNL     1      -4.833  -2.806  -5.764  1.00  0.00     0.159 HD
ATOM     41  H   UNL     1      -3.368  -2.055  -4.295  1.00  0.00     0.159 HD
ATOM     42  H   UNL     1      -3.366  -2.566  -2.650  1.00  0.00     0.159 HD
ENDBRANCH  34  35
ENDBRANCH  33  34
ENDBRANCH  32  33
ENDBRANCH   6  32
ENDBRANCH   4   6
ENDBRANCH   1   2
BRANCH   1  43
ATOM     43  C   UNL     1       1.313  -7.034  -0.864  1.00  0.00     0.102 C 
ATOM     44  C   UNL     1       2.801  -6.826  -0.536  1.00  0.00     0.020 C 
BRANCH  43  45
ATOM     45  C   UNL     1       0.881  -6.426  -2.203  1.00  0.00     0.225 C 
ATOM     46  O   UNL     1       0.306  -7.069  -3.077  1.00  0.00    -0.275 OA
ATOM     47  N   UNL     1       1.264  -5.121  -2.411  1.00  0.00    -0.342 N 
ATOM     48  H   UNL     1       1.596  -4.567  -1.635  1.00  0.00     0.164 HD
BRANCH  47  49
ATOM     49  C   UNL     1       0.890  -4.399  -3.631  1.00  0.00     0.192 C 
BRANCH  49  50
ATOM     50  C   UNL     1       1.877  -3.254  -3.874  1.00  0.00     0.047 C 
BRANCH  50  51
ATOM     51  C   UNL     1       2.972  -3.633  -4.881  1.00  0.00     0.103 C 
BRANCH  51  52
ATOM     52  C   UNL     1       3.090  -2.613  -6.011  1.00  0.00     0.226 C 
ATOM     53  O   UNL     1       3.649  -1.534  -5.804  1.00  0.00    -0.275 OA
BRANCH  52  54
ATOM     54  N   UNL     1       2.604  -3.013  -7.270  1.00  0.00    -0.311 N 
ATOM     55  C   UNL     1       1.231  -2.699  -7.686  1.00  0.00     0.153 C 
BRANCH  54  56
ATOM     56  C   UNL     1       3.413  -3.721  -8.176  1.00  0.00     0.102 C 
ATOM     57  C   UNL     1       3.160  -4.961  -8.625  1.00  0.00     0.043 C 
BRANCH  56  58
ATOM     58  C   UNL     1       4.652  -3.089  -8.765  1.00  0.00     0.268 C 
ATOM     59  O   UNL     1       4.676  -1.950  -9.211  1.00  0.00    -0.268 OA
ATOM     60  N   UNL     1       5.760  -3.900  -8.688  1.00  0.00    -0.339 N 
ATOM     61  H   UNL     1       5.654  -4.835  -8.314  1.00  0.00     0.164 HD
BRANCH  60  62
ATOM     62  C   UNL     1       7.078  -3.461  -9.143  1.00  0.00     0.168 CG0
ATOM     63  C   UNL     1       7.856  -2.802  -8.012  1.00  0.00     0.041 C 
ATOM     64  G   UNL     1       6.919  -2.493 -10.333  1.00  0.00     0.000 G0
ENDBRANCH  60  62
ENDBRANCH  56  58
ENDBRANCH  54  56
ENDBRANCH  52  54
ENDBRANCH  51  52
ENDBRANCH  50  51
ENDBRANCH  49  50
BRANCH  49  65
ATOM     65  C   UNL     1      -0.535  -3.831  -3.540  1.00  0.00     0.326 C 
ATOM     66  O   UNL     1      -0.834  -2.730  -3.102  1.00  0.00    -0.250 OA
BRANCH  65  67
ATOM     67  O   UNL     1      -1.507  -4.681  -3.938  1.00  0.00    -0.480 OA
ATOM     68  H   UNL     1      -1.152  -5.066  -4.768  1.00  0.00     0.296 HD
ENDBRANCH  65  67
ENDBRANCH  49  65
ENDBRANCH  47  49
ENDBRANCH  43  45
ENDBRANCH   1  43
BRANCH   1  69
ATOM     69  C   UNL     1       0.634  -7.080   1.694  1.00  0.00    -0.001 C 
ATOM     70  C   UNL     1      -0.135  -6.904   2.783  1.00  0.00     0.001 C 
BRANCH  70  71
ATOM     71  C   UNL     1       0.132  -7.397   4.136  1.00  0.00    -0.055 C 
ATOM     72  C   UNL     1       0.395  -6.484   5.096  1.00  0.00    -0.018 C 
ATOM     73  C   UNL     1       0.087  -8.885   4.364  1.00  0.00     0.044 C 
BRANCH  72  74
ATOM     74  C   UNL     1       0.701  -6.699   6.571  1.00  0.00     0.038 C 
ATOM     75  C   UNL     1      -0.369  -5.945   7.370  1.00  0.00     0.015 C 
BRANCH  74  76
ATOM     76  C   UNL     1       2.165  -6.247   6.850  1.00  0.00     0.128 C 
BRANCH  76  77
ATOM     77  O   UNL     1       2.183  -4.867   7.254  1.00  0.00    -0.381 OA
ATOM     78  C   UNL     1       3.236  -4.114   6.666  1.00  0.00     0.195 C 
ENDBRANCH  76  77
BRANCH  76  79
ATOM     79  C   UNL     1       2.933  -7.169   7.830  1.00  0.00     0.068 C 
BRANCH  79  80
ATOM     80  C   UNL     1       3.894  -8.176   7.246  1.00  0.00    -0.045 A 
ATOM     81  C   UNL     1       3.431  -9.262   6.491  1.00  0.00     0.004 A 
ATOM     82  C   UNL     1       5.272  -8.054   7.476  1.00  0.00     0.004 A 
ATOM     83  C   UNL     1       4.325 -10.198   5.967  1.00  0.00     0.000 A 
ATOM     84  C   UNL     1       6.166  -8.991   6.952  1.00  0.00     0.000 A 
ATOM     85  C   UNL     1       5.693 -10.061   6.196  1.00  0.00     0.000 A 
ENDBRANCH  79  80
ENDBRANCH  76  79
ENDBRANCH  74  76
ENDBRANCH  72  74
ENDBRANCH  70  71
ENDBRANCH   1  69
TORSDOF 17
ENDMDL
MODEL 5
REMARK VINA RESULT:    -6.990      2.810      6.655
REMARK INTER + INTRA:         -28.449
REMARK INTER:                 -22.992
REMARK INTRA:                  -5.456
REMARK UNBOUND:                -7.566
REMARK SMILES C=C1C(=O)N[C@H](C)C(=O)N[C@@H](CC(C)C)C(=O)N[C@@H](C(=O)O)[C@H](C)C(=O)N[C@@H](CCCN=C(N)N)C(=O)N[C@@H](/C=C/C(C)=C/[C@H](C)[C@H](Cc2ccccc2)OC)[C@H](C)C(=O)N[C@@H](C(=O)O)CCC(=O)N1C
REMARK SMILES IDX 39 1 38 2 37 3 36 4 28 6 27 7 25 8 26 9 23 11 24 12 19 13
REMARK SMILES IDX 18 14 16 15 17 16 11 18 10 19 8 20 9 21 12 24 13 25 14 26
REMARK SMILES IDX 15 27 20 28 21 29 22 30 29 32 30 33 31 34 32 35 33 36 34 37
REMARK SMILES IDX 35 38 57 43 58 44 59 45 60 46 61 47 62 49 66 50 67 51 68 52
REMARK SMILES IDX 69 53 70 54 71 55 2 56 1 57 3 58 4 59 5 60 6 62 7 63 63 65
REMARK SMILES IDX 64 66 65 67 40 69 41 70 42 71 44 72 43 73 45 74 46 75 47 76
REMARK SMILES IDX 55 77 56 78 48 79 49 80 50 81 54 82 51 83 53 84 52 85
REMARK H PARENT 38 5 27 10 18 17 10 22 22 31 34 39 34 40 35 41 35 42 61 48
REMARK H PARENT 5 61 65 68
REMARK Flexibility Score:  369.900
ROOT
ATOM      1  C   UNL     1      -0.937  -5.842  -0.912  1.00  0.00     0.117 C 
ENDROOT
BRANCH   1   2
ATOM      2  N   UNL     1      -0.780  -5.912   0.541  1.00  0.00    -0.347 N 
ATOM      3  O   UNL     1       0.243  -7.964   0.647  1.00  0.00    -0.273 OA
ATOM      4  C   UNL     1      -0.118  -6.930   1.199  1.00  0.00     0.243 C 
ATOM      5  H   UNL     1      -1.126  -5.156   1.113  1.00  0.00     0.164 HD
BRANCH   4   6
ATOM      6  C   UNL     1      -0.018  -6.720   2.732  1.00  0.00     0.171 C 
BRANCH   6   7
ATOM      7  N   UNL     1      -1.357  -6.737   3.342  1.00  0.00    -0.344 N 
ATOM      8  C   UNL     1      -2.022  -5.560   3.609  1.00  0.00     0.226 C 
ATOM      9  O   UNL     1      -1.536  -4.460   3.378  1.00  0.00    -0.275 OA
ATOM     10  H   UNL     1      -1.763  -7.625   3.608  1.00  0.00     0.164 HD
BRANCH   8  11
ATOM     11  C   UNL     1      -3.414  -5.746   4.187  1.00  0.00     0.109 C 
ATOM     12  C   UNL     1      -3.904  -7.171   3.930  1.00  0.00     0.021 C 
BRANCH  11  13
ATOM     13  C   UNL     1      -3.427  -5.314   5.667  1.00  0.00     0.204 C 
BRANCH  13  14
ATOM     14  N   UNL     1      -4.647  -5.742   6.356  1.00  0.00    -0.340 N 
ATOM     15  C   UNL     1      -5.667  -4.874   6.680  1.00  0.00     0.243 C 
ATOM     16  O   UNL     1      -5.652  -3.687   6.359  1.00  0.00    -0.273 OA
ATOM     17  H   UNL     1      -4.657  -6.672   6.783  1.00  0.00     0.164 HD
BRANCH  15  18
ATOM     18  C   UNL     1      -6.754  -5.506   7.585  1.00  0.00     0.171 C 
BRANCH  18  19
ATOM     19  N   UNL     1      -7.408  -6.544   6.791  1.00  0.00    -0.343 N 
ATOM     20  C   UNL     1      -8.774  -6.745   6.838  1.00  0.00     0.242 CG0
ATOM     21  O   UNL     1      -9.484  -6.151   7.645  1.00  0.00    -0.273 OA
ATOM     22  H   UNL     1      -6.847  -7.140   6.193  1.00  0.00     0.164 HD
ATOM     23  G   UNL     1      -9.291  -7.831   5.873  1.00  0.00     0.000 G0
ENDBRANCH  18  19
BRANCH  18  24
ATOM     24  C   UNL     1      -6.127  -6.084   8.860  1.00  0.00     0.038 C 
BRANCH  24  25
ATOM     25  C   UNL     1      -6.560  -5.383  10.166  1.00  0.00    -0.015 C 
ATOM     26  C   UNL     1      -7.808  -4.521   9.981  1.00  0.00     0.007 C 
ATOM     27  C   UNL     1      -5.410  -4.519  10.691  1.00  0.00     0.007 C 
ENDBRANCH  24  25
ENDBRANCH  18  24
ENDBRANCH  15  18
ENDBRANCH  13  14
BRANCH  13  28
ATOM     28  C   UNL     1      -2.239  -5.860   6.465  1.00  0.00     0.327 C 
ATOM     29  O   UNL     1      -2.067  -7.022   6.801  1.00  0.00    -0.250 OA
BRANCH  28  30
ATOM     30  O   UNL     1      -1.401  -4.894   6.893  1.00  0.00    -0.480 OA
ATOM     31  H   UNL     1      -1.130  -5.189   7.787  1.00  0.00     0.296 HD
ENDBRANCH  28  30
ENDBRANCH  13  28
ENDBRANCH  11  13
ENDBRANCH   8  11
ENDBRANCH   6   7
BRANCH   6  32
ATOM     32  C   UNL     1       0.872  -7.814   3.333  1.00  0.00     0.037 C 
BRANCH  32  33
ATOM     33  C   UNL     1       0.572  -8.052   4.819  1.00  0.00     0.026 C 
BRANCH  33  34
ATOM     34  C   UNL     1       1.782  -7.773   5.712  1.00  0.00     0.146 C 
BRANCH  34  35
ATOM     35  N   UNL     1       2.338  -9.042   6.161  1.00  0.00    -0.254 NA
ATOM     36  C   UNL     1       3.537  -9.340   5.823  1.00  0.00     0.185 C 
ATOM     37  N   UNL     1       4.061 -10.505   6.235  1.00  0.00    -0.370 N 
ATOM     38  N   UNL     1       4.406  -8.633   5.080  1.00  0.00    -0.370 N 
ATOM     39  H   UNL     1       3.470 -11.091   6.810  1.00  0.00     0.159 HD
ATOM     40  H   UNL     1       5.038 -10.732   6.162  1.00  0.00     0.159 HD
ATOM     41  H   UNL     1       5.274  -9.038   4.767  1.00  0.00     0.159 HD
ATOM     42  H   UNL     1       4.141  -7.743   4.689  1.00  0.00     0.159 HD
ENDBRANCH  34  35
ENDBRANCH  33  34
ENDBRANCH  32  33
ENDBRANCH   6  32
ENDBRANCH   4   6
ENDBRANCH   1   2
BRANCH   1  43
ATOM     43  C   UNL     1      -0.258  -4.538  -1.422  1.00  0.00     0.102 C 
ATOM     44  C   UNL     1      -1.249  -3.523  -2.015  1.00  0.00     0.020 C 
BRANCH  43  45
ATOM     45  C   UNL     1       0.928  -4.857  -2.338  1.00  0.00     0.225 C 
ATOM     46  O   UNL     1       1.804  -5.665  -2.043  1.00  0.00    -0.275 OA
ATOM     47  N   UNL     1       1.006  -4.107  -3.488  1.00  0.00    -0.342 N 
ATOM     48  H   UNL     1       0.208  -3.564  -3.787  1.00  0.00     0.164 HD
BRANCH  47  49
ATOM     49  C   UNL     1       2.067  -4.327  -4.476  1.00  0.00     0.192 C 
BRANCH  49  50
ATOM     50  C   UNL     1       2.465  -2.992  -5.110  1.00  0.00     0.047 C 
BRANCH  50  51
ATOM     51  C   UNL     1       3.390  -3.175  -6.321  1.00  0.00     0.103 C 
BRANCH  51  52
ATOM     52  C   UNL     1       3.161  -2.104  -7.385  1.00  0.00     0.226 C 
ATOM     53  O   UNL     1       3.195  -0.913  -7.069  1.00  0.00    -0.275 OA
BRANCH  52  54
ATOM     54  N   UNL     1       2.996  -2.558  -8.706  1.00  0.00    -0.311 N 
ATOM     55  C   UNL     1       4.065  -2.394  -9.701  1.00  0.00     0.153 C 
BRANCH  54  56
ATOM     56  C   UNL     1       1.811  -3.187  -9.122  1.00  0.00     0.102 C 
ATOM     57  C   UNL     1       0.589  -2.632  -9.076  1.00  0.00     0.043 C 
BRANCH  56  58
ATOM     58  C   UNL     1       1.838  -4.576  -9.716  1.00  0.00     0.268 C 
ATOM     59  O   UNL     1       2.584  -5.460  -9.317  1.00  0.00    -0.268 OA
ATOM     60  N   UNL     1       0.898  -4.760 -10.702  1.00  0.00    -0.339 N 
ATOM     61  H   UNL     1       0.326  -3.973 -10.982  1.00  0.00     0.164 HD
BRANCH  60  62
ATOM     62  C   UNL     1       0.710  -6.048 -11.368  1.00  0.00     0.168 CG0
ATOM     63  C   UNL     1      -0.681  -6.606 -11.097  1.00  0.00     0.041 C 
ATOM     64  G   UNL     1       1.797  -7.037 -10.898  1.00  0.00     0.000 G0
ENDBRANCH  60  62
ENDBRANCH  56  58
ENDBRANCH  54  56
ENDBRANCH  52  54
ENDBRANCH  51  52
ENDBRANCH  50  51
ENDBRANCH  49  50
BRANCH  49  65
ATOM     65  C   UNL     1       1.621  -5.301  -5.578  1.00  0.00     0.326 C 
ATOM     66  O   UNL     1       0.554  -5.262  -6.172  1.00  0.00    -0.250 OA
BRANCH  65  67
ATOM     67  O   UNL     1       2.496  -6.298  -5.837  1.00  0.00    -0.480 OA
ATOM     68  H   UNL     1       2.631  -6.242  -6.807  1.00  0.00     0.296 HD
ENDBRANCH  65  67
ENDBRANCH  49  65
ENDBRANCH  47  49
ENDBRANCH  43  45
ENDBRANCH   1  43
BRANCH   1  69
ATOM     69  C   UNL     1      -2.414  -6.056  -1.190  1.00  0.00    -0.001 C 
ATOM     70  C   UNL     1      -3.432  -5.955  -0.317  1.00  0.00     0.001 C 
BRANCH  70  71
ATOM     71  C   UNL     1      -4.856  -6.143  -0.601  1.00  0.00    -0.055 C 
ATOM     72  C   UNL     1      -5.534  -7.036   0.150  1.00  0.00    -0.018 C 
ATOM     73  C   UNL     1      -5.466  -5.321  -1.707  1.00  0.00     0.044 C 
BRANCH  72  74
ATOM     74  C   UNL     1      -7.002  -7.433   0.085  1.00  0.00     0.038 C 
ATOM     75  C   UNL     1      -7.506  -7.541   1.530  1.00  0.00     0.015 C 
BRANCH  74  76
ATOM     76  C   UNL     1      -7.131  -8.740  -0.751  1.00  0.00     0.128 C 
BRANCH  76  77
ATOM     77  O   UNL     1      -7.693  -8.445  -2.040  1.00  0.00    -0.381 OA
ATOM     78  C   UNL     1      -8.429  -7.229  -2.077  1.00  0.00     0.195 C 
ENDBRANCH  76  77
BRANCH  76  79
ATOM     79  C   UNL     1      -5.820  -9.561  -0.842  1.00  0.00     0.068 C 
BRANCH  79  80
ATOM     80  C   UNL     1      -5.741 -10.856  -0.070  1.00  0.00    -0.045 A 
ATOM     81  C   UNL     1      -5.884 -10.876   1.323  1.00  0.00     0.004 A 
ATOM     82  C   UNL     1      -5.494 -12.064  -0.740  1.00  0.00     0.004 A 
ATOM     83  C   UNL     1      -5.796 -12.076   2.031  1.00  0.00     0.000 A 
ATOM     84  C   UNL     1      -5.406 -13.264  -0.031  1.00  0.00     0.000 A 
ATOM     85  C   UNL     1      -5.558 -13.270   1.354  1.00  0.00     0.000 A 
ENDBRANCH  79  80
ENDBRANCH  76  79
ENDBRANCH  74  76
ENDBRANCH  72  74
ENDBRANCH  70  71
ENDBRANCH   1  69
TORSDOF 17
ENDMDL
MODEL 6
REMARK VINA RESULT:    -6.882      3.022      6.291
REMARK INTER + INTRA:         -28.126
REMARK INTER:                 -21.818
REMARK INTRA:                  -6.309
REMARK UNBOUND:                -7.566
REMARK SMILES C=C1C(=O)N[C@H](C)C(=O)N[C@@H](CC(C)C)C(=O)N[C@@H](C(=O)O)[C@H](C)C(=O)N[C@@H](CCCN=C(N)N)C(=O)N[C@@H](/C=C/C(C)=C/[C@H](C)[C@H](Cc2ccccc2)OC)[C@H](C)C(=O)N[C@@H](C(=O)O)CCC(=O)N1C
REMARK SMILES IDX 39 1 38 2 37 3 36 4 28 6 27 7 25 8 26 9 23 11 24 12 19 13
REMARK SMILES IDX 18 14 16 15 17 16 11 18 10 19 8 20 9 21 12 24 13 25 14 26
REMARK SMILES IDX 15 27 20 28 21 29 22 30 29 32 30 33 31 34 32 35 33 36 34 37
REMARK SMILES IDX 35 38 57 43 58 44 59 45 60 46 61 47 62 49 66 50 67 51 68 52
REMARK SMILES IDX 69 53 70 54 71 55 2 56 1 57 3 58 4 59 5 60 6 62 7 63 63 65
REMARK SMILES IDX 64 66 65 67 40 69 41 70 42 71 44 72 43 73 45 74 46 75 47 76
REMARK SMILES IDX 55 77 56 78 48 79 49 80 50 81 54 82 51 83 53 84 52 85
REMARK H PARENT 38 5 27 10 18 17 10 22 22 31 34 39 34 40 35 41 35 42 61 48
REMARK H PARENT 5 61 65 68
REMARK Flexibility Score:  369.900
ROOT
ATOM      1  C   UNL     1      -0.408  -6.378   0.912  1.00  0.00     0.117 C 
ENDROOT
BRANCH   1   2
ATOM      2  N   UNL     1      -1.724  -6.936   0.599  1.00  0.00    -0.347 N 
ATOM      3  O   UNL     1      -2.427  -5.289  -0.838  1.00  0.00    -0.273 OA
ATOM      4  C   UNL     1      -2.594  -6.391  -0.326  1.00  0.00     0.243 C 
ATOM      5  H   UNL     1      -2.013  -7.797   1.036  1.00  0.00     0.164 HD
BRANCH   4   6
ATOM      6  C   UNL     1      -3.885  -7.224  -0.533  1.00  0.00     0.171 C 
BRANCH   6   7
ATOM      7  N   UNL     1      -4.673  -7.268   0.709  1.00  0.00    -0.344 N 
ATOM      8  C   UNL     1      -4.580  -8.346   1.563  1.00  0.00     0.226 C 
ATOM      9  O   UNL     1      -3.867  -9.314   1.327  1.00  0.00    -0.275 OA
ATOM     10  H   UNL     1      -5.323  -6.517   0.904  1.00  0.00     0.164 HD
BRANCH   8  11
ATOM     11  C   UNL     1      -5.413  -8.217   2.826  1.00  0.00     0.109 C 
ATOM     12  C   UNL     1      -5.429  -6.763   3.299  1.00  0.00     0.021 C 
BRANCH  11  13
ATOM     13  C   UNL     1      -6.804  -8.841   2.599  1.00  0.00     0.204 C 
BRANCH  13  14
ATOM     14  N   UNL     1      -6.721 -10.262   2.248  1.00  0.00    -0.340 N 
ATOM     15  C   UNL     1      -7.199 -10.769   1.059  1.00  0.00     0.243 C 
ATOM     16  O   UNL     1      -7.675 -10.053   0.180  1.00  0.00    -0.273 OA
ATOM     17  H   UNL     1      -6.478 -10.926   2.989  1.00  0.00     0.164 HD
BRANCH  15  18
ATOM     18  C   UNL     1      -7.192 -12.316   0.999  1.00  0.00     0.171 C 
BRANCH  18  19
ATOM     19  N   UNL     1      -8.455 -12.717   0.383  1.00  0.00    -0.343 N 
ATOM     20  C   UNL     1      -9.178 -13.801   0.841  1.00  0.00     0.242 CG0
ATOM     21  O   UNL     1      -8.730 -14.557   1.700  1.00  0.00    -0.273 OA
ATOM     22  H   UNL     1      -8.812 -12.191  -0.408  1.00  0.00     0.164 HD
ATOM     23  G   UNL     1     -10.523 -14.021   0.118  1.00  0.00     0.000 G0
ENDBRANCH  18  19
BRANCH  18  24
ATOM     24  C   UNL     1      -5.988 -12.821   0.194  1.00  0.00     0.038 C 
BRANCH  24  25
ATOM     25  C   UNL     1      -6.201 -12.847  -1.335  1.00  0.00    -0.015 C 
ATOM     26  C   UNL     1      -6.178 -14.266  -1.905  1.00  0.00     0.007 C 
ATOM     27  C   UNL     1      -5.125 -12.000  -2.019  1.00  0.00     0.007 C 
ENDBRANCH  24  25
ENDBRANCH  18  24
ENDBRANCH  15  18
ENDBRANCH  13  14
BRANCH  13  28
ATOM     28  C   UNL     1      -7.723  -8.727   3.819  1.00  0.00     0.327 C 
ATOM     29  O   UNL     1      -7.922  -9.594   4.657  1.00  0.00    -0.250 OA
BRANCH  28  30
ATOM     30  O   UNL     1      -8.426  -7.577   3.847  1.00  0.00    -0.480 OA
ATOM     31  H   UNL     1      -9.328  -7.839   3.569  1.00  0.00     0.296 HD
ENDBRANCH  28  30
ENDBRANCH  13  28
ENDBRANCH  11  13
ENDBRANCH   8  11
ENDBRANCH   6   7
BRANCH   6  32
ATOM     32  C   UNL     1      -4.700  -6.612  -1.678  1.00  0.00     0.037 C 
BRANCH  32  33
ATOM     33  C   UNL     1      -5.917  -5.828  -1.167  1.00  0.00     0.026 C 
BRANCH  33  34
ATOM     34  C   UNL     1      -6.187  -4.567  -1.989  1.00  0.00     0.146 C 
BRANCH  34  35
ATOM     35  N   UNL     1      -4.926  -3.875  -2.217  1.00  0.00    -0.254 NA
ATOM     36  C   UNL     1      -4.749  -3.270  -3.332  1.00  0.00     0.185 C 
ATOM     37  N   UNL     1      -3.593  -2.625  -3.550  1.00  0.00    -0.370 N 
ATOM     38  N   UNL     1      -5.585  -3.171  -4.381  1.00  0.00    -0.370 N 
ATOM     39  H   UNL     1      -2.914  -2.645  -2.801  1.00  0.00     0.159 HD
ATOM     40  H   UNL     1      -3.447  -1.989  -4.315  1.00  0.00     0.159 HD
ATOM     41  H   UNL     1      -5.277  -2.785  -5.258  1.00  0.00     0.159 HD
ATOM     42  H   UNL     1      -6.487  -3.622  -4.363  1.00  0.00     0.159 HD
ENDBRANCH  34  35
ENDBRANCH  33  34
ENDBRANCH  32  33
ENDBRANCH   6  32
ENDBRANCH   4   6
ENDBRANCH   1   2
BRANCH   1  43
ATOM     43  C   UNL     1       0.677  -7.238   0.202  1.00  0.00     0.102 C 
ATOM     44  C   UNL     1       2.033  -7.234   0.927  1.00  0.00     0.020 C 
BRANCH  43  45
ATOM     45  C   UNL     1       0.767  -6.890  -1.287  1.00  0.00     0.225 C 
ATOM     46  O   UNL     1       0.959  -7.729  -2.162  1.00  0.00    -0.275 OA
ATOM     47  N   UNL     1       0.713  -5.547  -1.585  1.00  0.00    -0.342 N 
ATOM     48  H   UNL     1       0.406  -4.891  -0.882  1.00  0.00     0.164 HD
BRANCH  47  49
ATOM     49  C   UNL     1       0.752  -5.068  -2.970  1.00  0.00     0.192 C 
BRANCH  49  50
ATOM     50  C   UNL     1       1.995  -4.200  -3.180  1.00  0.00     0.047 C 
BRANCH  50  51
ATOM     51  C   UNL     1       1.802  -3.168  -4.299  1.00  0.00     0.103 C 
BRANCH  51  52
ATOM     52  C   UNL     1       2.293  -3.687  -5.649  1.00  0.00     0.226 C 
ATOM     53  O   UNL     1       1.826  -4.731  -6.108  1.00  0.00    -0.275 OA
BRANCH  52  54
ATOM     54  N   UNL     1       3.219  -2.877  -6.333  1.00  0.00    -0.311 N 
ATOM     55  C   UNL     1       2.820  -1.575  -6.886  1.00  0.00     0.153 C 
BRANCH  54  56
ATOM     56  C   UNL     1       4.554  -3.277  -6.508  1.00  0.00     0.102 C 
ATOM     57  C   UNL     1       5.327  -3.814  -5.550  1.00  0.00     0.043 C 
BRANCH  56  58
ATOM     58  C   UNL     1       5.225  -3.168  -7.857  1.00  0.00     0.268 C 
ATOM     59  O   UNL     1       6.096  -2.345  -8.106  1.00  0.00    -0.268 OA
ATOM     60  N   UNL     1       4.807  -4.126  -8.748  1.00  0.00    -0.339 N 
ATOM     61  H   UNL     1       4.073  -4.766  -8.467  1.00  0.00     0.164 HD
BRANCH  60  62
ATOM     62  C   UNL     1       5.373  -4.242 -10.091  1.00  0.00     0.168 CG0
ATOM     63  C   UNL     1       4.551  -3.450 -11.101  1.00  0.00     0.041 C 
ATOM     64  G   UNL     1       5.449  -5.729 -10.495  1.00  0.00     0.000 G0
ENDBRANCH  60  62
ENDBRANCH  56  58
ENDBRANCH  54  56
ENDBRANCH  52  54
ENDBRANCH  51  52
ENDBRANCH  50  51
ENDBRANCH  49  50
BRANCH  49  65
ATOM     65  C   UNL     1      -0.503  -4.255  -3.324  1.00  0.00     0.326 C 
ATOM     66  O   UNL     1      -1.216  -4.436  -4.300  1.00  0.00    -0.250 OA
BRANCH  65  67
ATOM     67  O   UNL     1      -0.765  -3.230  -2.483  1.00  0.00    -0.480 OA
ATOM     68  H   UNL     1      -0.591  -3.608  -1.595  1.00  0.00     0.296 HD
ENDBRANCH  65  67
ENDBRANCH  49  65
ENDBRANCH  47  49
ENDBRANCH  43  45
ENDBRANCH   1  43
BRANCH   1  69
ATOM     69  C   UNL     1      -0.357  -6.235   2.422  1.00  0.00    -0.001 C 
ATOM     70  C   UNL     1      -1.068  -5.387   3.187  1.00  0.00     0.001 C 
BRANCH  70  71
ATOM     71  C   UNL     1      -1.026  -5.273   4.646  1.00  0.00    -0.055 C 
ATOM     72  C   UNL     1      -2.196  -5.103   5.296  1.00  0.00    -0.018 C 
ATOM     73  C   UNL     1       0.319  -5.361   5.319  1.00  0.00     0.044 C 
BRANCH  72  74
ATOM     74  C   UNL     1      -2.457  -4.959   6.789  1.00  0.00     0.038 C 
ATOM     75  C   UNL     1      -2.553  -6.374   7.371  1.00  0.00     0.015 C 
BRANCH  74  76
ATOM     76  C   UNL     1      -3.727  -4.082   6.993  1.00  0.00     0.128 C 
BRANCH  76  77
ATOM     77  O   UNL     1      -3.415  -2.700   6.746  1.00  0.00    -0.381 OA
ATOM     78  C   UNL     1      -2.501  -2.145   7.682  1.00  0.00     0.195 C 
ENDBRANCH  76  77
BRANCH  76  79
ATOM     79  C   UNL     1      -4.963  -4.569   6.196  1.00  0.00     0.068 C 
BRANCH  79  80
ATOM     80  C   UNL     1      -6.270  -4.715   6.937  1.00  0.00    -0.045 A 
ATOM     81  C   UNL     1      -6.817  -3.642   7.654  1.00  0.00     0.004 A 
ATOM     82  C   UNL     1      -6.947  -5.944   6.943  1.00  0.00     0.004 A 
ATOM     83  C   UNL     1      -8.020  -3.789   8.348  1.00  0.00     0.000 A 
ATOM     84  C   UNL     1      -8.149  -6.090   7.639  1.00  0.00     0.000 A 
ATOM     85  C   UNL     1      -8.686  -5.013   8.340  1.00  0.00     0.000 A 
ENDBRANCH  79  80
ENDBRANCH  76  79
ENDBRANCH  74  76
ENDBRANCH  72  74
ENDBRANCH  70  71
ENDBRANCH   1  69
TORSDOF 17
ENDMDL
MODEL 7
REMARK VINA RESULT:    -6.873      2.705     10.983
REMARK INTER + INTRA:         -28.102
REMARK INTER:                 -21.387
REMARK INTRA:                  -6.715
REMARK UNBOUND:                -7.566
REMARK SMILES C=C1C(=O)N[C@H](C)C(=O)N[C@@H](CC(C)C)C(=O)N[C@@H](C(=O)O)[C@H](C)C(=O)N[C@@H](CCCN=C(N)N)C(=O)N[C@@H](/C=C/C(C)=C/[C@H](C)[C@H](Cc2ccccc2)OC)[C@H](C)C(=O)N[C@@H](C(=O)O)CCC(=O)N1C
REMARK SMILES IDX 39 1 38 2 37 3 36 4 28 6 27 7 25 8 26 9 23 11 24 12 19 13
REMARK SMILES IDX 18 14 16 15 17 16 11 18 10 19 8 20 9 21 12 24 13 25 14 26
REMARK SMILES IDX 15 27 20 28 21 29 22 30 29 32 30 33 31 34 32 35 33 36 34 37
REMARK SMILES IDX 35 38 57 43 58 44 59 45 60 46 61 47 62 49 66 50 67 51 68 52
REMARK SMILES IDX 69 53 70 54 71 55 2 56 1 57 3 58 4 59 5 60 6 62 7 63 63 65
REMARK SMILES IDX 64 66 65 67 40 69 41 70 42 71 44 72 43 73 45 74 46 75 47 76
REMARK SMILES IDX 55 77 56 78 48 79 49 80 50 81 54 82 51 83 53 84 52 85
REMARK H PARENT 38 5 27 10 18 17 10 22 22 31 34 39 34 40 35 41 35 42 61 48
REMARK H PARENT 5 61 65 68
REMARK Flexibility Score:  369.900
ROOT
ATOM      1  C   UNL     1       0.391  -7.747   3.841  1.00  0.00     0.117 C 
ENDROOT
BRANCH   1   2
ATOM      2  N   UNL     1       0.664  -6.834   2.730  1.00  0.00    -0.347 N 
ATOM      3  O   UNL     1      -0.016  -8.209   1.022  1.00  0.00    -0.273 OA
ATOM      4  C   UNL     1       0.352  -7.106   1.412  1.00  0.00     0.243 C 
ATOM      5  H   UNL     1       1.059  -5.926   2.922  1.00  0.00     0.164 HD
BRANCH   4   6
ATOM      6  C   UNL     1       0.666  -5.937   0.444  1.00  0.00     0.171 C 
BRANCH   6   7
ATOM      7  N   UNL     1       1.030  -6.453  -0.885  1.00  0.00    -0.344 N 
ATOM      8  C   UNL     1       2.348  -6.684  -1.213  1.00  0.00     0.226 C 
ATOM      9  O   UNL     1       3.271  -6.454  -0.440  1.00  0.00    -0.275 OA
ATOM     10  H   UNL     1       0.301  -6.592  -1.574  1.00  0.00     0.164 HD
BRANCH   8  11
ATOM     11  C   UNL     1       2.555  -7.268  -2.599  1.00  0.00     0.109 C 
ATOM     12  C   UNL     1       2.076  -8.719  -2.636  1.00  0.00     0.021 C 
BRANCH  11  13
ATOM     13  C   UNL     1       1.912  -6.346  -3.655  1.00  0.00     0.204 C 
BRANCH  13  14
ATOM     14  N   UNL     1       2.815  -5.268  -4.069  1.00  0.00    -0.340 N 
ATOM     15  C   UNL     1       2.409  -3.956  -4.190  1.00  0.00     0.243 C 
ATOM     16  O   UNL     1       1.273  -3.587  -3.900  1.00  0.00    -0.273 OA
ATOM     17  H   UNL     1       3.722  -5.527  -4.468  1.00  0.00     0.164 HD
BRANCH  15  18
ATOM     18  C   UNL     1       3.473  -3.037  -4.839  1.00  0.00     0.171 C 
BRANCH  18  19
ATOM     19  N   UNL     1       4.477  -3.915  -5.437  1.00  0.00    -0.343 N 
ATOM     20  C   UNL     1       5.775  -3.495  -5.655  1.00  0.00     0.242 CG0
ATOM     21  O   UNL     1       6.111  -2.326  -5.481  1.00  0.00    -0.273 OA
ATOM     22  H   UNL     1       4.217  -4.857  -5.706  1.00  0.00     0.164 HD
ATOM     23  G   UNL     1       6.710  -4.585  -6.221  1.00  0.00     0.000 G0
ENDBRANCH  18  19
BRANCH  18  24
ATOM     24  C   UNL     1       2.830  -2.122  -5.889  1.00  0.00     0.038 C 
BRANCH  24  25
ATOM     25  C   UNL     1       2.670  -2.757  -7.286  1.00  0.00    -0.015 C 
ATOM     26  C   UNL     1       3.260  -1.887  -8.396  1.00  0.00     0.007 C 
ATOM     27  C   UNL     1       1.187  -3.016  -7.567  1.00  0.00     0.007 C 
ENDBRANCH  24  25
ENDBRANCH  18  24
ENDBRANCH  15  18
ENDBRANCH  13  14
BRANCH  13  28
ATOM     28  C   UNL     1       1.481  -7.089  -4.923  1.00  0.00     0.327 C 
ATOM     29  O   UNL     1       0.364  -7.085  -5.418  1.00  0.00    -0.250 OA
BRANCH  28  30
ATOM     30  O   UNL     1       2.447  -7.886  -5.423  1.00  0.00    -0.480 OA
ATOM     31  H   UNL     1       2.775  -7.402  -6.210  1.00  0.00     0.296 HD
ENDBRANCH  28  30
ENDBRANCH  13  28
ENDBRANCH  11  13
ENDBRANCH   8  11
ENDBRANCH   6   7
BRANCH   6  32
ATOM     32  C   UNL     1      -0.554  -5.013   0.357  1.00  0.00     0.037 C 
BRANCH  32  33
ATOM     33  C   UNL     1      -0.574  -4.201  -0.945  1.00  0.00     0.026 C 
BRANCH  33  34
ATOM     34  C   UNL     1      -1.772  -4.545  -1.831  1.00  0.00     0.146 C 
BRANCH  34  35
ATOM     35  N   UNL     1      -1.402  -5.641  -2.716  1.00  0.00    -0.254 NA
ATOM     36  C   UNL     1      -2.273  -6.545  -2.971  1.00  0.00     0.185 C 
ATOM     37  N   UNL     1      -1.944  -7.557  -3.789  1.00  0.00    -0.370 N 
ATOM     38  N   UNL     1      -3.537  -6.650  -2.526  1.00  0.00    -0.370 N 
ATOM     39  H   UNL     1      -1.009  -7.543  -4.175  1.00  0.00     0.159 HD
ATOM     40  H   UNL     1      -2.614  -8.201  -4.173  1.00  0.00     0.159 HD
ATOM     41  H   UNL     1      -4.079  -7.483  -2.687  1.00  0.00     0.159 HD
ATOM     42  H   UNL     1      -3.915  -5.966  -1.889  1.00  0.00     0.159 HD
ENDBRANCH  34  35
ENDBRANCH  33  34
ENDBRANCH  32  33
ENDBRANCH   6  32
ENDBRANCH   4   6
ENDBRANCH   1   2
BRANCH   1  43
ATOM     43  C   UNL     1      -0.901  -7.271   4.567  1.00  0.00     0.102 C 
ATOM     44  C   UNL     1      -1.817  -8.426   5.006  1.00  0.00     0.020 C 
BRANCH  43  45
ATOM     45  C   UNL     1      -1.616  -6.184   3.760  1.00  0.00     0.225 C 
ATOM     46  O   UNL     1      -1.265  -5.007   3.760  1.00  0.00    -0.275 OA
ATOM     47  N   UNL     1      -2.752  -6.589   3.096  1.00  0.00    -0.342 N 
ATOM     48  H   UNL     1      -2.939  -7.575   2.982  1.00  0.00     0.164 HD
BRANCH  47  49
ATOM     49  C   UNL     1      -3.519  -5.665   2.255  1.00  0.00     0.192 C 
BRANCH  49  50
ATOM     50  C   UNL     1      -4.877  -5.386   2.904  1.00  0.00     0.047 C 
BRANCH  50  51
ATOM     51  C   UNL     1      -5.259  -6.455   3.937  1.00  0.00     0.103 C 
BRANCH  51  52
ATOM     52  C   UNL     1      -5.866  -7.694   3.282  1.00  0.00     0.226 C 
ATOM     53  O   UNL     1      -5.126  -8.586   2.861  1.00  0.00    -0.275 OA
BRANCH  52  54
ATOM     54  N   UNL     1      -7.271  -7.772   3.270  1.00  0.00    -0.311 N 
ATOM     55  C   UNL     1      -8.050  -7.200   2.163  1.00  0.00     0.153 C 
BRANCH  54  56
ATOM     56  C   UNL     1      -7.979  -8.402   4.307  1.00  0.00     0.102 C 
ATOM     57  C   UNL     1      -8.125  -9.730   4.441  1.00  0.00     0.043 C 
BRANCH  56  58
ATOM     58  C   UNL     1      -8.613  -7.593   5.415  1.00  0.00     0.268 C 
ATOM     59  O   UNL     1      -9.801  -7.664   5.699  1.00  0.00    -0.268 OA
ATOM     60  N   UNL     1      -7.708  -6.825   6.108  1.00  0.00    -0.339 N 
ATOM     61  H   UNL     1      -6.743  -6.813   5.802  1.00  0.00     0.164 HD
BRANCH  60  62
ATOM     62  C   UNL     1      -8.098  -6.012   7.259  1.00  0.00     0.168 CG0
ATOM     63  C   UNL     1      -7.217  -4.775   7.379  1.00  0.00     0.041 C 
ATOM     64  G   UNL     1      -8.021  -6.864   8.543  1.00  0.00     0.000 G0
ENDBRANCH  60  62
ENDBRANCH  56  58
ENDBRANCH  54  56
ENDBRANCH  52  54
ENDBRANCH  51  52
ENDBRANCH  50  51
ENDBRANCH  49  50
BRANCH  49  65
ATOM     65  C   UNL     1      -3.736  -6.230   0.843  1.00  0.00     0.326 C 
ATOM     66  O   UNL     1      -4.475  -5.756  -0.007  1.00  0.00    -0.250 OA
BRANCH  65  67
ATOM     67  O   UNL     1      -3.073  -7.380   0.588  1.00  0.00    -0.480 OA
ATOM     68  H   UNL     1      -2.430  -7.127  -0.109  1.00  0.00     0.296 HD
ENDBRANCH  65  67
ENDBRANCH  49  65
ENDBRANCH  47  49
ENDBRANCH  43  45
ENDBRANCH   1  43
BRANCH   1  69
ATOM     69  C   UNL     1       1.681  -7.849   4.633  1.00  0.00    -0.001 C 
ATOM     70  C   UNL     1       1.959  -8.701   5.636  1.00  0.00     0.001 C 
BRANCH  70  71
ATOM     71  C   UNL     1       3.217  -8.804   6.379  1.00  0.00    -0.055 C 
ATOM     72  C   UNL     1       3.963  -7.687   6.509  1.00  0.00    -0.018 C 
ATOM     73  C   UNL     1       3.585 -10.148   6.952  1.00  0.00     0.044 C 
BRANCH  72  74
ATOM     74  C   UNL     1       5.295  -7.496   7.220  1.00  0.00     0.038 C 
ATOM     75  C   UNL     1       5.029  -6.622   8.452  1.00  0.00     0.015 C 
BRANCH  74  76
ATOM     76  C   UNL     1       6.322  -6.904   6.209  1.00  0.00     0.128 C 
BRANCH  76  77
ATOM     77  O   UNL     1       7.591  -6.710   6.856  1.00  0.00    -0.381 OA
ATOM     78  C   UNL     1       8.207  -5.468   6.544  1.00  0.00     0.195 C 
ENDBRANCH  76  77
BRANCH  76  79
ATOM     79  C   UNL     1       6.438  -7.705   4.888  1.00  0.00     0.068 C 
BRANCH  79  80
ATOM     80  C   UNL     1       7.295  -8.948   4.888  1.00  0.00    -0.045 A 
ATOM     81  C   UNL     1       8.565  -8.949   4.297  1.00  0.00     0.004 A 
ATOM     82  C   UNL     1       6.817 -10.137   5.459  1.00  0.00     0.004 A 
ATOM     83  C   UNL     1       9.346 -10.106   4.288  1.00  0.00     0.000 A 
ATOM     84  C   UNL     1       7.598 -11.294   5.449  1.00  0.00     0.000 A 
ATOM     85  C   UNL     1       8.863 -11.278   4.866  1.00  0.00     0.000 A 
ENDBRANCH  79  80
ENDBRANCH  76  79
ENDBRANCH  74  76
ENDBRANCH  72  74
ENDBRANCH  70  71
ENDBRANCH   1  69
TORSDOF 17
ENDMDL
MODEL 8
REMARK VINA RESULT:    -6.848      4.825     10.825
REMARK INTER + INTRA:         -28.024
REMARK INTER:                 -21.535
REMARK INTRA:                  -6.489
REMARK UNBOUND:                -7.566
REMARK SMILES C=C1C(=O)N[C@H](C)C(=O)N[C@@H](CC(C)C)C(=O)N[C@@H](C(=O)O)[C@H](C)C(=O)N[C@@H](CCCN=C(N)N)C(=O)N[C@@H](/C=C/C(C)=C/[C@H](C)[C@H](Cc2ccccc2)OC)[C@H](C)C(=O)N[C@@H](C(=O)O)CCC(=O)N1C
REMARK SMILES IDX 39 1 38 2 37 3 36 4 28 6 27 7 25 8 26 9 23 11 24 12 19 13
REMARK SMILES IDX 18 14 16 15 17 16 11 18 10 19 8 20 9 21 12 24 13 25 14 26
REMARK SMILES IDX 15 27 20 28 21 29 22 30 29 32 30 33 31 34 32 35 33 36 34 37
REMARK SMILES IDX 35 38 57 43 58 44 59 45 60 46 61 47 62 49 66 50 67 51 68 52
REMARK SMILES IDX 69 53 70 54 71 55 2 56 1 57 3 58 4 59 5 60 6 62 7 63 63 65
REMARK SMILES IDX 64 66 65 67 40 69 41 70 42 71 44 72 43 73 45 74 46 75 47 76
REMARK SMILES IDX 55 77 56 78 48 79 49 80 50 81 54 82 51 83 53 84 52 85
REMARK H PARENT 38 5 27 10 18 17 10 22 22 31 34 39 34 40 35 41 35 42 61 48
REMARK H PARENT 5 61 65 68
REMARK Flexibility Score:  369.900
ROOT
ATOM      1  C   UNL     1      -4.546  -7.134   2.749  1.00  0.00     0.117 C 
ENDROOT
BRANCH   1   2
ATOM      2  N   UNL     1      -3.202  -6.582   2.581  1.00  0.00    -0.347 N 
ATOM      3  O   UNL     1      -2.331  -8.266   1.287  1.00  0.00    -0.273 OA
ATOM      4  C   UNL     1      -2.226  -7.150   1.784  1.00  0.00     0.243 C 
ATOM      5  H   UNL     1      -2.967  -5.707   3.025  1.00  0.00     0.164 HD
BRANCH   4   6
ATOM      6  C   UNL     1      -0.920  -6.319   1.710  1.00  0.00     0.171 C 
BRANCH   6   7
ATOM      7  N   UNL     1      -0.370  -6.105   3.058  1.00  0.00    -0.344 N 
ATOM      8  C   UNL     1      -0.775  -5.029   3.819  1.00  0.00     0.226 C 
ATOM      9  O   UNL     1      -1.580  -4.199   3.414  1.00  0.00    -0.275 OA
ATOM     10  H   UNL     1       0.347  -6.731   3.401  1.00  0.00     0.164 HD
BRANCH   8  11
ATOM     11  C   UNL     1      -0.158  -4.977   5.206  1.00  0.00     0.109 C 
ATOM     12  C   UNL     1      -0.915  -3.978   6.081  1.00  0.00     0.021 C 
BRANCH  11  13
ATOM     13  C   UNL     1      -0.059  -6.402   5.787  1.00  0.00     0.204 C 
BRANCH  13  14
ATOM     14  N   UNL     1       1.294  -6.714   6.256  1.00  0.00    -0.340 N 
ATOM     15  C   UNL     1       2.285  -7.185   5.423  1.00  0.00     0.243 C 
ATOM     16  O   UNL     1       2.121  -7.320   4.212  1.00  0.00    -0.273 OA
ATOM     17  H   UNL     1       1.452  -6.768   7.266  1.00  0.00     0.164 HD
BRANCH  15  18
ATOM     18  C   UNL     1       3.561  -7.640   6.174  1.00  0.00     0.171 C 
BRANCH  18  19
ATOM     19  N   UNL     1       4.233  -6.425   6.631  1.00  0.00    -0.343 N 
ATOM     20  C   UNL     1       5.115  -5.733   5.823  1.00  0.00     0.242 CG0
ATOM     21  O   UNL     1       5.476  -6.178   4.736  1.00  0.00    -0.273 OA
ATOM     22  H   UNL     1       4.056  -6.080   7.567  1.00  0.00     0.164 HD
ATOM     23  G   UNL     1       5.665  -4.434   6.447  1.00  0.00     0.000 G0
ENDBRANCH  18  19
BRANCH  18  24
ATOM     24  C   UNL     1       3.199  -8.557   7.349  1.00  0.00     0.038 C 
BRANCH  24  25
ATOM     25  C   UNL     1       4.146  -9.760   7.543  1.00  0.00    -0.015 C 
ATOM     26  C   UNL     1       5.301  -9.449   8.496  1.00  0.00     0.007 C 
ATOM     27  C   UNL     1       4.703 -10.201   6.186  1.00  0.00     0.007 C 
ENDBRANCH  24  25
ENDBRANCH  18  24
ENDBRANCH  15  18
ENDBRANCH  13  14
BRANCH  13  28
ATOM     28  C   UNL     1      -1.014  -6.643   6.960  1.00  0.00     0.327 C 
ATOM     29  O   UNL     1      -0.771  -6.445   8.141  1.00  0.00    -0.250 OA
BRANCH  28  30
ATOM     30  O   UNL     1      -2.170  -7.229   6.590  1.00  0.00    -0.480 OA
ATOM     31  H   UNL     1      -2.466  -7.707   7.392  1.00  0.00     0.296 HD
ENDBRANCH  28  30
ENDBRANCH  13  28
ENDBRANCH  11  13
ENDBRANCH   8  11
ENDBRANCH   6   7
BRANCH   6  32
ATOM     32  C   UNL     1       0.090  -7.048   0.817  1.00  0.00     0.037 C 
BRANCH  32  33
ATOM     33  C   UNL     1       0.468  -6.223  -0.422  1.00  0.00     0.026 C 
BRANCH  33  34
ATOM     34  C   UNL     1      -0.067  -6.834  -1.717  1.00  0.00     0.146 C 
BRANCH  34  35
ATOM     35  N   UNL     1      -1.005  -5.900  -2.325  1.00  0.00    -0.254 NA
ATOM     36  C   UNL     1      -2.259  -6.152  -2.249  1.00  0.00     0.185 C 
ATOM     37  N   UNL     1      -3.132  -5.296  -2.801  1.00  0.00    -0.370 N 
ATOM     38  N   UNL     1      -2.877  -7.198  -1.672  1.00  0.00    -0.370 N 
ATOM     39  H   UNL     1      -2.743  -4.476  -3.248  1.00  0.00     0.159 HD
ATOM     40  H   UNL     1      -4.123  -5.330  -2.637  1.00  0.00     0.159 HD
ATOM     41  H   UNL     1      -3.863  -7.356  -1.800  1.00  0.00     0.159 HD
ATOM     42  H   UNL     1      -2.342  -7.930  -1.231  1.00  0.00     0.159 HD
ENDBRANCH  34  35
ENDBRANCH  33  34
ENDBRANCH  32  33
ENDBRANCH   6  32
ENDBRANCH   4   6
ENDBRANCH   1   2
BRANCH   1  43
ATOM     43  C   UNL     1      -5.322  -6.966   1.411  1.00  0.00     0.102 C 
ATOM     44  C   UNL     1      -6.187  -5.696   1.360  1.00  0.00     0.020 C 
BRANCH  43  45
ATOM     45  C   UNL     1      -6.078  -8.248   1.049  1.00  0.00     0.225 C 
ATOM     46  O   UNL     1      -7.260  -8.431   1.328  1.00  0.00    -0.275 OA
ATOM     47  N   UNL     1      -5.321  -9.238   0.466  1.00  0.00    -0.342 N 
ATOM     48  H   UNL     1      -4.402  -9.020   0.109  1.00  0.00     0.164 HD
BRANCH  47  49
ATOM     49  C   UNL     1      -5.919 -10.506   0.034  1.00  0.00     0.192 C 
BRANCH  49  50
ATOM     50  C   UNL     1      -5.610 -11.597   1.063  1.00  0.00     0.047 C 
BRANCH  50  51
ATOM     51  C   UNL     1      -6.589 -12.776   0.971  1.00  0.00     0.103 C 
BRANCH  51  52
ATOM     52  C   UNL     1      -5.902 -14.056   0.500  1.00  0.00     0.226 C 
ATOM     53  O   UNL     1      -4.799 -14.360   0.958  1.00  0.00    -0.275 OA
BRANCH  52  54
ATOM     54  N   UNL     1      -6.628 -14.863  -0.395  1.00  0.00    -0.311 N 
ATOM     55  C   UNL     1      -6.750 -14.499  -1.813  1.00  0.00     0.153 C 
BRANCH  54  56
ATOM     56  C   UNL     1      -7.255 -16.046   0.029  1.00  0.00     0.102 C 
ATOM     57  C   UNL     1      -6.619 -17.193   0.316  1.00  0.00     0.043 C 
BRANCH  56  58
ATOM     58  C   UNL     1      -8.750 -16.097   0.244  1.00  0.00     0.268 C 
ATOM     59  O   UNL     1      -9.494 -16.824  -0.398  1.00  0.00    -0.268 OA
ATOM     60  N   UNL     1      -9.174 -15.293   1.276  1.00  0.00    -0.339 N 
ATOM     61  H   UNL     1      -8.495 -14.713   1.752  1.00  0.00     0.164 HD
BRANCH  60  62
ATOM     62  C   UNL     1     -10.574 -15.239   1.695  1.00  0.00     0.168 CG0
ATOM     63  C   UNL     1     -10.844 -16.218   2.830  1.00  0.00     0.041 C 
ATOM     64  G   UNL     1     -11.487 -15.537   0.487  1.00  0.00     0.000 G0
ENDBRANCH  60  62
ENDBRANCH  56  58
ENDBRANCH  54  56
ENDBRANCH  52  54
ENDBRANCH  51  52
ENDBRANCH  50  51
ENDBRANCH  49  50
BRANCH  49  65
ATOM     65  C   UNL     1      -5.392 -10.940  -1.342  1.00  0.00     0.326 C 
ATOM     66  O   UNL     1      -4.313 -11.476  -1.554  1.00  0.00    -0.250 OA
BRANCH  65  67
ATOM     67  O   UNL     1      -6.202 -10.633  -2.379  1.00  0.00    -0.480 OA
ATOM     68  H   UNL     1      -7.103 -10.783  -2.021  1.00  0.00     0.296 HD
ENDBRANCH  65  67
ENDBRANCH  49  65
ENDBRANCH  47  49
ENDBRANCH  43  45
ENDBRANCH   1  43
BRANCH   1  69
ATOM     69  C   UNL     1      -5.110  -6.501   4.008  1.00  0.00    -0.001 C 
ATOM     70  C   UNL     1      -4.558  -5.524   4.749  1.00  0.00     0.001 C 
BRANCH  70  71
ATOM     71  C   UNL     1      -5.122  -4.906   5.951  1.00  0.00    -0.055 C 
ATOM     72  C   UNL     1      -5.275  -5.683   7.043  1.00  0.00    -0.018 C 
ATOM     73  C   UNL     1      -5.483  -3.445   5.885  1.00  0.00     0.044 C 
BRANCH  72  74
ATOM     74  C   UNL     1      -5.825  -5.318   8.415  1.00  0.00     0.038 C 
ATOM     75  C   UNL     1      -4.725  -5.626   9.439  1.00  0.00     0.015 C 
BRANCH  74  76
ATOM     76  C   UNL     1      -7.160  -6.087   8.641  1.00  0.00     0.128 C 
BRANCH  76  77
ATOM     77  O   UNL     1      -7.473  -6.127  10.043  1.00  0.00    -0.381 OA
ATOM     78  C   UNL     1      -8.128  -4.957  10.516  1.00  0.00     0.195 C 
ENDBRANCH  76  77
BRANCH  76  79
ATOM     79  C   UNL     1      -8.338  -5.567   7.778  1.00  0.00     0.068 C 
BRANCH  79  80
ATOM     80  C   UNL     1      -9.119  -6.574   6.968  1.00  0.00    -0.045 A 
ATOM     81  C   UNL     1      -8.559  -7.179   5.836  1.00  0.00     0.004 A 
ATOM     82  C   UNL     1     -10.437  -6.899   7.325  1.00  0.00     0.004 A 
ATOM     83  C   UNL     1      -9.293  -8.099   5.083  1.00  0.00     0.000 A 
ATOM     84  C   UNL     1     -11.170  -7.818   6.571  1.00  0.00     0.000 A 
ATOM     85  C   UNL     1     -10.598  -8.419   5.452  1.00  0.00     0.000 A 
ENDBRANCH  79  80
ENDBRANCH  76  79
ENDBRANCH  74  76
ENDBRANCH  72  74
ENDBRANCH  70  71
ENDBRANCH   1  69
TORSDOF 17
ENDMDL
MODEL 9
REMARK VINA RESULT:    -6.840      2.911      4.200
REMARK INTER + INTRA:         -28.003
REMARK INTER:                 -22.702
REMARK INTRA:                  -5.300
REMARK UNBOUND:                -7.566
REMARK SMILES C=C1C(=O)N[C@H](C)C(=O)N[C@@H](CC(C)C)C(=O)N[C@@H](C(=O)O)[C@H](C)C(=O)N[C@@H](CCCN=C(N)N)C(=O)N[C@@H](/C=C/C(C)=C/[C@H](C)[C@H](Cc2ccccc2)OC)[C@H](C)C(=O)N[C@@H](C(=O)O)CCC(=O)N1C
REMARK SMILES IDX 39 1 38 2 37 3 36 4 28 6 27 7 25 8 26 9 23 11 24 12 19 13
REMARK SMILES IDX 18 14 16 15 17 16 11 18 10 19 8 20 9 21 12 24 13 25 14 26
REMARK SMILES IDX 15 27 20 28 21 29 22 30 29 32 30 33 31 34 32 35 33 36 34 37
REMARK SMILES IDX 35 38 57 43 58 44 59 45 60 46 61 47 62 49 66 50 67 51 68 52
REMARK SMILES IDX 69 53 70 54 71 55 2 56 1 57 3 58 4 59 5 60 6 62 7 63 63 65
REMARK SMILES IDX 64 66 65 67 40 69 41 70 42 71 44 72 43 73 45 74 46 75 47 76
REMARK SMILES IDX 55 77 56 78 48 79 49 80 50 81 54 82 51 83 53 84 52 85
REMARK H PARENT 38 5 27 10 18 17 10 22 22 31 34 39 34 40 35 41 35 42 61 48
REMARK H PARENT 5 61 65 68
REMARK Flexibility Score:  369.900
ROOT
ATOM      1  C   UNL     1       1.124  -6.283  -0.754  1.00  0.00     0.117 C 
ENDROOT
BRANCH   1   2
ATOM      2  N   UNL     1      -0.084  -6.595  -1.518  1.00  0.00    -0.347 N 
ATOM      3  O   UNL     1      -1.570  -5.373  -0.266  1.00  0.00    -0.273 OA
ATOM      4  C   UNL     1      -1.323  -6.039  -1.266  1.00  0.00     0.243 C 
ATOM      5  H   UNL     1      -0.021  -7.214  -2.312  1.00  0.00     0.164 HD
BRANCH   4   6
ATOM      6  C   UNL     1      -2.417  -6.472  -2.275  1.00  0.00     0.171 C 
BRANCH   6   7
ATOM      7  N   UNL     1      -3.722  -6.583  -1.603  1.00  0.00    -0.344 N 
ATOM      8  C   UNL     1      -4.501  -7.708  -1.763  1.00  0.00     0.226 C 
ATOM      9  O   UNL     1      -4.167  -8.647  -2.477  1.00  0.00    -0.275 OA
ATOM     10  H   UNL     1      -4.062  -5.799  -1.060  1.00  0.00     0.164 HD
BRANCH   8  11
ATOM     11  C   UNL     1      -5.792  -7.694  -0.963  1.00  0.00     0.109 C 
ATOM     12  C   UNL     1      -6.690  -8.854  -1.394  1.00  0.00     0.021 C 
BRANCH  11  13
ATOM     13  C   UNL     1      -5.470  -7.648   0.544  1.00  0.00     0.204 C 
BRANCH  13  14
ATOM     14  N   UNL     1      -6.594  -8.115   1.362  1.00  0.00    -0.340 N 
ATOM     15  C   UNL     1      -6.848  -7.635   2.629  1.00  0.00     0.243 C 
ATOM     16  O   UNL     1      -6.184  -6.734   3.139  1.00  0.00    -0.273 OA
ATOM     17  H   UNL     1      -7.087  -8.961   1.063  1.00  0.00     0.164 HD
BRANCH  15  18
ATOM     18  C   UNL     1      -7.953  -8.419   3.378  1.00  0.00     0.171 C 
BRANCH  18  19
ATOM     19  N   UNL     1      -7.272  -9.294   4.331  1.00  0.00    -0.343 N 
ATOM     20  C   UNL     1      -6.721 -10.501   3.947  1.00  0.00     0.242 CG0
ATOM     21  O   UNL     1      -6.893 -10.957   2.818  1.00  0.00    -0.273 OA
ATOM     22  H   UNL     1      -7.206  -9.014   5.303  1.00  0.00     0.164 HD
ATOM     23  G   UNL     1      -5.977 -11.248   5.072  1.00  0.00     0.000 G0
ENDBRANCH  18  19
BRANCH  18  24
ATOM     24  C   UNL     1      -8.915  -7.457   4.086  1.00  0.00     0.038 C 
BRANCH  24  25
ATOM     25  C   UNL     1      -9.418  -7.945   5.461  1.00  0.00    -0.015 C 
ATOM     26  C   UNL     1     -10.909  -8.285   5.451  1.00  0.00     0.007 C 
ATOM     27  C   UNL     1      -9.141  -6.875   6.520  1.00  0.00     0.007 C 
ENDBRANCH  24  25
ENDBRANCH  18  24
ENDBRANCH  15  18
ENDBRANCH  13  14
BRANCH  13  28
ATOM     28  C   UNL     1      -4.249  -8.490   0.927  1.00  0.00     0.327 C 
ATOM     29  O   UNL     1      -4.221  -9.704   1.062  1.00  0.00    -0.250 OA
BRANCH  28  30
ATOM     30  O   UNL     1      -3.168  -7.744   1.233  1.00  0.00    -0.480 OA
ATOM     31  H   UNL     1      -2.411  -8.266   0.893  1.00  0.00     0.296 HD
ENDBRANCH  28  30
ENDBRANCH  13  28
ENDBRANCH  11  13
ENDBRANCH   8  11
ENDBRANCH   6   7
BRANCH   6  32
ATOM     32  C   UNL     1      -2.476  -5.454  -3.420  1.00  0.00     0.037 C 
BRANCH  32  33
ATOM     33  C   UNL     1      -2.031  -4.054  -2.974  1.00  0.00     0.026 C 
BRANCH  33  34
ATOM     34  C   UNL     1      -3.212  -3.159  -2.595  1.00  0.00     0.146 C 
BRANCH  34  35
ATOM     35  N   UNL     1      -4.450  -3.888  -2.832  1.00  0.00    -0.254 NA
ATOM     36  C   UNL     1      -5.509  -3.518  -2.212  1.00  0.00     0.185 C 
ATOM     37  N   UNL     1      -6.656  -4.180  -2.427  1.00  0.00    -0.370 N 
ATOM     38  N   UNL     1      -5.665  -2.515  -1.330  1.00  0.00    -0.370 N 
ATOM     39  H   UNL     1      -6.622  -4.945  -3.089  1.00  0.00     0.159 HD
ATOM     40  H   UNL     1      -7.555  -3.849  -2.120  1.00  0.00     0.159 HD
ATOM     41  H   UNL     1      -6.517  -2.412  -0.805  1.00  0.00     0.159 HD
ATOM     42  H   UNL     1      -4.880  -1.942  -1.061  1.00  0.00     0.159 HD
ENDBRANCH  34  35
ENDBRANCH  33  34
ENDBRANCH  32  33
ENDBRANCH   6  32
ENDBRANCH   4   6
ENDBRANCH   1   2
BRANCH   1  43
ATOM     43  C   UNL     1       2.344  -6.322  -1.719  1.00  0.00     0.102 C 
ATOM     44  C   UNL     1       3.696  -6.432  -0.993  1.00  0.00     0.020 C 
BRANCH  43  45
ATOM     45  C   UNL     1       2.277  -5.179  -2.736  1.00  0.00     0.225 C 
ATOM     46  O   UNL     1       1.403  -4.316  -2.720  1.00  0.00    -0.275 OA
ATOM     47  N   UNL     1       3.213  -5.226  -3.744  1.00  0.00    -0.342 N 
ATOM     48  H   UNL     1       4.008  -5.844  -3.659  1.00  0.00     0.164 HD
BRANCH  47  49
ATOM     49  C   UNL     1       3.291  -4.180  -4.767  1.00  0.00     0.192 C 
BRANCH  49  50
ATOM     50  C   UNL     1       2.563  -4.642  -6.032  1.00  0.00     0.047 C 
BRANCH  50  51
ATOM     51  C   UNL     1       1.366  -3.745  -6.376  1.00  0.00     0.103 C 
BRANCH  51  52
ATOM     52  C   UNL     1       1.467  -3.168  -7.786  1.00  0.00     0.226 C 
ATOM     53  O   UNL     1       0.614  -3.459  -8.627  1.00  0.00    -0.275 OA
BRANCH  52  54
ATOM     54  N   UNL     1       2.516  -2.259  -8.018  1.00  0.00    -0.311 N 
ATOM     55  C   UNL     1       2.820  -1.194  -7.053  1.00  0.00     0.153 C 
BRANCH  54  56
ATOM     56  C   UNL     1       3.312  -2.338  -9.172  1.00  0.00     0.102 C 
ATOM     57  C   UNL     1       3.107  -1.633 -10.297  1.00  0.00     0.043 C 
BRANCH  56  58
ATOM     58  C   UNL     1       4.533  -3.227  -9.212  1.00  0.00     0.268 C 
ATOM     59  O   UNL     1       4.526  -4.354  -9.689  1.00  0.00    -0.268 OA
ATOM     60  N   UNL     1       5.662  -2.616  -8.721  1.00  0.00    -0.339 N 
ATOM     61  H   UNL     1       5.583  -1.683  -8.334  1.00  0.00     0.164 HD
BRANCH  60  62
ATOM     62  C   UNL     1       6.968  -3.275  -8.724  1.00  0.00     0.168 CG0
ATOM     63  C   UNL     1       8.083  -2.279  -8.428  1.00  0.00     0.041 C 
ATOM     64  G   UNL     1       7.197  -3.962 -10.086  1.00  0.00     0.000 G0
ENDBRANCH  60  62
ENDBRANCH  56  58
ENDBRANCH  54  56
ENDBRANCH  52  54
ENDBRANCH  51  52
ENDBRANCH  50  51
ENDBRANCH  49  50
BRANCH  49  65
ATOM     65  C   UNL     1       4.748  -3.835  -5.115  1.00  0.00     0.326 C 
ATOM     66  O   UNL     1       5.409  -2.944  -4.602  1.00  0.00    -0.250 OA
BRANCH  65  67
ATOM     67  O   UNL     1       5.278  -4.571  -6.117  1.00  0.00    -0.480 OA
ATOM     68  H   UNL     1       4.498  -5.015  -6.515  1.00  0.00     0.296 HD
ENDBRANCH  65  67
ENDBRANCH  49  65
ENDBRANCH  47  49
ENDBRANCH  43  45
ENDBRANCH   1  43
BRANCH   1  69
ATOM     69  C   UNL     1       1.114  -7.205   0.452  1.00  0.00    -0.001 C 
ATOM     70  C   UNL     1       0.801  -6.887   1.720  1.00  0.00     0.001 C 
BRANCH  70  71
ATOM     71  C   UNL     1       0.773  -7.791   2.872  1.00  0.00    -0.055 C 
ATOM     72  C   UNL     1       1.666  -7.575   3.861  1.00  0.00    -0.018 C 
ATOM     73  C   UNL     1      -0.254  -8.893   2.876  1.00  0.00     0.044 C 
BRANCH  72  74
ATOM     74  C   UNL     1       1.867  -8.339   5.162  1.00  0.00     0.038 C 
ATOM     75  C   UNL     1       0.966  -7.684   6.216  1.00  0.00     0.015 C 
BRANCH  74  76
ATOM     76  C   UNL     1       3.384  -8.344   5.511  1.00  0.00     0.128 C 
BRANCH  76  77
ATOM     77  O   UNL     1       3.747  -7.103   6.140  1.00  0.00    -0.381 OA
ATOM     78  C   UNL     1       4.795  -6.410   5.473  1.00  0.00     0.195 C 
ENDBRANCH  76  77
BRANCH  76  79
ATOM     79  C   UNL     1       3.840  -9.583   6.323  1.00  0.00     0.068 C 
BRANCH  79  80
ATOM     80  C   UNL     1       4.998  -9.416   7.277  1.00  0.00    -0.045 A 
ATOM     81  C   UNL     1       6.322  -9.478   6.823  1.00  0.00     0.004 A 
ATOM     82  C   UNL     1       4.763  -9.224   8.647  1.00  0.00     0.004 A 
ATOM     83  C   UNL     1       7.387  -9.337   7.715  1.00  0.00     0.000 A 
ATOM     84  C   UNL     1       5.829  -9.084   9.538  1.00  0.00     0.000 A 
ATOM     85  C   UNL     1       7.141  -9.139   9.071  1.00  0.00     0.000 A 
ENDBRANCH  79  80
ENDBRANCH  76  79
ENDBRANCH  74  76
ENDBRANCH  72  74
ENDBRANCH  70  71
ENDBRANCH   1  69
TORSDOF 17
ENDMDL
MODEL 10
REMARK VINA RESULT:    -6.731      2.623     12.288
REMARK INTER + INTRA:         -27.677
REMARK INTER:                 -20.800
REMARK INTRA:                  -6.877
REMARK UNBOUND:                -7.566
REMARK SMILES C=C1C(=O)N[C@H](C)C(=O)N[C@@H](CC(C)C)C(=O)N[C@@H](C(=O)O)[C@H](C)C(=O)N[C@@H](CCCN=C(N)N)C(=O)N[C@@H](/C=C/C(C)=C/[C@H](C)[C@H](Cc2ccccc2)OC)[C@H](C)C(=O)N[C@@H](C(=O)O)CCC(=O)N1C
REMARK SMILES IDX 39 1 38 2 37 3 36 4 28 6 27 7 25 8 26 9 23 11 24 12 19 13
REMARK SMILES IDX 18 14 16 15 17 16 11 18 10 19 8 20 9 21 12 24 13 25 14 26
REMARK SMILES IDX 15 27 20 28 21 29 22 30 29 32 30 33 31 34 32 35 33 36 34 37
REMARK SMILES IDX 35 38 57 43 58 44 59 45 60 46 61 47 62 49 66 50 67 51 68 52
REMARK SMILES IDX 69 53 70 54 71 55 2 56 1 57 3 58 4 59 5 60 6 62 7 63 63 65
REMARK SMILES IDX 64 66 65 67 40 69 41 70 42 71 44 72 43 73 45 74 46 75 47 76
REMARK SMILES IDX 55 77 56 78 48 79 49 80 50 81 54 82 51 83 53 84 52 85
REMARK H PARENT 38 5 27 10 18 17 10 22 22 31 34 39 34 40 35 41 35 42 61 48
REMARK H PARENT 5 61 65 68
REMARK Flexibility Score:  369.900
ROOT
ATOM      1  C   UNL     1      -0.841  -5.014  -0.612  1.00  0.00     0.117 C 
ENDROOT
BRANCH   1   2
ATOM      2  N   UNL     1      -0.307  -4.928  -1.971  1.00  0.00    -0.347 N 
ATOM      3  O   UNL     1      -1.505  -3.097  -2.664  1.00  0.00    -0.273 OA
ATOM      4  C   UNL     1      -0.615  -3.918  -2.861  1.00  0.00     0.243 C 
ATOM      5  H   UNL     1       0.368  -5.611  -2.281  1.00  0.00     0.164 HD
BRANCH   4   6
ATOM      6  C   UNL     1       0.152  -4.014  -4.204  1.00  0.00     0.171 C 
BRANCH   6   7
ATOM      7  N   UNL     1       1.586  -4.239  -3.962  1.00  0.00    -0.344 N 
ATOM      8  C   UNL     1       2.525  -3.337  -4.415  1.00  0.00     0.226 C 
ATOM      9  O   UNL     1       2.224  -2.333  -5.050  1.00  0.00    -0.275 OA
ATOM     10  H   UNL     1       1.879  -5.091  -3.500  1.00  0.00     0.164 HD
BRANCH   8  11
ATOM     11  C   UNL     1       3.955  -3.681  -4.039  1.00  0.00     0.109 C 
ATOM     12  C   UNL     1       3.970  -4.652  -2.858  1.00  0.00     0.021 C 
BRANCH  11  13
ATOM     13  C   UNL     1       4.720  -4.167  -5.286  1.00  0.00     0.204 C 
BRANCH  13  14
ATOM     14  N   UNL     1       3.968  -3.929  -6.522  1.00  0.00    -0.340 N 
ATOM     15  C   UNL     1       3.279  -4.924  -7.182  1.00  0.00     0.243 C 
ATOM     16  O   UNL     1       3.197  -6.071  -6.746  1.00  0.00    -0.273 OA
ATOM     17  H   UNL     1       4.119  -3.044  -7.013  1.00  0.00     0.164 HD
BRANCH  15  18
ATOM     18  C   UNL     1       2.738  -4.488  -8.566  1.00  0.00     0.171 C 
BRANCH  18  19
ATOM     19  N   UNL     1       2.827  -5.658  -9.437  1.00  0.00    -0.343 N 
ATOM     20  C   UNL     1       3.835  -5.797 -10.372  1.00  0.00     0.242 CG0
ATOM     21  O   UNL     1       4.624  -4.885 -10.606  1.00  0.00    -0.273 OA
ATOM     22  H   UNL     1       2.128  -6.389  -9.361  1.00  0.00     0.164 HD
ATOM     23  G   UNL     1       3.809  -7.132 -11.143  1.00  0.00     0.000 G0
ENDBRANCH  18  19
BRANCH  18  24
ATOM     24  C   UNL     1       1.295  -3.983  -8.448  1.00  0.00     0.038 C 
BRANCH  24  25
ATOM     25  C   UNL     1       0.970  -2.752  -9.321  1.00  0.00    -0.015 C 
ATOM     26  C   UNL     1       2.141  -2.343 -10.215  1.00  0.00     0.007 C 
ATOM     27  C   UNL     1       0.570  -1.577  -8.426  1.00  0.00     0.007 C 
ENDBRANCH  24  25
ENDBRANCH  18  24
ENDBRANCH  15  18
ENDBRANCH  13  14
BRANCH  13  28
ATOM     28  C   UNL     1       6.089  -3.499  -5.453  1.00  0.00     0.327 C 
ATOM     29  O   UNL     1       7.169  -4.068  -5.502  1.00  0.00    -0.250 OA
BRANCH  28  30
ATOM     30  O   UNL     1       6.027  -2.153  -5.427  1.00  0.00    -0.480 OA
ATOM     31  H   UNL     1       6.417  -1.910  -4.562  1.00  0.00     0.296 HD
ENDBRANCH  28  30
ENDBRANCH  13  28
ENDBRANCH  11  13
ENDBRANCH   8  11
ENDBRANCH   6   7
BRANCH   6  32
ATOM     32  C   UNL     1      -0.445  -5.148  -5.045  1.00  0.00     0.037 C 
BRANCH  32  33
ATOM     33  C   UNL     1      -1.240  -6.145  -4.191  1.00  0.00     0.026 C 
BRANCH  33  34
ATOM     34  C   UNL     1      -0.701  -7.572  -4.303  1.00  0.00     0.146 C 
BRANCH  34  35
ATOM     35  N   UNL     1       0.379  -7.742  -3.340  1.00  0.00    -0.254 NA
ATOM     36  C   UNL     1       1.571  -7.906  -3.778  1.00  0.00     0.185 C 
ATOM     37  N   UNL     1       2.575  -8.059  -2.900  1.00  0.00    -0.370 N 
ATOM     38  N   UNL     1       2.006  -7.951  -5.050  1.00  0.00    -0.370 N 
ATOM     39  H   UNL     1       2.329  -8.026  -1.919  1.00  0.00     0.159 HD
ATOM     40  H   UNL     1       3.547  -8.018  -3.154  1.00  0.00     0.159 HD
ATOM     41  H   UNL     1       2.950  -8.225  -5.268  1.00  0.00     0.159 HD
ATOM     42  H   UNL     1       1.357  -7.866  -5.817  1.00  0.00     0.159 HD
ENDBRANCH  34  35
ENDBRANCH  33  34
ENDBRANCH  32  33
ENDBRANCH   6  32
ENDBRANCH   4   6
ENDBRANCH   1   2
BRANCH   1  43
ATOM     43  C   UNL     1       0.329  -5.342   0.360  1.00  0.00     0.102 C 
ATOM     44  C   UNL     1       1.288  -6.417  -0.178  1.00  0.00     0.020 C 
BRANCH  43  45
ATOM     45  C   UNL     1      -0.193  -5.626   1.772  1.00  0.00     0.225 C 
ATOM     46  O   UNL     1      -0.872  -4.827   2.410  1.00  0.00    -0.275 OA
ATOM     47  N   UNL     1       0.228  -6.811   2.332  1.00  0.00    -0.342 N 
ATOM     48  H   UNL     1       0.653  -7.517   1.748  1.00  0.00     0.164 HD
BRANCH  47  49
ATOM     49  C   UNL     1      -0.220  -7.231   3.663  1.00  0.00     0.192 C 
BRANCH  49  50
ATOM     50  C   UNL     1       0.921  -7.059   4.668  1.00  0.00     0.047 C 
BRANCH  50  51
ATOM     51  C   UNL     1       0.619  -5.977   5.713  1.00  0.00     0.103 C 
BRANCH  51  52
ATOM     52  C   UNL     1      -0.716  -6.215   6.416  1.00  0.00     0.226 C 
ATOM     53  O   UNL     1      -0.854  -7.197   7.147  1.00  0.00    -0.275 OA
BRANCH  52  54
ATOM     54  N   UNL     1      -1.704  -5.228   6.235  1.00  0.00    -0.311 N 
ATOM     55  C   UNL     1      -1.380  -3.802   6.366  1.00  0.00     0.153 C 
BRANCH  54  56
ATOM     56  C   UNL     1      -3.030  -5.569   5.919  1.00  0.00     0.102 C 
ATOM     57  C   UNL     1      -3.474  -5.864   4.687  1.00  0.00     0.043 C 
BRANCH  56  58
ATOM     58  C   UNL     1      -4.081  -5.674   6.999  1.00  0.00     0.268 C 
ATOM     59  O   UNL     1      -3.815  -5.701   8.193  1.00  0.00    -0.268 OA
ATOM     60  N   UNL     1      -5.364  -5.669   6.505  1.00  0.00    -0.339 N 
ATOM     61  H   UNL     1      -5.500  -5.655   5.501  1.00  0.00     0.164 HD
BRANCH  60  62
ATOM     62  C   UNL     1      -6.535  -5.700   7.380  1.00  0.00     0.168 CG0
ATOM     63  C   UNL     1      -7.147  -4.312   7.524  1.00  0.00     0.041 C 
ATOM     64  G   UNL     1      -6.136  -6.266   8.758  1.00  0.00     0.000 G0
ENDBRANCH  60  62
ENDBRANCH  56  58
ENDBRANCH  54  56
ENDBRANCH  52  54
ENDBRANCH  51  52
ENDBRANCH  50  51
ENDBRANCH  49  50
BRANCH  49  65
ATOM     65  C   UNL     1      -0.687  -8.695   3.668  1.00  0.00     0.326 C 
ATOM     66  O   UNL     1      -0.554  -9.487   2.746  1.00  0.00    -0.250 OA
BRANCH  65  67
ATOM     67  O   UNL     1      -1.342  -9.075   4.787  1.00  0.00    -0.480 OA
ATOM     68  H   UNL     1      -2.250  -8.727   4.653  1.00  0.00     0.296 HD
ENDBRANCH  65  67
ENDBRANCH  49  65
ENDBRANCH  47  49
ENDBRANCH  43  45
ENDBRANCH   1  43
BRANCH   1  69
ATOM     69  C   UNL     1      -2.025  -5.961  -0.681  1.00  0.00    -0.001 C 
ATOM     70  C   UNL     1      -3.254  -5.771  -0.169  1.00  0.00     0.001 C 
BRANCH  70  71
ATOM     71  C   UNL     1      -4.396  -6.683  -0.260  1.00  0.00    -0.055 C 
ATOM     72  C   UNL     1      -5.251  -6.725   0.783  1.00  0.00    -0.018 C 
ATOM     73  C   UNL     1      -4.540  -7.504  -1.515  1.00  0.00     0.044 C 
BRANCH  72  74
ATOM     74  C   UNL     1      -6.509  -7.563   0.965  1.00  0.00     0.038 C 
ATOM     75  C   UNL     1      -7.446  -6.778   1.891  1.00  0.00     0.015 C 
BRANCH  74  76
ATOM     76  C   UNL     1      -6.101  -8.971   1.490  1.00  0.00     0.128 C 
BRANCH  76  77
ATOM     77  O   UNL     1      -6.218  -9.013   2.922  1.00  0.00    -0.381 OA
ATOM     78  C   UNL     1      -6.844 -10.193   3.409  1.00  0.00     0.195 C 
ENDBRANCH  76  77
BRANCH  76  79
ATOM     79  C   UNL     1      -6.840 -10.141   0.793  1.00  0.00     0.068 C 
BRANCH  79  80
ATOM     80  C   UNL     1      -6.164 -10.803  -0.383  1.00  0.00    -0.045 A 
ATOM     81  C   UNL     1      -6.765 -10.813  -1.649  1.00  0.00     0.004 A 
ATOM     82  C   UNL     1      -4.929 -11.448  -0.218  1.00  0.00     0.004 A 
ATOM     83  C   UNL     1      -6.140 -11.440  -2.729  1.00  0.00     0.000 A 
ATOM     84  C   UNL     1      -4.305 -12.075  -1.299  1.00  0.00     0.000 A 
ATOM     85  C   UNL     1      -4.910 -12.070  -2.554  1.00  0.00     0.000 A 
ENDBRANCH  79  80
ENDBRANCH  76  79
ENDBRANCH  74  76
ENDBRANCH  72  74
ENDBRANCH  70  71
ENDBRANCH   1  69
TORSDOF 17
ENDMDL
