MODEL 1
REMARK VINA RESULT:    -8.093      0.000      0.000
REMARK INTER + INTRA:         -23.480
REMARK INTER:                 -20.158
REMARK INTRA:                  -3.321
REMARK UNBOUND:                -3.321
REMARK SMILES CCCCCCC[C@H](N)[C@H](O)C(=O)N[C@H](C)C(=O)N(C)[C@H](CC(C)C)C(=O)N[C@@H](Cc1ccc(O)cc1)C(=O)N[C@@H](Cc1ccc(O)cc1)C(=O)O
REMARK SMILES IDX 18 1 17 2 15 3 16 4 14 5 12 6 13 7 10 9 11 10 8 12 9 13 7 16
REMARK SMILES IDX 6 17 5 18 4 19 3 20 2 21 1 22 19 23 20 24 21 25 22 26 23 27
REMARK SMILES IDX 24 28 25 29 26 30 27 31 28 32 29 34 30 35 31 36 32 37 37 38
REMARK SMILES IDX 33 39 36 40 34 41 35 42 38 44 39 45 40 46 41 48 42 49 43 50
REMARK SMILES IDX 44 51 49 52 45 53 48 54 46 55 47 56 50 58 51 59 52 60
REMARK H PARENT 14 8 11 11 9 14 9 15 28 33 35 43 40 47 47 57 52 61
ROOT
ATOM      1  O   UNL     1       4.095  -3.136  -0.664  1.00  0.00    -0.272 OA
ATOM      2  C   UNL     1       3.371  -3.127  -1.671  1.00  0.00     0.245 C 
ENDROOT
BRANCH   2   3
ATOM      3  C   UNL     1       2.465  -1.896  -1.921  1.00  0.00     0.168 C 
ATOM      4  C   UNL     1       2.054  -1.249  -0.602  1.00  0.00     0.041 C 
BRANCH   3   5
ATOM      5  N   UNL     1       3.002  -0.922  -2.858  1.00  0.00    -0.342 N 
ATOM      6  C   UNL     1       4.098  -0.144  -2.551  1.00  0.00     0.251 C 
ATOM      7  O   UNL     1       4.671  -0.180  -1.468  1.00  0.00    -0.272 OA
ATOM      8  H   UNL     1       2.588  -0.776  -3.776  1.00  0.00     0.164 HD
BRANCH   6   9
ATOM      9  C   UNL     1       4.574   0.708  -3.739  1.00  0.00     0.219 C 
BRANCH   9  10
ATOM     10  O   UNL     1       4.410   2.113  -3.513  1.00  0.00    -0.382 OA
ATOM     11  H   UNL     1       3.638   2.161  -2.908  1.00  0.00     0.211 HD
ENDBRANCH   9  10
BRANCH   9  12
ATOM     12  C   UNL     1       6.027   0.386  -4.176  1.00  0.00     0.089 C 
BRANCH  12  13
ATOM     13  N   UNL     1       6.944   0.803  -3.091  1.00  0.00    -0.325 NA
ATOM     14  H   UNL     1       6.839   0.166  -2.299  1.00  0.00     0.119 HD
ATOM     15  H   UNL     1       6.648   1.716  -2.739  1.00  0.00     0.119 HD
ENDBRANCH  12  13
BRANCH  12  16
ATOM     16  C   UNL     1       6.306  -1.084  -4.572  1.00  0.00     0.022 C 
BRANCH  16  17
ATOM     17  C   UNL     1       6.867  -1.387  -5.968  1.00  0.00     0.002 C 
BRANCH  17  18
ATOM     18  C   UNL     1       6.922  -2.869  -6.333  1.00  0.00     0.000 C 
BRANCH  18  19
ATOM     19  C   UNL     1       6.077  -3.242  -7.559  1.00  0.00    -0.000 C 
BRANCH  19  20
ATOM     20  C   UNL     1       5.143  -4.440  -7.364  1.00  0.00    -0.000 C 
BRANCH  20  21
ATOM     21  C   UNL     1       5.836  -5.643  -6.719  1.00  0.00    -0.003 C 
ATOM     22  C   UNL     1       5.225  -6.953  -7.192  1.00  0.00     0.004 C 
ENDBRANCH  20  21
ENDBRANCH  19  20
ENDBRANCH  18  19
ENDBRANCH  17  18
ENDBRANCH  16  17
ENDBRANCH  12  16
ENDBRANCH   9  12
ENDBRANCH   6   9
ENDBRANCH   3   5
ENDBRANCH   2   3
BRANCH   2  23
ATOM     23  N   UNL     1       3.473  -4.148  -2.610  1.00  0.00    -0.332 N 
ATOM     24  C   UNL     1       4.173  -4.035  -3.880  1.00  0.00     0.147 C 
BRANCH  23  25
ATOM     25  C   UNL     1       2.956  -5.509  -2.298  1.00  0.00     0.174 C 
BRANCH  25  26
ATOM     26  C   UNL     1       2.617  -6.329  -3.565  1.00  0.00     0.038 C 
BRANCH  26  27
ATOM     27  C   UNL     1       3.494  -7.569  -3.852  1.00  0.00    -0.015 C 
ATOM     28  C   UNL     1       4.745  -7.615  -2.975  1.00  0.00     0.007 C 
ATOM     29  C   UNL     1       2.728  -8.887  -3.765  1.00  0.00     0.007 C 
ENDBRANCH  26  27
ENDBRANCH  25  26
BRANCH  25  30
ATOM     30  C   UNL     1       1.789  -5.416  -1.288  1.00  0.00     0.243 C 
ATOM     31  O   UNL     1       1.949  -5.641  -0.089  1.00  0.00    -0.273 OA
ATOM     32  N   UNL     1       0.571  -5.075  -1.817  1.00  0.00    -0.342 N 
ATOM     33  H   UNL     1       0.548  -4.767  -2.793  1.00  0.00     0.164 HD
BRANCH  32  34
ATOM     34  C   UNL     1      -0.650  -4.967  -1.014  1.00  0.00     0.175 C 
BRANCH  34  35
ATOM     35  C   UNL     1      -0.767  -3.582  -0.359  1.00  0.00     0.070 C 
BRANCH  35  36
ATOM     36  C   UNL     1      -0.851  -3.654   1.149  1.00  0.00    -0.045 A 
ATOM     37  C   UNL     1      -0.923  -4.901   1.789  1.00  0.00     0.007 A 
ATOM     38  C   UNL     1      -0.880  -2.487   1.924  1.00  0.00     0.007 A 
ATOM     39  C   UNL     1      -1.015  -4.977   3.179  1.00  0.00     0.046 A 
ATOM     40  C   UNL     1      -0.973  -2.562   3.316  1.00  0.00     0.046 A 
ATOM     41  C   UNL     1      -1.038  -3.808   3.931  1.00  0.00     0.115 A 
BRANCH  41  42
ATOM     42  O   UNL     1      -1.132  -3.926   5.286  1.00  0.00    -0.508 OA
ATOM     43  H   UNL     1      -0.441  -3.373   5.688  1.00  0.00     0.293 HD
ENDBRANCH  41  42
ENDBRANCH  35  36
ENDBRANCH  34  35
BRANCH  34  44
ATOM     44  C   UNL     1      -1.855  -5.276  -1.931  1.00  0.00     0.243 C 
ATOM     45  O   UNL     1      -2.552  -4.422  -2.472  1.00  0.00    -0.273 OA
ATOM     46  N   UNL     1      -2.169  -6.617  -1.992  1.00  0.00    -0.341 N 
ATOM     47  H   UNL     1      -1.633  -7.276  -1.432  1.00  0.00     0.164 HD
BRANCH  46  48
ATOM     48  C   UNL     1      -3.311  -7.144  -2.742  1.00  0.00     0.196 C 
BRANCH  48  49
ATOM     49  C   UNL     1      -2.851  -8.002  -3.932  1.00  0.00     0.072 C 
BRANCH  49  50
ATOM     50  C   UNL     1      -3.538  -7.621  -5.224  1.00  0.00    -0.045 A 
ATOM     51  C   UNL     1      -4.415  -8.524  -5.842  1.00  0.00     0.007 A 
ATOM     52  C   UNL     1      -3.297  -6.382  -5.830  1.00  0.00     0.007 A 
ATOM     53  C   UNL     1      -5.044  -8.189  -7.041  1.00  0.00     0.046 A 
ATOM     54  C   UNL     1      -3.926  -6.047  -7.031  1.00  0.00     0.046 A 
ATOM     55  C   UNL     1      -4.796  -6.954  -7.626  1.00  0.00     0.115 A 
BRANCH  55  56
ATOM     56  O   UNL     1      -5.430  -6.665  -8.799  1.00  0.00    -0.508 OA
ATOM     57  H   UNL     1      -4.792  -6.242  -9.395  1.00  0.00     0.293 HD
ENDBRANCH  55  56
ENDBRANCH  49  50
ENDBRANCH  48  49
BRANCH  48  58
ATOM     58  C   UNL     1      -4.179  -7.992  -1.801  1.00  0.00     0.326 C 
ATOM     59  O   UNL     1      -4.899  -8.929  -2.104  1.00  0.00    -0.250 OA
BRANCH  58  60
ATOM     60  O   UNL     1      -4.084  -7.622  -0.499  1.00  0.00    -0.480 OA
ATOM     61  H   UNL     1      -3.130  -7.735  -0.300  1.00  0.00     0.296 HD
ENDBRANCH  58  60
ENDBRANCH  48  58
ENDBRANCH  46  48
ENDBRANCH  34  44
ENDBRANCH  32  34
ENDBRANCH  25  30
ENDBRANCH  23  25
ENDBRANCH   2  23
TORSDOF 28
ENDMDL
MODEL 2
REMARK VINA RESULT:    -7.808      1.935      3.576
REMARK INTER + INTRA:         -22.768
REMARK INTER:                 -18.826
REMARK INTRA:                  -3.941
REMARK UNBOUND:                -3.321
REMARK SMILES CCCCCCC[C@H](N)[C@H](O)C(=O)N[C@H](C)C(=O)N(C)[C@H](CC(C)C)C(=O)N[C@@H](Cc1ccc(O)cc1)C(=O)N[C@@H](Cc1ccc(O)cc1)C(=O)O
REMARK SMILES IDX 18 1 17 2 15 3 16 4 14 5 12 6 13 7 10 9 11 10 8 12 9 13 7 16
REMARK SMILES IDX 6 17 5 18 4 19 3 20 2 21 1 22 19 23 20 24 21 25 22 26 23 27
REMARK SMILES IDX 24 28 25 29 26 30 27 31 28 32 29 34 30 35 31 36 32 37 37 38
REMARK SMILES IDX 33 39 36 40 34 41 35 42 38 44 39 45 40 46 41 48 42 49 43 50
REMARK SMILES IDX 44 51 49 52 45 53 48 54 46 55 47 56 50 58 51 59 52 60
REMARK H PARENT 14 8 11 11 9 14 9 15 28 33 35 43 40 47 47 57 52 61
ROOT
ATOM      1  O   UNL     1       5.548  -5.605  -0.215  1.00  0.00    -0.272 OA
ATOM      2  C   UNL     1       5.226  -5.428  -1.399  1.00  0.00     0.245 C 
ENDROOT
BRANCH   2   3
ATOM      3  C   UNL     1       6.184  -5.924  -2.510  1.00  0.00     0.168 C 
ATOM      4  C   UNL     1       6.051  -7.430  -2.707  1.00  0.00     0.041 C 
BRANCH   3   5
ATOM      5  N   UNL     1       6.086  -5.202  -3.769  1.00  0.00    -0.342 N 
ATOM      6  C   UNL     1       7.123  -4.430  -4.248  1.00  0.00     0.251 C 
ATOM      7  O   UNL     1       8.176  -4.260  -3.642  1.00  0.00    -0.272 OA
ATOM      8  H   UNL     1       5.247  -5.238  -4.344  1.00  0.00     0.164 HD
BRANCH   6   9
ATOM      9  C   UNL     1       6.852  -3.879  -5.657  1.00  0.00     0.219 C 
BRANCH   9  10
ATOM     10  O   UNL     1       6.486  -4.902  -6.590  1.00  0.00    -0.382 OA
ATOM     11  H   UNL     1       6.907  -5.710  -6.223  1.00  0.00     0.211 HD
ENDBRANCH   9  10
BRANCH   9  12
ATOM     12  C   UNL     1       5.815  -2.725  -5.670  1.00  0.00     0.089 C 
BRANCH  12  13
ATOM     13  N   UNL     1       4.467  -3.310  -5.846  1.00  0.00    -0.325 NA
ATOM     14  H   UNL     1       4.497  -4.003  -6.596  1.00  0.00     0.119 HD
ATOM     15  H   UNL     1       3.831  -2.582  -6.181  1.00  0.00     0.119 HD
ENDBRANCH  12  13
BRANCH  12  16
ATOM     16  C   UNL     1       5.831  -1.785  -4.441  1.00  0.00     0.022 C 
BRANCH  16  17
ATOM     17  C   UNL     1       5.832  -0.266  -4.661  1.00  0.00     0.002 C 
BRANCH  17  18
ATOM     18  C   UNL     1       4.457   0.395  -4.601  1.00  0.00     0.000 C 
BRANCH  18  19
ATOM     19  C   UNL     1       4.172   1.124  -3.282  1.00  0.00    -0.000 C 
BRANCH  19  20
ATOM     20  C   UNL     1       3.936   0.214  -2.074  1.00  0.00    -0.000 C 
BRANCH  20  21
ATOM     21  C   UNL     1       2.610   0.494  -1.361  1.00  0.00    -0.003 C 
ATOM     22  C   UNL     1       1.473  -0.316  -1.965  1.00  0.00     0.004 C 
ENDBRANCH  20  21
ENDBRANCH  19  20
ENDBRANCH  18  19
ENDBRANCH  17  18
ENDBRANCH  16  17
ENDBRANCH  12  16
ENDBRANCH   9  12
ENDBRANCH   6   9
ENDBRANCH   3   5
ENDBRANCH   2   3
BRANCH   2  23
ATOM     23  N   UNL     1       3.974  -4.907  -1.708  1.00  0.00    -0.332 N 
ATOM     24  C   UNL     1       3.671  -3.487  -1.804  1.00  0.00     0.147 C 
BRANCH  23  25
ATOM     25  C   UNL     1       2.858  -5.813  -2.097  1.00  0.00     0.174 C 
BRANCH  25  26
ATOM     26  C   UNL     1       2.449  -5.661  -3.581  1.00  0.00     0.038 C 
BRANCH  26  27
ATOM     27  C   UNL     1       2.165  -6.961  -4.366  1.00  0.00    -0.015 C 
ATOM     28  C   UNL     1       2.790  -6.949  -5.761  1.00  0.00     0.007 C 
ATOM     29  C   UNL     1       2.562  -8.226  -3.610  1.00  0.00     0.007 C 
ENDBRANCH  26  27
ENDBRANCH  25  26
BRANCH  25  30
ATOM     30  C   UNL     1       1.680  -5.662  -1.108  1.00  0.00     0.243 C 
ATOM     31  O   UNL     1       1.799  -5.919   0.089  1.00  0.00    -0.273 OA
ATOM     32  N   UNL     1       0.499  -5.230  -1.655  1.00  0.00    -0.342 N 
ATOM     33  H   UNL     1       0.517  -4.903  -2.624  1.00  0.00     0.164 HD
BRANCH  32  34
ATOM     34  C   UNL     1      -0.729  -5.055  -0.874  1.00  0.00     0.175 C 
BRANCH  34  35
ATOM     35  C   UNL     1      -0.787  -3.663  -0.228  1.00  0.00     0.070 C 
BRANCH  35  36
ATOM     36  C   UNL     1      -0.878  -3.721   1.280  1.00  0.00    -0.045 A 
ATOM     37  C   UNL     1      -0.899  -2.534   2.028  1.00  0.00     0.007 A 
ATOM     38  C   UNL     1      -0.919  -4.950   1.951  1.00  0.00     0.007 A 
ATOM     39  C   UNL     1      -0.968  -2.578   3.421  1.00  0.00     0.046 A 
ATOM     40  C   UNL     1      -0.987  -4.995   3.346  1.00  0.00     0.046 A 
ATOM     41  C   UNL     1      -1.012  -3.807   4.068  1.00  0.00     0.115 A 
BRANCH  41  42
ATOM     42  O   UNL     1      -1.077  -3.806   5.430  1.00  0.00    -0.508 OA
ATOM     43  H   UNL     1      -0.195  -3.589   5.777  1.00  0.00     0.293 HD
ENDBRANCH  41  42
ENDBRANCH  35  36
ENDBRANCH  34  35
BRANCH  34  44
ATOM     44  C   UNL     1      -1.932  -5.308  -1.811  1.00  0.00     0.243 C 
ATOM     45  O   UNL     1      -2.595  -4.422  -2.343  1.00  0.00    -0.273 OA
ATOM     46  N   UNL     1      -2.289  -6.637  -1.900  1.00  0.00    -0.341 N 
ATOM     47  H   UNL     1      -1.781  -7.323  -1.347  1.00  0.00     0.164 HD
BRANCH  46  48
ATOM     48  C   UNL     1      -3.438  -7.113  -2.674  1.00  0.00     0.196 C 
BRANCH  48  49
ATOM     49  C   UNL     1      -2.995  -8.022  -3.832  1.00  0.00     0.072 C 
BRANCH  49  50
ATOM     50  C   UNL     1      -3.612  -7.623  -5.154  1.00  0.00    -0.045 A 
ATOM     51  C   UNL     1      -4.299  -8.575  -5.921  1.00  0.00     0.007 A 
ATOM     52  C   UNL     1      -3.491  -6.315  -5.640  1.00  0.00     0.007 A 
ATOM     53  C   UNL     1      -4.861  -8.222  -7.147  1.00  0.00     0.046 A 
ATOM     54  C   UNL     1      -4.053  -5.961  -6.869  1.00  0.00     0.046 A 
ATOM     55  C   UNL     1      -4.734  -6.918  -7.612  1.00  0.00     0.115 A 
BRANCH  55  56
ATOM     56  O   UNL     1      -5.296  -6.614  -8.817  1.00  0.00    -0.508 OA
ATOM     57  H   UNL     1      -4.928  -5.769  -9.121  1.00  0.00     0.293 HD
ENDBRANCH  55  56
ENDBRANCH  49  50
ENDBRANCH  48  49
BRANCH  48  58
ATOM     58  C   UNL     1      -4.380  -7.887  -1.742  1.00  0.00     0.326 C 
ATOM     59  O   UNL     1      -4.118  -8.882  -1.086  1.00  0.00    -0.250 OA
BRANCH  58  60
ATOM     60  O   UNL     1      -5.626  -7.355  -1.668  1.00  0.00    -0.480 OA
ATOM     61  H   UNL     1      -6.168  -8.095  -1.319  1.00  0.00     0.296 HD
ENDBRANCH  58  60
ENDBRANCH  48  58
ENDBRANCH  46  48
ENDBRANCH  34  44
ENDBRANCH  32  34
ENDBRANCH  25  30
ENDBRANCH  23  25
ENDBRANCH   2  23
TORSDOF 28
ENDMDL
MODEL 3
REMARK VINA RESULT:    -7.531      2.138      4.098
REMARK INTER + INTRA:         -22.080
REMARK INTER:                 -17.949
REMARK INTRA:                  -4.131
REMARK UNBOUND:                -3.321
REMARK SMILES CCCCCCC[C@H](N)[C@H](O)C(=O)N[C@H](C)C(=O)N(C)[C@H](CC(C)C)C(=O)N[C@@H](Cc1ccc(O)cc1)C(=O)N[C@@H](Cc1ccc(O)cc1)C(=O)O
REMARK SMILES IDX 18 1 17 2 15 3 16 4 14 5 12 6 13 7 10 9 11 10 8 12 9 13 7 16
REMARK SMILES IDX 6 17 5 18 4 19 3 20 2 21 1 22 19 23 20 24 21 25 22 26 23 27
REMARK SMILES IDX 24 28 25 29 26 30 27 31 28 32 29 34 30 35 31 36 32 37 37 38
REMARK SMILES IDX 33 39 36 40 34 41 35 42 38 44 39 45 40 46 41 48 42 49 43 50
REMARK SMILES IDX 44 51 49 52 45 53 48 54 46 55 47 56 50 58 51 59 52 60
REMARK H PARENT 14 8 11 11 9 14 9 15 28 33 35 43 40 47 47 57 52 61
ROOT
ATOM      1  O   UNL     1       5.451  -7.287  -3.949  1.00  0.00    -0.272 OA
ATOM      2  C   UNL     1       4.551  -6.435  -3.929  1.00  0.00     0.245 C 
ENDROOT
BRANCH   2   3
ATOM      3  C   UNL     1       4.618  -5.311  -2.865  1.00  0.00     0.168 C 
ATOM      4  C   UNL     1       4.724  -5.899  -1.462  1.00  0.00     0.041 C 
BRANCH   3   5
ATOM      5  N   UNL     1       5.635  -4.300  -3.108  1.00  0.00    -0.342 N 
ATOM      6  C   UNL     1       5.336  -3.096  -3.710  1.00  0.00     0.251 C 
ATOM      7  O   UNL     1       4.218  -2.804  -4.120  1.00  0.00    -0.272 OA
ATOM      8  H   UNL     1       6.607  -4.443  -2.843  1.00  0.00     0.164 HD
BRANCH   6   9
ATOM      9  C   UNL     1       6.532  -2.130  -3.734  1.00  0.00     0.219 C 
BRANCH   9  10
ATOM     10  O   UNL     1       7.423  -2.381  -4.827  1.00  0.00    -0.382 OA
ATOM     11  H   UNL     1       8.059  -3.034  -4.461  1.00  0.00     0.211 HD
ENDBRANCH   9  10
BRANCH   9  12
ATOM     12  C   UNL     1       6.110  -0.638  -3.698  1.00  0.00     0.089 C 
BRANCH  12  13
ATOM     13  N   UNL     1       5.074  -0.420  -4.734  1.00  0.00    -0.325 NA
ATOM     14  H   UNL     1       4.439   0.318  -4.424  1.00  0.00     0.119 HD
ATOM     15  H   UNL     1       4.494  -1.260  -4.804  1.00  0.00     0.119 HD
ENDBRANCH  12  13
BRANCH  12  16
ATOM     16  C   UNL     1       5.615  -0.106  -2.332  1.00  0.00     0.022 C 
BRANCH  16  17
ATOM     17  C   UNL     1       4.235  -0.537  -1.818  1.00  0.00     0.002 C 
BRANCH  17  18
ATOM     18  C   UNL     1       3.129   0.502  -1.993  1.00  0.00     0.000 C 
BRANCH  18  19
ATOM     19  C   UNL     1       1.715  -0.044  -1.748  1.00  0.00    -0.000 C 
BRANCH  19  20
ATOM     20  C   UNL     1       1.010   0.513  -0.509  1.00  0.00    -0.000 C 
BRANCH  20  21
ATOM     21  C   UNL     1       0.259  -0.560   0.286  1.00  0.00    -0.003 C 
ATOM     22  C   UNL     1      -1.230  -0.258   0.356  1.00  0.00     0.004 C 
ENDBRANCH  20  21
ENDBRANCH  19  20
ENDBRANCH  18  19
ENDBRANCH  17  18
ENDBRANCH  16  17
ENDBRANCH  12  16
ENDBRANCH   9  12
ENDBRANCH   6   9
ENDBRANCH   3   5
ENDBRANCH   2   3
BRANCH   2  23
ATOM     23  N   UNL     1       3.577  -6.428  -4.923  1.00  0.00    -0.332 N 
ATOM     24  C   UNL     1       3.492  -5.441  -5.988  1.00  0.00     0.147 C 
BRANCH  23  25
ATOM     25  C   UNL     1       2.603  -7.549  -5.027  1.00  0.00     0.174 C 
BRANCH  25  26
ATOM     26  C   UNL     1       1.781  -7.512  -6.337  1.00  0.00     0.038 C 
BRANCH  26  27
ATOM     27  C   UNL     1       0.249  -7.366  -6.198  1.00  0.00    -0.015 C 
ATOM     28  C   UNL     1      -0.316  -6.260  -7.090  1.00  0.00     0.007 C 
ATOM     29  C   UNL     1      -0.508  -8.673  -6.417  1.00  0.00     0.007 C 
ENDBRANCH  26  27
ENDBRANCH  25  26
BRANCH  25  30
ATOM     30  C   UNL     1       1.735  -7.621  -3.750  1.00  0.00     0.243 C 
ATOM     31  O   UNL     1       1.368  -8.694  -3.274  1.00  0.00    -0.273 OA
ATOM     32  N   UNL     1       1.400  -6.414  -3.192  1.00  0.00    -0.342 N 
ATOM     33  H   UNL     1       1.858  -5.578  -3.562  1.00  0.00     0.164 HD
BRANCH  32  34
ATOM     34  C   UNL     1       0.561  -6.289  -1.997  1.00  0.00     0.175 C 
BRANCH  34  35
ATOM     35  C   UNL     1       1.010  -5.109  -1.121  1.00  0.00     0.070 C 
BRANCH  35  36
ATOM     36  C   UNL     1       0.488  -5.201   0.296  1.00  0.00    -0.045 A 
ATOM     37  C   UNL     1       0.562  -6.417   0.993  1.00  0.00     0.007 A 
ATOM     38  C   UNL     1      -0.093  -4.091   0.921  1.00  0.00     0.007 A 
ATOM     39  C   UNL     1       0.071  -6.515   2.295  1.00  0.00     0.046 A 
ATOM     40  C   UNL     1      -0.586  -4.188   2.225  1.00  0.00     0.046 A 
ATOM     41  C   UNL     1      -0.498  -5.401   2.901  1.00  0.00     0.115 A 
BRANCH  41  42
ATOM     42  O   UNL     1      -0.968  -5.540   4.173  1.00  0.00    -0.508 OA
ATOM     43  H   UNL     1      -0.447  -4.962   4.755  1.00  0.00     0.293 HD
ENDBRANCH  41  42
ENDBRANCH  35  36
ENDBRANCH  34  35
BRANCH  34  44
ATOM     44  C   UNL     1      -0.907  -6.143  -2.455  1.00  0.00     0.243 C 
ATOM     45  O   UNL     1      -1.465  -5.069  -2.665  1.00  0.00    -0.273 OA
ATOM     46  N   UNL     1      -1.594  -7.338  -2.485  1.00  0.00    -0.341 N 
ATOM     47  H   UNL     1      -1.120  -8.188  -2.190  1.00  0.00     0.164 HD
BRANCH  46  48
ATOM     48  C   UNL     1      -3.016  -7.442  -2.823  1.00  0.00     0.196 C 
BRANCH  48  49
ATOM     49  C   UNL     1      -3.261  -8.528  -3.884  1.00  0.00     0.072 C 
BRANCH  49  50
ATOM     50  C   UNL     1      -3.780  -7.962  -5.187  1.00  0.00    -0.045 A 
ATOM     51  C   UNL     1      -4.434  -8.800  -6.102  1.00  0.00     0.007 A 
ATOM     52  C   UNL     1      -3.601  -6.611  -5.508  1.00  0.00     0.007 A 
ATOM     53  C   UNL     1      -4.905  -8.292  -7.312  1.00  0.00     0.046 A 
ATOM     54  C   UNL     1      -4.072  -6.102  -6.720  1.00  0.00     0.046 A 
ATOM     55  C   UNL     1      -4.722  -6.948  -7.612  1.00  0.00     0.115 A 
BRANCH  55  56
ATOM     56  O   UNL     1      -5.196  -6.492  -8.807  1.00  0.00    -0.508 OA
ATOM     57  H   UNL     1      -4.635  -6.847  -9.514  1.00  0.00     0.293 HD
ENDBRANCH  55  56
ENDBRANCH  49  50
ENDBRANCH  48  49
BRANCH  48  58
ATOM     58  C   UNL     1      -3.808  -7.776  -1.552  1.00  0.00     0.326 C 
ATOM     59  O   UNL     1      -3.388  -8.315  -0.540  1.00  0.00    -0.250 OA
BRANCH  58  60
ATOM     60  O   UNL     1      -5.109  -7.397  -1.609  1.00  0.00    -0.480 OA
ATOM     61  H   UNL     1      -5.059  -6.465  -1.915  1.00  0.00     0.296 HD
ENDBRANCH  58  60
ENDBRANCH  48  58
ENDBRANCH  46  48
ENDBRANCH  34  44
ENDBRANCH  32  34
ENDBRANCH  25  30
ENDBRANCH  23  25
ENDBRANCH   2  23
TORSDOF 28
ENDMDL
MODEL 4
REMARK VINA RESULT:    -7.474     19.742     23.524
REMARK INTER + INTRA:         -21.937
REMARK INTER:                 -18.353
REMARK INTRA:                  -3.584
REMARK UNBOUND:                -3.321
REMARK SMILES CCCCCCC[C@H](N)[C@H](O)C(=O)N[C@H](C)C(=O)N(C)[C@H](CC(C)C)C(=O)N[C@@H](Cc1ccc(O)cc1)C(=O)N[C@@H](Cc1ccc(O)cc1)C(=O)O
REMARK SMILES IDX 18 1 17 2 15 3 16 4 14 5 12 6 13 7 10 9 11 10 8 12 9 13 7 16
REMARK SMILES IDX 6 17 5 18 4 19 3 20 2 21 1 22 19 23 20 24 21 25 22 26 23 27
REMARK SMILES IDX 24 28 25 29 26 30 27 31 28 32 29 34 30 35 31 36 32 37 37 38
REMARK SMILES IDX 33 39 36 40 34 41 35 42 38 44 39 45 40 46 41 48 42 49 43 50
REMARK SMILES IDX 44 51 49 52 45 53 48 54 46 55 47 56 50 58 51 59 52 60
REMARK H PARENT 14 8 11 11 9 14 9 15 28 33 35 43 40 47 47 57 52 61
ROOT
ATOM      1  O   UNL     1     -16.674   6.228  -3.958  1.00  0.00    -0.272 OA
ATOM      2  C   UNL     1     -17.794   5.765  -3.697  1.00  0.00     0.245 C 
ENDROOT
BRANCH   2   3
ATOM      3  C   UNL     1     -18.001   4.232  -3.786  1.00  0.00     0.168 C 
ATOM      4  C   UNL     1     -17.248   3.653  -4.979  1.00  0.00     0.041 C 
BRANCH   3   5
ATOM      5  N   UNL     1     -17.715   3.505  -2.559  1.00  0.00    -0.342 N 
ATOM      6  C   UNL     1     -18.191   2.229  -2.342  1.00  0.00     0.251 C 
ATOM      7  O   UNL     1     -18.915   1.633  -3.133  1.00  0.00    -0.272 OA
ATOM      8  H   UNL     1     -17.154   3.910  -1.814  1.00  0.00     0.164 HD
BRANCH   6   9
ATOM      9  C   UNL     1     -17.648   1.604  -1.046  1.00  0.00     0.219 C 
BRANCH   9  10
ATOM     10  O   UNL     1     -18.680   1.027  -0.237  1.00  0.00    -0.382 OA
ATOM     11  H   UNL     1     -18.953   1.765   0.351  1.00  0.00     0.211 HD
ENDBRANCH   9  10
BRANCH   9  12
ATOM     12  C   UNL     1     -16.506   0.584  -1.294  1.00  0.00     0.089 C 
BRANCH  12  13
ATOM     13  N   UNL     1     -15.880   0.892  -2.600  1.00  0.00    -0.325 NA
ATOM     14  H   UNL     1     -14.978   0.417  -2.660  1.00  0.00     0.119 HD
ATOM     15  H   UNL     1     -15.659   1.890  -2.634  1.00  0.00     0.119 HD
ENDBRANCH  12  13
BRANCH  12  16
ATOM     16  C   UNL     1     -15.423   0.499  -0.192  1.00  0.00     0.022 C 
BRANCH  16  17
ATOM     17  C   UNL     1     -15.664   1.206   1.149  1.00  0.00     0.002 C 
BRANCH  17  18
ATOM     18  C   UNL     1     -15.675   0.287   2.369  1.00  0.00     0.000 C 
BRANCH  18  19
ATOM     19  C   UNL     1     -14.701  -0.894   2.270  1.00  0.00    -0.000 C 
BRANCH  19  20
ATOM     20  C   UNL     1     -14.946  -2.024   3.275  1.00  0.00    -0.000 C 
BRANCH  20  21
ATOM     21  C   UNL     1     -15.984  -1.664   4.340  1.00  0.00    -0.003 C 
ATOM     22  C   UNL     1     -15.329  -1.407   5.689  1.00  0.00     0.004 C 
ENDBRANCH  20  21
ENDBRANCH  19  20
ENDBRANCH  18  19
ENDBRANCH  17  18
ENDBRANCH  16  17
ENDBRANCH  12  16
ENDBRANCH   9  12
ENDBRANCH   6   9
ENDBRANCH   3   5
ENDBRANCH   2   3
BRANCH   2  23
ATOM     23  N   UNL     1     -18.797   6.599  -3.216  1.00  0.00    -0.332 N 
ATOM     24  C   UNL     1     -20.210   6.255  -3.179  1.00  0.00     0.147 C 
BRANCH  23  25
ATOM     25  C   UNL     1     -18.451   7.896  -2.571  1.00  0.00     0.174 C 
BRANCH  25  26
ATOM     26  C   UNL     1     -19.301   8.188  -1.313  1.00  0.00     0.038 C 
BRANCH  26  27
ATOM     27  C   UNL     1     -18.632   7.942   0.058  1.00  0.00    -0.015 C 
ATOM     28  C   UNL     1     -17.149   7.594  -0.070  1.00  0.00     0.007 C 
ATOM     29  C   UNL     1     -18.832   9.088   1.046  1.00  0.00     0.007 C 
ENDBRANCH  26  27
ENDBRANCH  25  26
BRANCH  25  30
ATOM     30  C   UNL     1     -18.475   9.034  -3.616  1.00  0.00     0.243 C 
ATOM     31  O   UNL     1     -19.459   9.244  -4.325  1.00  0.00    -0.273 OA
ATOM     32  N   UNL     1     -17.331   9.785  -3.704  1.00  0.00    -0.342 N 
ATOM     33  H   UNL     1     -16.615   9.641  -2.988  1.00  0.00     0.164 HD
BRANCH  32  34
ATOM     34  C   UNL     1     -17.165  10.886  -4.656  1.00  0.00     0.175 C 
BRANCH  34  35
ATOM     35  C   UNL     1     -16.644  12.153  -3.960  1.00  0.00     0.070 C 
BRANCH  35  36
ATOM     36  C   UNL     1     -17.750  12.976  -3.339  1.00  0.00    -0.045 A 
ATOM     37  C   UNL     1     -19.077  12.800  -3.760  1.00  0.00     0.007 A 
ATOM     38  C   UNL     1     -17.467  13.936  -2.359  1.00  0.00     0.007 A 
ATOM     39  C   UNL     1     -20.102  13.564  -3.202  1.00  0.00     0.046 A 
ATOM     40  C   UNL     1     -18.493  14.704  -1.802  1.00  0.00     0.046 A 
ATOM     41  C   UNL     1     -19.803  14.509  -2.228  1.00  0.00     0.115 A 
BRANCH  41  42
ATOM     42  O   UNL     1     -20.833  15.238  -1.711  1.00  0.00    -0.508 OA
ATOM     43  H   UNL     1     -21.395  14.642  -1.188  1.00  0.00     0.293 HD
ENDBRANCH  41  42
ENDBRANCH  35  36
ENDBRANCH  34  35
BRANCH  34  44
ATOM     44  C   UNL     1     -16.214  10.410  -5.777  1.00  0.00     0.243 C 
ATOM     45  O   UNL     1     -16.532  10.306  -6.959  1.00  0.00    -0.273 OA
ATOM     46  N   UNL     1     -14.990   9.980  -5.312  1.00  0.00    -0.341 N 
ATOM     47  H   UNL     1     -14.815   9.976  -4.310  1.00  0.00     0.164 HD
BRANCH  46  48
ATOM     48  C   UNL     1     -13.949   9.422  -6.179  1.00  0.00     0.196 C 
BRANCH  48  49
ATOM     49  C   UNL     1     -12.576  10.043  -5.877  1.00  0.00     0.072 C 
BRANCH  49  50
ATOM     50  C   UNL     1     -12.651  11.535  -5.643  1.00  0.00    -0.045 A 
ATOM     51  C   UNL     1     -12.305  12.065  -4.391  1.00  0.00     0.007 A 
ATOM     52  C   UNL     1     -13.082  12.402  -6.655  1.00  0.00     0.007 A 
ATOM     53  C   UNL     1     -12.383  13.439  -4.160  1.00  0.00     0.046 A 
ATOM     54  C   UNL     1     -13.161  13.777  -6.423  1.00  0.00     0.046 A 
ATOM     55  C   UNL     1     -12.810  14.284  -5.177  1.00  0.00     0.115 A 
BRANCH  55  56
ATOM     56  O   UNL     1     -12.874  15.620  -4.910  1.00  0.00    -0.508 OA
ATOM     57  H   UNL     1     -12.273  16.082  -5.516  1.00  0.00     0.293 HD
ENDBRANCH  55  56
ENDBRANCH  49  50
ENDBRANCH  48  49
BRANCH  48  58
ATOM     58  C   UNL     1     -13.885   7.903  -5.968  1.00  0.00     0.326 C 
ATOM     59  O   UNL     1     -13.396   7.073  -6.716  1.00  0.00    -0.250 OA
BRANCH  58  60
ATOM     60  O   UNL     1     -14.436   7.495  -4.797  1.00  0.00    -0.480 OA
ATOM     61  H   UNL     1     -13.753   7.729  -4.132  1.00  0.00     0.296 HD
ENDBRANCH  58  60
ENDBRANCH  48  58
ENDBRANCH  46  48
ENDBRANCH  34  44
ENDBRANCH  32  34
ENDBRANCH  25  30
ENDBRANCH  23  25
ENDBRANCH   2  23
TORSDOF 28
ENDMDL
MODEL 5
REMARK VINA RESULT:    -7.405      2.187      3.009
REMARK INTER + INTRA:         -21.766
REMARK INTER:                 -17.463
REMARK INTRA:                  -4.302
REMARK UNBOUND:                -3.321
REMARK SMILES CCCCCCC[C@H](N)[C@H](O)C(=O)N[C@H](C)C(=O)N(C)[C@H](CC(C)C)C(=O)N[C@@H](Cc1ccc(O)cc1)C(=O)N[C@@H](Cc1ccc(O)cc1)C(=O)O
REMARK SMILES IDX 18 1 17 2 15 3 16 4 14 5 12 6 13 7 10 9 11 10 8 12 9 13 7 16
REMARK SMILES IDX 6 17 5 18 4 19 3 20 2 21 1 22 19 23 20 24 21 25 22 26 23 27
REMARK SMILES IDX 24 28 25 29 26 30 27 31 28 32 29 34 30 35 31 36 32 37 37 38
REMARK SMILES IDX 33 39 36 40 34 41 35 42 38 44 39 45 40 46 41 48 42 49 43 50
REMARK SMILES IDX 44 51 49 52 45 53 48 54 46 55 47 56 50 58 51 59 52 60
REMARK H PARENT 14 8 11 11 9 14 9 15 28 33 35 43 40 47 47 57 52 61
ROOT
ATOM      1  O   UNL     1       5.301  -7.092  -3.984  1.00  0.00    -0.272 OA
ATOM      2  C   UNL     1       4.331  -6.320  -3.951  1.00  0.00     0.245 C 
ENDROOT
BRANCH   2   3
ATOM      3  C   UNL     1       4.345  -5.155  -2.930  1.00  0.00     0.168 C 
ATOM      4  C   UNL     1       4.558  -5.678  -1.514  1.00  0.00     0.041 C 
BRANCH   3   5
ATOM      5  N   UNL     1       5.261  -4.072  -3.252  1.00  0.00    -0.342 N 
ATOM      6  C   UNL     1       4.844  -2.759  -3.313  1.00  0.00     0.251 C 
ATOM      7  O   UNL     1       3.680  -2.411  -3.145  1.00  0.00    -0.272 OA
ATOM      8  H   UNL     1       6.245  -4.241  -3.445  1.00  0.00     0.164 HD
BRANCH   6   9
ATOM      9  C   UNL     1       6.005  -1.775  -3.526  1.00  0.00     0.219 C 
BRANCH   9  10
ATOM     10  O   UNL     1       6.914  -1.744  -2.419  1.00  0.00    -0.382 OA
ATOM     11  H   UNL     1       7.030  -2.692  -2.189  1.00  0.00     0.211 HD
ENDBRANCH   9  10
BRANCH   9  12
ATOM     12  C   UNL     1       6.766  -2.011  -4.857  1.00  0.00     0.089 C 
BRANCH  12  13
ATOM     13  N   UNL     1       7.627  -3.206  -4.697  1.00  0.00    -0.325 NA
ATOM     14  H   UNL     1       8.535  -3.026  -5.130  1.00  0.00     0.119 HD
ATOM     15  H   UNL     1       7.224  -3.978  -5.234  1.00  0.00     0.119 HD
ENDBRANCH  12  13
BRANCH  12  16
ATOM     16  C   UNL     1       5.889  -2.154  -6.124  1.00  0.00     0.022 C 
BRANCH  16  17
ATOM     17  C   UNL     1       5.833  -3.507  -6.846  1.00  0.00     0.002 C 
BRANCH  17  18
ATOM     18  C   UNL     1       6.639  -3.581  -8.141  1.00  0.00     0.000 C 
BRANCH  18  19
ATOM     19  C   UNL     1       7.860  -4.508  -8.065  1.00  0.00    -0.000 C 
BRANCH  19  20
ATOM     20  C   UNL     1       8.224  -5.211  -9.375  1.00  0.00    -0.000 C 
BRANCH  20  21
ATOM     21  C   UNL     1       7.089  -6.077  -9.927  1.00  0.00    -0.003 C 
ATOM     22  C   UNL     1       7.430  -6.628 -11.303  1.00  0.00     0.004 C 
ENDBRANCH  20  21
ENDBRANCH  19  20
ENDBRANCH  18  19
ENDBRANCH  17  18
ENDBRANCH  16  17
ENDBRANCH  12  16
ENDBRANCH   9  12
ENDBRANCH   6   9
ENDBRANCH   3   5
ENDBRANCH   2   3
BRANCH   2  23
ATOM     23  N   UNL     1       3.319  -6.435  -4.898  1.00  0.00    -0.332 N 
ATOM     24  C   UNL     1       3.097  -5.497  -5.988  1.00  0.00     0.147 C 
BRANCH  23  25
ATOM     25  C   UNL     1       2.448  -7.642  -4.923  1.00  0.00     0.174 C 
BRANCH  25  26
ATOM     26  C   UNL     1       1.632  -7.769  -6.231  1.00  0.00     0.038 C 
BRANCH  26  27
ATOM     27  C   UNL     1       0.107  -7.544  -6.129  1.00  0.00    -0.015 C 
ATOM     28  C   UNL     1      -0.365  -6.352  -6.962  1.00  0.00     0.007 C 
ATOM     29  C   UNL     1      -0.714  -8.788  -6.459  1.00  0.00     0.007 C 
ENDBRANCH  26  27
ENDBRANCH  25  26
BRANCH  25  30
ATOM     30  C   UNL     1       1.583  -7.701  -3.643  1.00  0.00     0.243 C 
ATOM     31  O   UNL     1       1.186  -8.767  -3.175  1.00  0.00    -0.273 OA
ATOM     32  N   UNL     1       1.285  -6.490  -3.072  1.00  0.00    -0.342 N 
ATOM     33  H   UNL     1       1.767  -5.664  -3.435  1.00  0.00     0.164 HD
BRANCH  32  34
ATOM     34  C   UNL     1       0.456  -6.352  -1.872  1.00  0.00     0.175 C 
BRANCH  34  35
ATOM     35  C   UNL     1       0.935  -5.188  -0.992  1.00  0.00     0.070 C 
BRANCH  35  36
ATOM     36  C   UNL     1       0.391  -5.257   0.417  1.00  0.00    -0.045 A 
ATOM     37  C   UNL     1      -0.163  -4.113   1.012  1.00  0.00     0.007 A 
ATOM     38  C   UNL     1       0.451  -6.447   1.154  1.00  0.00     0.007 A 
ATOM     39  C   UNL     1      -0.655  -4.163   2.317  1.00  0.00     0.046 A 
ATOM     40  C   UNL     1      -0.040  -6.498   2.461  1.00  0.00     0.046 A 
ATOM     41  C   UNL     1      -0.591  -5.354   3.030  1.00  0.00     0.115 A 
BRANCH  41  42
ATOM     42  O   UNL     1      -1.080  -5.360   4.303  1.00  0.00    -0.508 OA
ATOM     43  H   UNL     1      -1.836  -5.969   4.335  1.00  0.00     0.293 HD
ENDBRANCH  41  42
ENDBRANCH  35  36
ENDBRANCH  34  35
BRANCH  34  44
ATOM     44  C   UNL     1      -1.011  -6.170  -2.322  1.00  0.00     0.243 C 
ATOM     45  O   UNL     1      -1.558  -5.082  -2.482  1.00  0.00    -0.273 OA
ATOM     46  N   UNL     1      -1.710  -7.355  -2.408  1.00  0.00    -0.341 N 
ATOM     47  H   UNL     1      -1.245  -8.222  -2.153  1.00  0.00     0.164 HD
BRANCH  46  48
ATOM     48  C   UNL     1      -3.133  -7.428  -2.750  1.00  0.00     0.196 C 
BRANCH  48  49
ATOM     49  C   UNL     1      -3.400  -8.518  -3.802  1.00  0.00     0.072 C 
BRANCH  49  50
ATOM     50  C   UNL     1      -3.871  -7.950  -5.121  1.00  0.00    -0.045 A 
ATOM     51  C   UNL     1      -4.488  -8.787  -6.063  1.00  0.00     0.007 A 
ATOM     52  C   UNL     1      -3.683  -6.597  -5.432  1.00  0.00     0.007 A 
ATOM     53  C   UNL     1      -4.914  -8.277  -7.289  1.00  0.00     0.046 A 
ATOM     54  C   UNL     1      -4.109  -6.086  -6.660  1.00  0.00     0.046 A 
ATOM     55  C   UNL     1      -4.723  -6.931  -7.578  1.00  0.00     0.115 A 
BRANCH  55  56
ATOM     56  O   UNL     1      -5.152  -6.472  -8.789  1.00  0.00    -0.508 OA
ATOM     57  H   UNL     1      -5.773  -7.120  -9.158  1.00  0.00     0.293 HD
ENDBRANCH  55  56
ENDBRANCH  49  50
ENDBRANCH  48  49
BRANCH  48  58
ATOM     58  C   UNL     1      -3.937  -7.732  -1.478  1.00  0.00     0.326 C 
ATOM     59  O   UNL     1      -3.553  -7.647  -0.323  1.00  0.00    -0.250 OA
BRANCH  58  60
ATOM     60  O   UNL     1      -5.213  -8.121  -1.725  1.00  0.00    -0.480 OA
ATOM     61  H   UNL     1      -5.220  -9.063  -1.449  1.00  0.00     0.296 HD
ENDBRANCH  58  60
ENDBRANCH  48  58
ENDBRANCH  46  48
ENDBRANCH  34  44
ENDBRANCH  32  34
ENDBRANCH  25  30
ENDBRANCH  23  25
ENDBRANCH   2  23
TORSDOF 28
ENDMDL
MODEL 6
REMARK VINA RESULT:    -7.364      2.675      8.428
REMARK INTER + INTRA:         -21.663
REMARK INTER:                 -16.425
REMARK INTRA:                  -5.238
REMARK UNBOUND:                -3.321
REMARK SMILES CCCCCCC[C@H](N)[C@H](O)C(=O)N[C@H](C)C(=O)N(C)[C@H](CC(C)C)C(=O)N[C@@H](Cc1ccc(O)cc1)C(=O)N[C@@H](Cc1ccc(O)cc1)C(=O)O
REMARK SMILES IDX 18 1 17 2 15 3 16 4 14 5 12 6 13 7 10 9 11 10 8 12 9 13 7 16
REMARK SMILES IDX 6 17 5 18 4 19 3 20 2 21 1 22 19 23 20 24 21 25 22 26 23 27
REMARK SMILES IDX 24 28 25 29 26 30 27 31 28 32 29 34 30 35 31 36 32 37 37 38
REMARK SMILES IDX 33 39 36 40 34 41 35 42 38 44 39 45 40 46 41 48 42 49 43 50
REMARK SMILES IDX 44 51 49 52 45 53 48 54 46 55 47 56 50 58 51 59 52 60
REMARK H PARENT 14 8 11 11 9 14 9 15 28 33 35 43 40 47 47 57 52 61
ROOT
ATOM      1  O   UNL     1      -3.857  -7.462  -1.670  1.00  0.00    -0.272 OA
ATOM      2  C   UNL     1      -2.630  -7.358  -1.520  1.00  0.00     0.245 C 
ENDROOT
BRANCH   2   3
ATOM      3  C   UNL     1      -2.082  -7.021  -0.111  1.00  0.00     0.168 C 
ATOM      4  C   UNL     1      -1.531  -8.270   0.568  1.00  0.00     0.041 C 
BRANCH   3   5
ATOM      5  N   UNL     1      -1.133  -5.920  -0.072  1.00  0.00    -0.342 N 
ATOM      6  C   UNL     1      -1.223  -4.914   0.868  1.00  0.00     0.251 C 
ATOM      7  O   UNL     1      -2.119  -4.847   1.703  1.00  0.00    -0.272 OA
ATOM      8  H   UNL     1      -0.366  -5.849  -0.736  1.00  0.00     0.164 HD
BRANCH   6   9
ATOM      9  C   UNL     1      -0.036  -3.939   0.810  1.00  0.00     0.219 C 
BRANCH   9  10
ATOM     10  O   UNL     1       1.180  -4.572   0.395  1.00  0.00    -0.382 OA
ATOM     11  H   UNL     1       0.874  -5.397  -0.043  1.00  0.00     0.211 HD
ENDBRANCH   9  10
BRANCH   9  12
ATOM     12  C   UNL     1      -0.323  -2.681  -0.051  1.00  0.00     0.089 C 
BRANCH  12  13
ATOM     13  N   UNL     1      -1.704  -2.781  -0.578  1.00  0.00    -0.325 NA
ATOM     14  H   UNL     1      -2.364  -2.744   0.200  1.00  0.00     0.119 HD
ATOM     15  H   UNL     1      -1.833  -3.706  -0.994  1.00  0.00     0.119 HD
ENDBRANCH  12  13
BRANCH  12  16
ATOM     16  C   UNL     1      -0.120  -1.317   0.652  1.00  0.00     0.022 C 
BRANCH  16  17
ATOM     17  C   UNL     1      -0.502  -0.030  -0.091  1.00  0.00     0.002 C 
BRANCH  17  18
ATOM     18  C   UNL     1       0.411   0.335  -1.259  1.00  0.00     0.000 C 
BRANCH  18  19
ATOM     19  C   UNL     1       1.908   0.201  -0.948  1.00  0.00    -0.000 C 
BRANCH  19  20
ATOM     20  C   UNL     1       2.727  -0.546  -2.004  1.00  0.00    -0.000 C 
BRANCH  20  21
ATOM     21  C   UNL     1       4.048   0.150  -2.340  1.00  0.00    -0.003 C 
ATOM     22  C   UNL     1       4.197   0.362  -3.839  1.00  0.00     0.004 C 
ENDBRANCH  20  21
ENDBRANCH  19  20
ENDBRANCH  18  19
ENDBRANCH  17  18
ENDBRANCH  16  17
ENDBRANCH  12  16
ENDBRANCH   9  12
ENDBRANCH   6   9
ENDBRANCH   3   5
ENDBRANCH   2   3
BRANCH   2  23
ATOM     23  N   UNL     1      -1.773  -7.661  -2.573  1.00  0.00    -0.332 N 
ATOM     24  C   UNL     1      -1.240  -8.987  -2.849  1.00  0.00     0.147 C 
BRANCH  23  25
ATOM     25  C   UNL     1      -1.438  -6.627  -3.590  1.00  0.00     0.174 C 
BRANCH  25  26
ATOM     26  C   UNL     1      -1.485  -7.170  -5.038  1.00  0.00     0.038 C 
BRANCH  26  27
ATOM     27  C   UNL     1      -2.455  -6.472  -6.017  1.00  0.00    -0.015 C 
ATOM     28  C   UNL     1      -2.824  -7.359  -7.205  1.00  0.00     0.007 C 
ATOM     29  C   UNL     1      -3.711  -5.927  -5.342  1.00  0.00     0.007 C 
ENDBRANCH  26  27
ENDBRANCH  25  26
BRANCH  25  30
ATOM     30  C   UNL     1      -0.104  -5.935  -3.228  1.00  0.00     0.243 C 
ATOM     31  O   UNL     1      -0.059  -4.962  -2.478  1.00  0.00    -0.273 OA
ATOM     32  N   UNL     1       1.019  -6.475  -3.802  1.00  0.00    -0.342 N 
ATOM     33  H   UNL     1       0.917  -7.364  -4.297  1.00  0.00     0.164 HD
BRANCH  32  34
ATOM     34  C   UNL     1       2.364  -5.934  -3.594  1.00  0.00     0.175 C 
BRANCH  34  35
ATOM     35  C   UNL     1       2.887  -6.261  -2.187  1.00  0.00     0.070 C 
BRANCH  35  36
ATOM     36  C   UNL     1       4.108  -5.451  -1.813  1.00  0.00    -0.045 A 
ATOM     37  C   UNL     1       5.320  -6.100  -1.532  1.00  0.00     0.007 A 
ATOM     38  C   UNL     1       4.045  -4.055  -1.721  1.00  0.00     0.007 A 
ATOM     39  C   UNL     1       6.449  -5.362  -1.173  1.00  0.00     0.046 A 
ATOM     40  C   UNL     1       5.174  -3.316  -1.361  1.00  0.00     0.046 A 
ATOM     41  C   UNL     1       6.368  -3.978  -1.091  1.00  0.00     0.115 A 
BRANCH  41  42
ATOM     42  O   UNL     1       7.493  -3.295  -0.734  1.00  0.00    -0.508 OA
ATOM     43  H   UNL     1       7.324  -2.851   0.113  1.00  0.00     0.293 HD
ENDBRANCH  41  42
ENDBRANCH  35  36
ENDBRANCH  34  35
BRANCH  34  44
ATOM     44  C   UNL     1       3.285  -6.502  -4.698  1.00  0.00     0.243 C 
ATOM     45  O   UNL     1       3.956  -7.523  -4.583  1.00  0.00    -0.273 OA
ATOM     46  N   UNL     1       3.392  -5.680  -5.799  1.00  0.00    -0.341 N 
ATOM     47  H   UNL     1       2.907  -4.786  -5.798  1.00  0.00     0.164 HD
BRANCH  46  48
ATOM     48  C   UNL     1       4.259  -5.974  -6.943  1.00  0.00     0.196 C 
BRANCH  48  49
ATOM     49  C   UNL     1       5.745  -5.867  -6.561  1.00  0.00     0.072 C 
BRANCH  49  50
ATOM     50  C   UNL     1       6.166  -4.447  -6.255  1.00  0.00    -0.045 A 
ATOM     51  C   UNL     1       6.381  -4.053  -4.926  1.00  0.00     0.007 A 
ATOM     52  C   UNL     1       6.326  -3.506  -7.279  1.00  0.00     0.007 A 
ATOM     53  C   UNL     1       6.756  -2.743  -4.630  1.00  0.00     0.046 A 
ATOM     54  C   UNL     1       6.701  -2.193  -6.983  1.00  0.00     0.046 A 
ATOM     55  C   UNL     1       6.914  -1.823  -5.659  1.00  0.00     0.115 A 
BRANCH  55  56
ATOM     56  O   UNL     1       7.280  -0.552  -5.328  1.00  0.00    -0.508 OA
ATOM     57  H   UNL     1       6.674   0.065  -5.767  1.00  0.00     0.293 HD
ENDBRANCH  55  56
ENDBRANCH  49  50
ENDBRANCH  48  49
BRANCH  48  58
ATOM     58  C   UNL     1       3.958  -7.393  -7.446  1.00  0.00     0.326 C 
ATOM     59  O   UNL     1       2.916  -7.797  -7.936  1.00  0.00    -0.250 OA
BRANCH  58  60
ATOM     60  O   UNL     1       5.005  -8.246  -7.318  1.00  0.00    -0.480 OA
ATOM     61  H   UNL     1       4.764  -8.989  -7.912  1.00  0.00     0.296 HD
ENDBRANCH  58  60
ENDBRANCH  48  58
ENDBRANCH  46  48
ENDBRANCH  34  44
ENDBRANCH  32  34
ENDBRANCH  25  30
ENDBRANCH  23  25
ENDBRANCH   2  23
TORSDOF 28
ENDMDL
MODEL 7
REMARK VINA RESULT:    -7.202      2.555      8.973
REMARK INTER + INTRA:         -21.260
REMARK INTER:                 -17.614
REMARK INTRA:                  -3.646
REMARK UNBOUND:                -3.321
REMARK SMILES CCCCCCC[C@H](N)[C@H](O)C(=O)N[C@H](C)C(=O)N(C)[C@H](CC(C)C)C(=O)N[C@@H](Cc1ccc(O)cc1)C(=O)N[C@@H](Cc1ccc(O)cc1)C(=O)O
REMARK SMILES IDX 18 1 17 2 15 3 16 4 14 5 12 6 13 7 10 9 11 10 8 12 9 13 7 16
REMARK SMILES IDX 6 17 5 18 4 19 3 20 2 21 1 22 19 23 20 24 21 25 22 26 23 27
REMARK SMILES IDX 24 28 25 29 26 30 27 31 28 32 29 34 30 35 31 36 32 37 37 38
REMARK SMILES IDX 33 39 36 40 34 41 35 42 38 44 39 45 40 46 41 48 42 49 43 50
REMARK SMILES IDX 44 51 49 52 45 53 48 54 46 55 47 56 50 58 51 59 52 60
REMARK H PARENT 14 8 11 11 9 14 9 15 28 33 35 43 40 47 47 57 52 61
ROOT
ATOM      1  O   UNL     1      -2.592  -6.712  -1.027  1.00  0.00    -0.272 OA
ATOM      2  C   UNL     1      -2.219  -6.691  -2.209  1.00  0.00     0.245 C 
ENDROOT
BRANCH   2   3
ATOM      3  C   UNL     1      -3.189  -6.136  -3.282  1.00  0.00     0.168 C 
ATOM      4  C   UNL     1      -3.264  -4.615  -3.210  1.00  0.00     0.041 C 
BRANCH   3   5
ATOM      5  N   UNL     1      -2.934  -6.602  -4.636  1.00  0.00    -0.342 N 
ATOM      6  C   UNL     1      -3.647  -7.642  -5.195  1.00  0.00     0.251 C 
ATOM      7  O   UNL     1      -4.508  -8.272  -4.591  1.00  0.00    -0.272 OA
ATOM      8  H   UNL     1      -2.219  -6.179  -5.223  1.00  0.00     0.164 HD
BRANCH   6   9
ATOM      9  C   UNL     1      -3.307  -7.867  -6.677  1.00  0.00     0.219 C 
BRANCH   9  10
ATOM     10  O   UNL     1      -3.235  -6.643  -7.419  1.00  0.00    -0.382 OA
ATOM     11  H   UNL     1      -3.189  -5.952  -6.722  1.00  0.00     0.211 HD
ENDBRANCH   9  10
BRANCH   9  12
ATOM     12  C   UNL     1      -2.025  -8.714  -6.886  1.00  0.00     0.089 C 
BRANCH  12  13
ATOM     13  N   UNL     1      -0.937  -8.124  -6.073  1.00  0.00    -0.325 NA
ATOM     14  H   UNL     1      -1.174  -8.209  -5.083  1.00  0.00     0.119 HD
ATOM     15  H   UNL     1      -0.898  -7.118  -6.253  1.00  0.00     0.119 HD
ENDBRANCH  12  13
BRANCH  12  16
ATOM     16  C   UNL     1      -2.155 -10.226  -6.583  1.00  0.00     0.022 C 
BRANCH  16  17
ATOM     17  C   UNL     1      -2.717 -11.159  -7.665  1.00  0.00     0.002 C 
BRANCH  17  18
ATOM     18  C   UNL     1      -4.216 -11.433  -7.565  1.00  0.00     0.000 C 
BRANCH  18  19
ATOM     19  C   UNL     1      -4.866 -11.846  -8.892  1.00  0.00    -0.000 C 
BRANCH  19  20
ATOM     20  C   UNL     1      -5.679 -10.750  -9.587  1.00  0.00    -0.000 C 
BRANCH  20  21
ATOM     21  C   UNL     1      -6.656 -10.040  -8.645  1.00  0.00    -0.003 C 
ATOM     22  C   UNL     1      -7.875 -10.903  -8.358  1.00  0.00     0.004 C 
ENDBRANCH  20  21
ENDBRANCH  19  20
ENDBRANCH  18  19
ENDBRANCH  17  18
ENDBRANCH  16  17
ENDBRANCH  12  16
ENDBRANCH   9  12
ENDBRANCH   6   9
ENDBRANCH   3   5
ENDBRANCH   2   3
BRANCH   2  23
ATOM     23  N   UNL     1      -0.913  -7.044  -2.533  1.00  0.00    -0.332 N 
ATOM     24  C   UNL     1      -0.437  -8.412  -2.668  1.00  0.00     0.147 C 
BRANCH  23  25
ATOM     25  C   UNL     1       0.079  -5.996  -2.899  1.00  0.00     0.174 C 
BRANCH  25  26
ATOM     26  C   UNL     1       1.232  -6.539  -3.777  1.00  0.00     0.038 C 
BRANCH  26  27
ATOM     27  C   UNL     1       2.667  -6.372  -3.229  1.00  0.00    -0.015 C 
ATOM     28  C   UNL     1       3.450  -7.685  -3.234  1.00  0.00     0.007 C 
ATOM     29  C   UNL     1       3.460  -5.271  -3.928  1.00  0.00     0.007 C 
ENDBRANCH  26  27
ENDBRANCH  25  26
BRANCH  25  30
ATOM     30  C   UNL     1       0.560  -5.253  -1.632  1.00  0.00     0.243 C 
ATOM     31  O   UNL     1       0.967  -5.855  -0.640  1.00  0.00    -0.273 OA
ATOM     32  N   UNL     1       0.496  -3.884  -1.687  1.00  0.00    -0.342 N 
ATOM     33  H   UNL     1       0.282  -3.456  -2.591  1.00  0.00     0.164 HD
BRANCH  32  34
ATOM     34  C   UNL     1       0.884  -3.018  -0.570  1.00  0.00     0.175 C 
BRANCH  34  35
ATOM     35  C   UNL     1       1.291  -1.621  -1.062  1.00  0.00     0.070 C 
BRANCH  35  36
ATOM     36  C   UNL     1       2.763  -1.525  -1.395  1.00  0.00    -0.045 A 
ATOM     37  C   UNL     1       3.577  -2.665  -1.316  1.00  0.00     0.007 A 
ATOM     38  C   UNL     1       3.339  -0.301  -1.763  1.00  0.00     0.007 A 
ATOM     39  C   UNL     1       4.939  -2.583  -1.608  1.00  0.00     0.046 A 
ATOM     40  C   UNL     1       4.702  -0.218  -2.054  1.00  0.00     0.046 A 
ATOM     41  C   UNL     1       5.490  -1.362  -1.975  1.00  0.00     0.115 A 
BRANCH  41  42
ATOM     42  O   UNL     1       6.825  -1.324  -2.249  1.00  0.00    -0.508 OA
ATOM     43  H   UNL     1       7.261  -2.026  -1.737  1.00  0.00     0.293 HD
ENDBRANCH  41  42
ENDBRANCH  35  36
ENDBRANCH  34  35
BRANCH  34  44
ATOM     44  C   UNL     1      -0.299  -2.958   0.422  1.00  0.00     0.243 C 
ATOM     45  O   UNL     1      -1.245  -2.180   0.329  1.00  0.00    -0.273 OA
ATOM     46  N   UNL     1      -0.139  -3.780   1.518  1.00  0.00    -0.341 N 
ATOM     47  H   UNL     1       0.718  -4.320   1.609  1.00  0.00     0.164 HD
BRANCH  46  48
ATOM     48  C   UNL     1      -1.095  -3.843   2.625  1.00  0.00     0.196 C 
BRANCH  48  49
ATOM     49  C   UNL     1      -1.052  -5.212   3.325  1.00  0.00     0.072 C 
BRANCH  49  50
ATOM     50  C   UNL     1      -2.425  -5.823   3.494  1.00  0.00    -0.045 A 
ATOM     51  C   UNL     1      -3.229  -5.444   4.580  1.00  0.00     0.007 A 
ATOM     52  C   UNL     1      -2.903  -6.782   2.593  1.00  0.00     0.007 A 
ATOM     53  C   UNL     1      -4.492  -6.011   4.754  1.00  0.00     0.046 A 
ATOM     54  C   UNL     1      -4.168  -7.350   2.768  1.00  0.00     0.046 A 
ATOM     55  C   UNL     1      -4.952  -6.958   3.847  1.00  0.00     0.115 A 
BRANCH  55  56
ATOM     56  O   UNL     1      -6.191  -7.489   4.054  1.00  0.00    -0.508 OA
ATOM     57  H   UNL     1      -6.703  -6.867   4.595  1.00  0.00     0.293 HD
ENDBRANCH  55  56
ENDBRANCH  49  50
ENDBRANCH  48  49
BRANCH  48  58
ATOM     58  C   UNL     1      -0.763  -2.737   3.636  1.00  0.00     0.326 C 
ATOM     59  O   UNL     1      -0.312  -2.876   4.761  1.00  0.00    -0.250 OA
BRANCH  58  60
ATOM     60  O   UNL     1      -1.004  -1.487   3.169  1.00  0.00    -0.480 OA
ATOM     61  H   UNL     1      -0.411  -0.924   3.712  1.00  0.00     0.296 HD
ENDBRANCH  58  60
ENDBRANCH  48  58
ENDBRANCH  46  48
ENDBRANCH  34  44
ENDBRANCH  32  34
ENDBRANCH  25  30
ENDBRANCH  23  25
ENDBRANCH   2  23
TORSDOF 28
ENDMDL
MODEL 8
REMARK VINA RESULT:    -7.060     19.299     23.123
REMARK INTER + INTRA:         -20.907
REMARK INTER:                 -17.015
REMARK INTRA:                  -3.892
REMARK UNBOUND:                -3.321
REMARK SMILES CCCCCCC[C@H](N)[C@H](O)C(=O)N[C@H](C)C(=O)N(C)[C@H](CC(C)C)C(=O)N[C@@H](Cc1ccc(O)cc1)C(=O)N[C@@H](Cc1ccc(O)cc1)C(=O)O
REMARK SMILES IDX 18 1 17 2 15 3 16 4 14 5 12 6 13 7 10 9 11 10 8 12 9 13 7 16
REMARK SMILES IDX 6 17 5 18 4 19 3 20 2 21 1 22 19 23 20 24 21 25 22 26 23 27
REMARK SMILES IDX 24 28 25 29 26 30 27 31 28 32 29 34 30 35 31 36 32 37 37 38
REMARK SMILES IDX 33 39 36 40 34 41 35 42 38 44 39 45 40 46 41 48 42 49 43 50
REMARK SMILES IDX 44 51 49 52 45 53 48 54 46 55 47 56 50 58 51 59 52 60
REMARK H PARENT 14 8 11 11 9 14 9 15 28 33 35 43 40 47 47 57 52 61
ROOT
ATOM      1  O   UNL     1     -16.903   5.419  -4.328  1.00  0.00    -0.272 OA
ATOM      2  C   UNL     1     -17.959   4.940  -3.888  1.00  0.00     0.245 C 
ENDROOT
BRANCH   2   3
ATOM      3  C   UNL     1     -18.229   3.429  -4.096  1.00  0.00     0.168 C 
ATOM      4  C   UNL     1     -18.621   3.142  -5.541  1.00  0.00     0.041 C 
BRANCH   3   5
ATOM      5  N   UNL     1     -17.165   2.549  -3.638  1.00  0.00    -0.342 N 
ATOM      6  C   UNL     1     -17.425   1.292  -3.133  1.00  0.00     0.251 C 
ATOM      7  O   UNL     1     -18.557   0.841  -2.993  1.00  0.00    -0.272 OA
ATOM      8  H   UNL     1     -16.187   2.827  -3.673  1.00  0.00     0.164 HD
BRANCH   6   9
ATOM      9  C   UNL     1     -16.146   0.490  -2.848  1.00  0.00     0.219 C 
BRANCH   9  10
ATOM     10  O   UNL     1     -15.012   0.979  -3.575  1.00  0.00    -0.382 OA
ATOM     11  H   UNL     1     -15.389   1.691  -4.138  1.00  0.00     0.211 HD
ENDBRANCH   9  10
BRANCH   9  12
ATOM     12  C   UNL     1     -15.823   0.377  -1.335  1.00  0.00     0.089 C 
BRANCH  12  13
ATOM     13  N   UNL     1     -14.394   0.714  -1.136  1.00  0.00    -0.325 NA
ATOM     14  H   UNL     1     -13.977   0.041  -0.490  1.00  0.00     0.119 HD
ATOM     15  H   UNL     1     -14.331   1.616  -0.658  1.00  0.00     0.119 HD
ENDBRANCH  12  13
BRANCH  12  16
ATOM     16  C   UNL     1     -16.706   1.224  -0.388  1.00  0.00     0.022 C 
BRANCH  16  17
ATOM     17  C   UNL     1     -17.255   0.583   0.894  1.00  0.00     0.002 C 
BRANCH  17  18
ATOM     18  C   UNL     1     -16.447   0.874   2.157  1.00  0.00     0.000 C 
BRANCH  18  19
ATOM     19  C   UNL     1     -15.239  -0.051   2.353  1.00  0.00    -0.000 C 
BRANCH  19  20
ATOM     20  C   UNL     1     -15.507  -1.536   2.092  1.00  0.00    -0.000 C 
BRANCH  20  21
ATOM     21  C   UNL     1     -14.245  -2.398   2.179  1.00  0.00    -0.003 C 
ATOM     22  C   UNL     1     -13.102  -1.791   1.380  1.00  0.00     0.004 C 
ENDBRANCH  20  21
ENDBRANCH  19  20
ENDBRANCH  18  19
ENDBRANCH  17  18
ENDBRANCH  16  17
ENDBRANCH  12  16
ENDBRANCH   9  12
ENDBRANCH   6   9
ENDBRANCH   3   5
ENDBRANCH   2   3
BRANCH   2  23
ATOM     23  N   UNL     1     -18.813   5.725  -3.121  1.00  0.00    -0.332 N 
ATOM     24  C   UNL     1     -20.200   5.395  -2.831  1.00  0.00     0.147 C 
BRANCH  23  25
ATOM     25  C   UNL     1     -18.296   6.933  -2.421  1.00  0.00     0.174 C 
BRANCH  25  26
ATOM     26  C   UNL     1     -18.805   7.049  -0.965  1.00  0.00     0.038 C 
BRANCH  26  27
ATOM     27  C   UNL     1     -18.258   8.224  -0.124  1.00  0.00    -0.015 C 
ATOM     28  C   UNL     1     -19.373   9.059   0.507  1.00  0.00     0.007 C 
ATOM     29  C   UNL     1     -17.244   7.795   0.933  1.00  0.00     0.007 C 
ENDBRANCH  26  27
ENDBRANCH  25  26
BRANCH  25  30
ATOM     30  C   UNL     1     -18.560   8.195  -3.274  1.00  0.00     0.243 C 
ATOM     31  O   UNL     1     -19.685   8.483  -3.678  1.00  0.00    -0.273 OA
ATOM     32  N   UNL     1     -17.459   8.964  -3.553  1.00  0.00    -0.342 N 
ATOM     33  H   UNL     1     -16.588   8.737  -3.066  1.00  0.00     0.164 HD
BRANCH  32  34
ATOM     34  C   UNL     1     -17.515  10.179  -4.369  1.00  0.00     0.175 C 
BRANCH  34  35
ATOM     35  C   UNL     1     -17.366  11.440  -3.504  1.00  0.00     0.070 C 
BRANCH  35  36
ATOM     36  C   UNL     1     -17.118  12.686  -4.325  1.00  0.00    -0.045 A 
ATOM     37  C   UNL     1     -15.876  13.336  -4.256  1.00  0.00     0.007 A 
ATOM     38  C   UNL     1     -18.122  13.220  -5.143  1.00  0.00     0.007 A 
ATOM     39  C   UNL     1     -15.642  14.494  -4.999  1.00  0.00     0.046 A 
ATOM     40  C   UNL     1     -17.889  14.380  -5.886  1.00  0.00     0.046 A 
ATOM     41  C   UNL     1     -16.649  15.006  -5.808  1.00  0.00     0.115 A 
BRANCH  41  42
ATOM     42  O   UNL     1     -16.381  16.141  -6.515  1.00  0.00    -0.508 OA
ATOM     43  H   UNL     1     -15.470  16.414  -6.318  1.00  0.00     0.293 HD
ENDBRANCH  41  42
ENDBRANCH  35  36
ENDBRANCH  34  35
BRANCH  34  44
ATOM     44  C   UNL     1     -16.412  10.084  -5.447  1.00  0.00     0.243 C 
ATOM     45  O   UNL     1     -16.564  10.394  -6.625  1.00  0.00    -0.273 OA
ATOM     46  N   UNL     1     -15.254   9.488  -4.995  1.00  0.00    -0.341 N 
ATOM     47  H   UNL     1     -15.217   9.141  -4.040  1.00  0.00     0.164 HD
BRANCH  46  48
ATOM     48  C   UNL     1     -14.095   9.227  -5.852  1.00  0.00     0.196 C 
BRANCH  48  49
ATOM     49  C   UNL     1     -12.867  10.032  -5.394  1.00  0.00     0.072 C 
BRANCH  49  50
ATOM     50  C   UNL     1     -12.835  11.426  -5.978  1.00  0.00    -0.045 A 
ATOM     51  C   UNL     1     -13.469  11.686  -7.202  1.00  0.00     0.007 A 
ATOM     52  C   UNL     1     -12.162  12.466  -5.325  1.00  0.00     0.007 A 
ATOM     53  C   UNL     1     -13.435  12.965  -7.757  1.00  0.00     0.046 A 
ATOM     54  C   UNL     1     -12.127  13.747  -5.881  1.00  0.00     0.046 A 
ATOM     55  C   UNL     1     -12.765  13.986  -7.093  1.00  0.00     0.115 A 
BRANCH  55  56
ATOM     56  O   UNL     1     -12.754  15.221  -7.670  1.00  0.00    -0.508 OA
ATOM     57  H   UNL     1     -11.981  15.279  -8.254  1.00  0.00     0.293 HD
ENDBRANCH  55  56
ENDBRANCH  49  50
ENDBRANCH  48  49
BRANCH  48  58
ATOM     58  C   UNL     1     -13.771   7.727  -5.810  1.00  0.00     0.326 C 
ATOM     59  O   UNL     1     -12.775   7.173  -6.248  1.00  0.00    -0.250 OA
BRANCH  58  60
ATOM     60  O   UNL     1     -14.726   6.984  -5.196  1.00  0.00    -0.480 OA
ATOM     61  H   UNL     1     -15.563   7.407  -5.487  1.00  0.00     0.296 HD
ENDBRANCH  58  60
ENDBRANCH  48  58
ENDBRANCH  46  48
ENDBRANCH  34  44
ENDBRANCH  32  34
ENDBRANCH  25  30
ENDBRANCH  23  25
ENDBRANCH   2  23
TORSDOF 28
ENDMDL
MODEL 9
REMARK VINA RESULT:    -7.056     19.048     22.761
REMARK INTER + INTRA:         -20.895
REMARK INTER:                 -18.102
REMARK INTRA:                  -2.793
REMARK UNBOUND:                -3.321
REMARK SMILES CCCCCCC[C@H](N)[C@H](O)C(=O)N[C@H](C)C(=O)N(C)[C@H](CC(C)C)C(=O)N[C@@H](Cc1ccc(O)cc1)C(=O)N[C@@H](Cc1ccc(O)cc1)C(=O)O
REMARK SMILES IDX 18 1 17 2 15 3 16 4 14 5 12 6 13 7 10 9 11 10 8 12 9 13 7 16
REMARK SMILES IDX 6 17 5 18 4 19 3 20 2 21 1 22 19 23 20 24 21 25 22 26 23 27
REMARK SMILES IDX 24 28 25 29 26 30 27 31 28 32 29 34 30 35 31 36 32 37 37 38
REMARK SMILES IDX 33 39 36 40 34 41 35 42 38 44 39 45 40 46 41 48 42 49 43 50
REMARK SMILES IDX 44 51 49 52 45 53 48 54 46 55 47 56 50 58 51 59 52 60
REMARK H PARENT 14 8 11 11 9 14 9 15 28 33 35 43 40 47 47 57 52 61
ROOT
ATOM      1  O   UNL     1     -17.627   1.751  -6.670  1.00  0.00    -0.272 OA
ATOM      2  C   UNL     1     -18.701   2.367  -6.744  1.00  0.00     0.245 C 
ENDROOT
BRANCH   2   3
ATOM      3  C   UNL     1     -19.621   2.109  -7.963  1.00  0.00     0.168 C 
ATOM      4  C   UNL     1     -19.404   3.166  -9.039  1.00  0.00     0.041 C 
BRANCH   3   5
ATOM      5  N   UNL     1     -19.552   0.761  -8.505  1.00  0.00    -0.342 N 
ATOM      6  C   UNL     1     -20.581  -0.143  -8.342  1.00  0.00     0.251 C 
ATOM      7  O   UNL     1     -21.599   0.099  -7.703  1.00  0.00    -0.272 OA
ATOM      8  H   UNL     1     -18.742   0.433  -9.025  1.00  0.00     0.164 HD
BRANCH   6   9
ATOM      9  C   UNL     1     -20.352  -1.450  -9.118  1.00  0.00     0.219 C 
BRANCH   9  10
ATOM     10  O   UNL     1     -21.462  -1.796  -9.956  1.00  0.00    -0.382 OA
ATOM     11  H   UNL     1     -22.225  -1.804  -9.338  1.00  0.00     0.211 HD
ENDBRANCH   9  10
BRANCH   9  12
ATOM     12  C   UNL     1     -19.029  -1.455  -9.927  1.00  0.00     0.089 C 
BRANCH  12  13
ATOM     13  N   UNL     1     -17.936  -1.899  -9.032  1.00  0.00    -0.325 NA
ATOM     14  H   UNL     1     -17.152  -1.248  -9.109  1.00  0.00     0.119 HD
ATOM     15  H   UNL     1     -17.574  -2.794  -9.370  1.00  0.00     0.119 HD
ENDBRANCH  12  13
BRANCH  12  16
ATOM     16  C   UNL     1     -19.030  -2.298 -11.224  1.00  0.00     0.022 C 
BRANCH  16  17
ATOM     17  C   UNL     1     -19.060  -1.582 -12.581  1.00  0.00     0.002 C 
BRANCH  17  18
ATOM     18  C   UNL     1     -19.865  -0.284 -12.607  1.00  0.00     0.000 C 
BRANCH  18  19
ATOM     19  C   UNL     1     -19.218   0.835 -13.434  1.00  0.00    -0.000 C 
BRANCH  19  20
ATOM     20  C   UNL     1     -19.082   2.180 -12.714  1.00  0.00    -0.000 C 
BRANCH  20  21
ATOM     21  C   UNL     1     -17.630   2.651 -12.594  1.00  0.00    -0.003 C 
ATOM     22  C   UNL     1     -16.655   1.528 -12.910  1.00  0.00     0.004 C 
ENDBRANCH  20  21
ENDBRANCH  19  20
ENDBRANCH  18  19
ENDBRANCH  17  18
ENDBRANCH  16  17
ENDBRANCH  12  16
ENDBRANCH   9  12
ENDBRANCH   6   9
ENDBRANCH   3   5
ENDBRANCH   2   3
BRANCH   2  23
ATOM     23  N   UNL     1     -19.113   3.175  -5.689  1.00  0.00    -0.332 N 
ATOM     24  C   UNL     1     -20.218   4.121  -5.756  1.00  0.00     0.147 C 
BRANCH  23  25
ATOM     25  C   UNL     1     -18.502   3.020  -4.341  1.00  0.00     0.174 C 
BRANCH  25  26
ATOM     26  C   UNL     1     -18.999   1.759  -3.596  1.00  0.00     0.038 C 
BRANCH  26  27
ATOM     27  C   UNL     1     -17.970   1.014  -2.717  1.00  0.00    -0.015 C 
ATOM     28  C   UNL     1     -16.593   0.929  -3.374  1.00  0.00     0.007 C 
ATOM     29  C   UNL     1     -17.857   1.579  -1.303  1.00  0.00     0.007 C 
ENDBRANCH  26  27
ENDBRANCH  25  26
BRANCH  25  30
ATOM     30  C   UNL     1     -18.665   4.326  -3.529  1.00  0.00     0.243 C 
ATOM     31  O   UNL     1     -19.646   4.529  -2.815  1.00  0.00    -0.273 OA
ATOM     32  N   UNL     1     -17.652   5.239  -3.665  1.00  0.00    -0.342 N 
ATOM     33  H   UNL     1     -16.808   4.940  -4.161  1.00  0.00     0.164 HD
BRANCH  32  34
ATOM     34  C   UNL     1     -17.650   6.541  -2.992  1.00  0.00     0.175 C 
BRANCH  34  35
ATOM     35  C   UNL     1     -17.153   6.422  -1.544  1.00  0.00     0.070 C 
BRANCH  35  36
ATOM     36  C   UNL     1     -17.802   7.426  -0.618  1.00  0.00    -0.045 A 
ATOM     37  C   UNL     1     -17.343   7.564   0.701  1.00  0.00     0.007 A 
ATOM     38  C   UNL     1     -18.877   8.213  -1.051  1.00  0.00     0.007 A 
ATOM     39  C   UNL     1     -17.944   8.478   1.566  1.00  0.00     0.046 A 
ATOM     40  C   UNL     1     -19.480   9.128  -0.184  1.00  0.00     0.046 A 
ATOM     41  C   UNL     1     -19.007   9.253   1.117  1.00  0.00     0.115 A 
BRANCH  41  42
ATOM     42  O   UNL     1     -19.568  10.132   1.996  1.00  0.00    -0.508 OA
ATOM     43  H   UNL     1     -18.917  10.325   2.691  1.00  0.00     0.293 HD
ENDBRANCH  41  42
ENDBRANCH  35  36
ENDBRANCH  34  35
BRANCH  34  44
ATOM     44  C   UNL     1     -16.779   7.509  -3.824  1.00  0.00     0.243 C 
ATOM     45  O   UNL     1     -17.102   8.656  -4.118  1.00  0.00    -0.273 OA
ATOM     46  N   UNL     1     -15.638   6.922  -4.331  1.00  0.00    -0.341 N 
ATOM     47  H   UNL     1     -15.472   5.934  -4.156  1.00  0.00     0.164 HD
BRANCH  46  48
ATOM     48  C   UNL     1     -14.692   7.621  -5.204  1.00  0.00     0.196 C 
BRANCH  48  49
ATOM     49  C   UNL     1     -13.854   8.643  -4.417  1.00  0.00     0.072 C 
BRANCH  49  50
ATOM     50  C   UNL     1     -13.583   9.904  -5.207  1.00  0.00    -0.045 A 
ATOM     51  C   UNL     1     -12.736  10.890  -4.680  1.00  0.00     0.007 A 
ATOM     52  C   UNL     1     -14.184  10.116  -6.455  1.00  0.00     0.007 A 
ATOM     53  C   UNL     1     -12.489  12.063  -5.394  1.00  0.00     0.046 A 
ATOM     54  C   UNL     1     -13.937  11.291  -7.168  1.00  0.00     0.046 A 
ATOM     55  C   UNL     1     -13.091  12.254  -6.632  1.00  0.00     0.115 A 
BRANCH  55  56
ATOM     56  O   UNL     1     -12.825  13.415  -7.296  1.00  0.00    -0.508 OA
ATOM     57  H   UNL     1     -13.396  13.457  -8.080  1.00  0.00     0.293 HD
ENDBRANCH  55  56
ENDBRANCH  49  50
ENDBRANCH  48  49
BRANCH  48  58
ATOM     58  C   UNL     1     -13.764   6.590  -5.860  1.00  0.00     0.326 C 
ATOM     59  O   UNL     1     -12.899   6.800  -6.696  1.00  0.00    -0.250 OA
BRANCH  58  60
ATOM     60  O   UNL     1     -13.960   5.323  -5.415  1.00  0.00    -0.480 OA
ATOM     61  H   UNL     1     -13.246   5.204  -4.751  1.00  0.00     0.296 HD
ENDBRANCH  58  60
ENDBRANCH  48  58
ENDBRANCH  46  48
ENDBRANCH  34  44
ENDBRANCH  32  34
ENDBRANCH  25  30
ENDBRANCH  23  25
ENDBRANCH   2  23
TORSDOF 28
ENDMDL
MODEL 10
REMARK VINA RESULT:    -6.905      2.639      8.899
REMARK INTER + INTRA:         -20.520
REMARK INTER:                 -15.937
REMARK INTRA:                  -4.583
REMARK UNBOUND:                -3.321
REMARK SMILES CCCCCCC[C@H](N)[C@H](O)C(=O)N[C@H](C)C(=O)N(C)[C@H](CC(C)C)C(=O)N[C@@H](Cc1ccc(O)cc1)C(=O)N[C@@H](Cc1ccc(O)cc1)C(=O)O
REMARK SMILES IDX 18 1 17 2 15 3 16 4 14 5 12 6 13 7 10 9 11 10 8 12 9 13 7 16
REMARK SMILES IDX 6 17 5 18 4 19 3 20 2 21 1 22 19 23 20 24 21 25 22 26 23 27
REMARK SMILES IDX 24 28 25 29 26 30 27 31 28 32 29 34 30 35 31 36 32 37 37 38
REMARK SMILES IDX 33 39 36 40 34 41 35 42 38 44 39 45 40 46 41 48 42 49 43 50
REMARK SMILES IDX 44 51 49 52 45 53 48 54 46 55 47 56 50 58 51 59 52 60
REMARK H PARENT 14 8 11 11 9 14 9 15 28 33 35 43 40 47 47 57 52 61
ROOT
ATOM      1  O   UNL     1      -3.096  -7.331  -0.755  1.00  0.00    -0.272 OA
ATOM      2  C   UNL     1      -3.002  -8.047  -1.763  1.00  0.00     0.245 C 
ENDROOT
BRANCH   2   3
ATOM      3  C   UNL     1      -4.245  -8.849  -2.221  1.00  0.00     0.168 C 
ATOM      4  C   UNL     1      -5.528  -8.183  -1.737  1.00  0.00     0.041 C 
BRANCH   3   5
ATOM      5  N   UNL     1      -4.292  -9.145  -3.644  1.00  0.00    -0.342 N 
ATOM      6  C   UNL     1      -4.132 -10.426  -4.128  1.00  0.00     0.251 C 
ATOM      7  O   UNL     1      -3.900 -11.395  -3.412  1.00  0.00    -0.272 OA
ATOM      8  H   UNL     1      -4.444  -8.417  -4.338  1.00  0.00     0.164 HD
BRANCH   6   9
ATOM      9  C   UNL     1      -4.361 -10.522  -5.645  1.00  0.00     0.219 C 
BRANCH   9  10
ATOM     10  O   UNL     1      -4.844  -9.297  -6.209  1.00  0.00    -0.382 OA
ATOM     11  H   UNL     1      -4.060  -8.706  -6.183  1.00  0.00     0.211 HD
ENDBRANCH   9  10
BRANCH   9  12
ATOM     12  C   UNL     1      -3.117 -11.032  -6.417  1.00  0.00     0.089 C 
BRANCH  12  13
ATOM     13  N   UNL     1      -3.150 -10.464  -7.784  1.00  0.00    -0.325 NA
ATOM     14  H   UNL     1      -3.628  -9.561  -7.761  1.00  0.00     0.119 HD
ATOM     15  H   UNL     1      -3.733 -11.060  -8.376  1.00  0.00     0.119 HD
ENDBRANCH  12  13
BRANCH  12  16
ATOM     16  C   UNL     1      -1.746 -10.749  -5.757  1.00  0.00     0.022 C 
BRANCH  16  17
ATOM     17  C   UNL     1      -0.485 -10.732  -6.632  1.00  0.00     0.002 C 
BRANCH  17  18
ATOM     18  C   UNL     1       0.814 -10.436  -5.885  1.00  0.00     0.000 C 
BRANCH  18  19
ATOM     19  C   UNL     1       1.850  -9.666  -6.715  1.00  0.00    -0.000 C 
BRANCH  19  20
ATOM     20  C   UNL     1       2.911  -8.921  -5.901  1.00  0.00    -0.000 C 
BRANCH  20  21
ATOM     21  C   UNL     1       2.611  -8.902  -4.399  1.00  0.00    -0.003 C 
ATOM     22  C   UNL     1       3.751  -9.512  -3.598  1.00  0.00     0.004 C 
ENDBRANCH  20  21
ENDBRANCH  19  20
ENDBRANCH  18  19
ENDBRANCH  17  18
ENDBRANCH  16  17
ENDBRANCH  12  16
ENDBRANCH   9  12
ENDBRANCH   6   9
ENDBRANCH   3   5
ENDBRANCH   2   3
BRANCH   2  23
ATOM     23  N   UNL     1      -1.839  -8.026  -2.526  1.00  0.00    -0.332 N 
ATOM     24  C   UNL     1      -0.841  -9.085  -2.541  1.00  0.00     0.147 C 
BRANCH  23  25
ATOM     25  C   UNL     1      -1.603  -6.929  -3.505  1.00  0.00     0.174 C 
BRANCH  25  26
ATOM     26  C   UNL     1      -0.850  -7.403  -4.770  1.00  0.00     0.038 C 
BRANCH  26  27
ATOM     27  C   UNL     1      -1.011  -6.543  -6.044  1.00  0.00    -0.015 C 
ATOM     28  C   UNL     1       0.316  -6.319  -6.769  1.00  0.00     0.007 C 
ATOM     29  C   UNL     1      -2.067  -7.079  -7.008  1.00  0.00     0.007 C 
ENDBRANCH  26  27
ENDBRANCH  25  26
BRANCH  25  30
ATOM     30  C   UNL     1      -0.941  -5.721  -2.802  1.00  0.00     0.243 C 
ATOM     31  O   UNL     1      -1.590  -4.735  -2.457  1.00  0.00    -0.273 OA
ATOM     32  N   UNL     1       0.411  -5.822  -2.597  1.00  0.00    -0.342 N 
ATOM     33  H   UNL     1       0.851  -6.727  -2.782  1.00  0.00     0.164 HD
BRANCH  32  34
ATOM     34  C   UNL     1       1.208  -4.764  -1.972  1.00  0.00     0.175 C 
BRANCH  34  35
ATOM     35  C   UNL     1       1.064  -4.787  -0.442  1.00  0.00     0.070 C 
BRANCH  35  36
ATOM     36  C   UNL     1       0.424  -3.531   0.104  1.00  0.00    -0.045 A 
ATOM     37  C   UNL     1      -0.581  -3.622   1.079  1.00  0.00     0.007 A 
ATOM     38  C   UNL     1       0.804  -2.267  -0.367  1.00  0.00     0.007 A 
ATOM     39  C   UNL     1      -1.187  -2.469   1.579  1.00  0.00     0.046 A 
ATOM     40  C   UNL     1       0.197  -1.112   0.132  1.00  0.00     0.046 A 
ATOM     41  C   UNL     1      -0.793  -1.224   1.102  1.00  0.00     0.115 A 
BRANCH  41  42
ATOM     42  O   UNL     1      -1.413  -0.123   1.614  1.00  0.00    -0.508 OA
ATOM     43  H   UNL     1      -0.734   0.460   1.993  1.00  0.00     0.293 HD
ENDBRANCH  41  42
ENDBRANCH  35  36
ENDBRANCH  34  35
BRANCH  34  44
ATOM     44  C   UNL     1       2.677  -4.945  -2.416  1.00  0.00     0.243 C 
ATOM     45  O   UNL     1       3.205  -6.030  -2.641  1.00  0.00    -0.273 OA
ATOM     46  N   UNL     1       3.399  -3.770  -2.416  1.00  0.00    -0.341 N 
ATOM     47  H   UNL     1       2.947  -2.913  -2.109  1.00  0.00     0.164 HD
BRANCH  46  48
ATOM     48  C   UNL     1       4.826  -3.702  -2.736  1.00  0.00     0.196 C 
BRANCH  48  49
ATOM     49  C   UNL     1       5.149  -2.470  -3.598  1.00  0.00     0.072 C 
BRANCH  49  50
ATOM     50  C   UNL     1       5.385  -2.821  -5.049  1.00  0.00    -0.045 A 
ATOM     51  C   UNL     1       6.315  -2.089  -5.803  1.00  0.00     0.007 A 
ATOM     52  C   UNL     1       4.673  -3.857  -5.665  1.00  0.00     0.007 A 
ATOM     53  C   UNL     1       6.532  -2.396  -7.146  1.00  0.00     0.046 A 
ATOM     54  C   UNL     1       4.889  -4.163  -7.011  1.00  0.00     0.046 A 
ATOM     55  C   UNL     1       5.819  -3.429  -7.740  1.00  0.00     0.115 A 
BRANCH  55  56
ATOM     56  O   UNL     1       6.059  -3.696  -9.055  1.00  0.00    -0.508 OA
ATOM     57  H   UNL     1       7.000  -3.537  -9.233  1.00  0.00     0.293 HD
ENDBRANCH  55  56
ENDBRANCH  49  50
ENDBRANCH  48  49
BRANCH  48  58
ATOM     58  C   UNL     1       5.628  -3.640  -1.428  1.00  0.00     0.326 C 
ATOM     59  O   UNL     1       5.642  -4.465  -0.530  1.00  0.00    -0.250 OA
BRANCH  58  60
ATOM     60  O   UNL     1       6.400  -2.529  -1.319  1.00  0.00    -0.480 OA
ATOM     61  H   UNL     1       6.811  -2.625  -0.432  1.00  0.00     0.296 HD
ENDBRANCH  58  60
ENDBRANCH  48  58
ENDBRANCH  46  48
ENDBRANCH  34  44
ENDBRANCH  32  34
ENDBRANCH  25  30
ENDBRANCH  23  25
ENDBRANCH   2  23
TORSDOF 28
ENDMDL
