MODEL 1
REMARK VINA RESULT:    -8.208      0.000      0.000
REMARK INTER + INTRA:         -19.516
REMARK INTER:                 -16.605
REMARK INTRA:                  -2.911
REMARK UNBOUND:                -2.911
REMARK SMILES CC[C@@H](C)[C@@H](NC(=O)[C@@H](O)Cc1ccc(O)c(Cl)c1)C(=O)N1[C@H](C(=O)NCCCCN=C(N)N)C[C@H]2CC[C@H](OS(=O)(=O)O)C[C@@H]21
REMARK SMILES IDX 22 1 36 2 46 3 35 4 23 5 45 6 37 7 39 8 38 9 20 10 21 11
REMARK SMILES IDX 5 12 6 13 7 14 8 15 9 17 11 18 12 19 17 20 19 21 15 22 14 23
REMARK SMILES IDX 13 24 18 25 16 26 10 28 3 30 4 31 2 32 1 33 24 34 25 35
REMARK SMILES IDX 26 36 27 38 28 39 29 40 30 41 31 42 32 43 33 44 34 45 40 50
REMARK SMILES IDX 41 51 42 52 43 53 44 54
REMARK H PARENT 6 16 16 27 10 29 26 37 33 46 33 47 34 48 34 49 44 55
ROOT
ATOM      1  N   UNL     1      -2.458   4.294   6.756  1.00  0.00    -0.326 N 
ATOM      2  C   UNL     1      -3.221   2.114   7.213  1.00  0.00     0.014 C 
ATOM      3  C   UNL     1      -2.191   3.161   7.647  1.00  0.00     0.091 C 
ATOM      4  C   UNL     1      -3.324   2.347   5.713  1.00  0.00     0.041 C 
ATOM      5  C   UNL     1      -3.395   3.885   5.681  1.00  0.00     0.175 C 
ATOM      6  C   UNL     1      -2.327   3.376   9.153  1.00  0.00     0.059 C 
ATOM      7  C   UNL     1      -2.846   0.738   7.728  1.00  0.00     0.008 C 
ATOM      8  C   UNL     1      -2.773   2.114   9.924  1.00  0.00     0.143 C 
ATOM      9  C   UNL     1      -2.370   0.817   9.193  1.00  0.00     0.034 C 
ENDROOT
BRANCH   1  10
ATOM     10  C   UNL     1      -1.826   5.523   6.670  1.00  0.00     0.246 C 
ATOM     11  O   UNL     1      -2.451   6.543   6.979  1.00  0.00    -0.272 OA
BRANCH  10  12
ATOM     12  C   UNL     1      -0.336   5.589   6.228  1.00  0.00     0.174 C 
BRANCH  12  13
ATOM     13  N   UNL     1       0.487   6.104   7.322  1.00  0.00    -0.342 N 
ATOM     14  C   UNL     1       1.140   5.327   8.252  1.00  0.00     0.249 C 
ATOM     15  O   UNL     1       1.127   4.102   8.249  1.00  0.00    -0.272 OA
ATOM     16  H   UNL     1       0.464   7.095   7.546  1.00  0.00     0.164 HD
BRANCH  14  17
ATOM     17  C   UNL     1       1.912   6.166   9.293  1.00  0.00     0.207 C 
BRANCH  17  18
ATOM     18  C   UNL     1       2.334   7.510   8.690  1.00  0.00     0.077 C 
BRANCH  18  19
ATOM     19  C   UNL     1       3.770   7.487   8.217  1.00  0.00    -0.043 A 
ATOM     20  C   UNL     1       6.102   8.068   8.548  1.00  0.00     0.083 A 
ATOM     21  C   UNL     1       4.786   8.046   9.009  1.00  0.00     0.028 A 
ATOM     22  C   UNL     1       6.412   7.535   7.296  1.00  0.00     0.134 A 
ATOM     23  C   UNL     1       5.417   6.979   6.501  1.00  0.00     0.048 A 
ATOM     24  C   UNL     1       4.097   6.957   6.960  1.00  0.00     0.008 A 
ATOM     25  Cl  UNL     1       7.336   8.759   9.535  1.00  0.00    -0.080 Cl
BRANCH  22  26
ATOM     26  O   UNL     1       7.687   7.543   6.797  1.00  0.00    -0.506 OA
ATOM     27  H   UNL     1       8.287   7.439   7.558  1.00  0.00     0.293 HD
ENDBRANCH  22  26
ENDBRANCH  18  19
ENDBRANCH  17  18
BRANCH  17  28
ATOM     28  O   UNL     1       3.077   5.467   9.760  1.00  0.00    -0.383 OA
ATOM     29  H   UNL     1       2.785   4.544   9.943  1.00  0.00     0.211 HD
ENDBRANCH  17  28
ENDBRANCH  14  17
ENDBRANCH  12  13
BRANCH  12  30
ATOM     30  C   UNL     1      -0.135   6.387   4.911  1.00  0.00     0.018 C 
ATOM     31  C   UNL     1      -0.051   5.438   3.705  1.00  0.00     0.010 C 
BRANCH  30  32
ATOM     32  C   UNL     1       1.094   7.327   4.935  1.00  0.00     0.002 C 
ATOM     33  C   UNL     1       0.775   8.816   4.972  1.00  0.00     0.004 C 
ENDBRANCH  30  32
ENDBRANCH  12  30
ENDBRANCH  10  12
ENDBRANCH   1  10
BRANCH   5  34
ATOM     34  C   UNL     1      -4.830   4.398   5.976  1.00  0.00     0.242 C 
ATOM     35  O   UNL     1      -5.205   5.525   5.654  1.00  0.00    -0.273 OA
ATOM     36  N   UNL     1      -5.633   3.522   6.671  1.00  0.00    -0.354 N 
ATOM     37  H   UNL     1      -5.228   2.650   7.015  1.00  0.00     0.163 HD
BRANCH  36  38
ATOM     38  C   UNL     1      -7.054   3.745   6.842  1.00  0.00     0.116 C 
BRANCH  38  39
ATOM     39  C   UNL     1      -7.350   4.108   8.295  1.00  0.00     0.023 C 
BRANCH  39  40
ATOM     40  C   UNL     1      -7.874   5.533   8.444  1.00  0.00     0.026 C 
BRANCH  40  41
ATOM     41  C   UNL     1      -6.875   6.400   9.210  1.00  0.00     0.146 C 
BRANCH  41  42
ATOM     42  N   UNL     1      -6.510   5.744  10.459  1.00  0.00    -0.254 NA
ATOM     43  C   UNL     1      -7.230   5.921  11.502  1.00  0.00     0.185 C 
ATOM     44  N   UNL     1      -8.345   6.656  11.669  1.00  0.00    -0.370 N 
ATOM     45  N   UNL     1      -6.874   5.311  12.644  1.00  0.00    -0.370 N 
ATOM     46  H   UNL     1      -8.665   6.901  12.590  1.00  0.00     0.159 HD
ATOM     47  H   UNL     1      -8.762   7.174  10.901  1.00  0.00     0.159 HD
ATOM     48  H   UNL     1      -6.048   4.729  12.603  1.00  0.00     0.159 HD
ATOM     49  H   UNL     1      -7.499   5.207  13.423  1.00  0.00     0.159 HD
ENDBRANCH  41  42
ENDBRANCH  40  41
ENDBRANCH  39  40
ENDBRANCH  38  39
ENDBRANCH  36  38
ENDBRANCH   5  34
BRANCH   8  50
ATOM     50  O   UNL     1      -4.191   2.118  10.092  1.00  0.00    -0.245 OA
BRANCH  50  51
ATOM     51  S   UNL     1      -4.827   2.526  11.532  1.00  0.00     0.397 S 
ATOM     52  O   UNL     1      -6.267   2.487  11.410  1.00  0.00    -0.169 OA
ATOM     53  O   UNL     1      -4.140   3.689  12.055  1.00  0.00    -0.169 OA
BRANCH  51  54
ATOM     54  O   UNL     1      -4.430   1.264  12.444  1.00  0.00    -0.264 OA
ATOM     55  H   UNL     1      -3.997   0.603  11.867  1.00  0.00     0.236 HD
ENDBRANCH  51  54
ENDBRANCH  50  51
ENDBRANCH   8  50
TORSDOF 19
ENDMDL
MODEL 2
REMARK VINA RESULT:    -8.115      3.545      5.338
REMARK INTER + INTRA:         -19.328
REMARK INTER:                 -16.213
REMARK INTRA:                  -3.115
REMARK UNBOUND:                -2.911
REMARK SMILES CC[C@@H](C)[C@@H](NC(=O)[C@@H](O)Cc1ccc(O)c(Cl)c1)C(=O)N1[C@H](C(=O)NCCCCN=C(N)N)C[C@H]2CC[C@H](OS(=O)(=O)O)C[C@@H]21
REMARK SMILES IDX 22 1 36 2 46 3 35 4 23 5 45 6 37 7 39 8 38 9 20 10 21 11
REMARK SMILES IDX 5 12 6 13 7 14 8 15 9 17 11 18 12 19 17 20 19 21 15 22 14 23
REMARK SMILES IDX 13 24 18 25 16 26 10 28 3 30 4 31 2 32 1 33 24 34 25 35
REMARK SMILES IDX 26 36 27 38 28 39 29 40 30 41 31 42 32 43 33 44 34 45 40 50
REMARK SMILES IDX 41 51 42 52 43 53 44 54
REMARK H PARENT 6 16 16 27 10 29 26 37 33 46 33 47 34 48 34 49 44 55
ROOT
ATOM      1  N   UNL     1      -2.387   4.207   6.252  1.00  0.00    -0.326 N 
ATOM      2  C   UNL     1      -3.633   2.421   7.145  1.00  0.00     0.014 C 
ATOM      3  C   UNL     1      -2.202   2.928   6.943  1.00  0.00     0.091 C 
ATOM      4  C   UNL     1      -4.343   2.914   5.894  1.00  0.00     0.041 C 
ATOM      5  C   UNL     1      -3.799   4.353   5.822  1.00  0.00     0.175 C 
ATOM      6  C   UNL     1      -1.495   2.931   8.297  1.00  0.00     0.059 C 
ATOM      7  C   UNL     1      -3.642   0.940   7.470  1.00  0.00     0.008 C 
ATOM      8  C   UNL     1      -1.975   1.817   9.252  1.00  0.00     0.143 C 
ATOM      9  C   UNL     1      -2.532   0.599   8.487  1.00  0.00     0.034 C 
ENDROOT
BRANCH   1  10
ATOM     10  C   UNL     1      -1.445   5.112   5.793  1.00  0.00     0.246 C 
ATOM     11  O   UNL     1      -0.736   4.805   4.829  1.00  0.00    -0.272 OA
BRANCH  10  12
ATOM     12  C   UNL     1      -1.328   6.508   6.471  1.00  0.00     0.174 C 
BRANCH  12  13
ATOM     13  N   UNL     1      -0.948   7.514   5.480  1.00  0.00    -0.342 N 
ATOM     14  C   UNL     1      -1.794   8.466   4.956  1.00  0.00     0.249 C 
ATOM     15  O   UNL     1      -2.966   8.593   5.287  1.00  0.00    -0.272 OA
ATOM     16  H   UNL     1      -0.057   7.434   4.998  1.00  0.00     0.164 HD
BRANCH  14  17
ATOM     17  C   UNL     1      -1.100   9.372   3.917  1.00  0.00     0.207 C 
BRANCH  17  18
ATOM     18  C   UNL     1       0.086   8.643   3.277  1.00  0.00     0.077 C 
BRANCH  18  19
ATOM     19  C   UNL     1      -0.111   8.444   1.791  1.00  0.00    -0.043 A 
ATOM     20  C   UNL     1      -1.579   8.066  -0.103  1.00  0.00     0.083 A 
ATOM     21  C   UNL     1      -1.403   8.299   1.262  1.00  0.00     0.028 A 
ATOM     22  C   UNL     1      -0.470   7.976  -0.944  1.00  0.00     0.134 A 
ATOM     23  C   UNL     1       0.815   8.118  -0.433  1.00  0.00     0.048 A 
ATOM     24  C   UNL     1       0.994   8.349   0.932  1.00  0.00     0.008 A 
ATOM     25  Cl  UNL     1      -3.174   7.891  -0.735  1.00  0.00    -0.080 Cl
BRANCH  22  26
ATOM     26  O   UNL     1      -0.592   7.739  -2.287  1.00  0.00    -0.506 OA
ATOM     27  H   UNL     1       0.295   7.855  -2.674  1.00  0.00     0.293 HD
ENDBRANCH  22  26
ENDBRANCH  18  19
ENDBRANCH  17  18
BRANCH  17  28
ATOM     28  O   UNL     1      -0.640  10.592   4.520  1.00  0.00    -0.383 OA
ATOM     29  H   UNL     1       0.325  10.472   4.674  1.00  0.00     0.211 HD
ENDBRANCH  17  28
ENDBRANCH  14  17
ENDBRANCH  12  13
BRANCH  12  30
ATOM     30  C   UNL     1      -0.380   6.500   7.701  1.00  0.00     0.018 C 
ATOM     31  C   UNL     1      -0.402   7.860   8.416  1.00  0.00     0.010 C 
BRANCH  30  32
ATOM     32  C   UNL     1       1.076   6.102   7.360  1.00  0.00     0.002 C 
ATOM     33  C   UNL     1       1.616   4.897   8.119  1.00  0.00     0.004 C 
ENDBRANCH  30  32
ENDBRANCH  12  30
ENDBRANCH  10  12
ENDBRANCH   1  10
BRANCH   5  34
ATOM     34  C   UNL     1      -4.570   5.304   6.775  1.00  0.00     0.242 C 
ATOM     35  O   UNL     1      -4.227   5.484   7.944  1.00  0.00    -0.273 OA
ATOM     36  N   UNL     1      -5.694   5.890   6.236  1.00  0.00    -0.354 N 
ATOM     37  H   UNL     1      -5.994   5.609   5.302  1.00  0.00     0.163 HD
BRANCH  36  38
ATOM     38  C   UNL     1      -6.404   6.960   6.905  1.00  0.00     0.116 C 
BRANCH  38  39
ATOM     39  C   UNL     1      -7.664   6.411   7.570  1.00  0.00     0.023 C 
BRANCH  39  40
ATOM     40  C   UNL     1      -7.525   6.307   9.085  1.00  0.00     0.026 C 
BRANCH  40  41
ATOM     41  C   UNL     1      -7.169   4.880   9.500  1.00  0.00     0.146 C 
BRANCH  41  42
ATOM     42  N   UNL     1      -6.749   4.863  10.895  1.00  0.00    -0.254 NA
ATOM     43  C   UNL     1      -7.072   3.875  11.642  1.00  0.00     0.185 C 
ATOM     44  N   UNL     1      -7.779   2.767  11.353  1.00  0.00    -0.370 N 
ATOM     45  N   UNL     1      -6.679   3.881  12.926  1.00  0.00    -0.370 N 
ATOM     46  H   UNL     1      -8.163   2.198  12.088  1.00  0.00     0.159 HD
ATOM     47  H   UNL     1      -8.142   2.594  10.421  1.00  0.00     0.159 HD
ATOM     48  H   UNL     1      -6.133   4.677  13.224  1.00  0.00     0.159 HD
ATOM     49  H   UNL     1      -6.683   3.056  13.500  1.00  0.00     0.159 HD
ENDBRANCH  41  42
ENDBRANCH  40  41
ENDBRANCH  39  40
ENDBRANCH  38  39
ENDBRANCH  36  38
ENDBRANCH   5  34
BRANCH   8  50
ATOM     50  O   UNL     1      -2.998   2.317  10.114  1.00  0.00    -0.245 OA
BRANCH  50  51
ATOM     51  S   UNL     1      -3.158   1.701  11.611  1.00  0.00     0.397 S 
ATOM     52  O   UNL     1      -1.842   1.623  12.204  1.00  0.00    -0.169 OA
ATOM     53  O   UNL     1      -4.044   0.556  11.573  1.00  0.00    -0.169 OA
BRANCH  51  54
ATOM     54  O   UNL     1      -3.916   2.890  12.383  1.00  0.00    -0.264 OA
ATOM     55  H   UNL     1      -3.565   3.738  12.043  1.00  0.00     0.236 HD
ENDBRANCH  51  54
ENDBRANCH  50  51
ENDBRANCH   8  50
TORSDOF 19
ENDMDL
MODEL 3
REMARK VINA RESULT:    -8.096      3.658      5.506
REMARK INTER + INTRA:         -19.289
REMARK INTER:                 -16.524
REMARK INTRA:                  -2.765
REMARK UNBOUND:                -2.911
REMARK SMILES CC[C@@H](C)[C@@H](NC(=O)[C@@H](O)Cc1ccc(O)c(Cl)c1)C(=O)N1[C@H](C(=O)NCCCCN=C(N)N)C[C@H]2CC[C@H](OS(=O)(=O)O)C[C@@H]21
REMARK SMILES IDX 22 1 36 2 46 3 35 4 23 5 45 6 37 7 39 8 38 9 20 10 21 11
REMARK SMILES IDX 5 12 6 13 7 14 8 15 9 17 11 18 12 19 17 20 19 21 15 22 14 23
REMARK SMILES IDX 13 24 18 25 16 26 10 28 3 30 4 31 2 32 1 33 24 34 25 35
REMARK SMILES IDX 26 36 27 38 28 39 29 40 30 41 31 42 32 43 33 44 34 45 40 50
REMARK SMILES IDX 41 51 42 52 43 53 44 54
REMARK H PARENT 6 16 16 27 10 29 26 37 33 46 33 47 34 48 34 49 44 55
ROOT
ATOM      1  N   UNL     1      -2.437   3.231   6.008  1.00  0.00    -0.326 N 
ATOM      2  C   UNL     1      -3.618   1.623   7.259  1.00  0.00     0.014 C 
ATOM      3  C   UNL     1      -2.251   2.301   7.126  1.00  0.00     0.091 C 
ATOM      4  C   UNL     1      -4.093   1.543   5.816  1.00  0.00     0.041 C 
ATOM      5  C   UNL     1      -3.729   2.958   5.331  1.00  0.00     0.175 C 
ATOM      6  C   UNL     1      -1.862   2.874   8.488  1.00  0.00     0.059 C 
ATOM      7  C   UNL     1      -3.515   0.353   8.079  1.00  0.00     0.008 C 
ATOM      8  C   UNL     1      -2.398   2.056   9.683  1.00  0.00     0.143 C 
ATOM      9  C   UNL     1      -2.620   0.575   9.317  1.00  0.00     0.034 C 
ENDROOT
BRANCH   1  10
ATOM     10  C   UNL     1      -1.537   4.102   5.420  1.00  0.00     0.246 C 
ATOM     11  O   UNL     1      -0.716   3.661   4.608  1.00  0.00    -0.272 OA
BRANCH  10  12
ATOM     12  C   UNL     1      -1.605   5.620   5.758  1.00  0.00     0.174 C 
BRANCH  12  13
ATOM     13  N   UNL     1      -0.743   6.373   4.848  1.00  0.00    -0.342 N 
ATOM     14  C   UNL     1      -1.062   7.585   4.279  1.00  0.00     0.249 C 
ATOM     15  O   UNL     1      -2.106   8.187   4.498  1.00  0.00    -0.272 OA
ATOM     16  H   UNL     1       0.082   5.929   4.453  1.00  0.00     0.164 HD
BRANCH  14  17
ATOM     17  C   UNL     1       0.048   8.118   3.349  1.00  0.00     0.207 C 
BRANCH  17  18
ATOM     18  C   UNL     1       0.007   7.396   1.998  1.00  0.00     0.077 C 
BRANCH  18  19
ATOM     19  C   UNL     1      -0.410   8.323   0.878  1.00  0.00    -0.043 A 
ATOM     20  C   UNL     1      -0.795   8.728  -1.482  1.00  0.00     0.083 A 
ATOM     21  C   UNL     1      -0.457   7.858  -0.445  1.00  0.00     0.028 A 
ATOM     22  C   UNL     1      -1.085  10.065  -1.206  1.00  0.00     0.134 A 
ATOM     23  C   UNL     1      -1.042  10.538   0.101  1.00  0.00     0.048 A 
ATOM     24  C   UNL     1      -0.703   9.670   1.141  1.00  0.00     0.008 A 
ATOM     25  Cl  UNL     1      -0.847   8.139  -3.102  1.00  0.00    -0.080 Cl
BRANCH  22  26
ATOM     26  O   UNL     1      -1.411  10.958  -2.190  1.00  0.00    -0.506 OA
ATOM     27  H   UNL     1      -1.966  10.477  -2.832  1.00  0.00     0.293 HD
ENDBRANCH  22  26
ENDBRANCH  18  19
ENDBRANCH  17  18
BRANCH  17  28
ATOM     28  O   UNL     1       1.346   7.947   3.941  1.00  0.00    -0.383 OA
ATOM     29  H   UNL     1       1.912   8.659   3.567  1.00  0.00     0.211 HD
ENDBRANCH  17  28
ENDBRANCH  14  17
ENDBRANCH  12  13
BRANCH  12  30
ATOM     30  C   UNL     1      -1.293   5.916   7.250  1.00  0.00     0.018 C 
ATOM     31  C   UNL     1      -2.224   7.010   7.796  1.00  0.00     0.010 C 
BRANCH  30  32
ATOM     32  C   UNL     1       0.185   6.296   7.513  1.00  0.00     0.002 C 
ATOM     33  C   UNL     1       1.083   5.147   7.953  1.00  0.00     0.004 C 
ENDBRANCH  30  32
ENDBRANCH  12  30
ENDBRANCH  10  12
ENDBRANCH   1  10
BRANCH   5  34
ATOM     34  C   UNL     1      -4.800   4.001   5.748  1.00  0.00     0.242 C 
ATOM     35  O   UNL     1      -5.631   4.444   4.956  1.00  0.00    -0.273 OA
ATOM     36  N   UNL     1      -4.720   4.432   7.053  1.00  0.00    -0.354 N 
ATOM     37  H   UNL     1      -3.936   4.118   7.628  1.00  0.00     0.163 HD
BRANCH  36  38
ATOM     38  C   UNL     1      -5.759   5.231   7.669  1.00  0.00     0.116 C 
BRANCH  38  39
ATOM     39  C   UNL     1      -6.896   4.328   8.141  1.00  0.00     0.023 C 
BRANCH  39  40
ATOM     40  C   UNL     1      -7.764   4.991   9.205  1.00  0.00     0.026 C 
BRANCH  40  41
ATOM     41  C   UNL     1      -7.473   4.404  10.586  1.00  0.00     0.146 C 
BRANCH  41  42
ATOM     42  N   UNL     1      -6.799   5.398  11.411  1.00  0.00    -0.254 NA
ATOM     43  C   UNL     1      -6.631   5.176  12.660  1.00  0.00     0.185 C 
ATOM     44  N   UNL     1      -6.988   4.114  13.406  1.00  0.00    -0.370 N 
ATOM     45  N   UNL     1      -6.011   6.106  13.404  1.00  0.00    -0.370 N 
ATOM     46  H   UNL     1      -7.014   4.177  14.409  1.00  0.00     0.159 HD
ATOM     47  H   UNL     1      -7.456   3.310  12.998  1.00  0.00     0.159 HD
ATOM     48  H   UNL     1      -5.701   6.936  12.917  1.00  0.00     0.159 HD
ATOM     49  H   UNL     1      -5.636   5.913  14.315  1.00  0.00     0.159 HD
ENDBRANCH  41  42
ENDBRANCH  40  41
ENDBRANCH  39  40
ENDBRANCH  38  39
ENDBRANCH  36  38
ENDBRANCH   5  34
BRANCH   8  50
ATOM     50  O   UNL     1      -3.638   2.602  10.134  1.00  0.00    -0.245 OA
BRANCH  50  51
ATOM     51  S   UNL     1      -4.071   2.429  11.693  1.00  0.00     0.397 S 
ATOM     52  O   UNL     1      -2.979   1.790  12.391  1.00  0.00    -0.169 OA
ATOM     53  O   UNL     1      -5.424   1.918  11.767  1.00  0.00    -0.169 OA
BRANCH  51  54
ATOM     54  O   UNL     1      -4.087   3.953  12.207  1.00  0.00    -0.264 OA
ATOM     55  H   UNL     1      -4.669   3.996  12.994  1.00  0.00     0.236 HD
ENDBRANCH  51  54
ENDBRANCH  50  51
ENDBRANCH   8  50
TORSDOF 19
ENDMDL
MODEL 4
REMARK VINA RESULT:    -8.028      1.105      1.607
REMARK INTER + INTRA:         -19.152
REMARK INTER:                 -16.210
REMARK INTRA:                  -2.941
REMARK UNBOUND:                -2.911
REMARK SMILES CC[C@@H](C)[C@@H](NC(=O)[C@@H](O)Cc1ccc(O)c(Cl)c1)C(=O)N1[C@H](C(=O)NCCCCN=C(N)N)C[C@H]2CC[C@H](OS(=O)(=O)O)C[C@@H]21
REMARK SMILES IDX 22 1 36 2 46 3 35 4 23 5 45 6 37 7 39 8 38 9 20 10 21 11
REMARK SMILES IDX 5 12 6 13 7 14 8 15 9 17 11 18 12 19 17 20 19 21 15 22 14 23
REMARK SMILES IDX 13 24 18 25 16 26 10 28 3 30 4 31 2 32 1 33 24 34 25 35
REMARK SMILES IDX 26 36 27 38 28 39 29 40 30 41 31 42 32 43 33 44 34 45 40 50
REMARK SMILES IDX 41 51 42 52 43 53 44 54
REMARK H PARENT 6 16 16 27 10 29 26 37 33 46 33 47 34 48 34 49 44 55
ROOT
ATOM      1  N   UNL     1      -2.182   4.643   6.636  1.00  0.00    -0.326 N 
ATOM      2  C   UNL     1      -3.214   2.538   6.853  1.00  0.00     0.014 C 
ATOM      3  C   UNL     1      -1.959   3.326   7.239  1.00  0.00     0.091 C 
ATOM      4  C   UNL     1      -3.541   3.085   5.471  1.00  0.00     0.041 C 
ATOM      5  C   UNL     1      -3.352   4.592   5.724  1.00  0.00     0.175 C 
ATOM      6  C   UNL     1      -1.785   3.243   8.755  1.00  0.00     0.059 C 
ATOM      7  C   UNL     1      -2.995   1.048   7.029  1.00  0.00     0.008 C 
ATOM      8  C   UNL     1      -2.296   1.922   9.368  1.00  0.00     0.143 C 
ATOM      9  C   UNL     1      -2.259   0.760   8.355  1.00  0.00     0.034 C 
ENDROOT
BRANCH   1  10
ATOM     10  C   UNL     1      -1.375   5.767   6.635  1.00  0.00     0.246 C 
ATOM     11  O   UNL     1      -1.887   6.876   6.823  1.00  0.00    -0.272 OA
BRANCH  10  12
ATOM     12  C   UNL     1       0.161   5.608   6.443  1.00  0.00     0.174 C 
BRANCH  12  13
ATOM     13  N   UNL     1       0.870   6.203   7.575  1.00  0.00    -0.342 N 
ATOM     14  C   UNL     1       1.733   5.529   8.410  1.00  0.00     0.249 C 
ATOM     15  O   UNL     1       2.027   4.348   8.277  1.00  0.00    -0.272 OA
ATOM     16  H   UNL     1       0.609   7.130   7.902  1.00  0.00     0.164 HD
BRANCH  14  17
ATOM     17  C   UNL     1       2.310   6.429   9.523  1.00  0.00     0.207 C 
BRANCH  17  18
ATOM     18  C   UNL     1       2.763   7.773   8.944  1.00  0.00     0.077 C 
BRANCH  18  19
ATOM     19  C   UNL     1       4.153   7.690   8.354  1.00  0.00    -0.043 A 
ATOM     20  C   UNL     1       6.533   8.132   8.510  1.00  0.00     0.083 A 
ATOM     21  C   UNL     1       5.259   8.164   9.077  1.00  0.00     0.028 A 
ATOM     22  C   UNL     1       6.712   7.629   7.221  1.00  0.00     0.134 A 
ATOM     23  C   UNL     1       5.625   7.156   6.494  1.00  0.00     0.048 A 
ATOM     24  C   UNL     1       4.348   7.189   7.058  1.00  0.00     0.008 A 
ATOM     25  Cl  UNL     1       7.880   8.719   9.414  1.00  0.00    -0.080 Cl
BRANCH  22  26
ATOM     26  O   UNL     1       7.940   7.586   6.619  1.00  0.00    -0.506 OA
ATOM     27  H   UNL     1       7.824   7.943   5.719  1.00  0.00     0.293 HD
ENDBRANCH  22  26
ENDBRANCH  18  19
ENDBRANCH  17  18
BRANCH  17  28
ATOM     28  O   UNL     1       3.419   5.795  10.179  1.00  0.00    -0.383 OA
ATOM     29  H   UNL     1       3.947   5.366   9.468  1.00  0.00     0.211 HD
ENDBRANCH  17  28
ENDBRANCH  14  17
ENDBRANCH  12  13
BRANCH  12  30
ATOM     30  C   UNL     1       0.655   6.160   5.078  1.00  0.00     0.018 C 
ATOM     31  C   UNL     1       1.102   7.624   5.211  1.00  0.00     0.010 C 
BRANCH  30  32
ATOM     32  C   UNL     1      -0.384   6.022   3.939  1.00  0.00     0.002 C 
ATOM     33  C   UNL     1      -0.048   6.773   2.657  1.00  0.00     0.004 C 
ENDBRANCH  30  32
ENDBRANCH  12  30
ENDBRANCH  10  12
ENDBRANCH   1  10
BRANCH   5  34
ATOM     34  C   UNL     1      -4.601   5.221   6.396  1.00  0.00     0.242 C 
ATOM     35  O   UNL     1      -5.518   5.720   5.744  1.00  0.00    -0.273 OA
ATOM     36  N   UNL     1      -4.584   5.228   7.773  1.00  0.00    -0.354 N 
ATOM     37  H   UNL     1      -3.743   4.909   8.255  1.00  0.00     0.163 HD
BRANCH  36  38
ATOM     38  C   UNL     1      -5.750   5.575   8.559  1.00  0.00     0.116 C 
BRANCH  38  39
ATOM     39  C   UNL     1      -5.664   7.035   8.998  1.00  0.00     0.023 C 
BRANCH  39  40
ATOM     40  C   UNL     1      -6.725   7.396  10.032  1.00  0.00     0.026 C 
BRANCH  40  41
ATOM     41  C   UNL     1      -6.179   7.233  11.450  1.00  0.00     0.146 C 
BRANCH  41  42
ATOM     42  N   UNL     1      -6.834   6.107  12.103  1.00  0.00    -0.254 NA
ATOM     43  C   UNL     1      -6.138   5.098  12.474  1.00  0.00     0.185 C 
ATOM     44  N   UNL     1      -4.817   4.870  12.363  1.00  0.00    -0.370 N 
ATOM     45  N   UNL     1      -6.762   4.069  13.070  1.00  0.00    -0.370 N 
ATOM     46  H   UNL     1      -4.446   3.942  12.472  1.00  0.00     0.159 HD
ATOM     47  H   UNL     1      -4.191   5.553  11.947  1.00  0.00     0.159 HD
ATOM     48  H   UNL     1      -7.760   4.163  13.201  1.00  0.00     0.159 HD
ATOM     49  H   UNL     1      -6.271   3.365  13.593  1.00  0.00     0.159 HD
ENDBRANCH  41  42
ENDBRANCH  40  41
ENDBRANCH  39  40
ENDBRANCH  38  39
ENDBRANCH  36  38
ENDBRANCH   5  34
BRANCH   8  50
ATOM     50  O   UNL     1      -3.640   2.081   9.825  1.00  0.00    -0.245 OA
BRANCH  50  51
ATOM     51  S   UNL     1      -4.088   1.424  11.244  1.00  0.00     0.397 S 
ATOM     52  O   UNL     1      -3.781   0.012  11.199  1.00  0.00    -0.169 OA
ATOM     53  O   UNL     1      -5.405   1.903  11.607  1.00  0.00    -0.169 OA
BRANCH  51  54
ATOM     54  O   UNL     1      -3.026   2.071  12.264  1.00  0.00    -0.264 OA
ATOM     55  H   UNL     1      -3.012   3.037  12.107  1.00  0.00     0.236 HD
ENDBRANCH  51  54
ENDBRANCH  50  51
ENDBRANCH   8  50
TORSDOF 19
ENDMDL
MODEL 5
REMARK VINA RESULT:    -7.888     11.236     14.444
REMARK INTER + INTRA:         -18.869
REMARK INTER:                 -13.389
REMARK INTRA:                  -5.480
REMARK UNBOUND:                -2.911
REMARK SMILES CC[C@@H](C)[C@@H](NC(=O)[C@@H](O)Cc1ccc(O)c(Cl)c1)C(=O)N1[C@H](C(=O)NCCCCN=C(N)N)C[C@H]2CC[C@H](OS(=O)(=O)O)C[C@@H]21
REMARK SMILES IDX 22 1 36 2 46 3 35 4 23 5 45 6 37 7 39 8 38 9 20 10 21 11
REMARK SMILES IDX 5 12 6 13 7 14 8 15 9 17 11 18 12 19 17 20 19 21 15 22 14 23
REMARK SMILES IDX 13 24 18 25 16 26 10 28 3 30 4 31 2 32 1 33 24 34 25 35
REMARK SMILES IDX 26 36 27 38 28 39 29 40 30 41 31 42 32 43 33 44 34 45 40 50
REMARK SMILES IDX 41 51 42 52 43 53 44 54
REMARK H PARENT 6 16 16 27 10 29 26 37 33 46 33 47 34 48 34 49 44 55
ROOT
ATOM      1  N   UNL     1      -5.054   4.424  -1.597  1.00  0.00    -0.326 N 
ATOM      2  C   UNL     1      -6.602   2.865  -0.750  1.00  0.00     0.014 C 
ATOM      3  C   UNL     1      -6.241   4.353  -0.740  1.00  0.00     0.091 C 
ATOM      4  C   UNL     1      -5.240   2.191  -0.817  1.00  0.00     0.041 C 
ATOM      5  C   UNL     1      -4.560   3.057  -1.894  1.00  0.00     0.175 C 
ATOM      6  C   UNL     1      -7.477   5.153  -1.148  1.00  0.00     0.059 C 
ATOM      7  C   UNL     1      -7.543   2.528   0.389  1.00  0.00     0.008 C 
ATOM      8  C   UNL     1      -8.809   4.501  -0.716  1.00  0.00     0.143 C 
ATOM      9  C   UNL     1      -8.639   3.605   0.527  1.00  0.00     0.034 C 
ENDROOT
BRANCH   1  10
ATOM     10  C   UNL     1      -4.273   5.513  -1.944  1.00  0.00     0.246 C 
ATOM     11  O   UNL     1      -3.187   5.680  -1.378  1.00  0.00    -0.272 OA
BRANCH  10  12
ATOM     12  C   UNL     1      -4.757   6.478  -3.065  1.00  0.00     0.174 C 
BRANCH  12  13
ATOM     13  N   UNL     1      -5.012   5.726  -4.294  1.00  0.00    -0.342 N 
ATOM     14  C   UNL     1      -6.139   5.847  -5.075  1.00  0.00     0.249 C 
ATOM     15  O   UNL     1      -7.052   6.628  -4.839  1.00  0.00    -0.272 OA
ATOM     16  H   UNL     1      -4.421   4.933  -4.531  1.00  0.00     0.164 HD
BRANCH  14  17
ATOM     17  C   UNL     1      -6.120   4.905  -6.298  1.00  0.00     0.207 C 
BRANCH  17  18
ATOM     18  C   UNL     1      -6.342   5.698  -7.589  1.00  0.00     0.077 C 
BRANCH  18  19
ATOM     19  C   UNL     1      -5.039   6.186  -8.181  1.00  0.00    -0.043 A 
ATOM     20  C   UNL     1      -3.232   7.803  -8.242  1.00  0.00     0.083 A 
ATOM     21  C   UNL     1      -4.408   7.328  -7.662  1.00  0.00     0.028 A 
ATOM     22  C   UNL     1      -2.679   7.145  -9.341  1.00  0.00     0.134 A 
ATOM     23  C   UNL     1      -3.293   6.013  -9.865  1.00  0.00     0.048 A 
ATOM     24  C   UNL     1      -4.472   5.535  -9.288  1.00  0.00     0.008 A 
ATOM     25  Cl  UNL     1      -2.472   9.208  -7.590  1.00  0.00    -0.080 Cl
BRANCH  22  26
ATOM     26  O   UNL     1      -1.533   7.580  -9.950  1.00  0.00    -0.506 OA
ATOM     27  H   UNL     1      -1.612   8.548 -10.035  1.00  0.00     0.293 HD
ENDBRANCH  22  26
ENDBRANCH  18  19
ENDBRANCH  17  18
BRANCH  17  28
ATOM     28  O   UNL     1      -7.129   3.888  -6.183  1.00  0.00    -0.383 OA
ATOM     29  H   UNL     1      -6.651   3.028  -6.203  1.00  0.00     0.211 HD
ENDBRANCH  17  28
ENDBRANCH  14  17
ENDBRANCH  12  13
BRANCH  12  30
ATOM     30  C   UNL     1      -3.790   7.670  -3.290  1.00  0.00     0.018 C 
ATOM     31  C   UNL     1      -4.568   8.944  -3.657  1.00  0.00     0.010 C 
BRANCH  30  32
ATOM     32  C   UNL     1      -2.695   7.392  -4.349  1.00  0.00     0.002 C 
ATOM     33  C   UNL     1      -1.303   7.898  -3.996  1.00  0.00     0.004 C 
ENDBRANCH  30  32
ENDBRANCH  12  30
ENDBRANCH  10  12
ENDBRANCH   1  10
BRANCH   5  34
ATOM     34  C   UNL     1      -4.976   2.621  -3.325  1.00  0.00     0.242 C 
ATOM     35  O   UNL     1      -6.134   2.717  -3.731  1.00  0.00    -0.273 OA
ATOM     36  N   UNL     1      -3.969   2.070  -4.085  1.00  0.00    -0.354 N 
ATOM     37  H   UNL     1      -3.059   1.907  -3.652  1.00  0.00     0.163 HD
BRANCH  36  38
ATOM     38  C   UNL     1      -4.124   1.811  -5.502  1.00  0.00     0.116 C 
BRANCH  38  39
ATOM     39  C   UNL     1      -4.413   0.329  -5.728  1.00  0.00     0.023 C 
BRANCH  39  40
ATOM     40  C   UNL     1      -5.796   0.089  -6.324  1.00  0.00     0.026 C 
BRANCH  40  41
ATOM     41  C   UNL     1      -6.834  -0.113  -5.220  1.00  0.00     0.146 C 
BRANCH  41  42
ATOM     42  N   UNL     1      -8.126   0.398  -5.658  1.00  0.00    -0.254 NA
ATOM     43  C   UNL     1      -8.897   0.976  -4.816  1.00  0.00     0.185 C 
ATOM     44  N   UNL     1      -8.720   1.216  -3.504  1.00  0.00    -0.370 N 
ATOM     45  N   UNL     1     -10.086   1.437  -5.239  1.00  0.00    -0.370 N 
ATOM     46  H   UNL     1      -9.501   1.456  -2.916  1.00  0.00     0.159 HD
ATOM     47  H   UNL     1      -7.868   0.946  -3.023  1.00  0.00     0.159 HD
ATOM     48  H   UNL     1     -10.295   1.304  -6.219  1.00  0.00     0.159 HD
ATOM     49  H   UNL     1     -10.632   2.097  -4.714  1.00  0.00     0.159 HD
ENDBRANCH  41  42
ENDBRANCH  40  41
ENDBRANCH  39  40
ENDBRANCH  38  39
ENDBRANCH  36  38
ENDBRANCH   5  34
BRANCH   8  50
ATOM     50  O   UNL     1      -9.333   3.706  -1.780  1.00  0.00    -0.245 OA
BRANCH  50  51
ATOM     51  S   UNL     1     -10.101   4.428  -3.019  1.00  0.00     0.397 S 
ATOM     52  O   UNL     1      -9.241   4.359  -4.179  1.00  0.00    -0.169 OA
ATOM     53  O   UNL     1     -10.674   5.681  -2.572  1.00  0.00    -0.169 OA
BRANCH  51  54
ATOM     54  O   UNL     1     -11.308   3.405  -3.307  1.00  0.00    -0.264 OA
ATOM     55  H   UNL     1     -11.776   3.250  -2.461  1.00  0.00     0.236 HD
ENDBRANCH  51  54
ENDBRANCH  50  51
ENDBRANCH   8  50
TORSDOF 19
ENDMDL
MODEL 6
REMARK VINA RESULT:    -7.812     12.011     14.981
REMARK INTER + INTRA:         -18.714
REMARK INTER:                 -14.750
REMARK INTRA:                  -3.964
REMARK UNBOUND:                -2.911
REMARK SMILES CC[C@@H](C)[C@@H](NC(=O)[C@@H](O)Cc1ccc(O)c(Cl)c1)C(=O)N1[C@H](C(=O)NCCCCN=C(N)N)C[C@H]2CC[C@H](OS(=O)(=O)O)C[C@@H]21
REMARK SMILES IDX 22 1 36 2 46 3 35 4 23 5 45 6 37 7 39 8 38 9 20 10 21 11
REMARK SMILES IDX 5 12 6 13 7 14 8 15 9 17 11 18 12 19 17 20 19 21 15 22 14 23
REMARK SMILES IDX 13 24 18 25 16 26 10 28 3 30 4 31 2 32 1 33 24 34 25 35
REMARK SMILES IDX 26 36 27 38 28 39 29 40 30 41 31 42 32 43 33 44 34 45 40 50
REMARK SMILES IDX 41 51 42 52 43 53 44 54
REMARK H PARENT 6 16 16 27 10 29 26 37 33 46 33 47 34 48 34 49 44 55
ROOT
ATOM      1  N   UNL     1      -7.556   2.965  -5.097  1.00  0.00    -0.326 N 
ATOM      2  C   UNL     1      -6.537   2.509  -3.024  1.00  0.00     0.014 C 
ATOM      3  C   UNL     1      -6.523   3.491  -4.199  1.00  0.00     0.091 C 
ATOM      4  C   UNL     1      -6.850   1.183  -3.699  1.00  0.00     0.041 C 
ATOM      5  C   UNL     1      -7.985   1.619  -4.644  1.00  0.00     0.175 C 
ATOM      6  C   UNL     1      -6.693   4.905  -3.649  1.00  0.00     0.059 C 
ATOM      7  C   UNL     1      -5.276   2.641  -2.193  1.00  0.00     0.008 C 
ATOM      8  C   UNL     1      -6.081   5.104  -2.245  1.00  0.00     0.143 C 
ATOM      9  C   UNL     1      -4.919   4.126  -1.977  1.00  0.00     0.034 C 
ENDROOT
BRANCH   1  10
ATOM     10  C   UNL     1      -7.978   3.428  -6.331  1.00  0.00     0.246 C 
ATOM     11  O   UNL     1      -8.941   4.201  -6.386  1.00  0.00    -0.272 OA
BRANCH  10  12
ATOM     12  C   UNL     1      -7.208   3.002  -7.615  1.00  0.00     0.174 C 
BRANCH  12  13
ATOM     13  N   UNL     1      -5.901   2.455  -7.254  1.00  0.00    -0.342 N 
ATOM     14  C   UNL     1      -5.462   1.187  -7.564  1.00  0.00     0.249 C 
ATOM     15  O   UNL     1      -6.117   0.378  -8.209  1.00  0.00    -0.272 OA
ATOM     16  H   UNL     1      -5.315   2.950  -6.587  1.00  0.00     0.164 HD
BRANCH  14  17
ATOM     17  C   UNL     1      -4.043   0.901  -7.029  1.00  0.00     0.207 C 
BRANCH  17  18
ATOM     18  C   UNL     1      -3.189   0.228  -8.108  1.00  0.00     0.077 C 
BRANCH  18  19
ATOM     19  C   UNL     1      -2.355   1.231  -8.871  1.00  0.00    -0.043 A 
ATOM     20  C   UNL     1      -0.192   2.179  -9.427  1.00  0.00     0.083 A 
ATOM     21  C   UNL     1      -0.956   1.220  -8.760  1.00  0.00     0.028 A 
ATOM     22  C   UNL     1      -0.818   3.153 -10.205  1.00  0.00     0.134 A 
ATOM     23  C   UNL     1      -2.203   3.175 -10.325  1.00  0.00     0.048 A 
ATOM     24  C   UNL     1      -2.970   2.218  -9.657  1.00  0.00     0.008 A 
ATOM     25  Cl  UNL     1       1.526   2.149  -9.277  1.00  0.00    -0.080 Cl
BRANCH  22  26
ATOM     26  O   UNL     1      -0.112   4.119 -10.869  1.00  0.00    -0.506 OA
ATOM     27  H   UNL     1      -0.022   4.872 -10.255  1.00  0.00     0.293 HD
ENDBRANCH  22  26
ENDBRANCH  18  19
ENDBRANCH  17  18
BRANCH  17  28
ATOM     28  O   UNL     1      -4.090   0.060  -5.865  1.00  0.00    -0.383 OA
ATOM     29  H   UNL     1      -4.083  -0.866  -6.197  1.00  0.00     0.211 HD
ENDBRANCH  17  28
ENDBRANCH  14  17
ENDBRANCH  12  13
BRANCH  12  30
ATOM     30  C   UNL     1      -7.104   4.146  -8.659  1.00  0.00     0.018 C 
ATOM     31  C   UNL     1      -6.708   3.593 -10.037  1.00  0.00     0.010 C 
BRANCH  30  32
ATOM     32  C   UNL     1      -6.136   5.280  -8.243  1.00  0.00     0.002 C 
ATOM     33  C   UNL     1      -4.911   5.450  -9.133  1.00  0.00     0.004 C 
ENDBRANCH  30  32
ENDBRANCH  12  30
ENDBRANCH  10  12
ENDBRANCH   1  10
BRANCH   5  34
ATOM     34  C   UNL     1      -9.347   1.697  -3.903  1.00  0.00     0.242 C 
ATOM     35  O   UNL     1      -9.441   1.565  -2.683  1.00  0.00    -0.273 OA
ATOM     36  N   UNL     1     -10.446   1.869  -4.715  1.00  0.00    -0.354 N 
ATOM     37  H   UNL     1     -10.317   1.851  -5.727  1.00  0.00     0.163 HD
BRANCH  36  38
ATOM     38  C   UNL     1     -11.758   2.176  -4.185  1.00  0.00     0.116 C 
BRANCH  38  39
ATOM     39  C   UNL     1     -12.016   3.679  -4.276  1.00  0.00     0.023 C 
BRANCH  39  40
ATOM     40  C   UNL     1     -11.793   4.390  -2.946  1.00  0.00     0.026 C 
BRANCH  40  41
ATOM     41  C   UNL     1     -11.983   3.424  -1.776  1.00  0.00     0.146 C 
BRANCH  41  42
ATOM     42  N   UNL     1     -11.864   4.147  -0.517  1.00  0.00    -0.254 NA
ATOM     43  C   UNL     1     -10.789   4.048   0.171  1.00  0.00     0.185 C 
ATOM     44  N   UNL     1      -9.666   3.350  -0.074  1.00  0.00    -0.370 N 
ATOM     45  N   UNL     1     -10.702   4.719   1.332  1.00  0.00    -0.370 N 
ATOM     46  H   UNL     1      -9.004   3.169   0.661  1.00  0.00     0.159 HD
ATOM     47  H   UNL     1      -9.556   2.796  -0.918  1.00  0.00     0.159 HD
ATOM     48  H   UNL     1     -11.504   5.278   1.588  1.00  0.00     0.159 HD
ATOM     49  H   UNL     1      -9.829   4.884   1.800  1.00  0.00     0.159 HD
ENDBRANCH  41  42
ENDBRANCH  40  41
ENDBRANCH  39  40
ENDBRANCH  38  39
ENDBRANCH  36  38
ENDBRANCH   5  34
BRANCH   8  50
ATOM     50  O   UNL     1      -7.079   4.909  -1.243  1.00  0.00    -0.245 OA
BRANCH  50  51
ATOM     51  S   UNL     1      -7.650   6.190  -0.419  1.00  0.00     0.397 S 
ATOM     52  O   UNL     1      -8.993   6.457  -0.883  1.00  0.00    -0.169 OA
ATOM     53  O   UNL     1      -6.642   7.229  -0.375  1.00  0.00    -0.169 OA
BRANCH  51  54
ATOM     54  O   UNL     1      -7.810   5.591   1.064  1.00  0.00    -0.264 OA
ATOM     55  H   UNL     1      -7.973   4.629   0.981  1.00  0.00     0.236 HD
ENDBRANCH  51  54
ENDBRANCH  50  51
ENDBRANCH   8  50
TORSDOF 19
ENDMDL
MODEL 7
REMARK VINA RESULT:    -7.799      1.994      2.890
REMARK INTER + INTRA:         -18.688
REMARK INTER:                 -15.219
REMARK INTRA:                  -3.470
REMARK UNBOUND:                -2.911
REMARK SMILES CC[C@@H](C)[C@@H](NC(=O)[C@@H](O)Cc1ccc(O)c(Cl)c1)C(=O)N1[C@H](C(=O)NCCCCN=C(N)N)C[C@H]2CC[C@H](OS(=O)(=O)O)C[C@@H]21
REMARK SMILES IDX 22 1 36 2 46 3 35 4 23 5 45 6 37 7 39 8 38 9 20 10 21 11
REMARK SMILES IDX 5 12 6 13 7 14 8 15 9 17 11 18 12 19 17 20 19 21 15 22 14 23
REMARK SMILES IDX 13 24 18 25 16 26 10 28 3 30 4 31 2 32 1 33 24 34 25 35
REMARK SMILES IDX 26 36 27 38 28 39 29 40 30 41 31 42 32 43 33 44 34 45 40 50
REMARK SMILES IDX 41 51 42 52 43 53 44 54
REMARK H PARENT 6 16 16 27 10 29 26 37 33 46 33 47 34 48 34 49 44 55
ROOT
ATOM      1  N   UNL     1      -2.131   4.387   6.984  1.00  0.00    -0.326 N 
ATOM      2  C   UNL     1      -3.113   2.262   7.234  1.00  0.00     0.014 C 
ATOM      3  C   UNL     1      -2.007   3.166   7.785  1.00  0.00     0.091 C 
ATOM      4  C   UNL     1      -3.135   2.622   5.756  1.00  0.00     0.041 C 
ATOM      5  C   UNL     1      -3.059   4.157   5.849  1.00  0.00     0.175 C 
ATOM      6  C   UNL     1      -2.181   3.273   9.299  1.00  0.00     0.059 C 
ATOM      7  C   UNL     1      -2.890   0.820   7.645  1.00  0.00     0.008 C 
ATOM      8  C   UNL     1      -2.773   2.003   9.948  1.00  0.00     0.143 C 
ATOM      9  C   UNL     1      -2.466   0.735   9.126  1.00  0.00     0.034 C 
ENDROOT
BRANCH   1  10
ATOM     10  C   UNL     1      -1.383   5.551   7.019  1.00  0.00     0.246 C 
ATOM     11  O   UNL     1      -1.796   6.512   7.677  1.00  0.00    -0.272 OA
BRANCH  10  12
ATOM     12  C   UNL     1      -0.022   5.612   6.266  1.00  0.00     0.174 C 
BRANCH  12  13
ATOM     13  N   UNL     1       0.991   6.234   7.118  1.00  0.00    -0.342 N 
ATOM     14  C   UNL     1       1.778   5.565   8.028  1.00  0.00     0.249 C 
ATOM     15  O   UNL     1       1.734   4.354   8.207  1.00  0.00    -0.272 OA
ATOM     16  H   UNL     1       1.032   7.247   7.193  1.00  0.00     0.164 HD
BRANCH  14  17
ATOM     17  C   UNL     1       2.740   6.503   8.787  1.00  0.00     0.207 C 
BRANCH  17  18
ATOM     18  C   UNL     1       2.141   7.909   8.898  1.00  0.00     0.077 C 
BRANCH  18  19
ATOM     19  C   UNL     1       2.049   8.369  10.336  1.00  0.00    -0.043 A 
ATOM     20  C   UNL     1       2.892   8.343  12.610  1.00  0.00     0.083 A 
ATOM     21  C   UNL     1       3.008   7.957  11.274  1.00  0.00     0.028 A 
ATOM     22  C   UNL     1       1.820   9.139  13.016  1.00  0.00     0.134 A 
ATOM     23  C   UNL     1       0.864   9.554  12.097  1.00  0.00     0.048 A 
ATOM     24  C   UNL     1       0.976   9.168  10.760  1.00  0.00     0.008 A 
ATOM     25  Cl  UNL     1       4.080   7.826  13.748  1.00  0.00    -0.080 Cl
BRANCH  22  26
ATOM     26  O   UNL     1       1.659   9.533  14.317  1.00  0.00    -0.506 OA
ATOM     27  H   UNL     1       2.043  10.426  14.388  1.00  0.00     0.293 HD
ENDBRANCH  22  26
ENDBRANCH  18  19
ENDBRANCH  17  18
BRANCH  17  28
ATOM     28  O   UNL     1       4.015   6.579   8.130  1.00  0.00    -0.383 OA
ATOM     29  H   UNL     1       4.285   5.649   7.952  1.00  0.00     0.211 HD
ENDBRANCH  17  28
ENDBRANCH  14  17
ENDBRANCH  12  13
BRANCH  12  30
ATOM     30  C   UNL     1      -0.134   6.299   4.879  1.00  0.00     0.018 C 
ATOM     31  C   UNL     1      -0.094   5.259   3.749  1.00  0.00     0.010 C 
BRANCH  30  32
ATOM     32  C   UNL     1       0.939   7.389   4.637  1.00  0.00     0.002 C 
ATOM     33  C   UNL     1       0.398   8.778   4.325  1.00  0.00     0.004 C 
ENDBRANCH  30  32
ENDBRANCH  12  30
ENDBRANCH  10  12
ENDBRANCH   1  10
BRANCH   5  34
ATOM     34  C   UNL     1      -4.450   4.782   6.140  1.00  0.00     0.242 C 
ATOM     35  O   UNL     1      -5.484   4.115   6.135  1.00  0.00    -0.273 OA
ATOM     36  N   UNL     1      -4.448   6.143   6.352  1.00  0.00    -0.354 N 
ATOM     37  H   UNL     1      -3.576   6.658   6.225  1.00  0.00     0.163 HD
BRANCH  36  38
ATOM     38  C   UNL     1      -5.611   6.850   6.846  1.00  0.00     0.116 C 
BRANCH  38  39
ATOM     39  C   UNL     1      -5.291   7.500   8.189  1.00  0.00     0.023 C 
BRANCH  39  40
ATOM     40  C   UNL     1      -4.984   6.474   9.275  1.00  0.00     0.026 C 
BRANCH  40  41
ATOM     41  C   UNL     1      -6.188   5.564   9.517  1.00  0.00     0.146 C 
BRANCH  41  42
ATOM     42  N   UNL     1      -7.263   6.325  10.139  1.00  0.00    -0.254 NA
ATOM     43  C   UNL     1      -7.520   6.158  11.382  1.00  0.00     0.185 C 
ATOM     44  N   UNL     1      -6.936   5.350  12.285  1.00  0.00    -0.370 N 
ATOM     45  N   UNL     1      -8.518   6.866  11.936  1.00  0.00    -0.370 N 
ATOM     46  H   UNL     1      -7.392   5.140  13.157  1.00  0.00     0.159 HD
ATOM     47  H   UNL     1      -6.152   4.753  12.039  1.00  0.00     0.159 HD
ATOM     48  H   UNL     1      -9.006   7.507  11.324  1.00  0.00     0.159 HD
ATOM     49  H   UNL     1      -8.625   6.970  12.929  1.00  0.00     0.159 HD
ENDBRANCH  41  42
ENDBRANCH  40  41
ENDBRANCH  39  40
ENDBRANCH  38  39
ENDBRANCH  36  38
ENDBRANCH   5  34
BRANCH   8  50
ATOM     50  O   UNL     1      -4.190   2.132  10.071  1.00  0.00    -0.245 OA
BRANCH  50  51
ATOM     51  S   UNL     1      -4.835   2.582  11.495  1.00  0.00     0.397 S 
ATOM     52  O   UNL     1      -6.274   2.523  11.372  1.00  0.00    -0.169 OA
ATOM     53  O   UNL     1      -4.162   3.769  11.980  1.00  0.00    -0.169 OA
BRANCH  51  54
ATOM     54  O   UNL     1      -4.426   1.355  12.451  1.00  0.00    -0.264 OA
ATOM     55  H   UNL     1      -4.885   1.479  13.307  1.00  0.00     0.236 HD
ENDBRANCH  51  54
ENDBRANCH  50  51
ENDBRANCH   8  50
TORSDOF 19
ENDMDL
MODEL 8
REMARK VINA RESULT:    -7.722      2.541      3.573
REMARK INTER + INTRA:         -18.532
REMARK INTER:                 -15.491
REMARK INTRA:                  -3.040
REMARK UNBOUND:                -2.911
REMARK SMILES CC[C@@H](C)[C@@H](NC(=O)[C@@H](O)Cc1ccc(O)c(Cl)c1)C(=O)N1[C@H](C(=O)NCCCCN=C(N)N)C[C@H]2CC[C@H](OS(=O)(=O)O)C[C@@H]21
REMARK SMILES IDX 22 1 36 2 46 3 35 4 23 5 45 6 37 7 39 8 38 9 20 10 21 11
REMARK SMILES IDX 5 12 6 13 7 14 8 15 9 17 11 18 12 19 17 20 19 21 15 22 14 23
REMARK SMILES IDX 13 24 18 25 16 26 10 28 3 30 4 31 2 32 1 33 24 34 25 35
REMARK SMILES IDX 26 36 27 38 28 39 29 40 30 41 31 42 32 43 33 44 34 45 40 50
REMARK SMILES IDX 41 51 42 52 43 53 44 54
REMARK H PARENT 6 16 16 27 10 29 26 37 33 46 33 47 34 48 34 49 44 55
ROOT
ATOM      1  N   UNL     1      -2.321   5.075   7.215  1.00  0.00    -0.326 N 
ATOM      2  C   UNL     1      -3.454   3.039   7.558  1.00  0.00     0.014 C 
ATOM      3  C   UNL     1      -2.055   3.650   7.431  1.00  0.00     0.091 C 
ATOM      4  C   UNL     1      -4.275   3.881   6.593  1.00  0.00     0.041 C 
ATOM      5  C   UNL     1      -3.767   5.288   6.959  1.00  0.00     0.175 C 
ATOM      6  C   UNL     1      -1.238   3.243   8.656  1.00  0.00     0.059 C 
ATOM      7  C   UNL     1      -3.407   1.535   7.377  1.00  0.00     0.008 C 
ATOM      8  C   UNL     1      -1.615   1.858   9.223  1.00  0.00     0.143 C 
ATOM      9  C   UNL     1      -2.210   0.932   8.142  1.00  0.00     0.034 C 
ENDROOT
BRANCH   1  10
ATOM     10  C   UNL     1      -1.439   6.122   7.012  1.00  0.00     0.246 C 
ATOM     11  O   UNL     1      -1.871   7.280   7.005  1.00  0.00    -0.272 OA
BRANCH  10  12
ATOM     12  C   UNL     1       0.079   5.824   6.841  1.00  0.00     0.174 C 
BRANCH  12  13
ATOM     13  N   UNL     1       0.813   6.280   8.021  1.00  0.00    -0.342 N 
ATOM     14  C   UNL     1       1.789   5.560   8.673  1.00  0.00     0.249 C 
ATOM     15  O   UNL     1       2.174   4.454   8.314  1.00  0.00    -0.272 OA
ATOM     16  H   UNL     1       0.496   7.106   8.523  1.00  0.00     0.164 HD
BRANCH  14  17
ATOM     17  C   UNL     1       2.363   6.306   9.896  1.00  0.00     0.207 C 
BRANCH  17  18
ATOM     18  C   UNL     1       2.343   7.819   9.658  1.00  0.00     0.077 C 
BRANCH  18  19
ATOM     19  C   UNL     1       1.852   8.573  10.874  1.00  0.00    -0.043 A 
ATOM     20  C   UNL     1       2.138   9.247  13.186  1.00  0.00     0.083 A 
ATOM     21  C   UNL     1       2.617   8.593  12.051  1.00  0.00     0.028 A 
ATOM     22  C   UNL     1       0.896   9.882  13.155  1.00  0.00     0.134 A 
ATOM     23  C   UNL     1       0.129   9.870  11.996  1.00  0.00     0.048 A 
ATOM     24  C   UNL     1       0.604   9.214  10.858  1.00  0.00     0.008 A 
ATOM     25  Cl  UNL     1       3.092   9.261  14.623  1.00  0.00    -0.080 Cl
BRANCH  22  26
ATOM     26  O   UNL     1       0.381  10.528  14.246  1.00  0.00    -0.506 OA
ATOM     27  H   UNL     1       0.164   9.839  14.902  1.00  0.00     0.293 HD
ENDBRANCH  22  26
ENDBRANCH  18  19
ENDBRANCH  17  18
BRANCH  17  28
ATOM     28  O   UNL     1       3.709   5.885  10.173  1.00  0.00    -0.383 OA
ATOM     29  H   UNL     1       3.652   4.931  10.406  1.00  0.00     0.211 HD
ENDBRANCH  17  28
ENDBRANCH  14  17
ENDBRANCH  12  13
BRANCH  12  30
ATOM     30  C   UNL     1       0.659   6.402   5.522  1.00  0.00     0.018 C 
ATOM     31  C   UNL     1       1.311   7.772   5.766  1.00  0.00     0.010 C 
BRANCH  30  32
ATOM     32  C   UNL     1      -0.379   6.503   4.379  1.00  0.00     0.002 C 
ATOM     33  C   UNL     1      -0.067   5.673   3.140  1.00  0.00     0.004 C 
ENDBRANCH  30  32
ENDBRANCH  12  30
ENDBRANCH  10  12
ENDBRANCH   1  10
BRANCH   5  34
ATOM     34  C   UNL     1      -4.475   5.840   8.225  1.00  0.00     0.242 C 
ATOM     35  O   UNL     1      -3.872   6.045   9.279  1.00  0.00    -0.273 OA
ATOM     36  N   UNL     1      -5.833   6.031   8.101  1.00  0.00    -0.354 N 
ATOM     37  H   UNL     1      -6.295   5.730   7.243  1.00  0.00     0.163 HD
BRANCH  36  38
ATOM     38  C   UNL     1      -6.609   6.736   9.101  1.00  0.00     0.116 C 
BRANCH  38  39
ATOM     39  C   UNL     1      -7.850   5.923   9.461  1.00  0.00     0.023 C 
BRANCH  39  40
ATOM     40  C   UNL     1      -7.725   4.458   9.057  1.00  0.00     0.026 C 
BRANCH  40  41
ATOM     41  C   UNL     1      -7.384   3.589  10.267  1.00  0.00     0.146 C 
BRANCH  41  42
ATOM     42  N   UNL     1      -6.036   3.894  10.728  1.00  0.00    -0.254 NA
ATOM     43  C   UNL     1      -5.826   4.113  11.972  1.00  0.00     0.185 C 
ATOM     44  N   UNL     1      -6.685   4.112  13.007  1.00  0.00    -0.370 N 
ATOM     45  N   UNL     1      -4.577   4.396  12.375  1.00  0.00    -0.370 N 
ATOM     46  H   UNL     1      -6.433   4.538  13.883  1.00  0.00     0.159 HD
ATOM     47  H   UNL     1      -7.671   3.903  12.882  1.00  0.00     0.159 HD
ATOM     48  H   UNL     1      -3.865   4.408  11.657  1.00  0.00     0.159 HD
ATOM     49  H   UNL     1      -4.291   4.345  13.337  1.00  0.00     0.159 HD
ENDBRANCH  41  42
ENDBRANCH  40  41
ENDBRANCH  39  40
ENDBRANCH  38  39
ENDBRANCH  36  38
ENDBRANCH   5  34
BRANCH   8  50
ATOM     50  O   UNL     1      -2.572   2.002  10.273  1.00  0.00    -0.245 OA
BRANCH  50  51
ATOM     51  S   UNL     1      -2.276   1.333  11.726  1.00  0.00     0.397 S 
ATOM     52  O   UNL     1      -2.264  -0.103  11.562  1.00  0.00    -0.169 OA
ATOM     53  O   UNL     1      -3.095   1.976  12.733  1.00  0.00    -0.169 OA
BRANCH  51  54
ATOM     54  O   UNL     1      -0.747   1.757  11.985  1.00  0.00    -0.264 OA
ATOM     55  H   UNL     1      -0.192   0.959  11.868  1.00  0.00     0.236 HD
ENDBRANCH  51  54
ENDBRANCH  50  51
ENDBRANCH   8  50
TORSDOF 19
ENDMDL
MODEL 9
REMARK VINA RESULT:    -7.667     11.960     15.550
REMARK INTER + INTRA:         -18.422
REMARK INTER:                 -14.554
REMARK INTRA:                  -3.868
REMARK UNBOUND:                -2.911
REMARK SMILES CC[C@@H](C)[C@@H](NC(=O)[C@@H](O)Cc1ccc(O)c(Cl)c1)C(=O)N1[C@H](C(=O)NCCCCN=C(N)N)C[C@H]2CC[C@H](OS(=O)(=O)O)C[C@@H]21
REMARK SMILES IDX 22 1 36 2 46 3 35 4 23 5 45 6 37 7 39 8 38 9 20 10 21 11
REMARK SMILES IDX 5 12 6 13 7 14 8 15 9 17 11 18 12 19 17 20 19 21 15 22 14 23
REMARK SMILES IDX 13 24 18 25 16 26 10 28 3 30 4 31 2 32 1 33 24 34 25 35
REMARK SMILES IDX 26 36 27 38 28 39 29 40 30 41 31 42 32 43 33 44 34 45 40 50
REMARK SMILES IDX 41 51 42 52 43 53 44 54
REMARK H PARENT 6 16 16 27 10 29 26 37 33 46 33 47 34 48 34 49 44 55
ROOT
ATOM      1  N   UNL     1      -6.939   3.242  -4.252  1.00  0.00    -0.326 N 
ATOM      2  C   UNL     1      -8.058   3.702  -6.272  1.00  0.00     0.014 C 
ATOM      3  C   UNL     1      -6.790   4.030  -5.479  1.00  0.00     0.091 C 
ATOM      4  C   UNL     1      -9.103   3.537  -5.179  1.00  0.00     0.041 C 
ATOM      5  C   UNL     1      -8.311   2.682  -4.172  1.00  0.00     0.175 C 
ATOM      6  C   UNL     1      -5.579   3.760  -6.371  1.00  0.00     0.059 C 
ATOM      7  C   UNL     1      -8.288   4.719  -7.372  1.00  0.00     0.008 C 
ATOM      8  C   UNL     1      -5.845   4.008  -7.871  1.00  0.00     0.143 C 
ATOM      9  C   UNL     1      -6.965   5.044  -8.097  1.00  0.00     0.034 C 
ENDROOT
BRANCH   1  10
ATOM     10  C   UNL     1      -6.107   3.150  -3.149  1.00  0.00     0.246 C 
ATOM     11  O   UNL     1      -4.992   2.633  -3.278  1.00  0.00    -0.272 OA
BRANCH  10  12
ATOM     12  C   UNL     1      -6.575   3.735  -1.785  1.00  0.00     0.174 C 
BRANCH  12  13
ATOM     13  N   UNL     1      -5.907   5.012  -1.536  1.00  0.00    -0.342 N 
ATOM     14  C   UNL     1      -6.310   6.227  -2.042  1.00  0.00     0.249 C 
ATOM     15  O   UNL     1      -7.302   6.378  -2.744  1.00  0.00    -0.272 OA
ATOM     16  H   UNL     1      -4.987   5.023  -1.102  1.00  0.00     0.164 HD
BRANCH  14  17
ATOM     17  C   UNL     1      -5.388   7.388  -1.612  1.00  0.00     0.207 C 
BRANCH  17  18
ATOM     18  C   UNL     1      -3.959   6.882  -1.389  1.00  0.00     0.077 C 
BRANCH  18  19
ATOM     19  C   UNL     1      -3.012   7.384  -2.455  1.00  0.00    -0.043 A 
ATOM     20  C   UNL     1      -2.467   7.717  -4.795  1.00  0.00     0.083 A 
ATOM     21  C   UNL     1      -3.363   7.299  -3.812  1.00  0.00     0.028 A 
ATOM     22  C   UNL     1      -1.217   8.221  -4.433  1.00  0.00     0.134 A 
ATOM     23  C   UNL     1      -0.857   8.312  -3.093  1.00  0.00     0.048 A 
ATOM     24  C   UNL     1      -1.751   7.892  -2.106  1.00  0.00     0.008 A 
ATOM     25  Cl  UNL     1      -2.916   7.604  -6.456  1.00  0.00    -0.080 Cl
BRANCH  22  26
ATOM     26  O   UNL     1      -0.301   8.634  -5.362  1.00  0.00    -0.506 OA
ATOM     27  H   UNL     1      -0.529   9.555  -5.590  1.00  0.00     0.293 HD
ENDBRANCH  22  26
ENDBRANCH  18  19
ENDBRANCH  17  18
BRANCH  17  28
ATOM     28  O   UNL     1      -5.866   8.010  -0.409  1.00  0.00    -0.383 OA
ATOM     29  H   UNL     1      -6.837   7.847  -0.385  1.00  0.00     0.211 HD
ENDBRANCH  17  28
ENDBRANCH  14  17
ENDBRANCH  12  13
BRANCH  12  30
ATOM     30  C   UNL     1      -6.398   2.735  -0.611  1.00  0.00     0.018 C 
ATOM     31  C   UNL     1      -7.163   1.430  -0.885  1.00  0.00     0.010 C 
BRANCH  30  32
ATOM     32  C   UNL     1      -6.810   3.313   0.765  1.00  0.00     0.002 C 
ATOM     33  C   UNL     1      -8.305   3.301   1.056  1.00  0.00     0.004 C 
ENDBRANCH  30  32
ENDBRANCH  12  30
ENDBRANCH  10  12
ENDBRANCH   1  10
BRANCH   5  34
ATOM     34  C   UNL     1      -8.318   1.181  -4.566  1.00  0.00     0.242 C 
ATOM     35  O   UNL     1      -9.361   0.552  -4.742  1.00  0.00    -0.273 OA
ATOM     36  N   UNL     1      -7.076   0.593  -4.650  1.00  0.00    -0.354 N 
ATOM     37  H   UNL     1      -6.255   1.134  -4.376  1.00  0.00     0.163 HD
BRANCH  36  38
ATOM     38  C   UNL     1      -6.883  -0.729  -5.210  1.00  0.00     0.116 C 
BRANCH  38  39
ATOM     39  C   UNL     1      -6.130  -0.626  -6.535  1.00  0.00     0.023 C 
BRANCH  39  40
ATOM     40  C   UNL     1      -4.751   0.005  -6.374  1.00  0.00     0.026 C 
BRANCH  40  41
ATOM     41  C   UNL     1      -3.753  -0.617  -7.349  1.00  0.00     0.146 C 
BRANCH  41  42
ATOM     42  N   UNL     1      -3.830   0.064  -8.635  1.00  0.00    -0.254 NA
ATOM     43  C   UNL     1      -2.792   0.645  -9.107  1.00  0.00     0.185 C 
ATOM     44  N   UNL     1      -1.552   0.750  -8.597  1.00  0.00    -0.370 N 
ATOM     45  N   UNL     1      -2.886   1.272 -10.292  1.00  0.00    -0.370 N 
ATOM     46  H   UNL     1      -0.907   1.436  -8.952  1.00  0.00     0.159 HD
ATOM     47  H   UNL     1      -1.302   0.321  -7.711  1.00  0.00     0.159 HD
ATOM     48  H   UNL     1      -3.787   1.234 -10.749  1.00  0.00     0.159 HD
ATOM     49  H   UNL     1      -2.081   1.538 -10.831  1.00  0.00     0.159 HD
ENDBRANCH  41  42
ENDBRANCH  40  41
ENDBRANCH  39  40
ENDBRANCH  38  39
ENDBRANCH  36  38
ENDBRANCH   5  34
BRANCH   8  50
ATOM     50  O   UNL     1      -6.221   2.788  -8.511  1.00  0.00    -0.245 OA
BRANCH  50  51
ATOM     51  S   UNL     1      -6.254   2.711 -10.135  1.00  0.00     0.397 S 
ATOM     52  O   UNL     1      -5.070   3.370 -10.638  1.00  0.00    -0.169 OA
ATOM     53  O   UNL     1      -7.577   3.058 -10.611  1.00  0.00    -0.169 OA
BRANCH  51  54
ATOM     54  O   UNL     1      -6.028   1.141 -10.401  1.00  0.00    -0.264 OA
ATOM     55  H   UNL     1      -5.100   0.930 -10.170  1.00  0.00     0.236 HD
ENDBRANCH  51  54
ENDBRANCH  50  51
ENDBRANCH   8  50
TORSDOF 19
ENDMDL
MODEL 10
REMARK VINA RESULT:    -7.642      2.282      3.149
REMARK INTER + INTRA:         -18.371
REMARK INTER:                 -15.225
REMARK INTRA:                  -3.146
REMARK UNBOUND:                -2.911
REMARK SMILES CC[C@@H](C)[C@@H](NC(=O)[C@@H](O)Cc1ccc(O)c(Cl)c1)C(=O)N1[C@H](C(=O)NCCCCN=C(N)N)C[C@H]2CC[C@H](OS(=O)(=O)O)C[C@@H]21
REMARK SMILES IDX 22 1 36 2 46 3 35 4 23 5 45 6 37 7 39 8 38 9 20 10 21 11
REMARK SMILES IDX 5 12 6 13 7 14 8 15 9 17 11 18 12 19 17 20 19 21 15 22 14 23
REMARK SMILES IDX 13 24 18 25 16 26 10 28 3 30 4 31 2 32 1 33 24 34 25 35
REMARK SMILES IDX 26 36 27 38 28 39 29 40 30 41 31 42 32 43 33 44 34 45 40 50
REMARK SMILES IDX 41 51 42 52 43 53 44 54
REMARK H PARENT 6 16 16 27 10 29 26 37 33 46 33 47 34 48 34 49 44 55
ROOT
ATOM      1  N   UNL     1      -2.460   4.573   7.127  1.00  0.00    -0.326 N 
ATOM      2  C   UNL     1      -3.555   2.497   7.305  1.00  0.00     0.014 C 
ATOM      3  C   UNL     1      -2.213   3.191   7.551  1.00  0.00     0.091 C 
ATOM      4  C   UNL     1      -4.073   3.200   6.059  1.00  0.00     0.041 C 
ATOM      5  C   UNL     1      -3.763   4.663   6.424  1.00  0.00     0.175 C 
ATOM      6  C   UNL     1      -1.798   2.941   8.999  1.00  0.00     0.059 C 
ATOM      7  C   UNL     1      -3.392   0.989   7.294  1.00  0.00     0.008 C 
ATOM      8  C   UNL     1      -2.273   1.582   9.556  1.00  0.00     0.143 C 
ATOM      9  C   UNL     1      -2.465   0.534   8.441  1.00  0.00     0.034 C 
ENDROOT
BRANCH   1  10
ATOM     10  C   UNL     1      -1.603   5.660   7.102  1.00  0.00     0.246 C 
ATOM     11  O   UNL     1      -1.855   6.640   7.811  1.00  0.00    -0.272 OA
BRANCH  10  12
ATOM     12  C   UNL     1      -0.322   5.608   6.219  1.00  0.00     0.174 C 
BRANCH  12  13
ATOM     13  N   UNL     1       0.818   6.144   6.962  1.00  0.00    -0.342 N 
ATOM     14  C   UNL     1       1.523   5.462   7.928  1.00  0.00     0.249 C 
ATOM     15  O   UNL     1       1.286   4.306   8.257  1.00  0.00    -0.272 OA
ATOM     16  H   UNL     1       1.030   7.137   6.910  1.00  0.00     0.164 HD
BRANCH  14  17
ATOM     17  C   UNL     1       2.661   6.306   8.541  1.00  0.00     0.207 C 
BRANCH  17  18
ATOM     18  C   UNL     1       2.149   7.698   8.924  1.00  0.00     0.077 C 
BRANCH  18  19
ATOM     19  C   UNL     1       2.409   8.012  10.380  1.00  0.00    -0.043 A 
ATOM     20  C   UNL     1       1.727   9.057  12.460  1.00  0.00     0.083 A 
ATOM     21  C   UNL     1       1.462   8.726  11.131  1.00  0.00     0.028 A 
ATOM     22  C   UNL     1       2.936   8.679  13.046  1.00  0.00     0.134 A 
ATOM     23  C   UNL     1       3.882   7.972  12.315  1.00  0.00     0.048 A 
ATOM     24  C   UNL     1       3.621   7.641  10.983  1.00  0.00     0.008 A 
ATOM     25  Cl  UNL     1       0.551   9.935  13.366  1.00  0.00    -0.080 Cl
BRANCH  22  26
ATOM     26  O   UNL     1       3.244   8.990  14.343  1.00  0.00    -0.506 OA
ATOM     27  H   UNL     1       2.511   8.658  14.893  1.00  0.00     0.293 HD
ENDBRANCH  22  26
ENDBRANCH  18  19
ENDBRANCH  17  18
BRANCH  17  28
ATOM     28  O   UNL     1       3.759   6.436   7.625  1.00  0.00    -0.383 OA
ATOM     29  H   UNL     1       3.417   6.956   6.862  1.00  0.00     0.211 HD
ENDBRANCH  17  28
ENDBRANCH  14  17
ENDBRANCH  12  13
BRANCH  12  30
ATOM     30  C   UNL     1      -0.513   6.302   4.844  1.00  0.00     0.018 C 
ATOM     31  C   UNL     1       0.026   5.420   3.707  1.00  0.00     0.010 C 
BRANCH  30  32
ATOM     32  C   UNL     1       0.118   7.713   4.767  1.00  0.00     0.002 C 
ATOM     33  C   UNL     1      -0.809   8.863   5.138  1.00  0.00     0.004 C 
ENDBRANCH  30  32
ENDBRANCH  12  30
ENDBRANCH  10  12
ENDBRANCH   1  10
BRANCH   5  34
ATOM     34  C   UNL     1      -4.850   5.263   7.356  1.00  0.00     0.242 C 
ATOM     35  O   UNL     1      -5.775   4.587   7.809  1.00  0.00    -0.273 OA
ATOM     36  N   UNL     1      -4.736   6.614   7.596  1.00  0.00    -0.354 N 
ATOM     37  H   UNL     1      -4.019   7.142   7.097  1.00  0.00     0.163 HD
BRANCH  36  38
ATOM     38  C   UNL     1      -5.526   7.290   8.604  1.00  0.00     0.116 C 
BRANCH  38  39
ATOM     39  C   UNL     1      -4.668   7.568   9.835  1.00  0.00     0.023 C 
BRANCH  39  40
ATOM     40  C   UNL     1      -4.738   6.443  10.861  1.00  0.00     0.026 C 
BRANCH  40  41
ATOM     41  C   UNL     1      -6.170   6.252  11.359  1.00  0.00     0.146 C 
BRANCH  41  42
ATOM     42  N   UNL     1      -6.659   4.938  10.961  1.00  0.00    -0.254 NA
ATOM     43  C   UNL     1      -6.939   4.068  11.858  1.00  0.00     0.185 C 
ATOM     44  N   UNL     1      -6.859   4.150  13.198  1.00  0.00    -0.370 N 
ATOM     45  N   UNL     1      -7.384   2.862  11.470  1.00  0.00    -0.370 N 
ATOM     46  H   UNL     1      -6.874   3.320  13.765  1.00  0.00     0.159 HD
ATOM     47  H   UNL     1      -6.553   5.000  13.663  1.00  0.00     0.159 HD
ATOM     48  H   UNL     1      -7.482   2.719  10.474  1.00  0.00     0.159 HD
ATOM     49  H   UNL     1      -7.841   2.223  12.096  1.00  0.00     0.159 HD
ENDBRANCH  41  42
ENDBRANCH  40  41
ENDBRANCH  39  40
ENDBRANCH  38  39
ENDBRANCH  36  38
ENDBRANCH   5  34
BRANCH   8  50
ATOM     50  O   UNL     1      -3.513   1.741  10.247  1.00  0.00    -0.245 OA
BRANCH  50  51
ATOM     51  S   UNL     1      -3.534   1.725  11.873  1.00  0.00     0.397 S 
ATOM     52  O   UNL     1      -2.165   1.704  12.337  1.00  0.00    -0.169 OA
ATOM     53  O   UNL     1      -4.508   0.760  12.337  1.00  0.00    -0.169 OA
BRANCH  51  54
ATOM     54  O   UNL     1      -4.090   3.195  12.215  1.00  0.00    -0.264 OA
ATOM     55  H   UNL     1      -3.562   3.841  11.703  1.00  0.00     0.236 HD
ENDBRANCH  51  54
ENDBRANCH  50  51
ENDBRANCH   8  50
TORSDOF 19
ENDMDL
MODEL 11
REMARK VINA RESULT:    -7.642     12.850     17.295
REMARK INTER + INTRA:         -18.371
REMARK INTER:                 -14.264
REMARK INTRA:                  -4.107
REMARK UNBOUND:                -2.911
REMARK SMILES CC[C@@H](C)[C@@H](NC(=O)[C@@H](O)Cc1ccc(O)c(Cl)c1)C(=O)N1[C@H](C(=O)NCCCCN=C(N)N)C[C@H]2CC[C@H](OS(=O)(=O)O)C[C@@H]21
REMARK SMILES IDX 22 1 36 2 46 3 35 4 23 5 45 6 37 7 39 8 38 9 20 10 21 11
REMARK SMILES IDX 5 12 6 13 7 14 8 15 9 17 11 18 12 19 17 20 19 21 15 22 14 23
REMARK SMILES IDX 13 24 18 25 16 26 10 28 3 30 4 31 2 32 1 33 24 34 25 35
REMARK SMILES IDX 26 36 27 38 28 39 29 40 30 41 31 42 32 43 33 44 34 45 40 50
REMARK SMILES IDX 41 51 42 52 43 53 44 54
REMARK H PARENT 6 16 16 27 10 29 26 37 33 46 33 47 34 48 34 49 44 55
ROOT
ATOM      1  N   UNL     1      -6.138   2.984  -4.676  1.00  0.00    -0.326 N 
ATOM      2  C   UNL     1      -7.655   3.536  -6.390  1.00  0.00     0.014 C 
ATOM      3  C   UNL     1      -6.385   4.020  -5.683  1.00  0.00     0.091 C 
ATOM      4  C   UNL     1      -8.434   2.874  -5.263  1.00  0.00     0.041 C 
ATOM      5  C   UNL     1      -7.306   2.074  -4.586  1.00  0.00     0.175 C 
ATOM      6  C   UNL     1      -5.312   4.275  -6.739  1.00  0.00     0.059 C 
ATOM      7  C   UNL     1      -8.298   4.660  -7.178  1.00  0.00     0.008 C 
ATOM      8  C   UNL     1      -5.875   4.749  -8.096  1.00  0.00     0.143 C 
ATOM      9  C   UNL     1      -7.229   5.471  -7.941  1.00  0.00     0.034 C 
ENDROOT
BRANCH   1  10
ATOM     10  C   UNL     1      -5.136   2.892  -3.725  1.00  0.00     0.246 C 
ATOM     11  O   UNL     1      -4.167   2.157  -3.942  1.00  0.00    -0.272 OA
BRANCH  10  12
ATOM     12  C   UNL     1      -5.230   3.745  -2.427  1.00  0.00     0.174 C 
BRANCH  12  13
ATOM     13  N   UNL     1      -6.557   3.600  -1.830  1.00  0.00    -0.342 N 
ATOM     14  C   UNL     1      -6.848   2.831  -0.725  1.00  0.00     0.249 C 
ATOM     15  O   UNL     1      -6.010   2.197  -0.096  1.00  0.00    -0.272 OA
ATOM     16  H   UNL     1      -7.375   3.939  -2.331  1.00  0.00     0.164 HD
BRANCH  14  17
ATOM     17  C   UNL     1      -8.344   2.869  -0.349  1.00  0.00     0.207 C 
BRANCH  17  18
ATOM     18  C   UNL     1      -9.046   4.030  -1.063  1.00  0.00     0.077 C 
BRANCH  18  19
ATOM     19  C   UNL     1     -10.122   3.541  -2.006  1.00  0.00    -0.043 A 
ATOM     20  C   UNL     1     -11.348   1.718  -3.034  1.00  0.00     0.083 A 
ATOM     21  C   UNL     1     -10.388   2.168  -2.126  1.00  0.00     0.028 A 
ATOM     22  C   UNL     1     -12.044   2.632  -3.825  1.00  0.00     0.134 A 
ATOM     23  C   UNL     1     -11.791   3.994  -3.716  1.00  0.00     0.048 A 
ATOM     24  C   UNL     1     -10.830   4.448  -2.810  1.00  0.00     0.008 A 
ATOM     25  Cl  UNL     1     -11.661   0.027  -3.168  1.00  0.00    -0.080 Cl
BRANCH  22  26
ATOM     26  O   UNL     1     -12.986   2.237  -4.736  1.00  0.00    -0.506 OA
ATOM     27  H   UNL     1     -12.992   1.262  -4.728  1.00  0.00     0.293 HD
ENDBRANCH  22  26
ENDBRANCH  18  19
ENDBRANCH  17  18
BRANCH  17  28
ATOM     28  O   UNL     1      -8.518   3.008   1.070  1.00  0.00    -0.383 OA
ATOM     29  H   UNL     1      -9.473   2.848   1.244  1.00  0.00     0.211 HD
ENDBRANCH  17  28
ENDBRANCH  14  17
ENDBRANCH  12  13
BRANCH  12  30
ATOM     30  C   UNL     1      -4.842   5.230  -2.656  1.00  0.00     0.018 C 
ATOM     31  C   UNL     1      -3.837   5.702  -1.594  1.00  0.00     0.010 C 
BRANCH  30  32
ATOM     32  C   UNL     1      -6.056   6.189  -2.702  1.00  0.00     0.002 C 
ATOM     33  C   UNL     1      -6.060   7.180  -3.860  1.00  0.00     0.004 C 
ENDBRANCH  30  32
ENDBRANCH  12  30
ENDBRANCH  10  12
ENDBRANCH   1  10
BRANCH   5  34
ATOM     34  C   UNL     1      -7.024   0.741  -5.331  1.00  0.00     0.242 C 
ATOM     35  O   UNL     1      -7.891  -0.117  -5.496  1.00  0.00    -0.273 OA
ATOM     36  N   UNL     1      -5.723   0.566  -5.745  1.00  0.00    -0.354 N 
ATOM     37  H   UNL     1      -5.023   1.258  -5.474  1.00  0.00     0.163 HD
BRANCH  36  38
ATOM     38  C   UNL     1      -5.332  -0.508  -6.634  1.00  0.00     0.116 C 
BRANCH  38  39
ATOM     39  C   UNL     1      -3.853  -0.377  -6.987  1.00  0.00     0.023 C 
BRANCH  39  40
ATOM     40  C   UNL     1      -3.566   0.847  -7.851  1.00  0.00     0.026 C 
BRANCH  40  41
ATOM     41  C   UNL     1      -2.242   0.685  -8.597  1.00  0.00     0.146 C 
BRANCH  41  42
ATOM     42  N   UNL     1      -2.246   1.518  -9.793  1.00  0.00    -0.254 NA
ATOM     43  C   UNL     1      -1.609   1.133 -10.835  1.00  0.00     0.185 C 
ATOM     44  N   UNL     1      -0.885   0.018 -11.044  1.00  0.00    -0.370 N 
ATOM     45  N   UNL     1      -1.622   1.917 -11.925  1.00  0.00    -0.370 N 
ATOM     46  H   UNL     1      -0.244  -0.039 -11.816  1.00  0.00     0.159 HD
ATOM     47  H   UNL     1      -0.782  -0.692 -10.326  1.00  0.00     0.159 HD
ATOM     48  H   UNL     1      -2.153   2.774 -11.855  1.00  0.00     0.159 HD
ATOM     49  H   UNL     1      -1.357   1.586 -12.836  1.00  0.00     0.159 HD
ENDBRANCH  41  42
ENDBRANCH  40  41
ENDBRANCH  39  40
ENDBRANCH  38  39
ENDBRANCH  36  38
ENDBRANCH   5  34
BRANCH   8  50
ATOM     50  O   UNL     1      -6.053   3.633  -8.969  1.00  0.00    -0.245 OA
BRANCH  50  51
ATOM     51  S   UNL     1      -5.776   3.808 -10.562  1.00  0.00     0.397 S 
ATOM     52  O   UNL     1      -5.244   5.134 -10.780  1.00  0.00    -0.169 OA
ATOM     53  O   UNL     1      -6.912   3.313 -11.311  1.00  0.00    -0.169 OA
BRANCH  51  54
ATOM     54  O   UNL     1      -4.547   2.798 -10.802  1.00  0.00    -0.264 OA
ATOM     55  H   UNL     1      -4.184   2.557  -9.925  1.00  0.00     0.236 HD
ENDBRANCH  51  54
ENDBRANCH  50  51
ENDBRANCH   8  50
TORSDOF 19
ENDMDL
MODEL 12
REMARK VINA RESULT:    -7.637      8.791     11.712
REMARK INTER + INTRA:         -18.361
REMARK INTER:                 -14.119
REMARK INTRA:                  -4.242
REMARK UNBOUND:                -2.911
REMARK SMILES CC[C@@H](C)[C@@H](NC(=O)[C@@H](O)Cc1ccc(O)c(Cl)c1)C(=O)N1[C@H](C(=O)NCCCCN=C(N)N)C[C@H]2CC[C@H](OS(=O)(=O)O)C[C@@H]21
REMARK SMILES IDX 22 1 36 2 46 3 35 4 23 5 45 6 37 7 39 8 38 9 20 10 21 11
REMARK SMILES IDX 5 12 6 13 7 14 8 15 9 17 11 18 12 19 17 20 19 21 15 22 14 23
REMARK SMILES IDX 13 24 18 25 16 26 10 28 3 30 4 31 2 32 1 33 24 34 25 35
REMARK SMILES IDX 26 36 27 38 28 39 29 40 30 41 31 42 32 43 33 44 34 45 40 50
REMARK SMILES IDX 41 51 42 52 43 53 44 54
REMARK H PARENT 6 16 16 27 10 29 26 37 33 46 33 47 34 48 34 49 44 55
ROOT
ATOM      1  N   UNL     1      -5.847   5.365  -2.255  1.00  0.00    -0.326 N 
ATOM      2  C   UNL     1      -6.104   3.357  -1.053  1.00  0.00     0.014 C 
ATOM      3  C   UNL     1      -6.530   4.828  -1.074  1.00  0.00     0.091 C 
ATOM      4  C   UNL     1      -4.679   3.413  -1.580  1.00  0.00     0.041 C 
ATOM      5  C   UNL     1      -4.865   4.377  -2.766  1.00  0.00     0.175 C 
ATOM      6  C   UNL     1      -8.056   4.889  -1.030  1.00  0.00     0.059 C 
ATOM      7  C   UNL     1      -6.371   2.735   0.304  1.00  0.00     0.008 C 
ATOM      8  C   UNL     1      -8.702   3.731  -0.239  1.00  0.00     0.143 C 
ATOM      9  C   UNL     1      -7.754   3.165   0.837  1.00  0.00     0.034 C 
ENDROOT
BRANCH   1  10
ATOM     10  C   UNL     1      -5.841   6.650  -2.769  1.00  0.00     0.246 C 
ATOM     11  O   UNL     1      -6.705   6.973  -3.591  1.00  0.00    -0.272 OA
BRANCH  10  12
ATOM     12  C   UNL     1      -4.777   7.671  -2.270  1.00  0.00     0.174 C 
BRANCH  12  13
ATOM     13  N   UNL     1      -3.817   7.002  -1.392  1.00  0.00    -0.342 N 
ATOM     14  C   UNL     1      -2.481   6.825  -1.672  1.00  0.00     0.249 C 
ATOM     15  O   UNL     1      -1.936   7.238  -2.688  1.00  0.00    -0.272 OA
ATOM     16  H   UNL     1      -4.152   6.473  -0.591  1.00  0.00     0.164 HD
BRANCH  14  17
ATOM     17  C   UNL     1      -1.734   6.066  -0.555  1.00  0.00     0.207 C 
BRANCH  17  18
ATOM     18  C   UNL     1      -0.518   6.869  -0.082  1.00  0.00     0.077 C 
BRANCH  18  19
ATOM     19  C   UNL     1      -0.699   7.383   1.329  1.00  0.00    -0.043 A 
ATOM     20  C   UNL     1      -1.482   9.095   2.858  1.00  0.00     0.083 A 
ATOM     21  C   UNL     1      -1.361   8.599   1.560  1.00  0.00     0.028 A 
ATOM     22  C   UNL     1      -0.943   8.384   3.931  1.00  0.00     0.134 A 
ATOM     23  C   UNL     1      -0.285   7.179   3.716  1.00  0.00     0.048 A 
ATOM     24  C   UNL     1      -0.160   6.680   2.417  1.00  0.00     0.008 A 
ATOM     25  Cl  UNL     1      -2.300  10.591   3.122  1.00  0.00    -0.080 Cl
BRANCH  22  26
ATOM     26  O   UNL     1      -1.028   8.835   5.220  1.00  0.00    -0.506 OA
ATOM     27  H   UNL     1      -0.395   9.573   5.301  1.00  0.00     0.293 HD
ENDBRANCH  22  26
ENDBRANCH  18  19
ENDBRANCH  17  18
BRANCH  17  28
ATOM     28  O   UNL     1      -1.304   4.772  -1.007  1.00  0.00    -0.383 OA
ATOM     29  H   UNL     1      -1.666   4.667  -1.916  1.00  0.00     0.211 HD
ENDBRANCH  17  28
ENDBRANCH  14  17
ENDBRANCH  12  13
BRANCH  12  30
ATOM     30  C   UNL     1      -5.412   8.924  -1.609  1.00  0.00     0.018 C 
ATOM     31  C   UNL     1      -5.486  10.090  -2.607  1.00  0.00     0.010 C 
BRANCH  30  32
ATOM     32  C   UNL     1      -4.692   9.376  -0.315  1.00  0.00     0.002 C 
ATOM     33  C   UNL     1      -3.774  10.581  -0.468  1.00  0.00     0.004 C 
ENDBRANCH  30  32
ENDBRANCH  12  30
ENDBRANCH  10  12
ENDBRANCH   1  10
BRANCH   5  34
ATOM     34  C   UNL     1      -5.422   3.644  -4.016  1.00  0.00     0.242 C 
ATOM     35  O   UNL     1      -6.606   3.712  -4.345  1.00  0.00    -0.273 OA
ATOM     36  N   UNL     1      -4.509   2.871  -4.697  1.00  0.00    -0.354 N 
ATOM     37  H   UNL     1      -3.572   2.759  -4.307  1.00  0.00     0.163 HD
BRANCH  36  38
ATOM     38  C   UNL     1      -4.797   2.296  -5.995  1.00  0.00     0.116 C 
BRANCH  38  39
ATOM     39  C   UNL     1      -4.319   0.847  -6.038  1.00  0.00     0.023 C 
BRANCH  39  40
ATOM     40  C   UNL     1      -5.384  -0.103  -6.576  1.00  0.00     0.026 C 
BRANCH  40  41
ATOM     41  C   UNL     1      -6.380  -0.477  -5.478  1.00  0.00     0.146 C 
BRANCH  41  42
ATOM     42  N   UNL     1      -7.692   0.070  -5.797  1.00  0.00    -0.254 NA
ATOM     43  C   UNL     1      -8.331   0.738  -4.911  1.00  0.00     0.185 C 
ATOM     44  N   UNL     1      -7.988   1.051  -3.649  1.00  0.00    -0.370 N 
ATOM     45  N   UNL     1      -9.542   1.230  -5.223  1.00  0.00    -0.370 N 
ATOM     46  H   UNL     1      -8.681   1.367  -2.992  1.00  0.00     0.159 HD
ATOM     47  H   UNL     1      -7.096   0.769  -3.253  1.00  0.00     0.159 HD
ATOM     48  H   UNL     1      -9.873   1.046  -6.160  1.00  0.00     0.159 HD
ATOM     49  H   UNL     1      -9.992   1.949  -4.684  1.00  0.00     0.159 HD
ENDBRANCH  41  42
ENDBRANCH  40  41
ENDBRANCH  39  40
ENDBRANCH  38  39
ENDBRANCH  36  38
ENDBRANCH   5  34
BRANCH   8  50
ATOM     50  O   UNL     1      -9.063   2.673  -1.127  1.00  0.00    -0.245 OA
BRANCH  50  51
ATOM     51  S   UNL     1     -10.469   2.752  -1.941  1.00  0.00     0.397 S 
ATOM     52  O   UNL     1     -10.200   3.321  -3.242  1.00  0.00    -0.169 OA
ATOM     53  O   UNL     1     -11.501   3.285  -1.077  1.00  0.00    -0.169 OA
BRANCH  51  54
ATOM     54  O   UNL     1     -10.794   1.199  -2.201  1.00  0.00    -0.264 OA
ATOM     55  H   UNL     1     -10.683   0.724  -1.352  1.00  0.00     0.236 HD
ENDBRANCH  51  54
ENDBRANCH  50  51
ENDBRANCH   8  50
TORSDOF 19
ENDMDL
MODEL 13
REMARK VINA RESULT:    -7.602      3.543      4.846
REMARK INTER + INTRA:         -18.289
REMARK INTER:                 -15.201
REMARK INTRA:                  -3.088
REMARK UNBOUND:                -2.911
REMARK SMILES CC[C@@H](C)[C@@H](NC(=O)[C@@H](O)Cc1ccc(O)c(Cl)c1)C(=O)N1[C@H](C(=O)NCCCCN=C(N)N)C[C@H]2CC[C@H](OS(=O)(=O)O)C[C@@H]21
REMARK SMILES IDX 22 1 36 2 46 3 35 4 23 5 45 6 37 7 39 8 38 9 20 10 21 11
REMARK SMILES IDX 5 12 6 13 7 14 8 15 9 17 11 18 12 19 17 20 19 21 15 22 14 23
REMARK SMILES IDX 13 24 18 25 16 26 10 28 3 30 4 31 2 32 1 33 24 34 25 35
REMARK SMILES IDX 26 36 27 38 28 39 29 40 30 41 31 42 32 43 33 44 34 45 40 50
REMARK SMILES IDX 41 51 42 52 43 53 44 54
REMARK H PARENT 6 16 16 27 10 29 26 37 33 46 33 47 34 48 34 49 44 55
ROOT
ATOM      1  N   UNL     1      -4.693   4.826   7.523  1.00  0.00    -0.326 N 
ATOM      2  C   UNL     1      -4.728   2.516   7.070  1.00  0.00     0.014 C 
ATOM      3  C   UNL     1      -3.788   3.680   7.393  1.00  0.00     0.091 C 
ATOM      4  C   UNL     1      -5.806   3.180   6.227  1.00  0.00     0.041 C 
ATOM      5  C   UNL     1      -6.051   4.455   7.054  1.00  0.00     0.175 C 
ATOM      6  C   UNL     1      -2.934   3.291   8.598  1.00  0.00     0.059 C 
ATOM      7  C   UNL     1      -3.959   1.339   6.501  1.00  0.00     0.008 C 
ATOM      8  C   UNL     1      -2.628   1.780   8.682  1.00  0.00     0.143 C 
ATOM      9  C   UNL     1      -2.657   1.106   7.295  1.00  0.00     0.034 C 
ENDROOT
BRANCH   1  10
ATOM     10  C   UNL     1      -4.410   6.154   7.791  1.00  0.00     0.246 C 
ATOM     11  O   UNL     1      -4.469   6.557   8.958  1.00  0.00    -0.272 OA
BRANCH  10  12
ATOM     12  C   UNL     1      -3.985   7.098   6.629  1.00  0.00     0.174 C 
BRANCH  12  13
ATOM     13  N   UNL     1      -2.527   7.157   6.542  1.00  0.00    -0.342 N 
ATOM     14  C   UNL     1      -1.743   6.295   5.808  1.00  0.00     0.249 C 
ATOM     15  O   UNL     1      -2.190   5.390   5.115  1.00  0.00    -0.272 OA
ATOM     16  H   UNL     1      -2.008   7.752   7.183  1.00  0.00     0.164 HD
BRANCH  14  17
ATOM     17  C   UNL     1      -0.236   6.606   5.934  1.00  0.00     0.207 C 
BRANCH  17  18
ATOM     18  C   UNL     1       0.493   6.262   4.631  1.00  0.00     0.077 C 
BRANCH  18  19
ATOM     19  C   UNL     1       0.280   7.320   3.572  1.00  0.00    -0.043 A 
ATOM     20  C   UNL     1      -0.145   7.927   1.262  1.00  0.00     0.083 A 
ATOM     21  C   UNL     1       0.001   6.950   2.247  1.00  0.00     0.028 A 
ATOM     22  C   UNL     1      -0.013   9.276   1.593  1.00  0.00     0.134 A 
ATOM     23  C   UNL     1       0.263   9.657   2.901  1.00  0.00     0.048 A 
ATOM     24  C   UNL     1       0.412   8.681   3.888  1.00  0.00     0.008 A 
ATOM     25  Cl  UNL     1      -0.488   7.453  -0.360  1.00  0.00    -0.080 Cl
BRANCH  22  26
ATOM     26  O   UNL     1      -0.138  10.270   0.660  1.00  0.00    -0.506 OA
ATOM     27  H   UNL     1      -0.313  11.094   1.150  1.00  0.00     0.293 HD
ENDBRANCH  22  26
ENDBRANCH  18  19
ENDBRANCH  17  18
BRANCH  17  28
ATOM     28  O   UNL     1       0.354   5.872   7.019  1.00  0.00    -0.383 OA
ATOM     29  H   UNL     1      -0.377   5.353   7.425  1.00  0.00     0.211 HD
ENDBRANCH  17  28
ENDBRANCH  14  17
ENDBRANCH  12  13
BRANCH  12  30
ATOM     30  C   UNL     1      -4.630   8.506   6.733  1.00  0.00     0.018 C 
ATOM     31  C   UNL     1      -6.023   8.519   6.085  1.00  0.00     0.010 C 
BRANCH  30  32
ATOM     32  C   UNL     1      -3.755   9.636   6.137  1.00  0.00     0.002 C 
ATOM     33  C   UNL     1      -3.950   9.894   4.649  1.00  0.00     0.004 C 
ENDBRANCH  30  32
ENDBRANCH  12  30
ENDBRANCH  10  12
ENDBRANCH   1  10
BRANCH   5  34
ATOM     34  C   UNL     1      -6.994   4.186   8.256  1.00  0.00     0.242 C 
ATOM     35  O   UNL     1      -8.220   4.217   8.151  1.00  0.00    -0.273 OA
ATOM     36  N   UNL     1      -6.361   3.963   9.459  1.00  0.00    -0.354 N 
ATOM     37  H   UNL     1      -5.347   4.068   9.507  1.00  0.00     0.163 HD
BRANCH  36  38
ATOM     38  C   UNL     1      -7.069   3.485  10.628  1.00  0.00     0.116 C 
BRANCH  38  39
ATOM     39  C   UNL     1      -6.126   3.458  11.829  1.00  0.00     0.023 C 
BRANCH  39  40
ATOM     40  C   UNL     1      -5.194   4.663  11.866  1.00  0.00     0.026 C 
BRANCH  40  41
ATOM     41  C   UNL     1      -5.890   5.868  12.500  1.00  0.00     0.146 C 
BRANCH  41  42
ATOM     42  N   UNL     1      -6.256   6.826  11.465  1.00  0.00    -0.254 NA
ATOM     43  C   UNL     1      -7.492   7.073  11.240  1.00  0.00     0.185 C 
ATOM     44  N   UNL     1      -8.595   6.574  11.827  1.00  0.00    -0.370 N 
ATOM     45  N   UNL     1      -7.809   7.956  10.278  1.00  0.00    -0.370 N 
ATOM     46  H   UNL     1      -9.496   6.670  11.390  1.00  0.00     0.159 HD
ATOM     47  H   UNL     1      -8.538   5.902  12.586  1.00  0.00     0.159 HD
ATOM     48  H   UNL     1      -7.034   8.386   9.791  1.00  0.00     0.159 HD
ATOM     49  H   UNL     1      -8.719   8.375  10.203  1.00  0.00     0.159 HD
ENDBRANCH  41  42
ENDBRANCH  40  41
ENDBRANCH  39  40
ENDBRANCH  38  39
ENDBRANCH  36  38
ENDBRANCH   5  34
BRANCH   8  50
ATOM     50  O   UNL     1      -3.585   1.132   9.521  1.00  0.00    -0.245 OA
BRANCH  50  51
ATOM     51  S   UNL     1      -3.098   0.446  10.913  1.00  0.00     0.397 S 
ATOM     52  O   UNL     1      -2.639  -0.892  10.615  1.00  0.00    -0.169 OA
ATOM     53  O   UNL     1      -4.079   0.699  11.948  1.00  0.00    -0.169 OA
BRANCH  51  54
ATOM     54  O   UNL     1      -1.778   1.295  11.262  1.00  0.00    -0.264 OA
ATOM     55  H   UNL     1      -2.049   2.052  11.821  1.00  0.00     0.236 HD
ENDBRANCH  51  54
ENDBRANCH  50  51
ENDBRANCH   8  50
TORSDOF 19
ENDMDL
MODEL 14
REMARK VINA RESULT:    -7.535      1.991      2.356
REMARK INTER + INTRA:         -18.154
REMARK INTER:                 -14.457
REMARK INTRA:                  -3.696
REMARK UNBOUND:                -2.911
REMARK SMILES CC[C@@H](C)[C@@H](NC(=O)[C@@H](O)Cc1ccc(O)c(Cl)c1)C(=O)N1[C@H](C(=O)NCCCCN=C(N)N)C[C@H]2CC[C@H](OS(=O)(=O)O)C[C@@H]21
REMARK SMILES IDX 22 1 36 2 46 3 35 4 23 5 45 6 37 7 39 8 38 9 20 10 21 11
REMARK SMILES IDX 5 12 6 13 7 14 8 15 9 17 11 18 12 19 17 20 19 21 15 22 14 23
REMARK SMILES IDX 13 24 18 25 16 26 10 28 3 30 4 31 2 32 1 33 24 34 25 35
REMARK SMILES IDX 26 36 27 38 28 39 29 40 30 41 31 42 32 43 33 44 34 45 40 50
REMARK SMILES IDX 41 51 42 52 43 53 44 54
REMARK H PARENT 6 16 16 27 10 29 26 37 33 46 33 47 34 48 34 49 44 55
ROOT
ATOM      1  N   UNL     1      -2.568   4.820   6.807  1.00  0.00    -0.326 N 
ATOM      2  C   UNL     1      -3.735   2.776   6.846  1.00  0.00     0.014 C 
ATOM      3  C   UNL     1      -2.362   3.400   7.109  1.00  0.00     0.091 C 
ATOM      4  C   UNL     1      -4.259   3.598   5.678  1.00  0.00     0.041 C 
ATOM      5  C   UNL     1      -3.885   5.014   6.153  1.00  0.00     0.175 C 
ATOM      6  C   UNL     1      -1.919   3.016   8.519  1.00  0.00     0.059 C 
ATOM      7  C   UNL     1      -3.629   1.270   6.707  1.00  0.00     0.008 C 
ATOM      8  C   UNL     1      -2.430   1.633   8.976  1.00  0.00     0.143 C 
ATOM      9  C   UNL     1      -2.690   0.689   7.785  1.00  0.00     0.034 C 
ENDROOT
BRANCH   1  10
ATOM     10  C   UNL     1      -1.672   5.874   6.846  1.00  0.00     0.246 C 
ATOM     11  O   UNL     1      -1.999   6.921   7.416  1.00  0.00    -0.272 OA
BRANCH  10  12
ATOM     12  C   UNL     1      -0.260   5.706   6.213  1.00  0.00     0.174 C 
BRANCH  12  13
ATOM     13  N   UNL     1       0.762   6.201   7.134  1.00  0.00    -0.342 N 
ATOM     14  C   UNL     1       1.390   5.445   8.099  1.00  0.00     0.249 C 
ATOM     15  O   UNL     1       1.177   4.252   8.276  1.00  0.00    -0.272 OA
ATOM     16  H   UNL     1       0.929   7.201   7.212  1.00  0.00     0.164 HD
BRANCH  14  17
ATOM     17  C   UNL     1       2.409   6.259   8.924  1.00  0.00     0.207 C 
BRANCH  17  18
ATOM     18  C   UNL     1       3.418   6.948   8.000  1.00  0.00     0.077 C 
BRANCH  18  19
ATOM     19  C   UNL     1       3.360   8.453   8.126  1.00  0.00    -0.043 A 
ATOM     20  C   UNL     1       3.104  10.440   9.494  1.00  0.00     0.083 A 
ATOM     21  C   UNL     1       3.207   9.053   9.386  1.00  0.00     0.028 A 
ATOM     22  C   UNL     1       3.150  11.235   8.348  1.00  0.00     0.134 A 
ATOM     23  C   UNL     1       3.301  10.654   7.094  1.00  0.00     0.048 A 
ATOM     24  C   UNL     1       3.403   9.266   6.983  1.00  0.00     0.008 A 
ATOM     25  Cl  UNL     1       2.917  11.159  11.051  1.00  0.00    -0.080 Cl
BRANCH  22  26
ATOM     26  O   UNL     1       3.043  12.599   8.403  1.00  0.00    -0.506 OA
ATOM     27  H   UNL     1       2.095  12.809   8.307  1.00  0.00     0.293 HD
ENDBRANCH  22  26
ENDBRANCH  18  19
ENDBRANCH  17  18
BRANCH  17  28
ATOM     28  O   UNL     1       3.110   5.419   9.855  1.00  0.00    -0.383 OA
ATOM     29  H   UNL     1       3.640   6.024  10.422  1.00  0.00     0.211 HD
ENDBRANCH  17  28
ENDBRANCH  14  17
ENDBRANCH  12  13
BRANCH  12  30
ATOM     30  C   UNL     1      -0.153   6.352   4.806  1.00  0.00     0.018 C 
ATOM     31  C   UNL     1      -0.020   5.275   3.718  1.00  0.00     0.010 C 
BRANCH  30  32
ATOM     32  C   UNL     1       0.998   7.380   4.680  1.00  0.00     0.002 C 
ATOM     33  C   UNL     1       0.567   8.840   4.646  1.00  0.00     0.004 C 
ENDBRANCH  30  32
ENDBRANCH  12  30
ENDBRANCH  10  12
ENDBRANCH   1  10
BRANCH   5  34
ATOM     34  C   UNL     1      -4.924   5.572   7.162  1.00  0.00     0.242 C 
ATOM     35  O   UNL     1      -4.629   5.847   8.325  1.00  0.00    -0.273 OA
ATOM     36  N   UNL     1      -6.208   5.685   6.679  1.00  0.00    -0.354 N 
ATOM     37  H   UNL     1      -6.415   5.328   5.745  1.00  0.00     0.163 HD
BRANCH  36  38
ATOM     38  C   UNL     1      -7.249   6.382   7.406  1.00  0.00     0.116 C 
BRANCH  38  39
ATOM     39  C   UNL     1      -7.954   5.416   8.355  1.00  0.00     0.023 C 
BRANCH  39  40
ATOM     40  C   UNL     1      -7.811   5.827   9.816  1.00  0.00     0.026 C 
BRANCH  40  41
ATOM     41  C   UNL     1      -7.300   4.659  10.660  1.00  0.00     0.146 C 
BRANCH  41  42
ATOM     42  N   UNL     1      -6.508   5.165  11.773  1.00  0.00    -0.254 NA
ATOM     43  C   UNL     1      -5.234   5.045  11.750  1.00  0.00     0.185 C 
ATOM     44  N   UNL     1      -4.433   4.497  10.817  1.00  0.00    -0.370 N 
ATOM     45  N   UNL     1      -4.522   5.514  12.788  1.00  0.00    -0.370 N 
ATOM     46  H   UNL     1      -3.483   4.252  11.037  1.00  0.00     0.159 HD
ATOM     47  H   UNL     1      -4.806   4.105   9.958  1.00  0.00     0.159 HD
ATOM     48  H   UNL     1      -5.049   5.950  13.532  1.00  0.00     0.159 HD
ATOM     49  H   UNL     1      -3.531   5.672  12.741  1.00  0.00     0.159 HD
ENDBRANCH  41  42
ENDBRANCH  40  41
ENDBRANCH  39  40
ENDBRANCH  38  39
ENDBRANCH  36  38
ENDBRANCH   5  34
BRANCH   8  50
ATOM     50  O   UNL     1      -3.644   1.778   9.714  1.00  0.00    -0.245 OA
BRANCH  50  51
ATOM     51  S   UNL     1      -3.851   0.940  11.093  1.00  0.00     0.397 S 
ATOM     52  O   UNL     1      -4.020  -0.453  10.747  1.00  0.00    -0.169 OA
ATOM     53  O   UNL     1      -4.795   1.632  11.945  1.00  0.00    -0.169 OA
BRANCH  51  54
ATOM     54  O   UNL     1      -2.398   1.049  11.773  1.00  0.00    -0.264 OA
ATOM     55  H   UNL     1      -1.736   1.110  11.054  1.00  0.00     0.236 HD
ENDBRANCH  51  54
ENDBRANCH  50  51
ENDBRANCH   8  50
TORSDOF 19
ENDMDL
MODEL 15
REMARK VINA RESULT:    -7.490     13.346     16.512
REMARK INTER + INTRA:         -18.063
REMARK INTER:                 -14.614
REMARK INTRA:                  -3.449
REMARK UNBOUND:                -2.911
REMARK SMILES CC[C@@H](C)[C@@H](NC(=O)[C@@H](O)Cc1ccc(O)c(Cl)c1)C(=O)N1[C@H](C(=O)NCCCCN=C(N)N)C[C@H]2CC[C@H](OS(=O)(=O)O)C[C@@H]21
REMARK SMILES IDX 22 1 36 2 46 3 35 4 23 5 45 6 37 7 39 8 38 9 20 10 21 11
REMARK SMILES IDX 5 12 6 13 7 14 8 15 9 17 11 18 12 19 17 20 19 21 15 22 14 23
REMARK SMILES IDX 13 24 18 25 16 26 10 28 3 30 4 31 2 32 1 33 24 34 25 35
REMARK SMILES IDX 26 36 27 38 28 39 29 40 30 41 31 42 32 43 33 44 34 45 40 50
REMARK SMILES IDX 41 51 42 52 43 53 44 54
REMARK H PARENT 6 16 16 27 10 29 26 37 33 46 33 47 34 48 34 49 44 55
ROOT
ATOM      1  N   UNL     1      -6.005   4.724  -6.286  1.00  0.00    -0.326 N 
ATOM      2  C   UNL     1      -7.082   3.629  -8.071  1.00  0.00     0.014 C 
ATOM      3  C   UNL     1      -5.711   3.848  -7.424  1.00  0.00     0.091 C 
ATOM      4  C   UNL     1      -7.775   4.964  -7.848  1.00  0.00     0.041 C 
ATOM      5  C   UNL     1      -7.399   5.224  -6.377  1.00  0.00     0.175 C 
ATOM      6  C   UNL     1      -5.084   2.483  -7.145  1.00  0.00     0.059 C 
ATOM      7  C   UNL     1      -6.936   3.093  -9.481  1.00  0.00     0.008 C 
ATOM      8  C   UNL     1      -5.483   1.396  -8.166  1.00  0.00     0.143 C 
ATOM      9  C   UNL     1      -5.851   1.997  -9.538  1.00  0.00     0.034 C 
ENDROOT
BRANCH   1  10
ATOM     10  C   UNL     1      -5.152   5.273  -5.345  1.00  0.00     0.246 C 
ATOM     11  O   UNL     1      -4.804   4.589  -4.376  1.00  0.00    -0.272 OA
BRANCH  10  12
ATOM     12  C   UNL     1      -4.616   6.720  -5.547  1.00  0.00     0.174 C 
BRANCH  12  13
ATOM     13  N   UNL     1      -4.321   6.950  -6.961  1.00  0.00    -0.342 N 
ATOM     14  C   UNL     1      -5.068   7.739  -7.806  1.00  0.00     0.249 C 
ATOM     15  O   UNL     1      -6.059   8.366  -7.455  1.00  0.00    -0.272 OA
ATOM     16  H   UNL     1      -3.624   6.376  -7.429  1.00  0.00     0.164 HD
BRANCH  14  17
ATOM     17  C   UNL     1      -4.508   7.767  -9.244  1.00  0.00     0.207 C 
BRANCH  17  18
ATOM     18  C   UNL     1      -3.113   7.136  -9.289  1.00  0.00     0.077 C 
BRANCH  18  19
ATOM     19  C   UNL     1      -3.066   5.940 -10.213  1.00  0.00    -0.043 A 
ATOM     20  C   UNL     1      -1.796   4.243 -11.393  1.00  0.00     0.083 A 
ATOM     21  C   UNL     1      -1.843   5.315 -10.501  1.00  0.00     0.028 A 
ATOM     22  C   UNL     1      -2.967   3.791 -12.003  1.00  0.00     0.134 A 
ATOM     23  C   UNL     1      -4.185   4.401 -11.727  1.00  0.00     0.048 A 
ATOM     24  C   UNL     1      -4.235   5.475 -10.836  1.00  0.00     0.008 A 
ATOM     25  Cl  UNL     1      -0.284   3.487 -11.734  1.00  0.00    -0.080 Cl
BRANCH  22  26
ATOM     26  O   UNL     1      -2.970   2.750 -12.892  1.00  0.00    -0.506 OA
ATOM     27  H   UNL     1      -3.888   2.651 -13.204  1.00  0.00     0.293 HD
ENDBRANCH  22  26
ENDBRANCH  18  19
ENDBRANCH  17  18
BRANCH  17  28
ATOM     28  O   UNL     1      -4.440   9.111  -9.747  1.00  0.00    -0.383 OA
ATOM     29  H   UNL     1      -4.545   9.042 -10.723  1.00  0.00     0.211 HD
ENDBRANCH  17  28
ENDBRANCH  14  17
ENDBRANCH  12  13
BRANCH  12  30
ATOM     30  C   UNL     1      -3.407   7.046  -4.629  1.00  0.00     0.018 C 
ATOM     31  C   UNL     1      -3.866   7.787  -3.363  1.00  0.00     0.010 C 
BRANCH  30  32
ATOM     32  C   UNL     1      -2.287   7.847  -5.337  1.00  0.00     0.002 C 
ATOM     33  C   UNL     1      -1.105   8.230  -4.456  1.00  0.00     0.004 C 
ENDBRANCH  30  32
ENDBRANCH  12  30
ENDBRANCH  10  12
ENDBRANCH   1  10
BRANCH   5  34
ATOM     34  C   UNL     1      -8.327   4.448  -5.404  1.00  0.00     0.242 C 
ATOM     35  O   UNL     1      -9.400   3.965  -5.764  1.00  0.00    -0.273 OA
ATOM     36  N   UNL     1      -7.888   4.386  -4.101  1.00  0.00    -0.354 N 
ATOM     37  H   UNL     1      -7.051   4.908  -3.839  1.00  0.00     0.163 HD
BRANCH  36  38
ATOM     38  C   UNL     1      -8.512   3.528  -3.115  1.00  0.00     0.116 C 
BRANCH  38  39
ATOM     39  C   UNL     1      -9.265   4.375  -2.092  1.00  0.00     0.023 C 
BRANCH  39  40
ATOM     40  C   UNL     1     -10.754   4.479  -2.404  1.00  0.00     0.026 C 
BRANCH  40  41
ATOM     41  C   UNL     1     -11.532   3.362  -1.709  1.00  0.00     0.146 C 
BRANCH  41  42
ATOM     42  N   UNL     1     -11.993   2.395  -2.697  1.00  0.00    -0.254 NA
ATOM     43  C   UNL     1     -11.453   1.235  -2.747  1.00  0.00     0.185 C 
ATOM     44  N   UNL     1     -10.467   0.707  -1.999  1.00  0.00    -0.370 N 
ATOM     45  N   UNL     1     -11.889   0.360  -3.667  1.00  0.00    -0.370 N 
ATOM     46  H   UNL     1      -9.979  -0.118  -2.303  1.00  0.00     0.159 HD
ATOM     47  H   UNL     1     -10.031   1.229  -1.245  1.00  0.00     0.159 HD
ATOM     48  H   UNL     1     -12.638   0.676  -4.267  1.00  0.00     0.159 HD
ATOM     49  H   UNL     1     -11.692  -0.624  -3.618  1.00  0.00     0.159 HD
ENDBRANCH  41  42
ENDBRANCH  40  41
ENDBRANCH  39  40
ENDBRANCH  38  39
ENDBRANCH  36  38
ENDBRANCH   5  34
BRANCH   8  50
ATOM     50  O   UNL     1      -6.603   0.655  -7.681  1.00  0.00    -0.245 OA
BRANCH  50  51
ATOM     51  S   UNL     1      -6.357  -0.744  -6.888  1.00  0.00     0.397 S 
ATOM     52  O   UNL     1      -6.949  -1.809  -7.666  1.00  0.00    -0.169 OA
ATOM     53  O   UNL     1      -6.664  -0.567  -5.484  1.00  0.00    -0.169 OA
BRANCH  51  54
ATOM     54  O   UNL     1      -4.766  -0.933  -7.026  1.00  0.00    -0.264 OA
ATOM     55  H   UNL     1      -4.484  -1.591  -6.359  1.00  0.00     0.236 HD
ENDBRANCH  51  54
ENDBRANCH  50  51
ENDBRANCH   8  50
TORSDOF 19
ENDMDL
MODEL 16
REMARK VINA RESULT:    -7.418     11.445     14.940
REMARK INTER + INTRA:         -17.917
REMARK INTER:                 -13.238
REMARK INTRA:                  -4.679
REMARK UNBOUND:                -2.911
REMARK SMILES CC[C@@H](C)[C@@H](NC(=O)[C@@H](O)Cc1ccc(O)c(Cl)c1)C(=O)N1[C@H](C(=O)NCCCCN=C(N)N)C[C@H]2CC[C@H](OS(=O)(=O)O)C[C@@H]21
REMARK SMILES IDX 22 1 36 2 46 3 35 4 23 5 45 6 37 7 39 8 38 9 20 10 21 11
REMARK SMILES IDX 5 12 6 13 7 14 8 15 9 17 11 18 12 19 17 20 19 21 15 22 14 23
REMARK SMILES IDX 13 24 18 25 16 26 10 28 3 30 4 31 2 32 1 33 24 34 25 35
REMARK SMILES IDX 26 36 27 38 28 39 29 40 30 41 31 42 32 43 33 44 34 45 40 50
REMARK SMILES IDX 41 51 42 52 43 53 44 54
REMARK H PARENT 6 16 16 27 10 29 26 37 33 46 33 47 34 48 34 49 44 55
ROOT
ATOM      1  N   UNL     1      -5.072   4.481  -1.545  1.00  0.00    -0.326 N 
ATOM      2  C   UNL     1      -6.731   2.921  -0.948  1.00  0.00     0.014 C 
ATOM      3  C   UNL     1      -6.334   4.393  -0.804  1.00  0.00     0.091 C 
ATOM      4  C   UNL     1      -5.387   2.209  -0.940  1.00  0.00     0.041 C 
ATOM      5  C   UNL     1      -4.590   3.121  -1.890  1.00  0.00     0.175 C 
ATOM      6  C   UNL     1      -7.506   5.257  -1.264  1.00  0.00     0.059 C 
ATOM      7  C   UNL     1      -7.780   2.540   0.078  1.00  0.00     0.008 C 
ATOM      8  C   UNL     1      -8.888   4.622  -0.998  1.00  0.00     0.143 C 
ATOM      9  C   UNL     1      -8.856   3.641   0.191  1.00  0.00     0.034 C 
ENDROOT
BRANCH   1  10
ATOM     10  C   UNL     1      -4.235   5.565  -1.746  1.00  0.00     0.246 C 
ATOM     11  O   UNL     1      -3.095   5.541  -1.268  1.00  0.00    -0.272 OA
BRANCH  10  12
ATOM     12  C   UNL     1      -4.728   6.767  -2.602  1.00  0.00     0.174 C 
BRANCH  12  13
ATOM     13  N   UNL     1      -5.130   6.303  -3.929  1.00  0.00    -0.342 N 
ATOM     14  C   UNL     1      -6.238   6.743  -4.618  1.00  0.00     0.249 C 
ATOM     15  O   UNL     1      -7.004   7.603  -4.201  1.00  0.00    -0.272 OA
ATOM     16  H   UNL     1      -4.684   5.483  -4.332  1.00  0.00     0.164 HD
BRANCH  14  17
ATOM     17  C   UNL     1      -6.402   6.049  -5.987  1.00  0.00     0.207 C 
BRANCH  17  18
ATOM     18  C   UNL     1      -5.042   5.585  -6.519  1.00  0.00     0.077 C 
BRANCH  18  19
ATOM     19  C   UNL     1      -5.123   5.149  -7.964  1.00  0.00    -0.043 A 
ATOM     20  C   UNL     1      -5.881   3.575  -9.647  1.00  0.00     0.083 A 
ATOM     21  C   UNL     1      -5.849   4.002  -8.319  1.00  0.00     0.028 A 
ATOM     22  C   UNL     1      -5.188   4.288 -10.626  1.00  0.00     0.134 A 
ATOM     23  C   UNL     1      -4.464   5.426 -10.289  1.00  0.00     0.048 A 
ATOM     24  C   UNL     1      -4.429   5.855  -8.960  1.00  0.00     0.008 A 
ATOM     25  Cl  UNL     1      -6.779   2.163 -10.063  1.00  0.00    -0.080 Cl
BRANCH  22  26
ATOM     26  O   UNL     1      -5.181   3.902 -11.939  1.00  0.00    -0.506 OA
ATOM     27  H   UNL     1      -5.006   4.704 -12.466  1.00  0.00     0.293 HD
ENDBRANCH  22  26
ENDBRANCH  18  19
ENDBRANCH  17  18
BRANCH  17  28
ATOM     28  O   UNL     1      -7.012   6.930  -6.944  1.00  0.00    -0.383 OA
ATOM     29  H   UNL     1      -7.685   7.448  -6.446  1.00  0.00     0.211 HD
ENDBRANCH  17  28
ENDBRANCH  14  17
ENDBRANCH  12  13
BRANCH  12  30
ATOM     30  C   UNL     1      -3.694   7.923  -2.666  1.00  0.00     0.018 C 
ATOM     31  C   UNL     1      -4.384   9.285  -2.495  1.00  0.00     0.010 C 
BRANCH  30  32
ATOM     32  C   UNL     1      -2.837   7.919  -3.956  1.00  0.00     0.002 C 
ATOM     33  C   UNL     1      -1.332   7.833  -3.738  1.00  0.00     0.004 C 
ENDBRANCH  30  32
ENDBRANCH  12  30
ENDBRANCH  10  12
ENDBRANCH   1  10
BRANCH   5  34
ATOM     34  C   UNL     1      -4.885   2.794  -3.379  1.00  0.00     0.242 C 
ATOM     35  O   UNL     1      -5.880   3.224  -3.961  1.00  0.00    -0.273 OA
ATOM     36  N   UNL     1      -3.984   1.946  -3.982  1.00  0.00    -0.354 N 
ATOM     37  H   UNL     1      -3.247   1.527  -3.414  1.00  0.00     0.163 HD
BRANCH  36  38
ATOM     38  C   UNL     1      -3.983   1.708  -5.411  1.00  0.00     0.116 C 
BRANCH  38  39
ATOM     39  C   UNL     1      -4.736   0.417  -5.722  1.00  0.00     0.023 C 
BRANCH  39  40
ATOM     40  C   UNL     1      -5.577   0.525  -6.990  1.00  0.00     0.026 C 
BRANCH  40  41
ATOM     41  C   UNL     1      -7.030   0.136  -6.711  1.00  0.00     0.146 C 
BRANCH  41  42
ATOM     42  N   UNL     1      -7.282   0.170  -5.276  1.00  0.00    -0.254 NA
ATOM     43  C   UNL     1      -8.040   1.079  -4.788  1.00  0.00     0.185 C 
ATOM     44  N   UNL     1      -8.695   2.082  -5.402  1.00  0.00    -0.370 N 
ATOM     45  N   UNL     1      -8.256   1.096  -3.463  1.00  0.00    -0.370 N 
ATOM     46  H   UNL     1      -9.051   2.860  -4.875  1.00  0.00     0.159 HD
ATOM     47  H   UNL     1      -8.652   2.209  -6.409  1.00  0.00     0.159 HD
ATOM     48  H   UNL     1      -7.806   0.368  -2.926  1.00  0.00     0.159 HD
ATOM     49  H   UNL     1      -9.008   1.613  -3.041  1.00  0.00     0.159 HD
ENDBRANCH  41  42
ENDBRANCH  40  41
ENDBRANCH  39  40
ENDBRANCH  38  39
ENDBRANCH  36  38
ENDBRANCH   5  34
BRANCH   8  50
ATOM     50  O   UNL     1      -9.334   3.916  -2.157  1.00  0.00    -0.245 OA
BRANCH  50  51
ATOM     51  S   UNL     1     -10.808   4.228  -2.769  1.00  0.00     0.397 S 
ATOM     52  O   UNL     1     -11.793   3.693  -1.857  1.00  0.00    -0.169 OA
ATOM     53  O   UNL     1     -10.826   3.907  -4.181  1.00  0.00    -0.169 OA
BRANCH  51  54
ATOM     54  O   UNL     1     -10.900   5.827  -2.624  1.00  0.00    -0.264 OA
ATOM     55  H   UNL     1     -10.007   6.158  -2.397  1.00  0.00     0.236 HD
ENDBRANCH  51  54
ENDBRANCH  50  51
ENDBRANCH   8  50
TORSDOF 19
ENDMDL
MODEL 17
REMARK VINA RESULT:    -7.406      2.063      2.693
REMARK INTER + INTRA:         -17.894
REMARK INTER:                 -14.688
REMARK INTRA:                  -3.206
REMARK UNBOUND:                -2.911
REMARK SMILES CC[C@@H](C)[C@@H](NC(=O)[C@@H](O)Cc1ccc(O)c(Cl)c1)C(=O)N1[C@H](C(=O)NCCCCN=C(N)N)C[C@H]2CC[C@H](OS(=O)(=O)O)C[C@@H]21
REMARK SMILES IDX 22 1 36 2 46 3 35 4 23 5 45 6 37 7 39 8 38 9 20 10 21 11
REMARK SMILES IDX 5 12 6 13 7 14 8 15 9 17 11 18 12 19 17 20 19 21 15 22 14 23
REMARK SMILES IDX 13 24 18 25 16 26 10 28 3 30 4 31 2 32 1 33 24 34 25 35
REMARK SMILES IDX 26 36 27 38 28 39 29 40 30 41 31 42 32 43 33 44 34 45 40 50
REMARK SMILES IDX 41 51 42 52 43 53 44 54
REMARK H PARENT 6 16 16 27 10 29 26 37 33 46 33 47 34 48 34 49 44 55
ROOT
ATOM      1  N   UNL     1      -4.109   4.986   6.691  1.00  0.00    -0.326 N 
ATOM      2  C   UNL     1      -4.545   2.684   6.926  1.00  0.00     0.014 C 
ATOM      3  C   UNL     1      -3.432   3.731   7.031  1.00  0.00     0.091 C 
ATOM      4  C   UNL     1      -5.394   3.212   5.780  1.00  0.00     0.041 C 
ATOM      5  C   UNL     1      -5.464   4.703   6.157  1.00  0.00     0.175 C 
ATOM      6  C   UNL     1      -2.782   3.609   8.408  1.00  0.00     0.059 C 
ATOM      7  C   UNL     1      -3.966   1.285   6.840  1.00  0.00     0.008 C 
ATOM      8  C   UNL     1      -2.780   2.171   8.969  1.00  0.00     0.143 C 
ATOM      9  C   UNL     1      -2.811   1.112   7.848  1.00  0.00     0.034 C 
ENDROOT
BRANCH   1  10
ATOM     10  C   UNL     1      -3.603   6.272   6.600  1.00  0.00     0.246 C 
ATOM     11  O   UNL     1      -4.288   7.217   7.006  1.00  0.00    -0.272 OA
BRANCH  10  12
ATOM     12  C   UNL     1      -2.171   6.494   6.032  1.00  0.00     0.174 C 
BRANCH  12  13
ATOM     13  N   UNL     1      -1.175   6.196   7.061  1.00  0.00    -0.342 N 
ATOM     14  C   UNL     1      -0.020   5.474   6.857  1.00  0.00     0.249 C 
ATOM     15  O   UNL     1       0.317   5.020   5.770  1.00  0.00    -0.272 OA
ATOM     16  H   UNL     1      -1.392   6.372   8.038  1.00  0.00     0.164 HD
BRANCH  14  17
ATOM     17  C   UNL     1       0.818   5.316   8.143  1.00  0.00     0.207 C 
BRANCH  17  18
ATOM     18  C   UNL     1       2.310   5.471   7.832  1.00  0.00     0.077 C 
BRANCH  18  19
ATOM     19  C   UNL     1       2.682   6.913   7.569  1.00  0.00    -0.043 A 
ATOM     20  C   UNL     1       2.308   9.281   7.934  1.00  0.00     0.083 A 
ATOM     21  C   UNL     1       1.995   7.951   8.217  1.00  0.00     0.028 A 
ATOM     22  C   UNL     1       3.304   9.582   7.005  1.00  0.00     0.134 A 
ATOM     23  C   UNL     1       3.992   8.564   6.356  1.00  0.00     0.048 A 
ATOM     24  C   UNL     1       3.680   7.231   6.635  1.00  0.00     0.008 A 
ATOM     25  Cl  UNL     1       1.453  10.544   8.741  1.00  0.00    -0.080 Cl
BRANCH  22  26
ATOM     26  O   UNL     1       3.638  10.871   6.687  1.00  0.00    -0.506 OA
ATOM     27  H   UNL     1       3.459  11.410   7.480  1.00  0.00     0.293 HD
ENDBRANCH  22  26
ENDBRANCH  18  19
ENDBRANCH  17  18
BRANCH  17  28
ATOM     28  O   UNL     1       0.589   4.036   8.755  1.00  0.00    -0.383 OA
ATOM     29  H   UNL     1       1.205   3.409   8.313  1.00  0.00     0.211 HD
ENDBRANCH  17  28
ENDBRANCH  14  17
ENDBRANCH  12  13
BRANCH  12  30
ATOM     30  C   UNL     1      -1.983   7.907   5.417  1.00  0.00     0.018 C 
ATOM     31  C   UNL     1      -1.350   7.815   4.020  1.00  0.00     0.010 C 
BRANCH  30  32
ATOM     32  C   UNL     1      -1.164   8.870   6.310  1.00  0.00     0.002 C 
ATOM     33  C   UNL     1      -1.415  10.353   6.071  1.00  0.00     0.004 C 
ENDBRANCH  30  32
ENDBRANCH  12  30
ENDBRANCH  10  12
ENDBRANCH   1  10
BRANCH   5  34
ATOM     34  C   UNL     1      -6.547   4.970   7.236  1.00  0.00     0.242 C 
ATOM     35  O   UNL     1      -6.969   4.083   7.978  1.00  0.00    -0.273 OA
ATOM     36  N   UNL     1      -7.040   6.255   7.266  1.00  0.00    -0.354 N 
ATOM     37  H   UNL     1      -6.738   6.914   6.547  1.00  0.00     0.163 HD
BRANCH  36  38
ATOM     38  C   UNL     1      -7.889   6.733   8.337  1.00  0.00     0.116 C 
BRANCH  38  39
ATOM     39  C   UNL     1      -7.251   7.952   9.000  1.00  0.00     0.023 C 
BRANCH  39  40
ATOM     40  C   UNL     1      -7.358   7.911  10.521  1.00  0.00     0.026 C 
BRANCH  40  41
ATOM     41  C   UNL     1      -6.276   7.009  11.116  1.00  0.00     0.146 C 
BRANCH  41  42
ATOM     42  N   UNL     1      -6.894   5.867  11.776  1.00  0.00    -0.254 NA
ATOM     43  C   UNL     1      -6.157   4.985  12.339  1.00  0.00     0.185 C 
ATOM     44  N   UNL     1      -4.817   4.915  12.442  1.00  0.00    -0.370 N 
ATOM     45  N   UNL     1      -6.747   3.938  12.938  1.00  0.00    -0.370 N 
ATOM     46  H   UNL     1      -4.367   4.052  12.693  1.00  0.00     0.159 HD
ATOM     47  H   UNL     1      -4.215   5.635  12.055  1.00  0.00     0.159 HD
ATOM     48  H   UNL     1      -7.757   3.918  12.914  1.00  0.00     0.159 HD
ATOM     49  H   UNL     1      -6.267   3.345  13.592  1.00  0.00     0.159 HD
ENDBRANCH  41  42
ENDBRANCH  40  41
ENDBRANCH  39  40
ENDBRANCH  38  39
ENDBRANCH  36  38
ENDBRANCH   5  34
BRANCH   8  50
ATOM     50  O   UNL     1      -3.916   1.972   9.811  1.00  0.00    -0.245 OA
BRANCH  50  51
ATOM     51  S   UNL     1      -3.730   1.233  11.248  1.00  0.00     0.397 S 
ATOM     52  O   UNL     1      -2.550   1.777  11.881  1.00  0.00    -0.169 OA
ATOM     53  O   UNL     1      -3.918  -0.194  11.089  1.00  0.00    -0.169 OA
BRANCH  51  54
ATOM     54  O   UNL     1      -4.979   1.806  12.084  1.00  0.00    -0.264 OA
ATOM     55  H   UNL     1      -4.624   2.378  12.795  1.00  0.00     0.236 HD
ENDBRANCH  51  54
ENDBRANCH  50  51
ENDBRANCH   8  50
TORSDOF 19
ENDMDL
MODEL 18
REMARK VINA RESULT:    -7.382     16.092     19.081
REMARK INTER + INTRA:         -17.845
REMARK INTER:                 -14.255
REMARK INTRA:                  -3.590
REMARK UNBOUND:                -2.911
REMARK SMILES CC[C@@H](C)[C@@H](NC(=O)[C@@H](O)Cc1ccc(O)c(Cl)c1)C(=O)N1[C@H](C(=O)NCCCCN=C(N)N)C[C@H]2CC[C@H](OS(=O)(=O)O)C[C@@H]21
REMARK SMILES IDX 22 1 36 2 46 3 35 4 23 5 45 6 37 7 39 8 38 9 20 10 21 11
REMARK SMILES IDX 5 12 6 13 7 14 8 15 9 17 11 18 12 19 17 20 19 21 15 22 14 23
REMARK SMILES IDX 13 24 18 25 16 26 10 28 3 30 4 31 2 32 1 33 24 34 25 35
REMARK SMILES IDX 26 36 27 38 28 39 29 40 30 41 31 42 32 43 33 44 34 45 40 50
REMARK SMILES IDX 41 51 42 52 43 53 44 54
REMARK H PARENT 6 16 16 27 10 29 26 37 33 46 33 47 34 48 34 49 44 55
ROOT
ATOM      1  N   UNL     1      10.659  -8.075  10.525  1.00  0.00    -0.326 N 
ATOM      2  C   UNL     1       9.824  -9.192   8.628  1.00  0.00     0.014 C 
ATOM      3  C   UNL     1      10.630  -7.965   9.063  1.00  0.00     0.091 C 
ATOM      4  C   UNL     1       8.808  -9.341   9.749  1.00  0.00     0.041 C 
ATOM      5  C   UNL     1       9.721  -9.134  10.972  1.00  0.00     0.175 C 
ATOM      6  C   UNL     1      11.959  -7.967   8.310  1.00  0.00     0.059 C 
ATOM      7  C   UNL     1       9.338  -9.042   7.199  1.00  0.00     0.008 C 
ATOM      8  C   UNL     1      11.872  -8.587   6.899  1.00  0.00     0.143 C 
ATOM      9  C   UNL     1      10.456  -8.471   6.301  1.00  0.00     0.034 C 
ENDROOT
BRANCH   1  10
ATOM     10  C   UNL     1      11.231  -7.238  11.467  1.00  0.00     0.246 C 
ATOM     11  O   UNL     1      12.461  -7.204  11.574  1.00  0.00    -0.272 OA
BRANCH  10  12
ATOM     12  C   UNL     1      10.318  -6.329  12.340  1.00  0.00     0.174 C 
BRANCH  12  13
ATOM     13  N   UNL     1      10.171  -5.017  11.709  1.00  0.00    -0.342 N 
ATOM     14  C   UNL     1       8.970  -4.433  11.371  1.00  0.00     0.249 C 
ATOM     15  O   UNL     1       7.878  -4.942  11.590  1.00  0.00    -0.272 OA
ATOM     16  H   UNL     1      10.988  -4.548  11.326  1.00  0.00     0.164 HD
BRANCH  14  17
ATOM     17  C   UNL     1       9.147  -3.053  10.703  1.00  0.00     0.207 C 
BRANCH  17  18
ATOM     18  C   UNL     1       7.802  -2.326  10.611  1.00  0.00     0.077 C 
BRANCH  18  19
ATOM     19  C   UNL     1       7.838  -0.986  11.313  1.00  0.00    -0.043 A 
ATOM     20  C   UNL     1       9.042   1.018  11.956  1.00  0.00     0.083 A 
ATOM     21  C   UNL     1       8.995  -0.194  11.267  1.00  0.00     0.028 A 
ATOM     22  C   UNL     1       7.937   1.445  12.694  1.00  0.00     0.134 A 
ATOM     23  C   UNL     1       6.784   0.670  12.748  1.00  0.00     0.048 A 
ATOM     24  C   UNL     1       6.735  -0.545  12.060  1.00  0.00     0.008 A 
ATOM     25  Cl  UNL     1      10.473   1.978  11.889  1.00  0.00    -0.080 Cl
BRANCH  22  26
ATOM     26  O   UNL     1       7.940   2.621  13.394  1.00  0.00    -0.506 OA
ATOM     27  H   UNL     1       7.500   2.441  14.246  1.00  0.00     0.293 HD
ENDBRANCH  22  26
ENDBRANCH  18  19
ENDBRANCH  17  18
BRANCH  17  28
ATOM     28  O   UNL     1       9.709  -3.183   9.388  1.00  0.00    -0.383 OA
ATOM     29  H   UNL     1      10.686  -3.200   9.510  1.00  0.00     0.211 HD
ENDBRANCH  17  28
ENDBRANCH  14  17
ENDBRANCH  12  13
BRANCH  12  30
ATOM     30  C   UNL     1      10.802  -6.227  13.811  1.00  0.00     0.018 C 
ATOM     31  C   UNL     1      10.697  -7.588  14.516  1.00  0.00     0.010 C 
BRANCH  30  32
ATOM     32  C   UNL     1      10.065  -5.143  14.635  1.00  0.00     0.002 C 
ATOM     33  C   UNL     1      10.057  -5.364  16.142  1.00  0.00     0.004 C 
ENDBRANCH  30  32
ENDBRANCH  12  30
ENDBRANCH  10  12
ENDBRANCH   1  10
BRANCH   5  34
ATOM     34  C   UNL     1      10.489 -10.432  11.339  1.00  0.00     0.242 C 
ATOM     35  O   UNL     1      11.718 -10.476  11.392  1.00  0.00    -0.273 OA
ATOM     36  N   UNL     1       9.700 -11.541  11.546  1.00  0.00    -0.354 N 
ATOM     37  H   UNL     1       8.697 -11.471  11.370  1.00  0.00     0.163 HD
BRANCH  36  38
ATOM     38  C   UNL     1      10.226 -12.771  12.101  1.00  0.00     0.116 C 
BRANCH  38  39
ATOM     39  C   UNL     1       9.793 -13.955  11.241  1.00  0.00     0.023 C 
BRANCH  39  40
ATOM     40  C   UNL     1       9.769 -13.617   9.754  1.00  0.00     0.026 C 
BRANCH  40  41
ATOM     41  C   UNL     1      11.067 -14.059   9.077  1.00  0.00     0.146 C 
BRANCH  41  42
ATOM     42  N   UNL     1      11.882 -12.892   8.767  1.00  0.00    -0.254 NA
ATOM     43  C   UNL     1      12.892 -12.612   9.502  1.00  0.00     0.185 C 
ATOM     44  N   UNL     1      13.375 -13.245  10.587  1.00  0.00    -0.370 N 
ATOM     45  N   UNL     1      13.629 -11.530   9.202  1.00  0.00    -0.370 N 
ATOM     46  H   UNL     1      14.020 -12.784  11.205  1.00  0.00     0.159 HD
ATOM     47  H   UNL     1      12.945 -14.093  10.944  1.00  0.00     0.159 HD
ATOM     48  H   UNL     1      13.338 -11.000   8.392  1.00  0.00     0.159 HD
ATOM     49  H   UNL     1      14.551 -11.380   9.571  1.00  0.00     0.159 HD
ENDBRANCH  41  42
ENDBRANCH  40  41
ENDBRANCH  39  40
ENDBRANCH  38  39
ENDBRANCH  36  38
ENDBRANCH   5  34
BRANCH   8  50
ATOM     50  O   UNL     1      12.232  -9.968   6.947  1.00  0.00    -0.245 OA
BRANCH  50  51
ATOM     51  S   UNL     1      13.092 -10.616   5.728  1.00  0.00     0.397 S 
ATOM     52  O   UNL     1      13.850 -11.727   6.257  1.00  0.00    -0.169 OA
ATOM     53  O   UNL     1      13.724  -9.561   4.963  1.00  0.00    -0.169 OA
BRANCH  51  54
ATOM     54  O   UNL     1      11.940 -11.268   4.814  1.00  0.00    -0.264 OA
ATOM     55  H   UNL     1      12.006 -12.241   4.900  1.00  0.00     0.236 HD
ENDBRANCH  51  54
ENDBRANCH  50  51
ENDBRANCH   8  50
TORSDOF 19
ENDMDL
MODEL 19
REMARK VINA RESULT:    -7.380     10.162     12.712
REMARK INTER + INTRA:         -17.840
REMARK INTER:                 -13.541
REMARK INTRA:                  -4.299
REMARK UNBOUND:                -2.911
REMARK SMILES CC[C@@H](C)[C@@H](NC(=O)[C@@H](O)Cc1ccc(O)c(Cl)c1)C(=O)N1[C@H](C(=O)NCCCCN=C(N)N)C[C@H]2CC[C@H](OS(=O)(=O)O)C[C@@H]21
REMARK SMILES IDX 22 1 36 2 46 3 35 4 23 5 45 6 37 7 39 8 38 9 20 10 21 11
REMARK SMILES IDX 5 12 6 13 7 14 8 15 9 17 11 18 12 19 17 20 19 21 15 22 14 23
REMARK SMILES IDX 13 24 18 25 16 26 10 28 3 30 4 31 2 32 1 33 24 34 25 35
REMARK SMILES IDX 26 36 27 38 28 39 29 40 30 41 31 42 32 43 33 44 34 45 40 50
REMARK SMILES IDX 41 51 42 52 43 53 44 54
REMARK H PARENT 6 16 16 27 10 29 26 37 33 46 33 47 34 48 34 49 44 55
ROOT
ATOM      1  N   UNL     1      -6.153   5.367  -1.590  1.00  0.00    -0.326 N 
ATOM      2  C   UNL     1      -7.102   3.460  -0.587  1.00  0.00     0.014 C 
ATOM      3  C   UNL     1      -7.176   4.990  -0.610  1.00  0.00     0.091 C 
ATOM      4  C   UNL     1      -5.620   3.193  -0.805  1.00  0.00     0.041 C 
ATOM      5  C   UNL     1      -5.329   4.186  -1.945  1.00  0.00     0.175 C 
ATOM      6  C   UNL     1      -8.623   5.400  -0.878  1.00  0.00     0.059 C 
ATOM      7  C   UNL     1      -7.785   2.903   0.646  1.00  0.00     0.008 C 
ATOM      8  C   UNL     1      -9.664   4.413  -0.308  1.00  0.00     0.143 C 
ATOM      9  C   UNL     1      -9.119   3.633   0.906  1.00  0.00     0.034 C 
ENDROOT
BRANCH   1  10
ATOM     10  C   UNL     1      -5.752   6.622  -2.016  1.00  0.00     0.246 C 
ATOM     11  O   UNL     1      -6.393   7.614  -1.652  1.00  0.00    -0.272 OA
BRANCH  10  12
ATOM     12  C   UNL     1      -4.482   6.761  -2.904  1.00  0.00     0.174 C 
BRANCH  12  13
ATOM     13  N   UNL     1      -3.505   7.628  -2.246  1.00  0.00    -0.342 N 
ATOM     14  C   UNL     1      -2.523   7.198  -1.381  1.00  0.00     0.249 C 
ATOM     15  O   UNL     1      -2.341   6.023  -1.086  1.00  0.00    -0.272 OA
ATOM     16  H   UNL     1      -3.629   8.637  -2.271  1.00  0.00     0.164 HD
BRANCH  14  17
ATOM     17  C   UNL     1      -1.660   8.356  -0.837  1.00  0.00     0.207 C 
BRANCH  17  18
ATOM     18  C   UNL     1      -0.381   8.506  -1.667  1.00  0.00     0.077 C 
BRANCH  18  19
ATOM     19  C   UNL     1      -0.652   9.163  -3.002  1.00  0.00    -0.043 A 
ATOM     20  C   UNL     1      -1.392  11.081  -4.290  1.00  0.00     0.083 A 
ATOM     21  C   UNL     1      -1.096  10.494  -3.060  1.00  0.00     0.028 A 
ATOM     22  C   UNL     1      -1.248  10.346  -5.468  1.00  0.00     0.134 A 
ATOM     23  C   UNL     1      -0.809   9.028  -5.425  1.00  0.00     0.048 A 
ATOM     24  C   UNL     1      -0.513   8.436  -4.195  1.00  0.00     0.008 A 
ATOM     25  Cl  UNL     1      -1.937  12.716  -4.341  1.00  0.00    -0.080 Cl
BRANCH  22  26
ATOM     26  O   UNL     1      -1.536  10.875  -6.696  1.00  0.00    -0.506 OA
ATOM     27  H   UNL     1      -2.502  11.000  -6.728  1.00  0.00     0.293 HD
ENDBRANCH  22  26
ENDBRANCH  18  19
ENDBRANCH  17  18
BRANCH  17  28
ATOM     28  O   UNL     1      -1.312   8.139   0.540  1.00  0.00    -0.383 OA
ATOM     29  H   UNL     1      -1.880   8.750   1.063  1.00  0.00     0.211 HD
ENDBRANCH  17  28
ENDBRANCH  14  17
ENDBRANCH  12  13
BRANCH  12  30
ATOM     30  C   UNL     1      -4.809   7.227  -4.349  1.00  0.00     0.018 C 
ATOM     31  C   UNL     1      -4.499   8.722  -4.524  1.00  0.00     0.010 C 
BRANCH  30  32
ATOM     32  C   UNL     1      -6.265   6.931  -4.783  1.00  0.00     0.002 C 
ATOM     33  C   UNL     1      -6.412   6.173  -6.095  1.00  0.00     0.004 C 
ENDBRANCH  30  32
ENDBRANCH  12  30
ENDBRANCH  10  12
ENDBRANCH   1  10
BRANCH   5  34
ATOM     34  C   UNL     1      -5.754   3.613  -3.324  1.00  0.00     0.242 C 
ATOM     35  O   UNL     1      -6.930   3.567  -3.683  1.00  0.00    -0.273 OA
ATOM     36  N   UNL     1      -4.726   3.112  -4.092  1.00  0.00    -0.354 N 
ATOM     37  H   UNL     1      -3.789   3.069  -3.690  1.00  0.00     0.163 HD
BRANCH  36  38
ATOM     38  C   UNL     1      -4.908   2.741  -5.480  1.00  0.00     0.116 C 
BRANCH  38  39
ATOM     39  C   UNL     1      -4.950   1.220  -5.608  1.00  0.00     0.023 C 
BRANCH  39  40
ATOM     40  C   UNL     1      -6.275   0.719  -6.173  1.00  0.00     0.026 C 
BRANCH  40  41
ATOM     41  C   UNL     1      -7.191   0.228  -5.052  1.00  0.00     0.146 C 
BRANCH  41  42
ATOM     42  N   UNL     1      -8.564   0.630  -5.327  1.00  0.00    -0.254 NA
ATOM     43  C   UNL     1      -9.282   1.114  -4.384  1.00  0.00     0.185 C 
ATOM     44  N   UNL     1      -8.980   1.335  -3.092  1.00  0.00    -0.370 N 
ATOM     45  N   UNL     1     -10.547   1.475  -4.656  1.00  0.00    -0.370 N 
ATOM     46  H   UNL     1      -9.706   1.488  -2.413  1.00  0.00     0.159 HD
ATOM     47  H   UNL     1      -8.058   1.131  -2.718  1.00  0.00     0.159 HD
ATOM     48  H   UNL     1     -10.854   1.349  -5.611  1.00  0.00     0.159 HD
ATOM     49  H   UNL     1     -11.086   2.069  -4.051  1.00  0.00     0.159 HD
ENDBRANCH  41  42
ENDBRANCH  40  41
ENDBRANCH  39  40
ENDBRANCH  38  39
ENDBRANCH  36  38
ENDBRANCH   5  34
BRANCH   8  50
ATOM     50  O   UNL     1     -10.052   3.474  -1.312  1.00  0.00    -0.245 OA
BRANCH  50  51
ATOM     51  S   UNL     1     -11.628   3.141  -1.533  1.00  0.00     0.397 S 
ATOM     52  O   UNL     1     -12.005   3.615  -2.846  1.00  0.00    -0.169 OA
ATOM     53  O   UNL     1     -12.375   3.512  -0.349  1.00  0.00    -0.169 OA
BRANCH  51  54
ATOM     54  O   UNL     1     -11.621   1.536  -1.632  1.00  0.00    -0.264 OA
ATOM     55  H   UNL     1     -11.053   1.287  -2.389  1.00  0.00     0.236 HD
ENDBRANCH  51  54
ENDBRANCH  50  51
ENDBRANCH   8  50
TORSDOF 19
ENDMDL
MODEL 20
REMARK VINA RESULT:    -7.330     14.979     18.142
REMARK INTER + INTRA:         -17.739
REMARK INTER:                 -14.117
REMARK INTRA:                  -3.621
REMARK UNBOUND:                -2.911
REMARK SMILES CC[C@@H](C)[C@@H](NC(=O)[C@@H](O)Cc1ccc(O)c(Cl)c1)C(=O)N1[C@H](C(=O)NCCCCN=C(N)N)C[C@H]2CC[C@H](OS(=O)(=O)O)C[C@@H]21
REMARK SMILES IDX 22 1 36 2 46 3 35 4 23 5 45 6 37 7 39 8 38 9 20 10 21 11
REMARK SMILES IDX 5 12 6 13 7 14 8 15 9 17 11 18 12 19 17 20 19 21 15 22 14 23
REMARK SMILES IDX 13 24 18 25 16 26 10 28 3 30 4 31 2 32 1 33 24 34 25 35
REMARK SMILES IDX 26 36 27 38 28 39 29 40 30 41 31 42 32 43 33 44 34 45 40 50
REMARK SMILES IDX 41 51 42 52 43 53 44 54
REMARK H PARENT 6 16 16 27 10 29 26 37 33 46 33 47 34 48 34 49 44 55
ROOT
ATOM      1  N   UNL     1      11.703  -4.898  13.470  1.00  0.00    -0.326 N 
ATOM      2  C   UNL     1      12.556  -2.709  13.310  1.00  0.00     0.014 C 
ATOM      3  C   UNL     1      12.029  -3.876  12.471  1.00  0.00     0.091 C 
ATOM      4  C   UNL     1      13.274  -3.415  14.451  1.00  0.00     0.041 C 
ATOM      5  C   UNL     1      12.236  -4.499  14.796  1.00  0.00     0.175 C 
ATOM      6  C   UNL     1      10.907  -3.357  11.573  1.00  0.00     0.059 C 
ATOM      7  C   UNL     1      13.320  -1.723  12.449  1.00  0.00     0.008 C 
ATOM      8  C   UNL     1      11.090  -1.887  11.137  1.00  0.00     0.143 C 
ATOM      9  C   UNL     1      12.574  -1.468  11.122  1.00  0.00     0.034 C 
ENDROOT
BRANCH   1  10
ATOM     10  C   UNL     1      11.203  -6.178  13.301  1.00  0.00     0.246 C 
ATOM     11  O   UNL     1      10.057  -6.431  13.685  1.00  0.00    -0.272 OA
BRANCH  10  12
ATOM     12  C   UNL     1      12.076  -7.255  12.594  1.00  0.00     0.174 C 
BRANCH  12  13
ATOM     13  N   UNL     1      11.219  -8.216  11.901  1.00  0.00    -0.342 N 
ATOM     14  C   UNL     1      10.497  -7.951  10.759  1.00  0.00     0.249 C 
ATOM     15  O   UNL     1      10.515  -6.874  10.176  1.00  0.00    -0.272 OA
ATOM     16  H   UNL     1      10.983  -9.096  12.352  1.00  0.00     0.164 HD
BRANCH  14  17
ATOM     17  C   UNL     1       9.674  -9.166  10.280  1.00  0.00     0.207 C 
BRANCH  17  18
ATOM     18  C   UNL     1       8.928  -8.830   8.984  1.00  0.00     0.077 C 
BRANCH  18  19
ATOM     19  C   UNL     1       9.787  -9.070   7.763  1.00  0.00    -0.043 A 
ATOM     20  C   UNL     1      11.253 -10.510   6.474  1.00  0.00     0.083 A 
ATOM     21  C   UNL     1      10.422 -10.308   7.576  1.00  0.00     0.028 A 
ATOM     22  C   UNL     1      11.455  -9.481   5.554  1.00  0.00     0.134 A 
ATOM     23  C   UNL     1      10.832  -8.250   5.726  1.00  0.00     0.048 A 
ATOM     24  C   UNL     1      10.002  -8.044   6.830  1.00  0.00     0.008 A 
ATOM     25  Cl  UNL     1      12.025 -12.038   6.262  1.00  0.00    -0.080 Cl
BRANCH  22  26
ATOM     26  O   UNL     1      12.269  -9.629   4.464  1.00  0.00    -0.506 OA
ATOM     27  H   UNL     1      12.594 -10.548   4.479  1.00  0.00     0.293 HD
ENDBRANCH  22  26
ENDBRANCH  18  19
ENDBRANCH  17  18
BRANCH  17  28
ATOM     28  O   UNL     1       8.730  -9.579  11.280  1.00  0.00    -0.383 OA
ATOM     29  H   UNL     1       8.416 -10.471  11.006  1.00  0.00     0.211 HD
ENDBRANCH  17  28
ENDBRANCH  14  17
ENDBRANCH  12  13
BRANCH  12  30
ATOM     30  C   UNL     1      13.078  -7.943  13.560  1.00  0.00     0.018 C 
ATOM     31  C   UNL     1      14.485  -7.343  13.407  1.00  0.00     0.010 C 
BRANCH  30  32
ATOM     32  C   UNL     1      13.137  -9.482  13.401  1.00  0.00     0.002 C 
ATOM     33  C   UNL     1      14.321 -10.010  12.602  1.00  0.00     0.004 C 
ENDBRANCH  30  32
ENDBRANCH  12  30
ENDBRANCH  10  12
ENDBRANCH   1  10
BRANCH   5  34
ATOM     34  C   UNL     1      11.104  -3.940  15.699  1.00  0.00     0.242 C 
ATOM     35  O   UNL     1      11.134  -2.800  16.162  1.00  0.00    -0.273 OA
ATOM     36  N   UNL     1      10.093  -4.829  15.988  1.00  0.00    -0.354 N 
ATOM     37  H   UNL     1      10.184  -5.796  15.674  1.00  0.00     0.163 HD
BRANCH  36  38
ATOM     38  C   UNL     1       8.861  -4.418  16.630  1.00  0.00     0.116 C 
BRANCH  38  39
ATOM     39  C   UNL     1       7.988  -3.655  15.636  1.00  0.00     0.023 C 
BRANCH  39  40
ATOM     40  C   UNL     1       6.532  -4.106  15.675  1.00  0.00     0.026 C 
BRANCH  40  41
ATOM     41  C   UNL     1       5.966  -4.234  14.260  1.00  0.00     0.146 C 
BRANCH  41  42
ATOM     42  N   UNL     1       6.811  -5.121  13.471  1.00  0.00    -0.254 NA
ATOM     43  C   UNL     1       7.267  -4.722  12.343  1.00  0.00     0.185 C 
ATOM     44  N   UNL     1       7.098  -3.549  11.707  1.00  0.00    -0.370 N 
ATOM     45  N   UNL     1       8.041  -5.556  11.628  1.00  0.00    -0.370 N 
ATOM     46  H   UNL     1       7.307  -3.462  10.727  1.00  0.00     0.159 HD
ATOM     47  H   UNL     1       6.550  -2.796  12.113  1.00  0.00     0.159 HD
ATOM     48  H   UNL     1       8.225  -6.460  12.041  1.00  0.00     0.159 HD
ATOM     49  H   UNL     1       8.620  -5.245  10.869  1.00  0.00     0.159 HD
ENDBRANCH  41  42
ENDBRANCH  40  41
ENDBRANCH  39  40
ENDBRANCH  38  39
ENDBRANCH  36  38
ENDBRANCH   5  34
BRANCH   8  50
ATOM     50  O   UNL     1      10.383  -1.021  12.025  1.00  0.00    -0.245 OA
BRANCH  50  51
ATOM     51  S   UNL     1       8.883  -0.524  11.637  1.00  0.00     0.397 S 
ATOM     52  O   UNL     1       8.049  -0.664  12.809  1.00  0.00    -0.169 OA
ATOM     53  O   UNL     1       8.499  -1.089  10.360  1.00  0.00    -0.169 OA
BRANCH  51  54
ATOM     54  O   UNL     1       9.095   1.057  11.436  1.00  0.00    -0.264 OA
ATOM     55  H   UNL     1       8.322   1.513  11.826  1.00  0.00     0.236 HD
ENDBRANCH  51  54
ENDBRANCH  50  51
ENDBRANCH   8  50
TORSDOF 19
ENDMDL
MODEL 21
REMARK VINA RESULT:    -7.313     13.028     16.195
REMARK INTER + INTRA:         -17.706
REMARK INTER:                 -14.219
REMARK INTRA:                  -3.487
REMARK UNBOUND:                -2.911
REMARK SMILES CC[C@@H](C)[C@@H](NC(=O)[C@@H](O)Cc1ccc(O)c(Cl)c1)C(=O)N1[C@H](C(=O)NCCCCN=C(N)N)C[C@H]2CC[C@H](OS(=O)(=O)O)C[C@@H]21
REMARK SMILES IDX 22 1 36 2 46 3 35 4 23 5 45 6 37 7 39 8 38 9 20 10 21 11
REMARK SMILES IDX 5 12 6 13 7 14 8 15 9 17 11 18 12 19 17 20 19 21 15 22 14 23
REMARK SMILES IDX 13 24 18 25 16 26 10 28 3 30 4 31 2 32 1 33 24 34 25 35
REMARK SMILES IDX 26 36 27 38 28 39 29 40 30 41 31 42 32 43 33 44 34 45 40 50
REMARK SMILES IDX 41 51 42 52 43 53 44 54
REMARK H PARENT 6 16 16 27 10 29 26 37 33 46 33 47 34 48 34 49 44 55
ROOT
ATOM      1  N   UNL     1      -6.039   4.675  -6.294  1.00  0.00    -0.326 N 
ATOM      2  C   UNL     1      -7.026   3.567  -8.122  1.00  0.00     0.014 C 
ATOM      3  C   UNL     1      -5.685   3.809  -7.423  1.00  0.00     0.091 C 
ATOM      4  C   UNL     1      -7.752   4.889  -7.922  1.00  0.00     0.041 C 
ATOM      5  C   UNL     1      -7.438   5.150  -6.437  1.00  0.00     0.175 C 
ATOM      6  C   UNL     1      -5.045   2.455  -7.124  1.00  0.00     0.059 C 
ATOM      7  C   UNL     1      -6.817   3.039  -9.528  1.00  0.00     0.008 C 
ATOM      8  C   UNL     1      -5.384   1.364  -8.163  1.00  0.00     0.143 C 
ATOM      9  C   UNL     1      -5.711   1.963  -9.546  1.00  0.00     0.034 C 
ENDROOT
BRANCH   1  10
ATOM     10  C   UNL     1      -5.233   5.236  -5.319  1.00  0.00     0.246 C 
ATOM     11  O   UNL     1      -4.930   4.563  -4.328  1.00  0.00    -0.272 OA
BRANCH  10  12
ATOM     12  C   UNL     1      -4.691   6.683  -5.511  1.00  0.00     0.174 C 
BRANCH  12  13
ATOM     13  N   UNL     1      -4.368   6.911  -6.919  1.00  0.00    -0.342 N 
ATOM     14  C   UNL     1      -5.088   7.716  -7.774  1.00  0.00     0.249 C 
ATOM     15  O   UNL     1      -6.074   8.358  -7.437  1.00  0.00    -0.272 OA
ATOM     16  H   UNL     1      -3.674   6.327  -7.378  1.00  0.00     0.164 HD
BRANCH  14  17
ATOM     17  C   UNL     1      -4.504   7.739  -9.202  1.00  0.00     0.207 C 
BRANCH  17  18
ATOM     18  C   UNL     1      -3.111   7.101  -9.222  1.00  0.00     0.077 C 
BRANCH  18  19
ATOM     19  C   UNL     1      -3.051   5.912 -10.155  1.00  0.00    -0.043 A 
ATOM     20  C   UNL     1      -1.769   4.198 -11.297  1.00  0.00     0.083 A 
ATOM     21  C   UNL     1      -1.830   5.263 -10.398  1.00  0.00     0.028 A 
ATOM     22  C   UNL     1      -2.923   3.775 -11.958  1.00  0.00     0.134 A 
ATOM     23  C   UNL     1      -4.139   4.408 -11.726  1.00  0.00     0.048 A 
ATOM     24  C   UNL     1      -4.202   5.476 -10.828  1.00  0.00     0.008 A 
ATOM     25  Cl  UNL     1      -0.260   3.414 -11.582  1.00  0.00    -0.080 Cl
BRANCH  22  26
ATOM     26  O   UNL     1      -2.910   2.742 -12.855  1.00  0.00    -0.506 OA
ATOM     27  H   UNL     1      -3.817   2.664 -13.205  1.00  0.00     0.293 HD
ENDBRANCH  22  26
ENDBRANCH  18  19
ENDBRANCH  17  18
BRANCH  17  28
ATOM     28  O   UNL     1      -4.420   9.082  -9.706  1.00  0.00    -0.383 OA
ATOM     29  H   UNL     1      -4.509   9.012 -10.683  1.00  0.00     0.211 HD
ENDBRANCH  17  28
ENDBRANCH  14  17
ENDBRANCH  12  13
BRANCH  12  30
ATOM     30  C   UNL     1      -3.499   7.007  -4.570  1.00  0.00     0.018 C 
ATOM     31  C   UNL     1      -3.977   7.777  -3.329  1.00  0.00     0.010 C 
BRANCH  30  32
ATOM     32  C   UNL     1      -2.350   7.777  -5.264  1.00  0.00     0.002 C 
ATOM     33  C   UNL     1      -1.176   8.144  -4.366  1.00  0.00     0.004 C 
ENDBRANCH  30  32
ENDBRANCH  12  30
ENDBRANCH  10  12
ENDBRANCH   1  10
BRANCH   5  34
ATOM     34  C   UNL     1      -8.388   4.353  -5.503  1.00  0.00     0.242 C 
ATOM     35  O   UNL     1      -9.431   3.840  -5.908  1.00  0.00    -0.273 OA
ATOM     36  N   UNL     1      -8.007   4.309  -4.180  1.00  0.00    -0.354 N 
ATOM     37  H   UNL     1      -7.197   4.855  -3.884  1.00  0.00     0.163 HD
BRANCH  36  38
ATOM     38  C   UNL     1      -8.651   3.439  -3.219  1.00  0.00     0.116 C 
BRANCH  38  39
ATOM     39  C   UNL     1      -8.075   2.029  -3.328  1.00  0.00     0.023 C 
BRANCH  39  40
ATOM     40  C   UNL     1      -6.901   1.805  -2.381  1.00  0.00     0.026 C 
BRANCH  40  41
ATOM     41  C   UNL     1      -7.383   1.243  -1.043  1.00  0.00     0.146 C 
BRANCH  41  42
ATOM     42  N   UNL     1      -6.993   2.140   0.037  1.00  0.00    -0.254 NA
ATOM     43  C   UNL     1      -7.857   2.944   0.535  1.00  0.00     0.185 C 
ATOM     44  N   UNL     1      -9.153   3.124   0.222  1.00  0.00    -0.370 N 
ATOM     45  N   UNL     1      -7.477   3.766   1.527  1.00  0.00    -0.370 N 
ATOM     46  H   UNL     1      -9.642   3.950   0.521  1.00  0.00     0.159 HD
ATOM     47  H   UNL     1      -9.608   2.574  -0.500  1.00  0.00     0.159 HD
ATOM     48  H   UNL     1      -6.515   3.688   1.830  1.00  0.00     0.159 HD
ATOM     49  H   UNL     1      -8.132   4.243   2.119  1.00  0.00     0.159 HD
ENDBRANCH  41  42
ENDBRANCH  40  41
ENDBRANCH  39  40
ENDBRANCH  38  39
ENDBRANCH  36  38
ENDBRANCH   5  34
BRANCH   8  50
ATOM     50  O   UNL     1      -6.508   0.601  -7.723  1.00  0.00    -0.245 OA
BRANCH  50  51
ATOM     51  S   UNL     1      -6.267  -0.822  -6.972  1.00  0.00     0.397 S 
ATOM     52  O   UNL     1      -4.843  -1.003  -6.804  1.00  0.00    -0.169 OA
ATOM     53  O   UNL     1      -7.095  -1.840  -7.583  1.00  0.00    -0.169 OA
BRANCH  51  54
ATOM     54  O   UNL     1      -6.847  -0.527  -5.501  1.00  0.00    -0.264 OA
ATOM     55  H   UNL     1      -6.999  -1.389  -5.062  1.00  0.00     0.236 HD
ENDBRANCH  51  54
ENDBRANCH  50  51
ENDBRANCH   8  50
TORSDOF 19
ENDMDL
MODEL 22
REMARK VINA RESULT:    -7.302     13.549     17.410
REMARK INTER + INTRA:         -17.683
REMARK INTER:                 -14.225
REMARK INTRA:                  -3.458
REMARK UNBOUND:                -2.911
REMARK SMILES CC[C@@H](C)[C@@H](NC(=O)[C@@H](O)Cc1ccc(O)c(Cl)c1)C(=O)N1[C@H](C(=O)NCCCCN=C(N)N)C[C@H]2CC[C@H](OS(=O)(=O)O)C[C@@H]21
REMARK SMILES IDX 22 1 36 2 46 3 35 4 23 5 45 6 37 7 39 8 38 9 20 10 21 11
REMARK SMILES IDX 5 12 6 13 7 14 8 15 9 17 11 18 12 19 17 20 19 21 15 22 14 23
REMARK SMILES IDX 13 24 18 25 16 26 10 28 3 30 4 31 2 32 1 33 24 34 25 35
REMARK SMILES IDX 26 36 27 38 28 39 29 40 30 41 31 42 32 43 33 44 34 45 40 50
REMARK SMILES IDX 41 51 42 52 43 53 44 54
REMARK H PARENT 6 16 16 27 10 29 26 37 33 46 33 47 34 48 34 49 44 55
ROOT
ATOM      1  N   UNL     1       9.851  -1.447  11.614  1.00  0.00    -0.326 N 
ATOM      2  C   UNL     1      11.046   0.409  12.431  1.00  0.00     0.014 C 
ATOM      3  C   UNL     1       9.794   0.017  11.641  1.00  0.00     0.091 C 
ATOM      4  C   UNL     1      12.050  -0.655  12.017  1.00  0.00     0.041 C 
ATOM      5  C   UNL     1      11.168  -1.914  12.112  1.00  0.00     0.175 C 
ATOM      6  C   UNL     1       8.584   0.684  12.292  1.00  0.00     0.059 C 
ATOM      7  C   UNL     1      11.384   1.872  12.220  1.00  0.00     0.008 C 
ATOM      8  C   UNL     1       8.900   2.047  12.943  1.00  0.00     0.143 C 
ATOM      9  C   UNL     1      10.109   2.739  12.280  1.00  0.00     0.034 C 
ENDROOT
BRANCH   1  10
ATOM     10  C   UNL     1       8.992  -2.358  11.023  1.00  0.00     0.246 C 
ATOM     11  O   UNL     1       8.992  -2.474   9.793  1.00  0.00    -0.272 OA
BRANCH  10  12
ATOM     12  C   UNL     1       8.079  -3.244  11.919  1.00  0.00     0.174 C 
BRANCH  12  13
ATOM     13  N   UNL     1       8.568  -4.623  11.920  1.00  0.00    -0.342 N 
ATOM     14  C   UNL     1       8.851  -5.359  13.048  1.00  0.00     0.249 C 
ATOM     15  O   UNL     1       8.696  -4.945  14.190  1.00  0.00    -0.272 OA
ATOM     16  H   UNL     1       8.891  -5.043  11.052  1.00  0.00     0.164 HD
BRANCH  14  17
ATOM     17  C   UNL     1       9.367  -6.777  12.720  1.00  0.00     0.207 C 
BRANCH  17  18
ATOM     18  C   UNL     1       8.294  -7.578  11.976  1.00  0.00     0.077 C 
BRANCH  18  19
ATOM     19  C   UNL     1       8.902  -8.587  11.027  1.00  0.00    -0.043 A 
ATOM     20  C   UNL     1       9.527  -9.248   8.779  1.00  0.00     0.083 A 
ATOM     21  C   UNL     1       9.011  -8.296   9.658  1.00  0.00     0.028 A 
ATOM     22  C   UNL     1       9.936 -10.493   9.258  1.00  0.00     0.134 A 
ATOM     23  C   UNL     1       9.834 -10.794  10.611  1.00  0.00     0.048 A 
ATOM     24  C   UNL     1       9.316  -9.844  11.494  1.00  0.00     0.008 A 
ATOM     25  Cl  UNL     1       9.652  -8.872   7.100  1.00  0.00    -0.080 Cl
BRANCH  22  26
ATOM     26  O   UNL     1      10.438 -11.462   8.433  1.00  0.00    -0.506 OA
ATOM     27  H   UNL     1       9.746 -12.143   8.346  1.00  0.00     0.293 HD
ENDBRANCH  22  26
ENDBRANCH  18  19
ENDBRANCH  17  18
BRANCH  17  28
ATOM     28  O   UNL     1       9.744  -7.480  13.915  1.00  0.00    -0.383 OA
ATOM     29  H   UNL     1       9.266  -8.340  13.886  1.00  0.00     0.211 HD
ENDBRANCH  17  28
ENDBRANCH  14  17
ENDBRANCH  12  13
BRANCH  12  30
ATOM     30  C   UNL     1       6.579  -3.148  11.527  1.00  0.00     0.018 C 
ATOM     31  C   UNL     1       6.043  -1.727  11.763  1.00  0.00     0.010 C 
BRANCH  30  32
ATOM     32  C   UNL     1       5.681  -4.182  12.249  1.00  0.00     0.002 C 
ATOM     33  C   UNL     1       4.190  -4.064  11.960  1.00  0.00     0.004 C 
ENDBRANCH  30  32
ENDBRANCH  12  30
ENDBRANCH  10  12
ENDBRANCH   1  10
BRANCH   5  34
ATOM     34  C   UNL     1      11.055  -2.423  13.574  1.00  0.00     0.242 C 
ATOM     35  O   UNL     1      10.175  -2.032  14.341  1.00  0.00    -0.273 OA
ATOM     36  N   UNL     1      12.039  -3.303  13.965  1.00  0.00    -0.354 N 
ATOM     37  H   UNL     1      12.809  -3.497  13.324  1.00  0.00     0.163 HD
BRANCH  36  38
ATOM     38  C   UNL     1      11.968  -4.038  15.211  1.00  0.00     0.116 C 
BRANCH  38  39
ATOM     39  C   UNL     1      12.433  -5.476  14.991  1.00  0.00     0.023 C 
BRANCH  39  40
ATOM     40  C   UNL     1      13.852  -5.551  14.437  1.00  0.00     0.026 C 
BRANCH  40  41
ATOM     41  C   UNL     1      14.164  -6.961  13.936  1.00  0.00     0.146 C 
BRANCH  41  42
ATOM     42  N   UNL     1      13.728  -7.101  12.553  1.00  0.00    -0.254 NA
ATOM     43  C   UNL     1      12.881  -8.011  12.246  1.00  0.00     0.185 C 
ATOM     44  N   UNL     1      12.276  -8.929  13.022  1.00  0.00    -0.370 N 
ATOM     45  N   UNL     1      12.495  -8.127  10.964  1.00  0.00    -0.370 N 
ATOM     46  H   UNL     1      11.828  -9.731  12.613  1.00  0.00     0.159 HD
ATOM     47  H   UNL     1      12.444  -8.974  14.022  1.00  0.00     0.159 HD
ATOM     48  H   UNL     1      12.898  -7.467  10.313  1.00  0.00     0.159 HD
ATOM     49  H   UNL     1      11.678  -8.641  10.687  1.00  0.00     0.159 HD
ENDBRANCH  41  42
ENDBRANCH  40  41
ENDBRANCH  39  40
ENDBRANCH  38  39
ENDBRANCH  36  38
ENDBRANCH   5  34
BRANCH   8  50
ATOM     50  O   UNL     1       9.183   1.874  14.331  1.00  0.00    -0.245 OA
BRANCH  50  51
ATOM     51  S   UNL     1       8.374   2.756  15.432  1.00  0.00     0.397 S 
ATOM     52  O   UNL     1       9.341   3.500  16.207  1.00  0.00    -0.169 OA
ATOM     53  O   UNL     1       7.363   1.935  16.065  1.00  0.00    -0.169 OA
BRANCH  51  54
ATOM     54  O   UNL     1       7.625   3.840  14.509  1.00  0.00    -0.264 OA
ATOM     55  H   UNL     1       7.309   4.560  15.091  1.00  0.00     0.236 HD
ENDBRANCH  51  54
ENDBRANCH  50  51
ENDBRANCH   8  50
TORSDOF 19
ENDMDL
MODEL 23
REMARK VINA RESULT:    -7.165     11.420     14.585
REMARK INTER + INTRA:         -17.405
REMARK INTER:                 -12.938
REMARK INTRA:                  -4.467
REMARK UNBOUND:                -2.911
REMARK SMILES CC[C@@H](C)[C@@H](NC(=O)[C@@H](O)Cc1ccc(O)c(Cl)c1)C(=O)N1[C@H](C(=O)NCCCCN=C(N)N)C[C@H]2CC[C@H](OS(=O)(=O)O)C[C@@H]21
REMARK SMILES IDX 22 1 36 2 46 3 35 4 23 5 45 6 37 7 39 8 38 9 20 10 21 11
REMARK SMILES IDX 5 12 6 13 7 14 8 15 9 17 11 18 12 19 17 20 19 21 15 22 14 23
REMARK SMILES IDX 13 24 18 25 16 26 10 28 3 30 4 31 2 32 1 33 24 34 25 35
REMARK SMILES IDX 26 36 27 38 28 39 29 40 30 41 31 42 32 43 33 44 34 45 40 50
REMARK SMILES IDX 41 51 42 52 43 53 44 54
REMARK H PARENT 6 16 16 27 10 29 26 37 33 46 33 47 34 48 34 49 44 55
ROOT
ATOM      1  N   UNL     1      -6.115   3.089  -2.476  1.00  0.00    -0.326 N 
ATOM      2  C   UNL     1      -7.588   2.736  -0.674  1.00  0.00     0.014 C 
ATOM      3  C   UNL     1      -6.459   3.647  -1.164  1.00  0.00     0.091 C 
ATOM      4  C   UNL     1      -7.191   1.379  -1.233  1.00  0.00     0.041 C 
ATOM      5  C   UNL     1      -6.789   1.781  -2.664  1.00  0.00     0.175 C 
ATOM      6  C   UNL     1      -6.942   5.094  -1.097  1.00  0.00     0.059 C 
ATOM      7  C   UNL     1      -7.800   2.891   0.819  1.00  0.00     0.008 C 
ATOM      8  C   UNL     1      -7.941   5.363   0.050  1.00  0.00     0.143 C 
ATOM      9  C   UNL     1      -7.754   4.380   1.223  1.00  0.00     0.034 C 
ENDROOT
BRANCH   1  10
ATOM     10  C   UNL     1      -5.148   3.487  -3.383  1.00  0.00     0.246 C 
ATOM     11  O   UNL     1      -4.355   2.648  -3.824  1.00  0.00    -0.272 OA
BRANCH  10  12
ATOM     12  C   UNL     1      -5.108   4.968  -3.861  1.00  0.00     0.174 C 
BRANCH  12  13
ATOM     13  N   UNL     1      -5.399   5.039  -5.292  1.00  0.00    -0.342 N 
ATOM     14  C   UNL     1      -6.593   5.455  -5.836  1.00  0.00     0.249 C 
ATOM     15  O   UNL     1      -7.546   5.844  -5.172  1.00  0.00    -0.272 OA
ATOM     16  H   UNL     1      -4.765   4.603  -5.957  1.00  0.00     0.164 HD
BRANCH  14  17
ATOM     17  C   UNL     1      -6.597   5.400  -7.378  1.00  0.00     0.207 C 
BRANCH  17  18
ATOM     18  C   UNL     1      -7.589   4.343  -7.874  1.00  0.00     0.077 C 
BRANCH  18  19
ATOM     19  C   UNL     1      -6.913   3.016  -8.136  1.00  0.00    -0.043 A 
ATOM     20  C   UNL     1      -5.957   0.945  -7.310  1.00  0.00     0.083 A 
ATOM     21  C   UNL     1      -6.625   2.147  -7.072  1.00  0.00     0.028 A 
ATOM     22  C   UNL     1      -5.572   0.606  -8.608  1.00  0.00     0.134 A 
ATOM     23  C   UNL     1      -5.851   1.457  -9.671  1.00  0.00     0.048 A 
ATOM     24  C   UNL     1      -6.518   2.662  -9.435  1.00  0.00     0.008 A 
ATOM     25  Cl  UNL     1      -5.611  -0.110  -5.991  1.00  0.00    -0.080 Cl
BRANCH  22  26
ATOM     26  O   UNL     1      -4.906  -0.556  -8.889  1.00  0.00    -0.506 OA
ATOM     27  H   UNL     1      -5.417  -1.278  -8.479  1.00  0.00     0.293 HD
ENDBRANCH  22  26
ENDBRANCH  18  19
ENDBRANCH  17  18
BRANCH  17  28
ATOM     28  O   UNL     1      -5.287   5.101  -7.888  1.00  0.00    -0.383 OA
ATOM     29  H   UNL     1      -4.669   5.708  -7.423  1.00  0.00     0.211 HD
ENDBRANCH  17  28
ENDBRANCH  14  17
ENDBRANCH  12  13
BRANCH  12  30
ATOM     30  C   UNL     1      -3.779   5.682  -3.491  1.00  0.00     0.018 C 
ATOM     31  C   UNL     1      -3.841   6.244  -2.062  1.00  0.00     0.010 C 
BRANCH  30  32
ATOM     32  C   UNL     1      -3.376   6.797  -4.485  1.00  0.00     0.002 C 
ATOM     33  C   UNL     1      -2.141   7.600  -4.096  1.00  0.00     0.004 C 
ENDBRANCH  30  32
ENDBRANCH  12  30
ENDBRANCH  10  12
ENDBRANCH   1  10
BRANCH   5  34
ATOM     34  C   UNL     1      -8.028   1.928  -3.587  1.00  0.00     0.242 C 
ATOM     35  O   UNL     1      -8.193   2.905  -4.316  1.00  0.00    -0.273 OA
ATOM     36  N   UNL     1      -8.955   0.914  -3.489  1.00  0.00    -0.354 N 
ATOM     37  H   UNL     1      -8.821   0.193  -2.779  1.00  0.00     0.163 HD
BRANCH  36  38
ATOM     38  C   UNL     1     -10.054   0.779  -4.422  1.00  0.00     0.116 C 
BRANCH  38  39
ATOM     39  C   UNL     1     -11.320   0.368  -3.674  1.00  0.00     0.023 C 
BRANCH  39  40
ATOM     40  C   UNL     1     -11.288   0.774  -2.205  1.00  0.00     0.026 C 
BRANCH  40  41
ATOM     41  C   UNL     1     -11.960   2.132  -2.003  1.00  0.00     0.146 C 
BRANCH  41  42
ATOM     42  N   UNL     1     -10.981   3.197  -2.175  1.00  0.00    -0.254 NA
ATOM     43  C   UNL     1     -11.067   3.980  -3.184  1.00  0.00     0.185 C 
ATOM     44  N   UNL     1     -11.963   4.002  -4.188  1.00  0.00    -0.370 N 
ATOM     45  N   UNL     1     -10.152   4.953  -3.326  1.00  0.00    -0.370 N 
ATOM     46  H   UNL     1     -11.771   4.509  -5.035  1.00  0.00     0.159 HD
ATOM     47  H   UNL     1     -12.733   3.342  -4.229  1.00  0.00     0.159 HD
ATOM     48  H   UNL     1      -9.445   5.012  -2.606  1.00  0.00     0.159 HD
ATOM     49  H   UNL     1     -10.283   5.737  -3.940  1.00  0.00     0.159 HD
ENDBRANCH  41  42
ENDBRANCH  40  41
ENDBRANCH  39  40
ENDBRANCH  38  39
ENDBRANCH  36  38
ENDBRANCH   5  34
BRANCH   8  50
ATOM     50  O   UNL     1      -9.281   5.247  -0.430  1.00  0.00    -0.245 OA
BRANCH  50  51
ATOM     51  S   UNL     1     -10.309   6.494  -0.251  1.00  0.00     0.397 S 
ATOM     52  O   UNL     1     -10.101   7.406  -1.353  1.00  0.00    -0.169 OA
ATOM     53  O   UNL     1     -10.289   6.947   1.124  1.00  0.00    -0.169 OA
BRANCH  51  54
ATOM     54  O   UNL     1     -11.732   5.797  -0.523  1.00  0.00    -0.264 OA
ATOM     55  H   UNL     1     -11.731   5.464  -1.443  1.00  0.00     0.236 HD
ENDBRANCH  51  54
ENDBRANCH  50  51
ENDBRANCH   8  50
TORSDOF 19
ENDMDL
MODEL 24
REMARK VINA RESULT:    -7.157     11.793     15.032
REMARK INTER + INTRA:         -17.390
REMARK INTER:                 -14.995
REMARK INTRA:                  -2.396
REMARK UNBOUND:                -2.911
REMARK SMILES CC[C@@H](C)[C@@H](NC(=O)[C@@H](O)Cc1ccc(O)c(Cl)c1)C(=O)N1[C@H](C(=O)NCCCCN=C(N)N)C[C@H]2CC[C@H](OS(=O)(=O)O)C[C@@H]21
REMARK SMILES IDX 22 1 36 2 46 3 35 4 23 5 45 6 37 7 39 8 38 9 20 10 21 11
REMARK SMILES IDX 5 12 6 13 7 14 8 15 9 17 11 18 12 19 17 20 19 21 15 22 14 23
REMARK SMILES IDX 13 24 18 25 16 26 10 28 3 30 4 31 2 32 1 33 24 34 25 35
REMARK SMILES IDX 26 36 27 38 28 39 29 40 30 41 31 42 32 43 33 44 34 45 40 50
REMARK SMILES IDX 41 51 42 52 43 53 44 54
REMARK H PARENT 6 16 16 27 10 29 26 37 33 46 33 47 34 48 34 49 44 55
ROOT
ATOM      1  N   UNL     1      -6.402   5.274  -6.553  1.00  0.00    -0.326 N 
ATOM      2  C   UNL     1      -6.971   3.551  -8.053  1.00  0.00     0.014 C 
ATOM      3  C   UNL     1      -5.778   4.305  -7.459  1.00  0.00     0.091 C 
ATOM      4  C   UNL     1      -8.037   4.632  -8.147  1.00  0.00     0.041 C 
ATOM      5  C   UNL     1      -7.869   5.300  -6.770  1.00  0.00     0.175 C 
ATOM      6  C   UNL     1      -4.806   3.284  -6.870  1.00  0.00     0.059 C 
ATOM      7  C   UNL     1      -6.566   2.795  -9.303  1.00  0.00     0.008 C 
ATOM      8  C   UNL     1      -4.791   1.935  -7.621  1.00  0.00     0.143 C 
ATOM      9  C   UNL     1      -5.209   2.090  -9.097  1.00  0.00     0.034 C 
ENDROOT
BRANCH   1  10
ATOM     10  C   UNL     1      -5.821   6.242  -5.752  1.00  0.00     0.246 C 
ATOM     11  O   UNL     1      -6.473   7.250  -5.458  1.00  0.00    -0.272 OA
BRANCH  10  12
ATOM     12  C   UNL     1      -4.380   6.022  -5.205  1.00  0.00     0.174 C 
BRANCH  12  13
ATOM     13  N   UNL     1      -4.439   5.507  -3.838  1.00  0.00    -0.342 N 
ATOM     14  C   UNL     1      -4.838   6.231  -2.737  1.00  0.00     0.249 C 
ATOM     15  O   UNL     1      -5.220   7.393  -2.787  1.00  0.00    -0.272 OA
ATOM     16  H   UNL     1      -4.007   4.613  -3.618  1.00  0.00     0.164 HD
BRANCH  14  17
ATOM     17  C   UNL     1      -4.774   5.411  -1.430  1.00  0.00     0.207 C 
BRANCH  17  18
ATOM     18  C   UNL     1      -4.345   3.970  -1.722  1.00  0.00     0.077 C 
BRANCH  18  19
ATOM     19  C   UNL     1      -5.507   3.007  -1.624  1.00  0.00    -0.043 A 
ATOM     20  C   UNL     1      -7.124   1.547  -2.690  1.00  0.00     0.083 A 
ATOM     21  C   UNL     1      -6.021   2.397  -2.779  1.00  0.00     0.028 A 
ATOM     22  C   UNL     1      -7.720   1.302  -1.452  1.00  0.00     0.134 A 
ATOM     23  C   UNL     1      -7.220   1.899  -0.301  1.00  0.00     0.048 A 
ATOM     24  C   UNL     1      -6.117   2.752  -0.386  1.00  0.00     0.008 A 
ATOM     25  Cl  UNL     1      -7.743   0.808  -4.121  1.00  0.00    -0.080 Cl
BRANCH  22  26
ATOM     26  O   UNL     1      -8.809   0.485  -1.318  1.00  0.00    -0.506 OA
ATOM     27  H   UNL     1      -8.467  -0.415  -1.165  1.00  0.00     0.293 HD
ENDBRANCH  22  26
ENDBRANCH  18  19
ENDBRANCH  17  18
BRANCH  17  28
ATOM     28  O   UNL     1      -6.046   5.404  -0.762  1.00  0.00    -0.383 OA
ATOM     29  H   UNL     1      -6.001   6.116  -0.084  1.00  0.00     0.211 HD
ENDBRANCH  17  28
ENDBRANCH  14  17
ENDBRANCH  12  13
BRANCH  12  30
ATOM     30  C   UNL     1      -3.494   7.292  -5.322  1.00  0.00     0.018 C 
ATOM     31  C   UNL     1      -3.206   7.623  -6.795  1.00  0.00     0.010 C 
BRANCH  30  32
ATOM     32  C   UNL     1      -2.168   7.199  -4.528  1.00  0.00     0.002 C 
ATOM     33  C   UNL     1      -1.169   8.316  -4.797  1.00  0.00     0.004 C 
ENDBRANCH  30  32
ENDBRANCH  12  30
ENDBRANCH  10  12
ENDBRANCH   1  10
BRANCH   5  34
ATOM     34  C   UNL     1      -8.605   4.508  -5.657  1.00  0.00     0.242 C 
ATOM     35  O   UNL     1      -9.419   3.621  -5.909  1.00  0.00    -0.273 OA
ATOM     36  N   UNL     1      -8.322   4.907  -4.370  1.00  0.00    -0.354 N 
ATOM     37  H   UNL     1      -7.731   5.728  -4.228  1.00  0.00     0.163 HD
BRANCH  36  38
ATOM     38  C   UNL     1      -8.747   4.146  -3.213  1.00  0.00     0.116 C 
BRANCH  38  39
ATOM     39  C   UNL     1      -9.749   4.960  -2.397  1.00  0.00     0.023 C 
BRANCH  39  40
ATOM     40  C   UNL     1     -10.471   4.116  -1.352  1.00  0.00     0.026 C 
BRANCH  40  41
ATOM     41  C   UNL     1     -11.688   3.422  -1.963  1.00  0.00     0.146 C 
BRANCH  41  42
ATOM     42  N   UNL     1     -11.402   2.006  -2.155  1.00  0.00    -0.254 NA
ATOM     43  C   UNL     1     -11.399   1.516  -3.338  1.00  0.00     0.185 C 
ATOM     44  N   UNL     1     -11.626   2.113  -4.522  1.00  0.00    -0.370 N 
ATOM     45  N   UNL     1     -11.138   0.208  -3.494  1.00  0.00    -0.370 N 
ATOM     46  H   UNL     1     -11.833   1.566  -5.341  1.00  0.00     0.159 HD
ATOM     47  H   UNL     1     -11.827   3.106  -4.589  1.00  0.00     0.159 HD
ATOM     48  H   UNL     1     -10.946  -0.315  -2.650  1.00  0.00     0.159 HD
ATOM     49  H   UNL     1     -10.885  -0.195  -4.379  1.00  0.00     0.159 HD
ENDBRANCH  41  42
ENDBRANCH  40  41
ENDBRANCH  39  40
ENDBRANCH  38  39
ENDBRANCH  36  38
ENDBRANCH   5  34
BRANCH   8  50
ATOM     50  O   UNL     1      -5.681   1.014  -6.992  1.00  0.00    -0.245 OA
BRANCH  50  51
ATOM     51  S   UNL     1      -5.239  -0.542  -6.823  1.00  0.00     0.397 S 
ATOM     52  O   UNL     1      -6.411  -1.301  -6.448  1.00  0.00    -0.169 OA
ATOM     53  O   UNL     1      -4.009  -0.618  -6.061  1.00  0.00    -0.169 OA
BRANCH  51  54
ATOM     54  O   UNL     1      -4.910  -0.964  -8.339  1.00  0.00    -0.264 OA
ATOM     55  H   UNL     1      -3.948  -1.137  -8.399  1.00  0.00     0.236 HD
ENDBRANCH  51  54
ENDBRANCH  50  51
ENDBRANCH   8  50
TORSDOF 19
ENDMDL
MODEL 25
REMARK VINA RESULT:    -7.151      2.484      3.488
REMARK INTER + INTRA:         -17.377
REMARK INTER:                 -13.597
REMARK INTRA:                  -3.780
REMARK UNBOUND:                -2.911
REMARK SMILES CC[C@@H](C)[C@@H](NC(=O)[C@@H](O)Cc1ccc(O)c(Cl)c1)C(=O)N1[C@H](C(=O)NCCCCN=C(N)N)C[C@H]2CC[C@H](OS(=O)(=O)O)C[C@@H]21
REMARK SMILES IDX 22 1 36 2 46 3 35 4 23 5 45 6 37 7 39 8 38 9 20 10 21 11
REMARK SMILES IDX 5 12 6 13 7 14 8 15 9 17 11 18 12 19 17 20 19 21 15 22 14 23
REMARK SMILES IDX 13 24 18 25 16 26 10 28 3 30 4 31 2 32 1 33 24 34 25 35
REMARK SMILES IDX 26 36 27 38 28 39 29 40 30 41 31 42 32 43 33 44 34 45 40 50
REMARK SMILES IDX 41 51 42 52 43 53 44 54
REMARK H PARENT 6 16 16 27 10 29 26 37 33 46 33 47 34 48 34 49 44 55
ROOT
ATOM      1  N   UNL     1      -4.318   4.666   6.333  1.00  0.00    -0.326 N 
ATOM      2  C   UNL     1      -4.729   2.395   6.795  1.00  0.00     0.014 C 
ATOM      3  C   UNL     1      -3.622   3.453   6.772  1.00  0.00     0.091 C 
ATOM      4  C   UNL     1      -5.612   2.808   5.627  1.00  0.00     0.041 C 
ATOM      5  C   UNL     1      -5.684   4.328   5.864  1.00  0.00     0.175 C 
ATOM      6  C   UNL     1      -2.936   3.464   8.137  1.00  0.00     0.059 C 
ATOM      7  C   UNL     1      -4.143   0.997   6.826  1.00  0.00     0.008 C 
ATOM      8  C   UNL     1      -2.909   2.085   8.830  1.00  0.00     0.143 C 
ATOM      9  C   UNL     1      -2.960   0.925   7.815  1.00  0.00     0.034 C 
ENDROOT
BRANCH   1  10
ATOM     10  C   UNL     1      -3.824   5.940   6.110  1.00  0.00     0.246 C 
ATOM     11  O   UNL     1      -4.555   6.784   5.579  1.00  0.00    -0.272 OA
BRANCH  10  12
ATOM     12  C   UNL     1      -2.380   6.295   6.569  1.00  0.00     0.174 C 
BRANCH  12  13
ATOM     13  N   UNL     1      -2.373   7.599   7.230  1.00  0.00    -0.342 N 
ATOM     14  C   UNL     1      -2.860   7.848   8.493  1.00  0.00     0.249 C 
ATOM     15  O   UNL     1      -3.335   6.986   9.223  1.00  0.00    -0.272 OA
ATOM     16  H   UNL     1      -2.156   8.435   6.693  1.00  0.00     0.164 HD
BRANCH  14  17
ATOM     17  C   UNL     1      -2.726   9.330   8.903  1.00  0.00     0.207 C 
BRANCH  17  18
ATOM     18  C   UNL     1      -1.529   9.520   9.840  1.00  0.00     0.077 C 
BRANCH  18  19
ATOM     19  C   UNL     1      -0.214   9.390   9.106  1.00  0.00    -0.043 A 
ATOM     20  C   UNL     1       1.247  10.035   7.280  1.00  0.00     0.083 A 
ATOM     21  C   UNL     1       0.053  10.192   7.985  1.00  0.00     0.028 A 
ATOM     22  C   UNL     1       2.179   9.079   7.687  1.00  0.00     0.134 A 
ATOM     23  C   UNL     1       1.927   8.279   8.796  1.00  0.00     0.048 A 
ATOM     24  C   UNL     1       0.732   8.432   9.503  1.00  0.00     0.008 A 
ATOM     25  Cl  UNL     1       1.557  11.029   5.905  1.00  0.00    -0.080 Cl
BRANCH  22  26
ATOM     26  O   UNL     1       3.358   8.882   7.022  1.00  0.00    -0.506 OA
ATOM     27  H   UNL     1       3.603   9.739   6.625  1.00  0.00     0.293 HD
ENDBRANCH  22  26
ENDBRANCH  18  19
ENDBRANCH  17  18
BRANCH  17  28
ATOM     28  O   UNL     1      -3.919   9.797   9.552  1.00  0.00    -0.383 OA
ATOM     29  H   UNL     1      -3.705  10.692   9.903  1.00  0.00     0.211 HD
ENDBRANCH  17  28
ENDBRANCH  14  17
ENDBRANCH  12  13
BRANCH  12  30
ATOM     30  C   UNL     1      -1.346   6.210   5.414  1.00  0.00     0.018 C 
ATOM     31  C   UNL     1      -1.010   4.747   5.088  1.00  0.00     0.010 C 
BRANCH  30  32
ATOM     32  C   UNL     1      -0.046   7.007   5.684  1.00  0.00     0.002 C 
ATOM     33  C   UNL     1       0.662   7.539   4.445  1.00  0.00     0.004 C 
ENDBRANCH  30  32
ENDBRANCH  12  30
ENDBRANCH  10  12
ENDBRANCH   1  10
BRANCH   5  34
ATOM     34  C   UNL     1      -6.741   4.689   6.942  1.00  0.00     0.242 C 
ATOM     35  O   UNL     1      -7.470   3.842   7.458  1.00  0.00    -0.273 OA
ATOM     36  N   UNL     1      -6.841   6.030   7.237  1.00  0.00    -0.354 N 
ATOM     37  H   UNL     1      -6.295   6.696   6.690  1.00  0.00     0.163 HD
BRANCH  36  38
ATOM     38  C   UNL     1      -7.613   6.518   8.361  1.00  0.00     0.116 C 
BRANCH  38  39
ATOM     39  C   UNL     1      -6.759   7.460   9.207  1.00  0.00     0.023 C 
BRANCH  39  40
ATOM     40  C   UNL     1      -7.416   7.803  10.540  1.00  0.00     0.026 C 
BRANCH  40  41
ATOM     41  C   UNL     1      -7.386   6.601  11.484  1.00  0.00     0.146 C 
BRANCH  41  42
ATOM     42  N   UNL     1      -6.017   6.122  11.628  1.00  0.00    -0.254 NA
ATOM     43  C   UNL     1      -5.790   5.037  12.268  1.00  0.00     0.185 C 
ATOM     44  N   UNL     1      -6.647   4.195  12.875  1.00  0.00    -0.370 N 
ATOM     45  N   UNL     1      -4.522   4.614  12.393  1.00  0.00    -0.370 N 
ATOM     46  H   UNL     1      -6.315   3.519  13.542  1.00  0.00     0.159 HD
ATOM     47  H   UNL     1      -7.649   4.356  12.866  1.00  0.00     0.159 HD
ATOM     48  H   UNL     1      -3.813   5.188  11.956  1.00  0.00     0.159 HD
ATOM     49  H   UNL     1      -4.285   3.676  12.663  1.00  0.00     0.159 HD
ENDBRANCH  41  42
ENDBRANCH  40  41
ENDBRANCH  39  40
ENDBRANCH  38  39
ENDBRANCH  36  38
ENDBRANCH   5  34
BRANCH   8  50
ATOM     50  O   UNL     1      -4.021   1.960   9.717  1.00  0.00    -0.245 OA
BRANCH  50  51
ATOM     51  S   UNL     1      -3.807   1.294  11.185  1.00  0.00     0.397 S 
ATOM     52  O   UNL     1      -2.700   1.969  11.825  1.00  0.00    -0.169 OA
ATOM     53  O   UNL     1      -3.855  -0.150  11.075  1.00  0.00    -0.169 OA
BRANCH  51  54
ATOM     54  O   UNL     1      -5.126   1.775  11.968  1.00  0.00    -0.264 OA
ATOM     55  H   UNL     1      -4.846   2.403  12.666  1.00  0.00     0.236 HD
ENDBRANCH  51  54
ENDBRANCH  50  51
ENDBRANCH   8  50
TORSDOF 19
ENDMDL
MODEL 26
REMARK VINA RESULT:    -7.145     15.788     18.873
REMARK INTER + INTRA:         -17.365
REMARK INTER:                 -13.419
REMARK INTRA:                  -3.945
REMARK UNBOUND:                -2.911
REMARK SMILES CC[C@@H](C)[C@@H](NC(=O)[C@@H](O)Cc1ccc(O)c(Cl)c1)C(=O)N1[C@H](C(=O)NCCCCN=C(N)N)C[C@H]2CC[C@H](OS(=O)(=O)O)C[C@@H]21
REMARK SMILES IDX 22 1 36 2 46 3 35 4 23 5 45 6 37 7 39 8 38 9 20 10 21 11
REMARK SMILES IDX 5 12 6 13 7 14 8 15 9 17 11 18 12 19 17 20 19 21 15 22 14 23
REMARK SMILES IDX 13 24 18 25 16 26 10 28 3 30 4 31 2 32 1 33 24 34 25 35
REMARK SMILES IDX 26 36 27 38 28 39 29 40 30 41 31 42 32 43 33 44 34 45 40 50
REMARK SMILES IDX 41 51 42 52 43 53 44 54
REMARK H PARENT 6 16 16 27 10 29 26 37 33 46 33 47 34 48 34 49 44 55
ROOT
ATOM      1  N   UNL     1      11.110  -7.432  12.202  1.00  0.00    -0.326 N 
ATOM      2  C   UNL     1      10.213  -9.237  10.985  1.00  0.00     0.014 C 
ATOM      3  C   UNL     1      10.325  -7.709  10.995  1.00  0.00     0.091 C 
ATOM      4  C   UNL     1      10.131  -9.576  12.465  1.00  0.00     0.041 C 
ATOM      5  C   UNL     1      11.243  -8.665  13.016  1.00  0.00     0.175 C 
ATOM      6  C   UNL     1      10.884  -7.257   9.648  1.00  0.00     0.059 C 
ATOM      7  C   UNL     1       9.106  -9.693  10.055  1.00  0.00     0.008 C 
ATOM      8  C   UNL     1      10.474  -8.166   8.468  1.00  0.00     0.143 C 
ATOM      9  C   UNL     1       9.141  -8.895   8.735  1.00  0.00     0.034 C 
ENDROOT
BRANCH   1  10
ATOM     10  C   UNL     1      11.513  -6.221  12.739  1.00  0.00     0.246 C 
ATOM     11  O   UNL     1      12.710  -5.918  12.708  1.00  0.00    -0.272 OA
BRANCH  10  12
ATOM     12  C   UNL     1      10.448  -5.253  13.331  1.00  0.00     0.174 C 
BRANCH  12  13
ATOM     13  N   UNL     1      10.206  -4.149  12.402  1.00  0.00    -0.342 N 
ATOM     14  C   UNL     1       9.129  -4.055  11.550  1.00  0.00     0.249 C 
ATOM     15  O   UNL     1       8.229  -4.883  11.495  1.00  0.00    -0.272 OA
ATOM     16  H   UNL     1      10.942  -3.471  12.224  1.00  0.00     0.164 HD
BRANCH  14  17
ATOM     17  C   UNL     1       9.166  -2.780  10.682  1.00  0.00     0.207 C 
BRANCH  17  18
ATOM     18  C   UNL     1       7.805  -2.076  10.706  1.00  0.00     0.077 C 
BRANCH  18  19
ATOM     19  C   UNL     1       7.871  -0.750  11.429  1.00  0.00    -0.043 A 
ATOM     20  C   UNL     1       9.130   1.200  12.136  1.00  0.00     0.083 A 
ATOM     21  C   UNL     1       9.058   0.001  11.426  1.00  0.00     0.028 A 
ATOM     22  C   UNL     1       8.023   1.655  12.853  1.00  0.00     0.134 A 
ATOM     23  C   UNL     1       6.842   0.922  12.864  1.00  0.00     0.048 A 
ATOM     24  C   UNL     1       6.767  -0.279  12.156  1.00  0.00     0.008 A 
ATOM     25  Cl  UNL     1      10.597   2.107  12.120  1.00  0.00    -0.080 Cl
BRANCH  22  26
ATOM     26  O   UNL     1       8.050   2.819  13.572  1.00  0.00    -0.506 OA
ATOM     27  H   UNL     1       7.218   3.289  13.376  1.00  0.00     0.293 HD
ENDBRANCH  22  26
ENDBRANCH  18  19
ENDBRANCH  17  18
BRANCH  17  28
ATOM     28  O   UNL     1       9.519  -3.088   9.324  1.00  0.00    -0.383 OA
ATOM     29  H   UNL     1      10.065  -2.333   9.006  1.00  0.00     0.211 HD
ENDBRANCH  17  28
ENDBRANCH  14  17
ENDBRANCH  12  13
BRANCH  12  30
ATOM     30  C   UNL     1      10.813  -4.758  14.757  1.00  0.00     0.018 C 
ATOM     31  C   UNL     1      10.958  -5.942  15.726  1.00  0.00     0.010 C 
BRANCH  30  32
ATOM     32  C   UNL     1       9.817  -3.720  15.329  1.00  0.00     0.002 C 
ATOM     33  C   UNL     1       8.383  -4.211  15.485  1.00  0.00     0.004 C 
ENDBRANCH  30  32
ENDBRANCH  12  30
ENDBRANCH  10  12
ENDBRANCH   1  10
BRANCH   5  34
ATOM     34  C   UNL     1      12.647  -9.299  12.830  1.00  0.00     0.242 C 
ATOM     35  O   UNL     1      13.112 -10.114  13.626  1.00  0.00    -0.273 OA
ATOM     36  N   UNL     1      13.355  -8.843  11.740  1.00  0.00    -0.354 N 
ATOM     37  H   UNL     1      12.966  -8.080  11.185  1.00  0.00     0.163 HD
BRANCH  36  38
ATOM     38  C   UNL     1      14.580  -9.475  11.294  1.00  0.00     0.116 C 
BRANCH  38  39
ATOM     39  C   UNL     1      14.264 -10.524  10.230  1.00  0.00     0.023 C 
BRANCH  39  40
ATOM     40  C   UNL     1      14.203 -11.936  10.803  1.00  0.00     0.026 C 
BRANCH  40  41
ATOM     41  C   UNL     1      12.780 -12.490  10.728  1.00  0.00     0.146 C 
BRANCH  41  42
ATOM     42  N   UNL     1      12.159 -12.083   9.474  1.00  0.00    -0.254 NA
ATOM     43  C   UNL     1      11.066 -12.635   9.101  1.00  0.00     0.185 C 
ATOM     44  N   UNL     1      10.331 -13.591   9.698  1.00  0.00    -0.370 N 
ATOM     45  N   UNL     1      10.511 -12.249   7.940  1.00  0.00    -0.370 N 
ATOM     46  H   UNL     1       9.635 -14.100   9.181  1.00  0.00     0.159 HD
ATOM     47  H   UNL     1      10.599 -13.988  10.593  1.00  0.00     0.159 HD
ATOM     48  H   UNL     1      10.998 -11.524   7.430  1.00  0.00     0.159 HD
ATOM     49  H   UNL     1       9.558 -12.452   7.699  1.00  0.00     0.159 HD
ENDBRANCH  41  42
ENDBRANCH  40  41
ENDBRANCH  39  40
ENDBRANCH  38  39
ENDBRANCH  36  38
ENDBRANCH   5  34
BRANCH   8  50
ATOM     50  O   UNL     1      11.486  -9.144   8.228  1.00  0.00    -0.245 OA
BRANCH  50  51
ATOM     51  S   UNL     1      12.012  -9.399   6.711  1.00  0.00     0.397 S 
ATOM     52  O   UNL     1      12.817  -8.263   6.321  1.00  0.00    -0.169 OA
ATOM     53  O   UNL     1      10.917  -9.872   5.889  1.00  0.00    -0.169 OA
BRANCH  51  54
ATOM     54  O   UNL     1      13.042 -10.617   6.913  1.00  0.00    -0.264 OA
ATOM     55  H   UNL     1      13.771 -10.502   6.269  1.00  0.00     0.236 HD
ENDBRANCH  51  54
ENDBRANCH  50  51
ENDBRANCH   8  50
TORSDOF 19
ENDMDL
MODEL 27
REMARK VINA RESULT:    -7.094     13.331     17.087
REMARK INTER + INTRA:         -17.261
REMARK INTER:                 -12.348
REMARK INTRA:                  -4.914
REMARK UNBOUND:                -2.911
REMARK SMILES CC[C@@H](C)[C@@H](NC(=O)[C@@H](O)Cc1ccc(O)c(Cl)c1)C(=O)N1[C@H](C(=O)NCCCCN=C(N)N)C[C@H]2CC[C@H](OS(=O)(=O)O)C[C@@H]21
REMARK SMILES IDX 22 1 36 2 46 3 35 4 23 5 45 6 37 7 39 8 38 9 20 10 21 11
REMARK SMILES IDX 5 12 6 13 7 14 8 15 9 17 11 18 12 19 17 20 19 21 15 22 14 23
REMARK SMILES IDX 13 24 18 25 16 26 10 28 3 30 4 31 2 32 1 33 24 34 25 35
REMARK SMILES IDX 26 36 27 38 28 39 29 40 30 41 31 42 32 43 33 44 34 45 40 50
REMARK SMILES IDX 41 51 42 52 43 53 44 54
REMARK H PARENT 6 16 16 27 10 29 26 37 33 46 33 47 34 48 34 49 44 55
ROOT
ATOM      1  N   UNL     1      11.173  -1.832  13.542  1.00  0.00    -0.326 N 
ATOM      2  C   UNL     1      10.014  -3.882  13.534  1.00  0.00     0.014 C 
ATOM      3  C   UNL     1      10.355  -2.671  12.660  1.00  0.00     0.091 C 
ATOM      4  C   UNL     1       9.881  -3.268  14.919  1.00  0.00     0.041 C 
ATOM      5  C   UNL     1      11.118  -2.351  14.931  1.00  0.00     0.175 C 
ATOM      6  C   UNL     1      10.976  -3.174  11.359  1.00  0.00     0.059 C 
ATOM      7  C   UNL     1       8.851  -4.660  12.950  1.00  0.00     0.008 C 
ATOM      8  C   UNL     1      10.434  -4.545  10.901  1.00  0.00     0.143 C 
ATOM      9  C   UNL     1       9.007  -4.807  11.422  1.00  0.00     0.034 C 
ENDROOT
BRANCH   1  10
ATOM     10  C   UNL     1      11.754  -0.598  13.305  1.00  0.00     0.246 C 
ATOM     11  O   UNL     1      12.816  -0.544  12.677  1.00  0.00    -0.272 OA
BRANCH  10  12
ATOM     12  C   UNL     1      11.038   0.693  13.797  1.00  0.00     0.174 C 
BRANCH  12  13
ATOM     13  N   UNL     1       9.652   0.705  13.328  1.00  0.00    -0.342 N 
ATOM     14  C   UNL     1       8.542   0.708  14.142  1.00  0.00     0.249 C 
ATOM     15  O   UNL     1       8.594   0.730  15.365  1.00  0.00    -0.272 OA
ATOM     16  H   UNL     1       9.452   0.531  12.346  1.00  0.00     0.164 HD
BRANCH  14  17
ATOM     17  C   UNL     1       7.220   0.703  13.346  1.00  0.00     0.207 C 
BRANCH  17  18
ATOM     18  C   UNL     1       7.283  -0.322  12.209  1.00  0.00     0.077 C 
BRANCH  18  19
ATOM     19  C   UNL     1       6.577  -1.609  12.573  1.00  0.00    -0.043 A 
ATOM     20  C   UNL     1       6.009  -3.305  14.212  1.00  0.00     0.083 A 
ATOM     21  C   UNL     1       6.620  -2.092  13.890  1.00  0.00     0.028 A 
ATOM     22  C   UNL     1       5.356  -4.042  13.223  1.00  0.00     0.134 A 
ATOM     23  C   UNL     1       5.306  -3.575  11.915  1.00  0.00     0.048 A 
ATOM     24  C   UNL     1       5.918  -2.362  11.589  1.00  0.00     0.008 A 
ATOM     25  Cl  UNL     1       6.072  -3.882  15.836  1.00  0.00    -0.080 Cl
BRANCH  22  26
ATOM     26  O   UNL     1       4.752  -5.241  13.489  1.00  0.00    -0.506 OA
ATOM     27  H   UNL     1       5.445  -5.924  13.426  1.00  0.00     0.293 HD
ENDBRANCH  22  26
ENDBRANCH  18  19
ENDBRANCH  17  18
BRANCH  17  28
ATOM     28  O   UNL     1       6.939   2.002  12.801  1.00  0.00    -0.383 OA
ATOM     29  H   UNL     1       7.736   2.550  12.980  1.00  0.00     0.211 HD
ENDBRANCH  17  28
ENDBRANCH  14  17
ENDBRANCH  12  13
BRANCH  12  30
ATOM     30  C   UNL     1      11.804   1.988  13.413  1.00  0.00     0.018 C 
ATOM     31  C   UNL     1      12.629   2.507  14.601  1.00  0.00     0.010 C 
BRANCH  30  32
ATOM     32  C   UNL     1      10.891   3.112  12.867  1.00  0.00     0.002 C 
ATOM     33  C   UNL     1      11.601   4.411  12.508  1.00  0.00     0.004 C 
ENDBRANCH  30  32
ENDBRANCH  12  30
ENDBRANCH  10  12
ENDBRANCH   1  10
BRANCH   5  34
ATOM     34  C   UNL     1      12.410  -3.138  15.276  1.00  0.00     0.242 C 
ATOM     35  O   UNL     1      12.569  -3.700  16.360  1.00  0.00    -0.273 OA
ATOM     36  N   UNL     1      13.386  -3.116  14.305  1.00  0.00    -0.354 N 
ATOM     37  H   UNL     1      13.244  -2.534  13.479  1.00  0.00     0.163 HD
BRANCH  36  38
ATOM     38  C   UNL     1      14.557  -3.966  14.366  1.00  0.00     0.116 C 
BRANCH  38  39
ATOM     39  C   UNL     1      14.252  -5.316  13.721  1.00  0.00     0.023 C 
BRANCH  39  40
ATOM     40  C   UNL     1      14.731  -6.489  14.570  1.00  0.00     0.026 C 
BRANCH  40  41
ATOM     41  C   UNL     1      13.658  -6.905  15.576  1.00  0.00     0.146 C 
BRANCH  41  42
ATOM     42  N   UNL     1      12.436  -7.268  14.870  1.00  0.00    -0.254 NA
ATOM     43  C   UNL     1      11.299  -6.987  15.386  1.00  0.00     0.185 C 
ATOM     44  N   UNL     1      11.003  -6.371  16.546  1.00  0.00    -0.370 N 
ATOM     45  N   UNL     1      10.184  -7.335  14.722  1.00  0.00    -0.370 N 
ATOM     46  H   UNL     1      10.080  -6.435  16.939  1.00  0.00     0.159 HD
ATOM     47  H   UNL     1      11.729  -6.029  17.168  1.00  0.00     0.159 HD
ATOM     48  H   UNL     1      10.318  -7.797  13.833  1.00  0.00     0.159 HD
ATOM     49  H   UNL     1       9.282  -6.949  14.934  1.00  0.00     0.159 HD
ENDBRANCH  41  42
ENDBRANCH  40  41
ENDBRANCH  39  40
ENDBRANCH  38  39
ENDBRANCH  36  38
ENDBRANCH   5  34
BRANCH   8  50
ATOM     50  O   UNL     1      11.287  -5.590  11.368  1.00  0.00    -0.245 OA
BRANCH  50  51
ATOM     51  S   UNL     1      11.018  -7.121  10.888  1.00  0.00     0.397 S 
ATOM     52  O   UNL     1      10.567  -7.086   9.516  1.00  0.00    -0.169 OA
ATOM     53  O   UNL     1      10.280  -7.829  11.913  1.00  0.00    -0.169 OA
BRANCH  51  54
ATOM     54  O   UNL     1      12.508  -7.725  10.844  1.00  0.00    -0.264 OA
ATOM     55  H   UNL     1      12.544  -8.476  11.471  1.00  0.00     0.236 HD
ENDBRANCH  51  54
ENDBRANCH  50  51
ENDBRANCH   8  50
TORSDOF 19
ENDMDL
MODEL 28
REMARK VINA RESULT:    -7.058     11.688     15.643
REMARK INTER + INTRA:         -17.189
REMARK INTER:                 -13.226
REMARK INTRA:                  -3.964
REMARK UNBOUND:                -2.911
REMARK SMILES CC[C@@H](C)[C@@H](NC(=O)[C@@H](O)Cc1ccc(O)c(Cl)c1)C(=O)N1[C@H](C(=O)NCCCCN=C(N)N)C[C@H]2CC[C@H](OS(=O)(=O)O)C[C@@H]21
REMARK SMILES IDX 22 1 36 2 46 3 35 4 23 5 45 6 37 7 39 8 38 9 20 10 21 11
REMARK SMILES IDX 5 12 6 13 7 14 8 15 9 17 11 18 12 19 17 20 19 21 15 22 14 23
REMARK SMILES IDX 13 24 18 25 16 26 10 28 3 30 4 31 2 32 1 33 24 34 25 35
REMARK SMILES IDX 26 36 27 38 28 39 29 40 30 41 31 42 32 43 33 44 34 45 40 50
REMARK SMILES IDX 41 51 42 52 43 53 44 54
REMARK H PARENT 6 16 16 27 10 29 26 37 33 46 33 47 34 48 34 49 44 55
ROOT
ATOM      1  N   UNL     1      -6.921   3.408  -6.155  1.00  0.00    -0.326 N 
ATOM      2  C   UNL     1      -4.852   2.286  -6.219  1.00  0.00     0.014 C 
ATOM      3  C   UNL     1      -6.336   2.125  -6.557  1.00  0.00     0.091 C 
ATOM      4  C   UNL     1      -4.886   3.146  -4.964  1.00  0.00     0.041 C 
ATOM      5  C   UNL     1      -5.930   4.197  -5.382  1.00  0.00     0.175 C 
ATOM      6  C   UNL     1      -6.455   1.702  -8.020  1.00  0.00     0.059 C 
ATOM      7  C   UNL     1      -4.155   0.940  -6.179  1.00  0.00     0.008 C 
ATOM      8  C   UNL     1      -5.275   0.839  -8.515  1.00  0.00     0.143 C 
ATOM      9  C   UNL     1      -4.604   0.061  -7.365  1.00  0.00     0.034 C 
ENDROOT
BRANCH   1  10
ATOM     10  C   UNL     1      -8.235   3.839  -6.205  1.00  0.00     0.246 C 
ATOM     11  O   UNL     1      -8.632   4.441  -7.209  1.00  0.00    -0.272 OA
BRANCH  10  12
ATOM     12  C   UNL     1      -9.194   3.519  -5.022  1.00  0.00     0.174 C 
BRANCH  12  13
ATOM     13  N   UNL     1      -8.949   4.447  -3.918  1.00  0.00    -0.342 N 
ATOM     14  C   UNL     1      -9.913   4.925  -3.058  1.00  0.00     0.249 C 
ATOM     15  O   UNL     1     -11.092   4.599  -3.108  1.00  0.00    -0.272 OA
ATOM     16  H   UNL     1      -8.053   4.923  -3.849  1.00  0.00     0.164 HD
BRANCH  14  17
ATOM     17  C   UNL     1      -9.343   5.902  -2.008  1.00  0.00     0.207 C 
BRANCH  17  18
ATOM     18  C   UNL     1      -8.579   5.136  -0.923  1.00  0.00     0.077 C 
BRANCH  18  19
ATOM     19  C   UNL     1      -7.086   5.160  -1.163  1.00  0.00    -0.043 A 
ATOM     20  C   UNL     1      -4.970   3.992  -1.365  1.00  0.00     0.083 A 
ATOM     21  C   UNL     1      -6.355   3.963  -1.193  1.00  0.00     0.028 A 
ATOM     22  C   UNL     1      -4.310   5.213  -1.507  1.00  0.00     0.134 A 
ATOM     23  C   UNL     1      -5.022   6.406  -1.479  1.00  0.00     0.048 A 
ATOM     24  C   UNL     1      -6.408   6.380  -1.305  1.00  0.00     0.008 A 
ATOM     25  Cl  UNL     1      -4.088   2.510  -1.399  1.00  0.00    -0.080 Cl
BRANCH  22  26
ATOM     26  O   UNL     1      -2.953   5.292  -1.668  1.00  0.00    -0.506 OA
ATOM     27  H   UNL     1      -2.696   4.551  -2.248  1.00  0.00     0.293 HD
ENDBRANCH  22  26
ENDBRANCH  18  19
ENDBRANCH  17  18
BRANCH  17  28
ATOM     28  O   UNL     1     -10.390   6.675  -1.399  1.00  0.00    -0.383 OA
ATOM     29  H   UNL     1     -10.078   6.886  -0.490  1.00  0.00     0.211 HD
ENDBRANCH  17  28
ENDBRANCH  14  17
ENDBRANCH  12  13
BRANCH  12  30
ATOM     30  C   UNL     1      -9.121   2.034  -4.575  1.00  0.00     0.018 C 
ATOM     31  C   UNL     1     -10.529   1.432  -4.449  1.00  0.00     0.010 C 
BRANCH  30  32
ATOM     32  C   UNL     1      -8.331   1.819  -3.261  1.00  0.00     0.002 C 
ATOM     33  C   UNL     1      -7.152   0.859  -3.360  1.00  0.00     0.004 C 
ENDBRANCH  30  32
ENDBRANCH  12  30
ENDBRANCH  10  12
ENDBRANCH   1  10
BRANCH   5  34
ATOM     34  C   UNL     1      -5.302   5.307  -6.266  1.00  0.00     0.242 C 
ATOM     35  O   UNL     1      -5.373   5.289  -7.495  1.00  0.00    -0.273 OA
ATOM     36  N   UNL     1      -4.614   6.283  -5.580  1.00  0.00    -0.354 N 
ATOM     37  H   UNL     1      -4.487   6.179  -4.573  1.00  0.00     0.163 HD
BRANCH  36  38
ATOM     38  C   UNL     1      -4.153   7.498  -6.219  1.00  0.00     0.116 C 
BRANCH  38  39
ATOM     39  C   UNL     1      -2.669   7.707  -5.926  1.00  0.00     0.023 C 
BRANCH  39  40
ATOM     40  C   UNL     1      -2.434   8.659  -4.758  1.00  0.00     0.026 C 
BRANCH  40  41
ATOM     41  C   UNL     1      -1.949   7.895  -3.526  1.00  0.00     0.146 C 
BRANCH  41  42
ATOM     42  N   UNL     1      -1.166   8.781  -2.674  1.00  0.00    -0.254 NA
ATOM     43  C   UNL     1      -0.674   8.335  -1.579  1.00  0.00     0.185 C 
ATOM     44  N   UNL     1      -0.752   7.108  -1.032  1.00  0.00    -0.370 N 
ATOM     45  N   UNL     1       0.041   9.169  -0.806  1.00  0.00    -0.370 N 
ATOM     46  H   UNL     1      -0.530   6.965  -0.062  1.00  0.00     0.159 HD
ATOM     47  H   UNL     1      -1.245   6.350  -1.492  1.00  0.00     0.159 HD
ATOM     48  H   UNL     1       0.155  10.112  -1.151  1.00  0.00     0.159 HD
ATOM     49  H   UNL     1       0.646   8.846  -0.073  1.00  0.00     0.159 HD
ENDBRANCH  41  42
ENDBRANCH  40  41
ENDBRANCH  39  40
ENDBRANCH  38  39
ENDBRANCH  36  38
ENDBRANCH   5  34
BRANCH   8  50
ATOM     50  O   UNL     1      -4.291   1.664  -9.139  1.00  0.00    -0.245 OA
BRANCH  50  51
ATOM     51  S   UNL     1      -3.235   1.004 -10.185  1.00  0.00     0.397 S 
ATOM     52  O   UNL     1      -3.889  -0.107 -10.838  1.00  0.00    -0.169 OA
ATOM     53  O   UNL     1      -1.944   0.857  -9.545  1.00  0.00    -0.169 OA
BRANCH  51  54
ATOM     54  O   UNL     1      -3.105   2.155 -11.302  1.00  0.00    -0.264 OA
ATOM     55  H   UNL     1      -2.191   2.502 -11.267  1.00  0.00     0.236 HD
ENDBRANCH  51  54
ENDBRANCH  50  51
ENDBRANCH   8  50
TORSDOF 19
ENDMDL
MODEL 29
REMARK VINA RESULT:    -7.041     13.336     17.357
REMARK INTER + INTRA:         -17.156
REMARK INTER:                 -13.307
REMARK INTRA:                  -3.848
REMARK UNBOUND:                -2.911
REMARK SMILES CC[C@@H](C)[C@@H](NC(=O)[C@@H](O)Cc1ccc(O)c(Cl)c1)C(=O)N1[C@H](C(=O)NCCCCN=C(N)N)C[C@H]2CC[C@H](OS(=O)(=O)O)C[C@@H]21
REMARK SMILES IDX 22 1 36 2 46 3 35 4 23 5 45 6 37 7 39 8 38 9 20 10 21 11
REMARK SMILES IDX 5 12 6 13 7 14 8 15 9 17 11 18 12 19 17 20 19 21 15 22 14 23
REMARK SMILES IDX 13 24 18 25 16 26 10 28 3 30 4 31 2 32 1 33 24 34 25 35
REMARK SMILES IDX 26 36 27 38 28 39 29 40 30 41 31 42 32 43 33 44 34 45 40 50
REMARK SMILES IDX 41 51 42 52 43 53 44 54
REMARK H PARENT 6 16 16 27 10 29 26 37 33 46 33 47 34 48 34 49 44 55
ROOT
ATOM      1  N   UNL     1      10.202  -2.057  11.125  1.00  0.00    -0.326 N 
ATOM      2  C   UNL     1      11.614  -0.300  11.802  1.00  0.00     0.014 C 
ATOM      3  C   UNL     1      10.168  -0.621  11.416  1.00  0.00     0.091 C 
ATOM      4  C   UNL     1      12.415  -1.232  10.906  1.00  0.00     0.041 C 
ATOM      5  C   UNL     1      11.607  -2.532  11.073  1.00  0.00     0.175 C 
ATOM      6  C   UNL     1       9.249  -0.130  12.534  1.00  0.00     0.059 C 
ATOM      7  C   UNL     1      11.873   1.193  11.743  1.00  0.00     0.008 C 
ATOM      8  C   UNL     1       9.775   1.124  13.264  1.00  0.00     0.143 C 
ATOM      9  C   UNL     1      10.696   1.974  12.366  1.00  0.00     0.034 C 
ENDROOT
BRANCH   1  10
ATOM     10  C   UNL     1       9.189  -2.902  10.706  1.00  0.00     0.246 C 
ATOM     11  O   UNL     1       9.006  -3.068   9.495  1.00  0.00    -0.272 OA
BRANCH  10  12
ATOM     12  C   UNL     1       8.332  -3.657  11.764  1.00  0.00     0.174 C 
BRANCH  12  13
ATOM     13  N   UNL     1       8.733  -5.062  11.819  1.00  0.00    -0.342 N 
ATOM     14  C   UNL     1       9.279  -5.685  12.919  1.00  0.00     0.249 C 
ATOM     15  O   UNL     1       9.467  -5.130  13.994  1.00  0.00    -0.272 OA
ATOM     16  H   UNL     1       8.783  -5.606  10.961  1.00  0.00     0.164 HD
BRANCH  14  17
ATOM     17  C   UNL     1       9.613  -7.170  12.658  1.00  0.00     0.207 C 
BRANCH  17  18
ATOM     18  C   UNL     1       8.516  -7.824  11.812  1.00  0.00     0.077 C 
BRANCH  18  19
ATOM     19  C   UNL     1       9.088  -8.791  10.800  1.00  0.00    -0.043 A 
ATOM     20  C   UNL     1       9.580  -9.379   8.499  1.00  0.00     0.083 A 
ATOM     21  C   UNL     1       9.097  -8.464   9.435  1.00  0.00     0.028 A 
ATOM     22  C   UNL     1      10.056 -10.622   8.918  1.00  0.00     0.134 A 
ATOM     23  C   UNL     1      10.053 -10.958  10.266  1.00  0.00     0.048 A 
ATOM     24  C   UNL     1       9.568 -10.046  11.206  1.00  0.00     0.008 A 
ATOM     25  Cl  UNL     1       9.582  -8.960   6.826  1.00  0.00    -0.080 Cl
BRANCH  22  26
ATOM     26  O   UNL     1      10.530 -11.555   8.036  1.00  0.00    -0.506 OA
ATOM     27  H   UNL     1      10.850 -12.307   8.568  1.00  0.00     0.293 HD
ENDBRANCH  22  26
ENDBRANCH  18  19
ENDBRANCH  17  18
BRANCH  17  28
ATOM     28  O   UNL     1       9.758  -7.892  13.891  1.00  0.00    -0.383 OA
ATOM     29  H   UNL     1      10.443  -8.579  13.725  1.00  0.00     0.211 HD
ENDBRANCH  17  28
ENDBRANCH  14  17
ENDBRANCH  12  13
BRANCH  12  30
ATOM     30  C   UNL     1       6.807  -3.484  11.534  1.00  0.00     0.018 C 
ATOM     31  C   UNL     1       6.412  -2.000  11.575  1.00  0.00     0.010 C 
BRANCH  30  32
ATOM     32  C   UNL     1       5.934  -4.294  12.524  1.00  0.00     0.002 C 
ATOM     33  C   UNL     1       6.036  -3.867  13.982  1.00  0.00     0.004 C 
ENDBRANCH  30  32
ENDBRANCH  12  30
ENDBRANCH  10  12
ENDBRANCH   1  10
BRANCH   5  34
ATOM     34  C   UNL     1      11.985  -3.276  12.381  1.00  0.00     0.242 C 
ATOM     35  O   UNL     1      12.576  -4.356  12.377  1.00  0.00    -0.273 OA
ATOM     36  N   UNL     1      11.564  -2.669  13.543  1.00  0.00    -0.354 N 
ATOM     37  H   UNL     1      10.975  -1.838  13.478  1.00  0.00     0.163 HD
BRANCH  36  38
ATOM     38  C   UNL     1      12.011  -3.106  14.850  1.00  0.00     0.116 C 
BRANCH  38  39
ATOM     39  C   UNL     1      12.892  -2.031  15.482  1.00  0.00     0.023 C 
BRANCH  39  40
ATOM     40  C   UNL     1      14.162  -1.771  14.679  1.00  0.00     0.026 C 
BRANCH  40  41
ATOM     41  C   UNL     1      14.712  -0.375  14.971  1.00  0.00     0.146 C 
BRANCH  41  42
ATOM     42  N   UNL     1      13.611   0.572  15.094  1.00  0.00    -0.254 NA
ATOM     43  C   UNL     1      13.850   1.829  15.053  1.00  0.00     0.185 C 
ATOM     44  N   UNL     1      15.016   2.484  14.904  1.00  0.00    -0.370 N 
ATOM     45  N   UNL     1      12.822   2.685  15.173  1.00  0.00    -0.370 N 
ATOM     46  H   UNL     1      15.089   3.460  15.133  1.00  0.00     0.159 HD
ATOM     47  H   UNL     1      15.894   1.988  14.786  1.00  0.00     0.159 HD
ATOM     48  H   UNL     1      11.906   2.273  15.280  1.00  0.00     0.159 HD
ATOM     49  H   UNL     1      12.889   3.654  14.917  1.00  0.00     0.159 HD
ENDBRANCH  41  42
ENDBRANCH  40  41
ENDBRANCH  39  40
ENDBRANCH  38  39
ENDBRANCH  36  38
ENDBRANCH   5  34
BRANCH   8  50
ATOM     50  O   UNL     1      10.504   0.743  14.431  1.00  0.00    -0.245 OA
BRANCH  50  51
ATOM     51  S   UNL     1       9.758   0.729  15.876  1.00  0.00     0.397 S 
ATOM     52  O   UNL     1       8.438   1.293  15.702  1.00  0.00    -0.169 OA
ATOM     53  O   UNL     1      10.663   1.216  16.895  1.00  0.00    -0.169 OA
BRANCH  51  54
ATOM     54  O   UNL     1       9.533  -0.844  16.122  1.00  0.00    -0.264 OA
ATOM     55  H   UNL     1      10.394  -1.292  15.996  1.00  0.00     0.236 HD
ENDBRANCH  51  54
ENDBRANCH  50  51
ENDBRANCH   8  50
TORSDOF 19
ENDMDL
MODEL 30
REMARK VINA RESULT:    -7.038     11.701     15.245
REMARK INTER + INTRA:         -17.148
REMARK INTER:                 -13.944
REMARK INTRA:                  -3.204
REMARK UNBOUND:                -2.911
REMARK SMILES CC[C@@H](C)[C@@H](NC(=O)[C@@H](O)Cc1ccc(O)c(Cl)c1)C(=O)N1[C@H](C(=O)NCCCCN=C(N)N)C[C@H]2CC[C@H](OS(=O)(=O)O)C[C@@H]21
REMARK SMILES IDX 22 1 36 2 46 3 35 4 23 5 45 6 37 7 39 8 38 9 20 10 21 11
REMARK SMILES IDX 5 12 6 13 7 14 8 15 9 17 11 18 12 19 17 20 19 21 15 22 14 23
REMARK SMILES IDX 13 24 18 25 16 26 10 28 3 30 4 31 2 32 1 33 24 34 25 35
REMARK SMILES IDX 26 36 27 38 28 39 29 40 30 41 31 42 32 43 33 44 34 45 40 50
REMARK SMILES IDX 41 51 42 52 43 53 44 54
REMARK H PARENT 6 16 16 27 10 29 26 37 33 46 33 47 34 48 34 49 44 55
ROOT
ATOM      1  N   UNL     1      -5.999   5.142  -6.836  1.00  0.00    -0.326 N 
ATOM      2  C   UNL     1      -7.117   3.684  -8.307  1.00  0.00     0.014 C 
ATOM      3  C   UNL     1      -5.723   4.147  -7.876  1.00  0.00     0.091 C 
ATOM      4  C   UNL     1      -7.946   4.953  -8.177  1.00  0.00     0.041 C 
ATOM      5  C   UNL     1      -7.446   5.466  -6.814  1.00  0.00     0.175 C 
ATOM      6  C   UNL     1      -4.900   2.915  -7.501  1.00  0.00     0.059 C 
ATOM      7  C   UNL     1      -7.062   2.966  -9.641  1.00  0.00     0.008 C 
ATOM      8  C   UNL     1      -5.268   1.652  -8.309  1.00  0.00     0.143 C 
ATOM      9  C   UNL     1      -5.859   2.000  -9.690  1.00  0.00     0.034 C 
ENDROOT
BRANCH   1  10
ATOM     10  C   UNL     1      -5.123   5.915  -6.092  1.00  0.00     0.246 C 
ATOM     11  O   UNL     1      -4.875   7.067  -6.463  1.00  0.00    -0.272 OA
BRANCH  10  12
ATOM     12  C   UNL     1      -4.505   5.333  -4.788  1.00  0.00     0.174 C 
BRANCH  12  13
ATOM     13  N   UNL     1      -5.447   4.408  -4.159  1.00  0.00    -0.342 N 
ATOM     14  C   UNL     1      -5.233   3.058  -3.989  1.00  0.00     0.249 C 
ATOM     15  O   UNL     1      -4.206   2.482  -4.324  1.00  0.00    -0.272 OA
ATOM     16  H   UNL     1      -6.400   4.708  -3.974  1.00  0.00     0.164 HD
BRANCH  14  17
ATOM     17  C   UNL     1      -6.423   2.348  -3.308  1.00  0.00     0.207 C 
BRANCH  17  18
ATOM     18  C   UNL     1      -6.152   2.165  -1.811  1.00  0.00     0.077 C 
BRANCH  18  19
ATOM     19  C   UNL     1      -7.092   2.993  -0.964  1.00  0.00    -0.043 A 
ATOM     20  C   UNL     1      -8.454   4.977  -0.662  1.00  0.00     0.083 A 
ATOM     21  C   UNL     1      -7.627   4.191  -1.464  1.00  0.00     0.028 A 
ATOM     22  C   UNL     1      -8.751   4.575   0.641  1.00  0.00     0.134 A 
ATOM     23  C   UNL     1      -8.229   3.391   1.148  1.00  0.00     0.048 A 
ATOM     24  C   UNL     1      -7.398   2.603   0.349  1.00  0.00     0.008 A 
ATOM     25  Cl  UNL     1      -9.101   6.446  -1.294  1.00  0.00    -0.080 Cl
BRANCH  22  26
ATOM     26  O   UNL     1      -9.549   5.318   1.468  1.00  0.00    -0.506 OA
ATOM     27  H   UNL     1      -9.904   4.706   2.139  1.00  0.00     0.293 HD
ENDBRANCH  22  26
ENDBRANCH  18  19
ENDBRANCH  17  18
BRANCH  17  28
ATOM     28  O   UNL     1      -6.673   1.067  -3.907  1.00  0.00    -0.383 OA
ATOM     29  H   UNL     1      -7.620   1.072  -4.175  1.00  0.00     0.211 HD
ENDBRANCH  17  28
ENDBRANCH  14  17
ENDBRANCH  12  13
BRANCH  12  30
ATOM     30  C   UNL     1      -4.018   6.437  -3.811  1.00  0.00     0.018 C 
ATOM     31  C   UNL     1      -2.619   6.937  -4.204  1.00  0.00     0.010 C 
BRANCH  30  32
ATOM     32  C   UNL     1      -4.030   6.002  -2.325  1.00  0.00     0.002 C 
ATOM     33  C   UNL     1      -5.020   6.744  -1.437  1.00  0.00     0.004 C 
ENDBRANCH  30  32
ENDBRANCH  12  30
ENDBRANCH  10  12
ENDBRANCH   1  10
BRANCH   5  34
ATOM     34  C   UNL     1      -8.154   4.744  -5.636  1.00  0.00     0.242 C 
ATOM     35  O   UNL     1      -8.134   5.184  -4.487  1.00  0.00    -0.273 OA
ATOM     36  N   UNL     1      -8.759   3.550  -5.960  1.00  0.00    -0.354 N 
ATOM     37  H   UNL     1      -8.639   3.178  -6.903  1.00  0.00     0.163 HD
BRANCH  36  38
ATOM     38  C   UNL     1      -9.640   2.856  -5.044  1.00  0.00     0.116 C 
BRANCH  38  39
ATOM     39  C   UNL     1     -10.864   3.720  -4.748  1.00  0.00     0.023 C 
BRANCH  39  40
ATOM     40  C   UNL     1     -10.984   4.074  -3.270  1.00  0.00     0.026 C 
BRANCH  40  41
ATOM     41  C   UNL     1     -12.141   3.314  -2.623  1.00  0.00     0.146 C 
BRANCH  41  42
ATOM     42  N   UNL     1     -11.636   2.120  -1.957  1.00  0.00    -0.254 NA
ATOM     43  C   UNL     1     -11.740   0.982  -2.533  1.00  0.00     0.185 C 
ATOM     44  N   UNL     1     -12.268   0.662  -3.729  1.00  0.00    -0.370 N 
ATOM     45  N   UNL     1     -11.272  -0.107  -1.901  1.00  0.00    -0.370 N 
ATOM     46  H   UNL     1     -12.504  -0.291  -3.947  1.00  0.00     0.159 HD
ATOM     47  H   UNL     1     -12.657   1.369  -4.346  1.00  0.00     0.159 HD
ATOM     48  H   UNL     1     -10.848   0.048  -0.996  1.00  0.00     0.159 HD
ATOM     49  H   UNL     1     -11.101  -0.978  -2.372  1.00  0.00     0.159 HD
ENDBRANCH  41  42
ENDBRANCH  40  41
ENDBRANCH  39  40
ENDBRANCH  38  39
ENDBRANCH  36  38
ENDBRANCH   5  34
BRANCH   8  50
ATOM     50  O   UNL     1      -6.223   0.871  -7.591  1.00  0.00    -0.245 OA
BRANCH  50  51
ATOM     51  S   UNL     1      -5.926  -0.704  -7.312  1.00  0.00     0.397 S 
ATOM     52  O   UNL     1      -4.717  -1.062  -8.020  1.00  0.00    -0.169 OA
ATOM     53  O   UNL     1      -7.149  -1.464  -7.464  1.00  0.00    -0.169 OA
BRANCH  51  54
ATOM     54  O   UNL     1      -5.535  -0.700  -5.752  1.00  0.00    -0.264 OA
ATOM     55  H   UNL     1      -6.301  -0.349  -5.253  1.00  0.00     0.236 HD
ENDBRANCH  51  54
ENDBRANCH  50  51
ENDBRANCH   8  50
TORSDOF 19
ENDMDL
MODEL 31
REMARK VINA RESULT:    -7.006     12.255     15.828
REMARK INTER + INTRA:         -17.084
REMARK INTER:                 -13.619
REMARK INTRA:                  -3.465
REMARK UNBOUND:                -2.911
REMARK SMILES CC[C@@H](C)[C@@H](NC(=O)[C@@H](O)Cc1ccc(O)c(Cl)c1)C(=O)N1[C@H](C(=O)NCCCCN=C(N)N)C[C@H]2CC[C@H](OS(=O)(=O)O)C[C@@H]21
REMARK SMILES IDX 22 1 36 2 46 3 35 4 23 5 45 6 37 7 39 8 38 9 20 10 21 11
REMARK SMILES IDX 5 12 6 13 7 14 8 15 9 17 11 18 12 19 17 20 19 21 15 22 14 23
REMARK SMILES IDX 13 24 18 25 16 26 10 28 3 30 4 31 2 32 1 33 24 34 25 35
REMARK SMILES IDX 26 36 27 38 28 39 29 40 30 41 31 42 32 43 33 44 34 45 40 50
REMARK SMILES IDX 41 51 42 52 43 53 44 54
REMARK H PARENT 6 16 16 27 10 29 26 37 33 46 33 47 34 48 34 49 44 55
ROOT
ATOM      1  N   UNL     1      -7.850   2.215  -3.931  1.00  0.00    -0.326 N 
ATOM      2  C   UNL     1     -10.156   1.774  -4.108  1.00  0.00     0.014 C 
ATOM      3  C   UNL     1      -9.040   2.038  -3.093  1.00  0.00     0.091 C 
ATOM      4  C   UNL     1      -9.440   0.993  -5.198  1.00  0.00     0.041 C 
ATOM      5  C   UNL     1      -8.152   1.827  -5.330  1.00  0.00     0.175 C 
ATOM      6  C   UNL     1      -9.470   3.193  -2.191  1.00  0.00     0.059 C 
ATOM      7  C   UNL     1     -11.370   1.167  -3.433  1.00  0.00     0.008 C 
ATOM      8  C   UNL     1     -10.994   3.265  -1.957  1.00  0.00     0.143 C 
ATOM      9  C   UNL     1     -11.668   1.885  -2.100  1.00  0.00     0.034 C 
ENDROOT
BRANCH   1  10
ATOM     10  C   UNL     1      -6.537   2.462  -3.567  1.00  0.00     0.246 C 
ATOM     11  O   UNL     1      -5.647   1.716  -3.988  1.00  0.00    -0.272 OA
BRANCH  10  12
ATOM     12  C   UNL     1      -6.207   3.693  -2.674  1.00  0.00     0.174 C 
BRANCH  12  13
ATOM     13  N   UNL     1      -5.380   4.642  -3.419  1.00  0.00    -0.342 N 
ATOM     14  C   UNL     1      -5.864   5.635  -4.241  1.00  0.00     0.249 C 
ATOM     15  O   UNL     1      -7.055   5.853  -4.419  1.00  0.00    -0.272 OA
ATOM     16  H   UNL     1      -4.378   4.486  -3.494  1.00  0.00     0.164 HD
BRANCH  14  17
ATOM     17  C   UNL     1      -4.739   6.461  -4.901  1.00  0.00     0.207 C 
BRANCH  17  18
ATOM     18  C   UNL     1      -4.612   6.103  -6.385  1.00  0.00     0.077 C 
BRANCH  18  19
ATOM     19  C   UNL     1      -4.796   7.312  -7.273  1.00  0.00    -0.043 A 
ATOM     20  C   UNL     1      -5.808   9.476  -7.696  1.00  0.00     0.083 A 
ATOM     21  C   UNL     1      -5.600   8.384  -6.853  1.00  0.00     0.028 A 
ATOM     22  C   UNL     1      -5.218   9.506  -8.960  1.00  0.00     0.134 A 
ATOM     23  C   UNL     1      -4.419   8.452  -9.389  1.00  0.00     0.048 A 
ATOM     24  C   UNL     1      -4.211   7.356  -8.548  1.00  0.00     0.008 A 
ATOM     25  Cl  UNL     1      -6.799  10.783  -7.162  1.00  0.00    -0.080 Cl
BRANCH  22  26
ATOM     26  O   UNL     1      -5.401  10.550  -9.825  1.00  0.00    -0.506 OA
ATOM     27  H   UNL     1      -5.587  11.337  -9.279  1.00  0.00     0.293 HD
ENDBRANCH  22  26
ENDBRANCH  18  19
ENDBRANCH  17  18
BRANCH  17  28
ATOM     28  O   UNL     1      -3.480   6.237  -4.247  1.00  0.00    -0.383 OA
ATOM     29  H   UNL     1      -3.634   5.509  -3.602  1.00  0.00     0.211 HD
ENDBRANCH  17  28
ENDBRANCH  14  17
ENDBRANCH  12  13
BRANCH  12  30
ATOM     30  C   UNL     1      -5.572   3.294  -1.314  1.00  0.00     0.018 C 
ATOM     31  C   UNL     1      -4.114   2.846  -1.503  1.00  0.00     0.010 C 
BRANCH  30  32
ATOM     32  C   UNL     1      -6.368   2.208  -0.551  1.00  0.00     0.002 C 
ATOM     33  C   UNL     1      -7.192   2.712   0.627  1.00  0.00     0.004 C 
ENDBRANCH  30  32
ENDBRANCH  12  30
ENDBRANCH  10  12
ENDBRANCH   1  10
BRANCH   5  34
ATOM     34  C   UNL     1      -8.373   3.084  -6.214  1.00  0.00     0.242 C 
ATOM     35  O   UNL     1      -9.298   3.872  -6.018  1.00  0.00    -0.273 OA
ATOM     36  N   UNL     1      -7.494   3.222  -7.265  1.00  0.00    -0.354 N 
ATOM     37  H   UNL     1      -6.825   2.474  -7.448  1.00  0.00     0.163 HD
BRANCH  36  38
ATOM     38  C   UNL     1      -7.418   4.434  -8.054  1.00  0.00     0.116 C 
BRANCH  38  39
ATOM     39  C   UNL     1      -6.332   4.293  -9.118  1.00  0.00     0.023 C 
BRANCH  39  40
ATOM     40  C   UNL     1      -6.270   2.886  -9.704  1.00  0.00     0.026 C 
BRANCH  40  41
ATOM     41  C   UNL     1      -4.928   2.226  -9.388  1.00  0.00     0.146 C 
BRANCH  41  42
ATOM     42  N   UNL     1      -4.927   1.745  -8.013  1.00  0.00    -0.254 NA
ATOM     43  C   UNL     1      -5.058   0.493  -7.780  1.00  0.00     0.185 C 
ATOM     44  N   UNL     1      -5.205  -0.536  -8.635  1.00  0.00    -0.370 N 
ATOM     45  N   UNL     1      -5.059   0.070  -6.505  1.00  0.00    -0.370 N 
ATOM     46  H   UNL     1      -5.540  -1.427  -8.312  1.00  0.00     0.159 HD
ATOM     47  H   UNL     1      -5.212  -0.396  -9.641  1.00  0.00     0.159 HD
ATOM     48  H   UNL     1      -4.944   0.782  -5.797  1.00  0.00     0.159 HD
ATOM     49  H   UNL     1      -4.918  -0.892  -6.251  1.00  0.00     0.159 HD
ENDBRANCH  41  42
ENDBRANCH  40  41
ENDBRANCH  39  40
ENDBRANCH  38  39
ENDBRANCH  36  38
ENDBRANCH   5  34
BRANCH   8  50
ATOM     50  O   UNL     1     -11.593   4.160  -2.894  1.00  0.00    -0.245 OA
BRANCH  50  51
ATOM     51  S   UNL     1     -12.517   5.385  -2.357  1.00  0.00     0.397 S 
ATOM     52  O   UNL     1     -11.785   6.616  -2.551  1.00  0.00    -0.169 OA
ATOM     53  O   UNL     1     -13.089   5.036  -1.073  1.00  0.00    -0.169 OA
BRANCH  51  54
ATOM     54  O   UNL     1     -13.707   5.408  -3.439  1.00  0.00    -0.264 OA
ATOM     55  H   UNL     1     -14.117   4.519  -3.450  1.00  0.00     0.236 HD
ENDBRANCH  51  54
ENDBRANCH  50  51
ENDBRANCH   8  50
TORSDOF 19
ENDMDL
MODEL 32
REMARK VINA RESULT:    -6.982      2.445      3.399
REMARK INTER + INTRA:         -17.036
REMARK INTER:                 -14.286
REMARK INTRA:                  -2.750
REMARK UNBOUND:                -2.911
REMARK SMILES CC[C@@H](C)[C@@H](NC(=O)[C@@H](O)Cc1ccc(O)c(Cl)c1)C(=O)N1[C@H](C(=O)NCCCCN=C(N)N)C[C@H]2CC[C@H](OS(=O)(=O)O)C[C@@H]21
REMARK SMILES IDX 22 1 36 2 46 3 35 4 23 5 45 6 37 7 39 8 38 9 20 10 21 11
REMARK SMILES IDX 5 12 6 13 7 14 8 15 9 17 11 18 12 19 17 20 19 21 15 22 14 23
REMARK SMILES IDX 13 24 18 25 16 26 10 28 3 30 4 31 2 32 1 33 24 34 25 35
REMARK SMILES IDX 26 36 27 38 28 39 29 40 30 41 31 42 32 43 33 44 34 45 40 50
REMARK SMILES IDX 41 51 42 52 43 53 44 54
REMARK H PARENT 6 16 16 27 10 29 26 37 33 46 33 47 34 48 34 49 44 55
ROOT
ATOM      1  N   UNL     1      -3.521   4.899   6.403  1.00  0.00    -0.326 N 
ATOM      2  C   UNL     1      -4.202   2.653   6.585  1.00  0.00     0.014 C 
ATOM      3  C   UNL     1      -3.012   3.588   6.816  1.00  0.00     0.091 C 
ATOM      4  C   UNL     1      -4.861   3.248   5.351  1.00  0.00     0.041 C 
ATOM      5  C   UNL     1      -4.828   4.743   5.718  1.00  0.00     0.175 C 
ATOM      6  C   UNL     1      -2.536   3.418   8.258  1.00  0.00     0.059 C 
ATOM      7  C   UNL     1      -3.756   1.204   6.564  1.00  0.00     0.008 C 
ATOM      8  C   UNL     1      -2.738   1.992   8.814  1.00  0.00     0.143 C 
ATOM      9  C   UNL     1      -2.744   0.929   7.697  1.00  0.00     0.034 C 
ENDROOT
BRANCH   1  10
ATOM     10  C   UNL     1      -2.886   6.129   6.372  1.00  0.00     0.246 C 
ATOM     11  O   UNL     1      -3.426   7.069   5.780  1.00  0.00    -0.272 OA
BRANCH  10  12
ATOM     12  C   UNL     1      -1.531   6.311   7.116  1.00  0.00     0.174 C 
BRANCH  12  13
ATOM     13  N   UNL     1      -1.627   7.424   8.060  1.00  0.00    -0.342 N 
ATOM     14  C   UNL     1      -1.401   8.746   7.748  1.00  0.00     0.249 C 
ATOM     15  O   UNL     1      -1.118   9.143   6.625  1.00  0.00    -0.272 OA
ATOM     16  H   UNL     1      -1.699   7.235   9.056  1.00  0.00     0.164 HD
BRANCH  14  17
ATOM     17  C   UNL     1      -1.563   9.681   8.965  1.00  0.00     0.207 C 
BRANCH  17  18
ATOM     18  C   UNL     1      -0.270  10.462   9.217  1.00  0.00     0.077 C 
BRANCH  18  19
ATOM     19  C   UNL     1       0.689   9.693  10.098  1.00  0.00    -0.043 A 
ATOM     20  C   UNL     1       2.333   7.931  10.379  1.00  0.00     0.083 A 
ATOM     21  C   UNL     1       1.486   8.673   9.555  1.00  0.00     0.028 A 
ATOM     22  C   UNL     1       2.388   8.202  11.747  1.00  0.00     0.134 A 
ATOM     23  C   UNL     1       1.605   9.209  12.298  1.00  0.00     0.048 A 
ATOM     24  C   UNL     1       0.754   9.951  11.475  1.00  0.00     0.008 A 
ATOM     25  Cl  UNL     1       3.304   6.682   9.694  1.00  0.00    -0.080 Cl
BRANCH  22  26
ATOM     26  O   UNL     1       3.196   7.495  12.597  1.00  0.00    -0.506 OA
ATOM     27  H   UNL     1       3.113   7.912  13.474  1.00  0.00     0.293 HD
ENDBRANCH  22  26
ENDBRANCH  18  19
ENDBRANCH  17  18
BRANCH  17  28
ATOM     28  O   UNL     1      -1.909   8.939  10.146  1.00  0.00    -0.383 OA
ATOM     29  H   UNL     1      -1.348   9.300  10.868  1.00  0.00     0.211 HD
ENDBRANCH  17  28
ENDBRANCH  14  17
ENDBRANCH  12  13
BRANCH  12  30
ATOM     30  C   UNL     1      -0.329   6.459   6.146  1.00  0.00     0.018 C 
ATOM     31  C   UNL     1      -0.506   5.557   4.914  1.00  0.00     0.010 C 
BRANCH  30  32
ATOM     32  C   UNL     1       1.043   6.188   6.810  1.00  0.00     0.002 C 
ATOM     33  C   UNL     1       2.237   6.844   6.130  1.00  0.00     0.004 C 
ENDBRANCH  30  32
ENDBRANCH  12  30
ENDBRANCH  10  12
ENDBRANCH   1  10
BRANCH   5  34
ATOM     34  C   UNL     1      -5.995   5.124   6.668  1.00  0.00     0.242 C 
ATOM     35  O   UNL     1      -6.577   4.291   7.363  1.00  0.00    -0.273 OA
ATOM     36  N   UNL     1      -6.368   6.449   6.636  1.00  0.00    -0.354 N 
ATOM     37  H   UNL     1      -5.929   7.066   5.952  1.00  0.00     0.163 HD
BRANCH  36  38
ATOM     38  C   UNL     1      -7.283   7.019   7.604  1.00  0.00     0.116 C 
BRANCH  38  39
ATOM     39  C   UNL     1      -6.530   7.969   8.532  1.00  0.00     0.023 C 
BRANCH  39  40
ATOM     40  C   UNL     1      -6.681   7.589  10.001  1.00  0.00     0.026 C 
BRANCH  40  41
ATOM     41  C   UNL     1      -5.911   6.306  10.312  1.00  0.00     0.146 C 
BRANCH  41  42
ATOM     42  N   UNL     1      -6.652   5.509  11.281  1.00  0.00    -0.254 NA
ATOM     43  C   UNL     1      -6.015   4.821  12.153  1.00  0.00     0.185 C 
ATOM     44  N   UNL     1      -4.691   4.689  12.354  1.00  0.00    -0.370 N 
ATOM     45  N   UNL     1      -6.717   4.089  13.035  1.00  0.00    -0.370 N 
ATOM     46  H   UNL     1      -4.330   3.933  12.910  1.00  0.00     0.159 HD
ATOM     47  H   UNL     1      -4.014   5.186  11.783  1.00  0.00     0.159 HD
ATOM     48  H   UNL     1      -7.724   4.139  12.958  1.00  0.00     0.159 HD
ATOM     49  H   UNL     1      -6.314   3.722  13.879  1.00  0.00     0.159 HD
ENDBRANCH  41  42
ENDBRANCH  40  41
ENDBRANCH  39  40
ENDBRANCH  38  39
ENDBRANCH  36  38
ENDBRANCH   5  34
BRANCH   8  50
ATOM     50  O   UNL     1      -3.975   1.912   9.523  1.00  0.00    -0.245 OA
BRANCH  50  51
ATOM     51  S   UNL     1      -3.995   1.331  11.042  1.00  0.00     0.397 S 
ATOM     52  O   UNL     1      -3.572  -0.050  10.997  1.00  0.00    -0.169 OA
ATOM     53  O   UNL     1      -5.223   1.729  11.698  1.00  0.00    -0.169 OA
BRANCH  51  54
ATOM     54  O   UNL     1      -2.784   2.138  11.725  1.00  0.00    -0.264 OA
ATOM     55  H   UNL     1      -3.172   2.828  12.301  1.00  0.00     0.236 HD
ENDBRANCH  51  54
ENDBRANCH  50  51
ENDBRANCH   8  50
TORSDOF 19
ENDMDL
MODEL 33
REMARK VINA RESULT:    -6.963      4.429      9.759
REMARK INTER + INTRA:         -16.997
REMARK INTER:                 -14.136
REMARK INTRA:                  -2.861
REMARK UNBOUND:                -2.911
REMARK SMILES CC[C@@H](C)[C@@H](NC(=O)[C@@H](O)Cc1ccc(O)c(Cl)c1)C(=O)N1[C@H](C(=O)NCCCCN=C(N)N)C[C@H]2CC[C@H](OS(=O)(=O)O)C[C@@H]21
REMARK SMILES IDX 22 1 36 2 46 3 35 4 23 5 45 6 37 7 39 8 38 9 20 10 21 11
REMARK SMILES IDX 5 12 6 13 7 14 8 15 9 17 11 18 12 19 17 20 19 21 15 22 14 23
REMARK SMILES IDX 13 24 18 25 16 26 10 28 3 30 4 31 2 32 1 33 24 34 25 35
REMARK SMILES IDX 26 36 27 38 28 39 29 40 30 41 31 42 32 43 33 44 34 45 40 50
REMARK SMILES IDX 41 51 42 52 43 53 44 54
REMARK H PARENT 6 16 16 27 10 29 26 37 33 46 33 47 34 48 34 49 44 55
ROOT
ATOM      1  N   UNL     1      -1.322   5.291   6.169  1.00  0.00    -0.326 N 
ATOM      2  C   UNL     1      -0.459   7.368   6.863  1.00  0.00     0.014 C 
ATOM      3  C   UNL     1      -0.682   5.925   7.324  1.00  0.00     0.091 C 
ATOM      4  C   UNL     1      -1.673   7.630   5.984  1.00  0.00     0.041 C 
ATOM      5  C   UNL     1      -1.710   6.321   5.174  1.00  0.00     0.175 C 
ATOM      6  C   UNL     1       0.652   5.363   7.812  1.00  0.00     0.059 C 
ATOM      7  C   UNL     1      -0.185   8.279   8.043  1.00  0.00     0.008 C 
ATOM      8  C   UNL     1       1.580   6.424   8.443  1.00  0.00     0.143 C 
ATOM      9  C   UNL     1       0.789   7.608   9.034  1.00  0.00     0.034 C 
ENDROOT
BRANCH   1  10
ATOM     10  C   UNL     1      -1.774   3.992   6.006  1.00  0.00     0.246 C 
ATOM     11  O   UNL     1      -1.130   3.216   5.293  1.00  0.00    -0.272 OA
BRANCH  10  12
ATOM     12  C   UNL     1      -3.056   3.527   6.757  1.00  0.00     0.174 C 
BRANCH  12  13
ATOM     13  N   UNL     1      -3.919   4.676   7.030  1.00  0.00    -0.342 N 
ATOM     14  C   UNL     1      -5.106   4.944   6.387  1.00  0.00     0.249 C 
ATOM     15  O   UNL     1      -5.591   4.224   5.522  1.00  0.00    -0.272 OA
ATOM     16  H   UNL     1      -3.573   5.439   7.607  1.00  0.00     0.164 HD
BRANCH  14  17
ATOM     17  C   UNL     1      -5.776   6.241   6.888  1.00  0.00     0.207 C 
BRANCH  17  18
ATOM     18  C   UNL     1      -7.110   5.926   7.571  1.00  0.00     0.077 C 
BRANCH  18  19
ATOM     19  C   UNL     1      -6.910   5.315   8.940  1.00  0.00    -0.043 A 
ATOM     20  C   UNL     1      -5.842   5.339  11.118  1.00  0.00     0.083 A 
ATOM     21  C   UNL     1      -6.063   5.931   9.874  1.00  0.00     0.028 A 
ATOM     22  C   UNL     1      -6.462   4.130  11.435  1.00  0.00     0.134 A 
ATOM     23  C   UNL     1      -7.303   3.508  10.519  1.00  0.00     0.048 A 
ATOM     24  C   UNL     1      -7.525   4.098   9.273  1.00  0.00     0.008 A 
ATOM     25  Cl  UNL     1      -4.798   6.111  12.252  1.00  0.00    -0.080 Cl
BRANCH  22  26
ATOM     26  O   UNL     1      -6.268   3.505  12.638  1.00  0.00    -0.506 OA
ATOM     27  H   UNL     1      -5.420   3.834  12.990  1.00  0.00     0.293 HD
ENDBRANCH  22  26
ENDBRANCH  18  19
ENDBRANCH  17  18
BRANCH  17  28
ATOM     28  O   UNL     1      -5.999   7.159   5.805  1.00  0.00    -0.383 OA
ATOM     29  H   UNL     1      -6.965   7.351   5.807  1.00  0.00     0.211 HD
ENDBRANCH  17  28
ENDBRANCH  14  17
ENDBRANCH  12  13
BRANCH  12  30
ATOM     30  C   UNL     1      -2.738   2.707   8.036  1.00  0.00     0.018 C 
ATOM     31  C   UNL     1      -2.823   1.199   7.753  1.00  0.00     0.010 C 
BRANCH  30  32
ATOM     32  C   UNL     1      -3.631   3.073   9.247  1.00  0.00     0.002 C 
ATOM     33  C   UNL     1      -3.335   2.307  10.529  1.00  0.00     0.004 C 
ENDBRANCH  30  32
ENDBRANCH  12  30
ENDBRANCH  10  12
ENDBRANCH   1  10
BRANCH   5  34
ATOM     34  C   UNL     1      -0.703   6.352   3.993  1.00  0.00     0.242 C 
ATOM     35  O   UNL     1       0.088   5.434   3.779  1.00  0.00    -0.273 OA
ATOM     36  N   UNL     1      -0.724   7.501   3.235  1.00  0.00    -0.354 N 
ATOM     37  H   UNL     1      -1.318   8.276   3.534  1.00  0.00     0.163 HD
BRANCH  36  38
ATOM     38  C   UNL     1      -0.013   7.612   1.978  1.00  0.00     0.116 C 
BRANCH  38  39
ATOM     39  C   UNL     1      -0.701   8.638   1.082  1.00  0.00     0.023 C 
BRANCH  39  40
ATOM     40  C   UNL     1      -1.935   8.072   0.388  1.00  0.00     0.026 C 
BRANCH  40  41
ATOM     41  C   UNL     1      -2.329   8.936  -0.810  1.00  0.00     0.146 C 
BRANCH  41  42
ATOM     42  N   UNL     1      -1.944   8.269  -2.046  1.00  0.00    -0.254 NA
ATOM     43  C   UNL     1      -0.981   8.740  -2.747  1.00  0.00     0.185 C 
ATOM     44  N   UNL     1      -0.203   9.817  -2.534  1.00  0.00    -0.370 N 
ATOM     45  N   UNL     1      -0.644   8.113  -3.886  1.00  0.00    -0.370 N 
ATOM     46  H   UNL     1       0.345  10.209  -3.281  1.00  0.00     0.159 HD
ATOM     47  H   UNL     1      -0.313  10.400  -1.710  1.00  0.00     0.159 HD
ATOM     48  H   UNL     1      -1.177   7.285  -4.116  1.00  0.00     0.159 HD
ATOM     49  H   UNL     1       0.228   8.272  -4.356  1.00  0.00     0.159 HD
ENDBRANCH  41  42
ENDBRANCH  40  41
ENDBRANCH  39  40
ENDBRANCH  38  39
ENDBRANCH  36  38
ENDBRANCH   5  34
BRANCH   8  50
ATOM     50  O   UNL     1       2.486   6.929   7.462  1.00  0.00    -0.245 OA
BRANCH  50  51
ATOM     51  S   UNL     1       3.950   7.469   7.923  1.00  0.00     0.397 S 
ATOM     52  O   UNL     1       3.820   8.865   8.276  1.00  0.00    -0.169 OA
ATOM     53  O   UNL     1       4.954   7.013   6.984  1.00  0.00    -0.169 OA
BRANCH  51  54
ATOM     54  O   UNL     1       4.175   6.686   9.309  1.00  0.00    -0.264 OA
ATOM     55  H   UNL     1       4.974   6.128   9.210  1.00  0.00     0.236 HD
ENDBRANCH  51  54
ENDBRANCH  50  51
ENDBRANCH   8  50
TORSDOF 19
ENDMDL
MODEL 34
REMARK VINA RESULT:    -6.957      3.884      8.643
REMARK INTER + INTRA:         -16.985
REMARK INTER:                 -13.592
REMARK INTRA:                  -3.393
REMARK UNBOUND:                -2.911
REMARK SMILES CC[C@@H](C)[C@@H](NC(=O)[C@@H](O)Cc1ccc(O)c(Cl)c1)C(=O)N1[C@H](C(=O)NCCCCN=C(N)N)C[C@H]2CC[C@H](OS(=O)(=O)O)C[C@@H]21
REMARK SMILES IDX 22 1 36 2 46 3 35 4 23 5 45 6 37 7 39 8 38 9 20 10 21 11
REMARK SMILES IDX 5 12 6 13 7 14 8 15 9 17 11 18 12 19 17 20 19 21 15 22 14 23
REMARK SMILES IDX 13 24 18 25 16 26 10 28 3 30 4 31 2 32 1 33 24 34 25 35
REMARK SMILES IDX 26 36 27 38 28 39 29 40 30 41 31 42 32 43 33 44 34 45 40 50
REMARK SMILES IDX 41 51 42 52 43 53 44 54
REMARK H PARENT 6 16 16 27 10 29 26 37 33 46 33 47 34 48 34 49 44 55
ROOT
ATOM      1  N   UNL     1      -6.805   7.662  10.081  1.00  0.00    -0.326 N 
ATOM      2  C   UNL     1      -7.055   9.740  11.159  1.00  0.00     0.014 C 
ATOM      3  C   UNL     1      -7.578   8.300  11.150  1.00  0.00     0.091 C 
ATOM      4  C   UNL     1      -6.770  10.002   9.689  1.00  0.00     0.041 C 
ATOM      5  C   UNL     1      -6.060   8.689   9.311  1.00  0.00     0.175 C 
ATOM      6  C   UNL     1      -7.461   7.735  12.565  1.00  0.00     0.059 C 
ATOM      7  C   UNL     1      -8.004  10.656  11.907  1.00  0.00     0.008 C 
ATOM      8  C   UNL     1      -7.634   8.795  13.674  1.00  0.00     0.143 C 
ATOM      9  C   UNL     1      -8.495   9.986  13.207  1.00  0.00     0.034 C 
ENDROOT
BRANCH   1  10
ATOM     10  C   UNL     1      -6.858   6.365   9.600  1.00  0.00     0.246 C 
ATOM     11  O   UNL     1      -7.927   5.930   9.160  1.00  0.00    -0.272 OA
BRANCH  10  12
ATOM     12  C   UNL     1      -5.564   5.500   9.585  1.00  0.00     0.174 C 
BRANCH  12  13
ATOM     13  N   UNL     1      -5.549   4.647   8.397  1.00  0.00    -0.342 N 
ATOM     14  C   UNL     1      -5.172   5.053   7.137  1.00  0.00     0.249 C 
ATOM     15  O   UNL     1      -4.776   6.183   6.875  1.00  0.00    -0.272 OA
ATOM     16  H   UNL     1      -5.997   3.734   8.427  1.00  0.00     0.164 HD
BRANCH  14  17
ATOM     17  C   UNL     1      -5.281   3.925   6.090  1.00  0.00     0.207 C 
BRANCH  17  18
ATOM     18  C   UNL     1      -3.887   3.440   5.678  1.00  0.00     0.077 C 
BRANCH  18  19
ATOM     19  C   UNL     1      -3.091   2.946   6.865  1.00  0.00    -0.043 A 
ATOM     20  C   UNL     1      -2.657   1.255   8.549  1.00  0.00     0.083 A 
ATOM     21  C   UNL     1      -3.360   1.687   7.423  1.00  0.00     0.028 A 
ATOM     22  C   UNL     1      -1.685   2.075   9.122  1.00  0.00     0.134 A 
ATOM     23  C   UNL     1      -1.408   3.324   8.579  1.00  0.00     0.048 A 
ATOM     24  C   UNL     1      -2.111   3.760   7.454  1.00  0.00     0.008 A 
ATOM     25  Cl  UNL     1      -3.003  -0.295   9.221  1.00  0.00    -0.080 Cl
BRANCH  22  26
ATOM     26  O   UNL     1      -0.978   1.699  10.232  1.00  0.00    -0.506 OA
ATOM     27  H   UNL     1      -0.114   1.372   9.917  1.00  0.00     0.293 HD
ENDBRANCH  22  26
ENDBRANCH  18  19
ENDBRANCH  17  18
BRANCH  17  28
ATOM     28  O   UNL     1      -5.995   4.368   4.924  1.00  0.00    -0.383 OA
ATOM     29  H   UNL     1      -6.257   5.300   5.104  1.00  0.00     0.211 HD
ENDBRANCH  17  28
ENDBRANCH  14  17
ENDBRANCH  12  13
BRANCH  12  30
ATOM     30  C   UNL     1      -5.367   4.692  10.897  1.00  0.00     0.018 C 
ATOM     31  C   UNL     1      -4.758   5.577  11.996  1.00  0.00     0.010 C 
BRANCH  30  32
ATOM     32  C   UNL     1      -4.520   3.409  10.715  1.00  0.00     0.002 C 
ATOM     33  C   UNL     1      -5.106   2.149  11.338  1.00  0.00     0.004 C 
ENDBRANCH  30  32
ENDBRANCH  12  30
ENDBRANCH  10  12
ENDBRANCH   1  10
BRANCH   5  34
ATOM     34  C   UNL     1      -4.564   8.708   9.725  1.00  0.00     0.242 C 
ATOM     35  O   UNL     1      -4.207   8.833  10.896  1.00  0.00    -0.273 OA
ATOM     36  N   UNL     1      -3.667   8.630   8.683  1.00  0.00    -0.354 N 
ATOM     37  H   UNL     1      -4.022   8.650   7.726  1.00  0.00     0.163 HD
BRANCH  36  38
ATOM     38  C   UNL     1      -2.250   8.419   8.896  1.00  0.00     0.116 C 
BRANCH  38  39
ATOM     39  C   UNL     1      -1.722   7.394   7.895  1.00  0.00     0.023 C 
BRANCH  39  40
ATOM     40  C   UNL     1      -0.336   7.753   7.370  1.00  0.00     0.026 C 
BRANCH  40  41
ATOM     41  C   UNL     1       0.491   6.493   7.116  1.00  0.00     0.146 C 
BRANCH  41  42
ATOM     42  N   UNL     1       1.048   6.009   8.372  1.00  0.00    -0.254 NA
ATOM     43  C   UNL     1       2.311   5.827   8.477  1.00  0.00     0.185 C 
ATOM     44  N   UNL     1       3.290   6.016   7.573  1.00  0.00    -0.370 N 
ATOM     45  N   UNL     1       2.804   5.376   9.642  1.00  0.00    -0.370 N 
ATOM     46  H   UNL     1       4.197   5.604   7.707  1.00  0.00     0.159 HD
ATOM     47  H   UNL     1       3.094   6.368   6.641  1.00  0.00     0.159 HD
ATOM     48  H   UNL     1       2.133   5.216  10.381  1.00  0.00     0.159 HD
ATOM     49  H   UNL     1       3.778   5.434   9.879  1.00  0.00     0.159 HD
ENDBRANCH  41  42
ENDBRANCH  40  41
ENDBRANCH  39  40
ENDBRANCH  38  39
ENDBRANCH  36  38
ENDBRANCH   5  34
BRANCH   8  50
ATOM     50  O   UNL     1      -6.358   9.291  14.082  1.00  0.00    -0.245 OA
BRANCH  50  51
ATOM     51  S   UNL     1      -5.656   8.694  15.422  1.00  0.00     0.397 S 
ATOM     52  O   UNL     1      -4.578   9.582  15.794  1.00  0.00    -0.169 OA
ATOM     53  O   UNL     1      -5.448   7.269  15.268  1.00  0.00    -0.169 OA
BRANCH  51  54
ATOM     54  O   UNL     1      -6.804   8.910  16.527  1.00  0.00    -0.264 OA
ATOM     55  H   UNL     1      -7.590   8.401  16.244  1.00  0.00     0.236 HD
ENDBRANCH  51  54
ENDBRANCH  50  51
ENDBRANCH   8  50
TORSDOF 19
ENDMDL
MODEL 35
REMARK VINA RESULT:    -6.940      5.417      8.471
REMARK INTER + INTRA:         -16.951
REMARK INTER:                 -13.368
REMARK INTRA:                  -3.583
REMARK UNBOUND:                -2.911
REMARK SMILES CC[C@@H](C)[C@@H](NC(=O)[C@@H](O)Cc1ccc(O)c(Cl)c1)C(=O)N1[C@H](C(=O)NCCCCN=C(N)N)C[C@H]2CC[C@H](OS(=O)(=O)O)C[C@@H]21
REMARK SMILES IDX 22 1 36 2 46 3 35 4 23 5 45 6 37 7 39 8 38 9 20 10 21 11
REMARK SMILES IDX 5 12 6 13 7 14 8 15 9 17 11 18 12 19 17 20 19 21 15 22 14 23
REMARK SMILES IDX 13 24 18 25 16 26 10 28 3 30 4 31 2 32 1 33 24 34 25 35
REMARK SMILES IDX 26 36 27 38 28 39 29 40 30 41 31 42 32 43 33 44 34 45 40 50
REMARK SMILES IDX 41 51 42 52 43 53 44 54
REMARK H PARENT 6 16 16 27 10 29 26 37 33 46 33 47 34 48 34 49 44 55
ROOT
ATOM      1  N   UNL     1      -6.794   6.519   8.437  1.00  0.00    -0.326 N 
ATOM      2  C   UNL     1      -6.557   8.841   8.131  1.00  0.00     0.014 C 
ATOM      3  C   UNL     1      -7.266   7.604   7.572  1.00  0.00     0.091 C 
ATOM      4  C   UNL     1      -5.215   8.284   8.579  1.00  0.00     0.041 C 
ATOM      5  C   UNL     1      -5.677   6.998   9.289  1.00  0.00     0.175 C 
ATOM      6  C   UNL     1      -8.766   7.888   7.521  1.00  0.00     0.059 C 
ATOM      7  C   UNL     1      -6.593   9.982   7.133  1.00  0.00     0.008 C 
ATOM      8  C   UNL     1      -9.109   9.371   7.260  1.00  0.00     0.143 C 
ATOM      9  C   UNL     1      -7.990  10.096   6.487  1.00  0.00     0.034 C 
ENDROOT
BRANCH   1  10
ATOM     10  C   UNL     1      -7.081   5.165   8.400  1.00  0.00     0.246 C 
ATOM     11  O   UNL     1      -8.087   4.780   7.795  1.00  0.00    -0.272 OA
BRANCH  10  12
ATOM     12  C   UNL     1      -6.112   4.156   9.083  1.00  0.00     0.174 C 
BRANCH  12  13
ATOM     13  N   UNL     1      -5.526   3.270   8.078  1.00  0.00    -0.342 N 
ATOM     14  C   UNL     1      -4.527   3.625   7.198  1.00  0.00     0.249 C 
ATOM     15  O   UNL     1      -3.994   4.727   7.180  1.00  0.00    -0.272 OA
ATOM     16  H   UNL     1      -5.970   2.380   7.870  1.00  0.00     0.164 HD
BRANCH  14  17
ATOM     17  C   UNL     1      -4.134   2.473   6.248  1.00  0.00     0.207 C 
BRANCH  17  18
ATOM     18  C   UNL     1      -2.690   2.032   6.510  1.00  0.00     0.077 C 
BRANCH  18  19
ATOM     19  C   UNL     1      -2.398   1.913   7.988  1.00  0.00    -0.043 A 
ATOM     20  C   UNL     1      -2.889   0.945  10.158  1.00  0.00     0.083 A 
ATOM     21  C   UNL     1      -3.128   1.017   8.785  1.00  0.00     0.028 A 
ATOM     22  C   UNL     1      -1.924   1.766  10.743  1.00  0.00     0.134 A 
ATOM     23  C   UNL     1      -1.194   2.658   9.966  1.00  0.00     0.048 A 
ATOM     24  C   UNL     1      -1.432   2.733   8.592  1.00  0.00     0.008 A 
ATOM     25  Cl  UNL     1      -3.797  -0.162  11.120  1.00  0.00    -0.080 Cl
BRANCH  22  26
ATOM     26  O   UNL     1      -1.663   1.739  12.086  1.00  0.00    -0.506 OA
ATOM     27  H   UNL     1      -0.692   1.740  12.182  1.00  0.00     0.293 HD
ENDBRANCH  22  26
ENDBRANCH  18  19
ENDBRANCH  17  18
BRANCH  17  28
ATOM     28  O   UNL     1      -4.271   2.867   4.874  1.00  0.00    -0.383 OA
ATOM     29  H   UNL     1      -4.187   3.848   4.862  1.00  0.00     0.211 HD
ENDBRANCH  17  28
ENDBRANCH  14  17
ENDBRANCH  12  13
BRANCH  12  30
ATOM     30  C   UNL     1      -6.781   3.373  10.244  1.00  0.00     0.018 C 
ATOM     31  C   UNL     1      -7.932   4.185  10.859  1.00  0.00     0.010 C 
BRANCH  30  32
ATOM     32  C   UNL     1      -5.791   2.934  11.350  1.00  0.00     0.002 C 
ATOM     33  C   UNL     1      -4.664   3.917  11.642  1.00  0.00     0.004 C 
ENDBRANCH  30  32
ENDBRANCH  12  30
ENDBRANCH  10  12
ENDBRANCH   1  10
BRANCH   5  34
ATOM     34  C   UNL     1      -6.171   7.287  10.732  1.00  0.00     0.242 C 
ATOM     35  O   UNL     1      -7.362   7.442  11.001  1.00  0.00    -0.273 OA
ATOM     36  N   UNL     1      -5.177   7.411  11.677  1.00  0.00    -0.354 N 
ATOM     37  H   UNL     1      -4.203   7.392  11.372  1.00  0.00     0.163 HD
BRANCH  36  38
ATOM     38  C   UNL     1      -5.462   7.465  13.096  1.00  0.00     0.116 C 
BRANCH  38  39
ATOM     39  C   UNL     1      -5.728   8.909  13.517  1.00  0.00     0.023 C 
BRANCH  39  40
ATOM     40  C   UNL     1      -6.795   9.012  14.602  1.00  0.00     0.026 C 
BRANCH  40  41
ATOM     41  C   UNL     1      -7.838  10.068  14.238  1.00  0.00     0.146 C 
BRANCH  41  42
ATOM     42  N   UNL     1      -9.150   9.446  14.122  1.00  0.00    -0.254 NA
ATOM     43  C   UNL     1      -9.654   9.242  12.963  1.00  0.00     0.185 C 
ATOM     44  N   UNL     1      -9.158   9.517  11.743  1.00  0.00    -0.370 N 
ATOM     45  N   UNL     1     -10.867   8.671  12.878  1.00  0.00    -0.370 N 
ATOM     46  H   UNL     1      -9.758   9.529  10.936  1.00  0.00     0.159 HD
ATOM     47  H   UNL     1      -8.242   9.939  11.623  1.00  0.00     0.159 HD
ATOM     48  H   UNL     1     -11.308   8.423  13.753  1.00  0.00     0.159 HD
ATOM     49  H   UNL     1     -11.220   8.267  12.029  1.00  0.00     0.159 HD
ENDBRANCH  41  42
ENDBRANCH  40  41
ENDBRANCH  39  40
ENDBRANCH  38  39
ENDBRANCH  36  38
ENDBRANCH   5  34
BRANCH   8  50
ATOM     50  O   UNL     1      -9.319  10.051   8.498  1.00  0.00    -0.245 OA
BRANCH  50  51
ATOM     51  S   UNL     1     -10.632  10.994   8.683  1.00  0.00     0.397 S 
ATOM     52  O   UNL     1     -11.608  10.599   7.693  1.00  0.00    -0.169 OA
ATOM     53  O   UNL     1     -10.221  12.374   8.836  1.00  0.00    -0.169 OA
BRANCH  51  54
ATOM     54  O   UNL     1     -11.211  10.489  10.095  1.00  0.00    -0.264 OA
ATOM     55  H   UNL     1     -10.583   9.832  10.458  1.00  0.00     0.236 HD
ENDBRANCH  51  54
ENDBRANCH  50  51
ENDBRANCH   8  50
TORSDOF 19
ENDMDL
MODEL 36
REMARK VINA RESULT:    -6.927      4.213      8.789
REMARK INTER + INTRA:         -16.925
REMARK INTER:                 -13.462
REMARK INTRA:                  -3.463
REMARK UNBOUND:                -2.911
REMARK SMILES CC[C@@H](C)[C@@H](NC(=O)[C@@H](O)Cc1ccc(O)c(Cl)c1)C(=O)N1[C@H](C(=O)NCCCCN=C(N)N)C[C@H]2CC[C@H](OS(=O)(=O)O)C[C@@H]21
REMARK SMILES IDX 22 1 36 2 46 3 35 4 23 5 45 6 37 7 39 8 38 9 20 10 21 11
REMARK SMILES IDX 5 12 6 13 7 14 8 15 9 17 11 18 12 19 17 20 19 21 15 22 14 23
REMARK SMILES IDX 13 24 18 25 16 26 10 28 3 30 4 31 2 32 1 33 24 34 25 35
REMARK SMILES IDX 26 36 27 38 28 39 29 40 30 41 31 42 32 43 33 44 34 45 40 50
REMARK SMILES IDX 41 51 42 52 43 53 44 54
REMARK H PARENT 6 16 16 27 10 29 26 37 33 46 33 47 34 48 34 49 44 55
ROOT
ATOM      1  N   UNL     1      -5.336   7.092  11.594  1.00  0.00    -0.326 N 
ATOM      2  C   UNL     1      -6.539   8.970  10.841  1.00  0.00     0.014 C 
ATOM      3  C   UNL     1      -6.628   7.760  11.775  1.00  0.00     0.091 C 
ATOM      4  C   UNL     1      -5.720   8.435   9.676  1.00  0.00     0.041 C 
ATOM      5  C   UNL     1      -4.613   7.687  10.443  1.00  0.00     0.175 C 
ATOM      6  C   UNL     1      -6.998   8.255  13.172  1.00  0.00     0.059 C 
ATOM      7  C   UNL     1      -7.913   9.554  10.577  1.00  0.00     0.008 C 
ATOM      8  C   UNL     1      -7.893   9.513  13.169  1.00  0.00     0.143 C 
ATOM      9  C   UNL     1      -8.735   9.622  11.881  1.00  0.00     0.034 C 
ENDROOT
BRANCH   1  10
ATOM     10  C   UNL     1      -4.850   5.930  12.169  1.00  0.00     0.246 C 
ATOM     11  O   UNL     1      -4.171   6.006  13.198  1.00  0.00    -0.272 OA
BRANCH  10  12
ATOM     12  C   UNL     1      -5.203   4.554  11.533  1.00  0.00     0.174 C 
BRANCH  12  13
ATOM     13  N   UNL     1      -3.996   3.739  11.406  1.00  0.00    -0.342 N 
ATOM     14  C   UNL     1      -3.910   2.400  11.715  1.00  0.00     0.249 C 
ATOM     15  O   UNL     1      -4.855   1.729  12.110  1.00  0.00    -0.272 OA
ATOM     16  H   UNL     1      -3.099   4.189  11.241  1.00  0.00     0.164 HD
BRANCH  14  17
ATOM     17  C   UNL     1      -2.494   1.826  11.490  1.00  0.00     0.207 C 
BRANCH  17  18
ATOM     18  C   UNL     1      -2.529   0.712  10.439  1.00  0.00     0.077 C 
BRANCH  18  19
ATOM     19  C   UNL     1      -2.538   1.268   9.032  1.00  0.00    -0.043 A 
ATOM     20  C   UNL     1      -1.901   2.990   7.447  1.00  0.00     0.083 A 
ATOM     21  C   UNL     1      -1.850   2.454   8.735  1.00  0.00     0.028 A 
ATOM     22  C   UNL     1      -2.639   2.348   6.452  1.00  0.00     0.134 A 
ATOM     23  C   UNL     1      -3.325   1.172   6.733  1.00  0.00     0.048 A 
ATOM     24  C   UNL     1      -3.277   0.634   8.021  1.00  0.00     0.008 A 
ATOM     25  Cl  UNL     1      -1.049   4.449   7.101  1.00  0.00    -0.080 Cl
BRANCH  22  26
ATOM     26  O   UNL     1      -2.727   2.841   5.179  1.00  0.00    -0.506 OA
ATOM     27  H   UNL     1      -2.875   2.076   4.592  1.00  0.00     0.293 HD
ENDBRANCH  22  26
ENDBRANCH  18  19
ENDBRANCH  17  18
BRANCH  17  28
ATOM     28  O   UNL     1      -1.945   1.310  12.713  1.00  0.00    -0.383 OA
ATOM     29  H   UNL     1      -1.541   0.442  12.485  1.00  0.00     0.211 HD
ENDBRANCH  17  28
ENDBRANCH  14  17
ENDBRANCH  12  13
BRANCH  12  30
ATOM     30  C   UNL     1      -5.969   4.692  10.189  1.00  0.00     0.018 C 
ATOM     31  C   UNL     1      -7.267   3.872  10.213  1.00  0.00     0.010 C 
BRANCH  30  32
ATOM     32  C   UNL     1      -5.122   4.313   8.950  1.00  0.00     0.002 C 
ATOM     33  C   UNL     1      -5.890   3.642   7.818  1.00  0.00     0.004 C 
ENDBRANCH  30  32
ENDBRANCH  12  30
ENDBRANCH  10  12
ENDBRANCH   1  10
BRANCH   5  34
ATOM     34  C   UNL     1      -3.502   8.654  10.932  1.00  0.00     0.242 C 
ATOM     35  O   UNL     1      -3.525   9.171  12.048  1.00  0.00    -0.273 OA
ATOM     36  N   UNL     1      -2.520   8.931  10.007  1.00  0.00    -0.354 N 
ATOM     37  H   UNL     1      -2.620   8.567   9.059  1.00  0.00     0.163 HD
BRANCH  36  38
ATOM     38  C   UNL     1      -1.303   9.634  10.360  1.00  0.00     0.116 C 
BRANCH  38  39
ATOM     39  C   UNL     1      -0.221   9.350   9.321  1.00  0.00     0.023 C 
BRANCH  39  40
ATOM     40  C   UNL     1      -0.590   8.194   8.397  1.00  0.00     0.026 C 
BRANCH  40  41
ATOM     41  C   UNL     1       0.666   7.491   7.881  1.00  0.00     0.146 C 
BRANCH  41  42
ATOM     42  N   UNL     1       1.410   6.928   8.999  1.00  0.00    -0.254 NA
ATOM     43  C   UNL     1       2.310   6.044   8.781  1.00  0.00     0.185 C 
ATOM     44  N   UNL     1       2.725   5.501   7.622  1.00  0.00    -0.370 N 
ATOM     45  N   UNL     1       2.982   5.535   9.826  1.00  0.00    -0.370 N 
ATOM     46  H   UNL     1       3.261   4.649   7.618  1.00  0.00     0.159 HD
ATOM     47  H   UNL     1       2.332   5.783   6.730  1.00  0.00     0.159 HD
ATOM     48  H   UNL     1       2.736   5.898  10.737  1.00  0.00     0.159 HD
ATOM     49  H   UNL     1       3.844   5.029   9.724  1.00  0.00     0.159 HD
ENDBRANCH  41  42
ENDBRANCH  40  41
ENDBRANCH  39  40
ENDBRANCH  38  39
ENDBRANCH  36  38
ENDBRANCH   5  34
BRANCH   8  50
ATOM     50  O   UNL     1      -7.089  10.687  13.286  1.00  0.00    -0.245 OA
BRANCH  50  51
ATOM     51  S   UNL     1      -7.118  11.546  14.667  1.00  0.00     0.397 S 
ATOM     52  O   UNL     1      -5.973  12.428  14.668  1.00  0.00    -0.169 OA
ATOM     53  O   UNL     1      -7.399  10.665  15.781  1.00  0.00    -0.169 OA
BRANCH  51  54
ATOM     54  O   UNL     1      -8.399  12.492  14.446  1.00  0.00    -0.264 OA
ATOM     55  H   UNL     1      -8.945  12.095  13.738  1.00  0.00     0.236 HD
ENDBRANCH  51  54
ENDBRANCH  50  51
ENDBRANCH   8  50
TORSDOF 19
ENDMDL
MODEL 37
REMARK VINA RESULT:    -6.871     11.404     14.871
REMARK INTER + INTRA:         -16.810
REMARK INTER:                 -13.509
REMARK INTRA:                  -3.301
REMARK UNBOUND:                -2.911
REMARK SMILES CC[C@@H](C)[C@@H](NC(=O)[C@@H](O)Cc1ccc(O)c(Cl)c1)C(=O)N1[C@H](C(=O)NCCCCN=C(N)N)C[C@H]2CC[C@H](OS(=O)(=O)O)C[C@@H]21
REMARK SMILES IDX 22 1 36 2 46 3 35 4 23 5 45 6 37 7 39 8 38 9 20 10 21 11
REMARK SMILES IDX 5 12 6 13 7 14 8 15 9 17 11 18 12 19 17 20 19 21 15 22 14 23
REMARK SMILES IDX 13 24 18 25 16 26 10 28 3 30 4 31 2 32 1 33 24 34 25 35
REMARK SMILES IDX 26 36 27 38 28 39 29 40 30 41 31 42 32 43 33 44 34 45 40 50
REMARK SMILES IDX 41 51 42 52 43 53 44 54
REMARK H PARENT 6 16 16 27 10 29 26 37 33 46 33 47 34 48 34 49 44 55
ROOT
ATOM      1  N   UNL     1      -6.698   2.979  -2.844  1.00  0.00    -0.326 N 
ATOM      2  C   UNL     1      -5.132   4.546  -2.049  1.00  0.00     0.014 C 
ATOM      3  C   UNL     1      -6.227   4.343  -3.100  1.00  0.00     0.091 C 
ATOM      4  C   UNL     1      -4.514   3.161  -1.937  1.00  0.00     0.041 C 
ATOM      5  C   UNL     1      -5.787   2.297  -1.891  1.00  0.00     0.175 C 
ATOM      6  C   UNL     1      -7.229   5.490  -2.981  1.00  0.00     0.059 C 
ATOM      7  C   UNL     1      -4.251   5.727  -2.406  1.00  0.00     0.008 C 
ATOM      8  C   UNL     1      -6.598   6.822  -2.522  1.00  0.00     0.143 C 
ATOM      9  C   UNL     1      -5.105   6.915  -2.897  1.00  0.00     0.034 C 
ENDROOT
BRANCH   1  10
ATOM     10  C   UNL     1      -7.670   2.238  -3.495  1.00  0.00     0.246 C 
ATOM     11  O   UNL     1      -8.519   1.640  -2.826  1.00  0.00    -0.272 OA
BRANCH  10  12
ATOM     12  C   UNL     1      -7.699   2.210  -5.051  1.00  0.00     0.174 C 
BRANCH  12  13
ATOM     13  N   UNL     1      -6.413   1.741  -5.565  1.00  0.00    -0.342 N 
ATOM     14  C   UNL     1      -6.153   0.458  -5.991  1.00  0.00     0.249 C 
ATOM     15  O   UNL     1      -6.989  -0.436  -6.013  1.00  0.00    -0.272 OA
ATOM     16  H   UNL     1      -5.586   2.324  -5.460  1.00  0.00     0.164 HD
BRANCH  14  17
ATOM     17  C   UNL     1      -4.694   0.271  -6.461  1.00  0.00     0.207 C 
BRANCH  17  18
ATOM     18  C   UNL     1      -4.649  -0.030  -7.963  1.00  0.00     0.077 C 
BRANCH  18  19
ATOM     19  C   UNL     1      -4.125   1.146  -8.756  1.00  0.00    -0.043 A 
ATOM     20  C   UNL     1      -4.521   3.213  -9.962  1.00  0.00     0.083 A 
ATOM     21  C   UNL     1      -5.000   2.155  -9.189  1.00  0.00     0.028 A 
ATOM     22  C   UNL     1      -3.171   3.270 -10.309  1.00  0.00     0.134 A 
ATOM     23  C   UNL     1      -2.293   2.278  -9.886  1.00  0.00     0.048 A 
ATOM     24  C   UNL     1      -2.770   1.216  -9.113  1.00  0.00     0.008 A 
ATOM     25  Cl  UNL     1      -5.611   4.443 -10.485  1.00  0.00    -0.080 Cl
BRANCH  22  26
ATOM     26  O   UNL     1      -2.657   4.282 -11.074  1.00  0.00    -0.506 OA
ATOM     27  H   UNL     1      -1.686   4.203 -11.028  1.00  0.00     0.293 HD
ENDBRANCH  22  26
ENDBRANCH  18  19
ENDBRANCH  17  18
BRANCH  17  28
ATOM     28  O   UNL     1      -4.052  -0.795  -5.742  1.00  0.00    -0.383 OA
ATOM     29  H   UNL     1      -4.089  -1.581  -6.333  1.00  0.00     0.211 HD
ENDBRANCH  17  28
ENDBRANCH  14  17
ENDBRANCH  12  13
BRANCH  12  30
ATOM     30  C   UNL     1      -8.123   3.570  -5.668  1.00  0.00     0.018 C 
ATOM     31  C   UNL     1      -9.611   3.849  -5.405  1.00  0.00     0.010 C 
BRANCH  30  32
ATOM     32  C   UNL     1      -7.819   3.688  -7.181  1.00  0.00     0.002 C 
ATOM     33  C   UNL     1      -8.042   5.068  -7.785  1.00  0.00     0.004 C 
ENDBRANCH  30  32
ENDBRANCH  12  30
ENDBRANCH  10  12
ENDBRANCH   1  10
BRANCH   5  34
ATOM     34  C   UNL     1      -6.405   2.264  -0.468  1.00  0.00     0.242 C 
ATOM     35  O   UNL     1      -5.874   1.662   0.466  1.00  0.00    -0.273 OA
ATOM     36  N   UNL     1      -7.614   2.910  -0.338  1.00  0.00    -0.354 N 
ATOM     37  H   UNL     1      -8.062   3.287  -1.175  1.00  0.00     0.163 HD
BRANCH  36  38
ATOM     38  C   UNL     1      -8.222   3.162   0.952  1.00  0.00     0.116 C 
BRANCH  38  39
ATOM     39  C   UNL     1      -9.600   3.790   0.761  1.00  0.00     0.023 C 
BRANCH  39  40
ATOM     40  C   UNL     1      -9.996   3.894  -0.708  1.00  0.00     0.026 C 
BRANCH  40  41
ATOM     41  C   UNL     1     -11.467   3.525  -0.901  1.00  0.00     0.146 C 
BRANCH  41  42
ATOM     42  N   UNL     1     -11.691   3.094  -2.274  1.00  0.00    -0.254 NA
ATOM     43  C   UNL     1     -11.588   1.854  -2.573  1.00  0.00     0.185 C 
ATOM     44  N   UNL     1     -11.291   0.798  -1.794  1.00  0.00    -0.370 N 
ATOM     45  N   UNL     1     -11.794   1.477  -3.846  1.00  0.00    -0.370 N 
ATOM     46  H   UNL     1     -11.005  -0.076  -2.202  1.00  0.00     0.159 HD
ATOM     47  H   UNL     1     -11.118   0.901  -0.799  1.00  0.00     0.159 HD
ATOM     48  H   UNL     1     -12.032   2.212  -4.498  1.00  0.00     0.159 HD
ATOM     49  H   UNL     1     -11.965   0.523  -4.110  1.00  0.00     0.159 HD
ENDBRANCH  41  42
ENDBRANCH  40  41
ENDBRANCH  39  40
ENDBRANCH  38  39
ENDBRANCH  36  38
ENDBRANCH   5  34
BRANCH   8  50
ATOM     50  O   UNL     1      -6.719   6.959  -1.106  1.00  0.00    -0.245 OA
BRANCH  50  51
ATOM     51  S   UNL     1      -7.857   7.943  -0.488  1.00  0.00     0.397 S 
ATOM     52  O   UNL     1      -8.508   7.246   0.599  1.00  0.00    -0.169 OA
ATOM     53  O   UNL     1      -8.615   8.545  -1.566  1.00  0.00    -0.169 OA
BRANCH  51  54
ATOM     54  O   UNL     1      -6.969   9.094   0.198  1.00  0.00    -0.264 OA
ATOM     55  H   UNL     1      -6.901   8.889   1.153  1.00  0.00     0.236 HD
ENDBRANCH  51  54
ENDBRANCH  50  51
ENDBRANCH   8  50
TORSDOF 19
ENDMDL
MODEL 38
REMARK VINA RESULT:    -6.869      4.279      9.698
REMARK INTER + INTRA:         -16.806
REMARK INTER:                 -14.430
REMARK INTRA:                  -2.376
REMARK UNBOUND:                -2.911
REMARK SMILES CC[C@@H](C)[C@@H](NC(=O)[C@@H](O)Cc1ccc(O)c(Cl)c1)C(=O)N1[C@H](C(=O)NCCCCN=C(N)N)C[C@H]2CC[C@H](OS(=O)(=O)O)C[C@@H]21
REMARK SMILES IDX 22 1 36 2 46 3 35 4 23 5 45 6 37 7 39 8 38 9 20 10 21 11
REMARK SMILES IDX 5 12 6 13 7 14 8 15 9 17 11 18 12 19 17 20 19 21 15 22 14 23
REMARK SMILES IDX 13 24 18 25 16 26 10 28 3 30 4 31 2 32 1 33 24 34 25 35
REMARK SMILES IDX 26 36 27 38 28 39 29 40 30 41 31 42 32 43 33 44 34 45 40 50
REMARK SMILES IDX 41 51 42 52 43 53 44 54
REMARK H PARENT 6 16 16 27 10 29 26 37 33 46 33 47 34 48 34 49 44 55
ROOT
ATOM      1  N   UNL     1       0.442   6.636   7.553  1.00  0.00    -0.326 N 
ATOM      2  C   UNL     1       1.660   8.617   7.918  1.00  0.00     0.014 C 
ATOM      3  C   UNL     1       1.520   7.167   8.391  1.00  0.00     0.091 C 
ATOM      4  C   UNL     1       0.227   8.998   7.579  1.00  0.00     0.041 C 
ATOM      5  C   UNL     1      -0.215   7.739   6.810  1.00  0.00     0.175 C 
ATOM      6  C   UNL     1       2.892   6.500   8.315  1.00  0.00     0.059 C 
ATOM      7  C   UNL     1       2.431   9.445   8.926  1.00  0.00     0.008 C 
ATOM      8  C   UNL     1       4.069   7.467   8.570  1.00  0.00     0.143 C 
ATOM      9  C   UNL     1       3.654   8.664   9.450  1.00  0.00     0.034 C 
ENDROOT
BRANCH   1  10
ATOM     10  C   UNL     1      -0.136   5.377   7.543  1.00  0.00     0.246 C 
ATOM     11  O   UNL     1       0.527   4.408   7.929  1.00  0.00    -0.272 OA
BRANCH  10  12
ATOM     12  C   UNL     1      -1.615   5.216   7.088  1.00  0.00     0.174 C 
BRANCH  12  13
ATOM     13  N   UNL     1      -2.486   5.094   8.256  1.00  0.00    -0.342 N 
ATOM     14  C   UNL     1      -3.623   5.839   8.477  1.00  0.00     0.249 C 
ATOM     15  O   UNL     1      -4.050   6.678   7.694  1.00  0.00    -0.272 OA
ATOM     16  H   UNL     1      -2.177   4.553   9.060  1.00  0.00     0.164 HD
BRANCH  14  17
ATOM     17  C   UNL     1      -4.316   5.488   9.811  1.00  0.00     0.207 C 
BRANCH  17  18
ATOM     18  C   UNL     1      -5.199   4.246   9.645  1.00  0.00     0.077 C 
BRANCH  18  19
ATOM     19  C   UNL     1      -4.479   2.985  10.065  1.00  0.00    -0.043 A 
ATOM     20  C   UNL     1      -3.166   1.025   9.500  1.00  0.00     0.083 A 
ATOM     21  C   UNL     1      -3.788   2.214   9.117  1.00  0.00     0.028 A 
ATOM     22  C   UNL     1      -3.232   0.598  10.826  1.00  0.00     0.134 A 
ATOM     23  C   UNL     1      -3.913   1.351  11.775  1.00  0.00     0.048 A 
ATOM     24  C   UNL     1      -4.537   2.541  11.396  1.00  0.00     0.008 A 
ATOM     25  Cl  UNL     1      -2.322   0.092   8.320  1.00  0.00    -0.080 Cl
BRANCH  22  26
ATOM     26  O   UNL     1      -2.647  -0.567  11.246  1.00  0.00    -0.506 OA
ATOM     27  H   UNL     1      -2.311  -0.402  12.146  1.00  0.00     0.293 HD
ENDBRANCH  22  26
ENDBRANCH  18  19
ENDBRANCH  17  18
BRANCH  17  28
ATOM     28  O   UNL     1      -5.117   6.583  10.281  1.00  0.00    -0.383 OA
ATOM     29  H   UNL     1      -6.041   6.247  10.321  1.00  0.00     0.211 HD
ENDBRANCH  17  28
ENDBRANCH  14  17
ENDBRANCH  12  13
BRANCH  12  30
ATOM     30  C   UNL     1      -1.810   4.052   6.079  1.00  0.00     0.018 C 
ATOM     31  C   UNL     1      -0.923   4.249   4.840  1.00  0.00     0.010 C 
BRANCH  30  32
ATOM     32  C   UNL     1      -3.282   3.839   5.652  1.00  0.00     0.002 C 
ATOM     33  C   UNL     1      -3.706   2.387   5.475  1.00  0.00     0.004 C 
ENDBRANCH  30  32
ENDBRANCH  12  30
ENDBRANCH  10  12
ENDBRANCH   1  10
BRANCH   5  34
ATOM     34  C   UNL     1       0.265   7.772   5.335  1.00  0.00     0.242 C 
ATOM     35  O   UNL     1       1.083   6.966   4.891  1.00  0.00    -0.273 OA
ATOM     36  N   UNL     1      -0.248   8.799   4.575  1.00  0.00    -0.354 N 
ATOM     37  H   UNL     1      -0.827   9.505   5.030  1.00  0.00     0.163 HD
BRANCH  36  38
ATOM     38  C   UNL     1      -0.080   8.855   3.137  1.00  0.00     0.116 C 
BRANCH  38  39
ATOM     39  C   UNL     1      -1.024   7.861   2.465  1.00  0.00     0.023 C 
BRANCH  39  40
ATOM     40  C   UNL     1      -0.303   6.943   1.484  1.00  0.00     0.026 C 
BRANCH  40  41
ATOM     41  C   UNL     1      -0.882   7.091   0.077  1.00  0.00     0.146 C 
BRANCH  41  42
ATOM     42  N   UNL     1      -0.752   8.473  -0.366  1.00  0.00    -0.254 NA
ATOM     43  C   UNL     1      -0.615   8.728  -1.613  1.00  0.00     0.185 C 
ATOM     44  N   UNL     1      -0.568   7.892  -2.667  1.00  0.00    -0.370 N 
ATOM     45  N   UNL     1      -0.493  10.008  -2.001  1.00  0.00    -0.370 N 
ATOM     46  H   UNL     1      -0.214   8.206  -3.554  1.00  0.00     0.159 HD
ATOM     47  H   UNL     1      -0.659   6.887  -2.555  1.00  0.00     0.159 HD
ATOM     48  H   UNL     1      -0.527  10.703  -1.268  1.00  0.00     0.159 HD
ATOM     49  H   UNL     1      -0.620  10.302  -2.953  1.00  0.00     0.159 HD
ENDBRANCH  41  42
ENDBRANCH  40  41
ENDBRANCH  39  40
ENDBRANCH  38  39
ENDBRANCH  36  38
ENDBRANCH   5  34
BRANCH   8  50
ATOM     50  O   UNL     1       4.569   7.968   7.330  1.00  0.00    -0.245 OA
BRANCH  50  51
ATOM     51  S   UNL     1       6.168   7.930   7.035  1.00  0.00     0.397 S 
ATOM     52  O   UNL     1       6.767   9.084   7.666  1.00  0.00    -0.169 OA
ATOM     53  O   UNL     1       6.397   7.623   5.638  1.00  0.00    -0.169 OA
BRANCH  51  54
ATOM     54  O   UNL     1       6.639   6.662   7.905  1.00  0.00    -0.264 OA
ATOM     55  H   UNL     1       7.610   6.720   8.016  1.00  0.00     0.236 HD
ENDBRANCH  51  54
ENDBRANCH  50  51
ENDBRANCH   8  50
TORSDOF 19
ENDMDL
MODEL 39
REMARK VINA RESULT:    -6.862     10.485     13.429
REMARK INTER + INTRA:         -16.793
REMARK INTER:                 -13.034
REMARK INTRA:                  -3.758
REMARK UNBOUND:                -2.911
REMARK SMILES CC[C@@H](C)[C@@H](NC(=O)[C@@H](O)Cc1ccc(O)c(Cl)c1)C(=O)N1[C@H](C(=O)NCCCCN=C(N)N)C[C@H]2CC[C@H](OS(=O)(=O)O)C[C@@H]21
REMARK SMILES IDX 22 1 36 2 46 3 35 4 23 5 45 6 37 7 39 8 38 9 20 10 21 11
REMARK SMILES IDX 5 12 6 13 7 14 8 15 9 17 11 18 12 19 17 20 19 21 15 22 14 23
REMARK SMILES IDX 13 24 18 25 16 26 10 28 3 30 4 31 2 32 1 33 24 34 25 35
REMARK SMILES IDX 26 36 27 38 28 39 29 40 30 41 31 42 32 43 33 44 34 45 40 50
REMARK SMILES IDX 41 51 42 52 43 53 44 54
REMARK H PARENT 6 16 16 27 10 29 26 37 33 46 33 47 34 48 34 49 44 55
ROOT
ATOM      1  N   UNL     1      -6.139   4.190  -4.605  1.00  0.00    -0.326 N 
ATOM      2  C   UNL     1      -7.248   3.609  -6.599  1.00  0.00     0.014 C 
ATOM      3  C   UNL     1      -5.856   3.812  -5.993  1.00  0.00     0.091 C 
ATOM      4  C   UNL     1      -8.081   4.661  -5.884  1.00  0.00     0.041 C 
ATOM      5  C   UNL     1      -7.588   4.462  -4.438  1.00  0.00     0.175 C 
ATOM      6  C   UNL     1      -5.030   2.552  -6.246  1.00  0.00     0.059 C 
ATOM      7  C   UNL     1      -7.185   3.615  -8.114  1.00  0.00     0.008 C 
ATOM      8  C   UNL     1      -5.391   1.827  -7.561  1.00  0.00     0.143 C 
ATOM      9  C   UNL     1      -5.978   2.791  -8.612  1.00  0.00     0.034 C 
ENDROOT
BRANCH   1  10
ATOM     10  C   UNL     1      -5.269   4.516  -3.579  1.00  0.00     0.246 C 
ATOM     11  O   UNL     1      -4.673   3.611  -2.985  1.00  0.00    -0.272 OA
BRANCH  10  12
ATOM     12  C   UNL     1      -5.027   6.012  -3.224  1.00  0.00     0.174 C 
BRANCH  12  13
ATOM     13  N   UNL     1      -3.896   6.531  -3.993  1.00  0.00    -0.342 N 
ATOM     14  C   UNL     1      -3.915   7.682  -4.748  1.00  0.00     0.249 C 
ATOM     15  O   UNL     1      -4.886   8.423  -4.837  1.00  0.00    -0.272 OA
ATOM     16  H   UNL     1      -3.077   5.946  -4.141  1.00  0.00     0.164 HD
BRANCH  14  17
ATOM     17  C   UNL     1      -2.571   7.952  -5.456  1.00  0.00     0.207 C 
BRANCH  17  18
ATOM     18  C   UNL     1      -2.083   9.373  -5.156  1.00  0.00     0.077 C 
BRANCH  18  19
ATOM     19  C   UNL     1      -1.836   9.582  -3.679  1.00  0.00    -0.043 A 
ATOM     20  C   UNL     1      -0.653   9.000  -1.642  1.00  0.00     0.083 A 
ATOM     21  C   UNL     1      -0.845   8.841  -3.015  1.00  0.00     0.028 A 
ATOM     22  C   UNL     1      -1.447   9.896  -0.925  1.00  0.00     0.134 A 
ATOM     23  C   UNL     1      -2.431  10.636  -1.570  1.00  0.00     0.048 A 
ATOM     24  C   UNL     1      -2.627  10.477  -2.944  1.00  0.00     0.008 A 
ATOM     25  Cl  UNL     1       0.568   8.080  -0.844  1.00  0.00    -0.080 Cl
BRANCH  22  26
ATOM     26  O   UNL     1      -1.303  10.078   0.424  1.00  0.00    -0.506 OA
ATOM     27  H   UNL     1      -0.383   9.839   0.642  1.00  0.00     0.293 HD
ENDBRANCH  22  26
ENDBRANCH  18  19
ENDBRANCH  17  18
BRANCH  17  28
ATOM     28  O   UNL     1      -2.691   7.780  -6.878  1.00  0.00    -0.383 OA
ATOM     29  H   UNL     1      -2.381   6.866  -7.068  1.00  0.00     0.211 HD
ENDBRANCH  17  28
ENDBRANCH  14  17
ENDBRANCH  12  13
BRANCH  12  30
ATOM     30  C   UNL     1      -4.864   6.249  -1.699  1.00  0.00     0.018 C 
ATOM     31  C   UNL     1      -6.011   7.115  -1.154  1.00  0.00     0.010 C 
BRANCH  30  32
ATOM     32  C   UNL     1      -3.499   6.866  -1.308  1.00  0.00     0.002 C 
ATOM     33  C   UNL     1      -2.377   5.865  -1.065  1.00  0.00     0.004 C 
ENDBRANCH  30  32
ENDBRANCH  12  30
ENDBRANCH  10  12
ENDBRANCH   1  10
BRANCH   5  34
ATOM     34  C   UNL     1      -8.297   3.265  -3.751  1.00  0.00     0.242 C 
ATOM     35  O   UNL     1      -9.510   3.076  -3.846  1.00  0.00    -0.273 OA
ATOM     36  N   UNL     1      -7.482   2.462  -2.986  1.00  0.00    -0.354 N 
ATOM     37  H   UNL     1      -6.509   2.739  -2.848  1.00  0.00     0.163 HD
BRANCH  36  38
ATOM     38  C   UNL     1      -7.927   1.191  -2.454  1.00  0.00     0.116 C 
BRANCH  38  39
ATOM     39  C   UNL     1      -7.424   1.023  -1.022  1.00  0.00     0.023 C 
BRANCH  39  40
ATOM     40  C   UNL     1      -6.447   2.121  -0.615  1.00  0.00     0.026 C 
BRANCH  40  41
ATOM     41  C   UNL     1      -7.079   3.053   0.418  1.00  0.00     0.146 C 
BRANCH  41  42
ATOM     42  N   UNL     1      -7.667   4.205  -0.252  1.00  0.00    -0.254 NA
ATOM     43  C   UNL     1      -8.940   4.335  -0.287  1.00  0.00     0.185 C 
ATOM     44  N   UNL     1      -9.905   3.546   0.220  1.00  0.00    -0.370 N 
ATOM     45  N   UNL     1      -9.464   5.402  -0.914  1.00  0.00    -0.370 N 
ATOM     46  H   UNL     1     -10.858   3.637  -0.089  1.00  0.00     0.159 HD
ATOM     47  H   UNL     1      -9.685   2.702   0.739  1.00  0.00     0.159 HD
ATOM     48  H   UNL     1      -8.804   6.052  -1.318  1.00  0.00     0.159 HD
ATOM     49  H   UNL     1     -10.415   5.697  -0.784  1.00  0.00     0.159 HD
ENDBRANCH  41  42
ENDBRANCH  40  41
ENDBRANCH  39  40
ENDBRANCH  38  39
ENDBRANCH  36  38
ENDBRANCH   5  34
BRANCH   8  50
ATOM     50  O   UNL     1      -6.345   0.796  -7.307  1.00  0.00    -0.245 OA
BRANCH  50  51
ATOM     51  S   UNL     1      -5.862  -0.757  -7.279  1.00  0.00     0.397 S 
ATOM     52  O   UNL     1      -7.024  -1.589  -7.496  1.00  0.00    -0.169 OA
ATOM     53  O   UNL     1      -4.974  -0.970  -6.156  1.00  0.00    -0.169 OA
BRANCH  51  54
ATOM     54  O   UNL     1      -4.991  -0.861  -8.627  1.00  0.00    -0.264 OA
ATOM     55  H   UNL     1      -4.518  -1.718  -8.611  1.00  0.00     0.236 HD
ENDBRANCH  51  54
ENDBRANCH  50  51
ENDBRANCH   8  50
TORSDOF 19
ENDMDL
MODEL 40
REMARK VINA RESULT:    -6.822     11.336     14.601
REMARK INTER + INTRA:         -16.712
REMARK INTER:                 -12.588
REMARK INTRA:                  -4.124
REMARK UNBOUND:                -2.911
REMARK SMILES CC[C@@H](C)[C@@H](NC(=O)[C@@H](O)Cc1ccc(O)c(Cl)c1)C(=O)N1[C@H](C(=O)NCCCCN=C(N)N)C[C@H]2CC[C@H](OS(=O)(=O)O)C[C@@H]21
REMARK SMILES IDX 22 1 36 2 46 3 35 4 23 5 45 6 37 7 39 8 38 9 20 10 21 11
REMARK SMILES IDX 5 12 6 13 7 14 8 15 9 17 11 18 12 19 17 20 19 21 15 22 14 23
REMARK SMILES IDX 13 24 18 25 16 26 10 28 3 30 4 31 2 32 1 33 24 34 25 35
REMARK SMILES IDX 26 36 27 38 28 39 29 40 30 41 31 42 32 43 33 44 34 45 40 50
REMARK SMILES IDX 41 51 42 52 43 53 44 54
REMARK H PARENT 6 16 16 27 10 29 26 37 33 46 33 47 34 48 34 49 44 55
ROOT
ATOM      1  N   UNL     1      -6.060   4.687  -2.420  1.00  0.00    -0.326 N 
ATOM      2  C   UNL     1      -7.182   3.329  -0.858  1.00  0.00     0.014 C 
ATOM      3  C   UNL     1      -7.256   4.681  -1.573  1.00  0.00     0.091 C 
ATOM      4  C   UNL     1      -5.686   3.132  -0.667  1.00  0.00     0.041 C 
ATOM      5  C   UNL     1      -5.177   3.550  -2.059  1.00  0.00     0.175 C 
ATOM      6  C   UNL     1      -8.622   4.797  -2.246  1.00  0.00     0.059 C 
ATOM      7  C   UNL     1      -8.095   3.304   0.352  1.00  0.00     0.008 C 
ATOM      8  C   UNL     1      -9.752   4.066  -1.490  1.00  0.00     0.143 C 
ATOM      9  C   UNL     1      -9.457   3.948   0.019  1.00  0.00     0.034 C 
ENDROOT
BRANCH   1  10
ATOM     10  C   UNL     1      -5.588   5.662  -3.282  1.00  0.00     0.246 C 
ATOM     11  O   UNL     1      -5.419   5.381  -4.473  1.00  0.00    -0.272 OA
BRANCH  10  12
ATOM     12  C   UNL     1      -5.321   7.097  -2.743  1.00  0.00     0.174 C 
BRANCH  12  13
ATOM     13  N   UNL     1      -4.932   7.978  -3.844  1.00  0.00    -0.342 N 
ATOM     14  C   UNL     1      -5.780   8.837  -4.507  1.00  0.00     0.249 C 
ATOM     15  O   UNL     1      -6.963   8.979  -4.225  1.00  0.00    -0.272 OA
ATOM     16  H   UNL     1      -4.025   7.858  -4.288  1.00  0.00     0.164 HD
BRANCH  14  17
ATOM     17  C   UNL     1      -5.073   9.620  -5.633  1.00  0.00     0.207 C 
BRANCH  17  18
ATOM     18  C   UNL     1      -5.778   9.385  -6.973  1.00  0.00     0.077 C 
BRANCH  18  19
ATOM     19  C   UNL     1      -5.473   8.016  -7.536  1.00  0.00    -0.043 A 
ATOM     20  C   UNL     1      -4.088   6.564  -8.900  1.00  0.00     0.083 A 
ATOM     21  C   UNL     1      -4.340   7.818  -8.341  1.00  0.00     0.028 A 
ATOM     22  C   UNL     1      -4.963   5.504  -8.661  1.00  0.00     0.134 A 
ATOM     23  C   UNL     1      -6.089   5.686  -7.865  1.00  0.00     0.048 A 
ATOM     24  C   UNL     1      -6.344   6.941  -7.306  1.00  0.00     0.008 A 
ATOM     25  Cl  UNL     1      -2.691   6.340  -9.887  1.00  0.00    -0.080 Cl
BRANCH  22  26
ATOM     26  O   UNL     1      -4.764   4.260  -9.195  1.00  0.00    -0.506 OA
ATOM     27  H   UNL     1      -3.871   4.264  -9.587  1.00  0.00     0.293 HD
ENDBRANCH  22  26
ENDBRANCH  18  19
ENDBRANCH  17  18
BRANCH  17  28
ATOM     28  O   UNL     1      -3.694   9.233  -5.746  1.00  0.00    -0.383 OA
ATOM     29  H   UNL     1      -3.649   8.605  -6.502  1.00  0.00     0.211 HD
ENDBRANCH  17  28
ENDBRANCH  14  17
ENDBRANCH  12  13
BRANCH  12  30
ATOM     30  C   UNL     1      -4.298   7.120  -1.576  1.00  0.00     0.018 C 
ATOM     31  C   UNL     1      -4.334   8.470  -0.844  1.00  0.00     0.010 C 
BRANCH  30  32
ATOM     32  C   UNL     1      -2.850   6.790  -2.012  1.00  0.00     0.002 C 
ATOM     33  C   UNL     1      -1.876   6.506  -0.876  1.00  0.00     0.004 C 
ENDBRANCH  30  32
ENDBRANCH  12  30
ENDBRANCH  10  12
ENDBRANCH   1  10
BRANCH   5  34
ATOM     34  C   UNL     1      -5.315   2.397  -3.089  1.00  0.00     0.242 C 
ATOM     35  O   UNL     1      -6.259   1.607  -3.069  1.00  0.00    -0.273 OA
ATOM     36  N   UNL     1      -4.280   2.290  -3.990  1.00  0.00    -0.354 N 
ATOM     37  H   UNL     1      -3.468   2.899  -3.881  1.00  0.00     0.163 HD
BRANCH  36  38
ATOM     38  C   UNL     1      -4.347   1.418  -5.144  1.00  0.00     0.116 C 
BRANCH  38  39
ATOM     39  C   UNL     1      -4.936   2.174  -6.333  1.00  0.00     0.023 C 
BRANCH  39  40
ATOM     40  C   UNL     1      -5.748   1.271  -7.254  1.00  0.00     0.026 C 
BRANCH  40  41
ATOM     41  C   UNL     1      -6.987   0.736  -6.535  1.00  0.00     0.146 C 
BRANCH  41  42
ATOM     42  N   UNL     1      -7.925   1.825  -6.293  1.00  0.00    -0.254 NA
ATOM     43  C   UNL     1      -8.748   1.746  -5.316  1.00  0.00     0.185 C 
ATOM     44  N   UNL     1      -8.918   0.771  -4.404  1.00  0.00    -0.370 N 
ATOM     45  N   UNL     1      -9.608   2.758  -5.114  1.00  0.00    -0.370 N 
ATOM     46  H   UNL     1      -9.756   0.729  -3.850  1.00  0.00     0.159 HD
ATOM     47  H   UNL     1      -8.341  -0.064  -4.403  1.00  0.00     0.159 HD
ATOM     48  H   UNL     1      -9.541   3.538  -5.753  1.00  0.00     0.159 HD
ATOM     49  H   UNL     1     -10.109   2.882  -4.252  1.00  0.00     0.159 HD
ENDBRANCH  41  42
ENDBRANCH  40  41
ENDBRANCH  39  40
ENDBRANCH  38  39
ENDBRANCH  36  38
ENDBRANCH   5  34
BRANCH   8  50
ATOM     50  O   UNL     1      -9.928   2.752  -2.021  1.00  0.00    -0.245 OA
BRANCH  50  51
ATOM     51  S   UNL     1     -11.428   2.142  -2.175  1.00  0.00     0.397 S 
ATOM     52  O   UNL     1     -12.203   2.569  -1.032  1.00  0.00    -0.169 OA
ATOM     53  O   UNL     1     -11.349   0.749  -2.562  1.00  0.00    -0.169 OA
BRANCH  51  54
ATOM     54  O   UNL     1     -12.001   2.972  -3.427  1.00  0.00    -0.264 OA
ATOM     55  H   UNL     1     -12.815   2.524  -3.735  1.00  0.00     0.236 HD
ENDBRANCH  51  54
ENDBRANCH  50  51
ENDBRANCH   8  50
TORSDOF 19
ENDMDL
MODEL 41
REMARK VINA RESULT:    -6.785     16.867     19.857
REMARK INTER + INTRA:         -16.638
REMARK INTER:                 -12.994
REMARK INTRA:                  -3.643
REMARK UNBOUND:                -2.911
REMARK SMILES CC[C@@H](C)[C@@H](NC(=O)[C@@H](O)Cc1ccc(O)c(Cl)c1)C(=O)N1[C@H](C(=O)NCCCCN=C(N)N)C[C@H]2CC[C@H](OS(=O)(=O)O)C[C@@H]21
REMARK SMILES IDX 22 1 36 2 46 3 35 4 23 5 45 6 37 7 39 8 38 9 20 10 21 11
REMARK SMILES IDX 5 12 6 13 7 14 8 15 9 17 11 18 12 19 17 20 19 21 15 22 14 23
REMARK SMILES IDX 13 24 18 25 16 26 10 28 3 30 4 31 2 32 1 33 24 34 25 35
REMARK SMILES IDX 26 36 27 38 28 39 29 40 30 41 31 42 32 43 33 44 34 45 40 50
REMARK SMILES IDX 41 51 42 52 43 53 44 54
REMARK H PARENT 6 16 16 27 10 29 26 37 33 46 33 47 34 48 34 49 44 55
ROOT
ATOM      1  N   UNL     1      10.871  -8.594  10.632  1.00  0.00    -0.326 N 
ATOM      2  C   UNL     1       9.672  -9.191   8.697  1.00  0.00     0.014 C 
ATOM      3  C   UNL     1      10.644  -8.148   9.255  1.00  0.00     0.091 C 
ATOM      4  C   UNL     1       8.817  -9.534   9.907  1.00  0.00     0.041 C 
ATOM      5  C   UNL     1       9.910  -9.669  10.983  1.00  0.00     0.175 C 
ATOM      6  C   UNL     1      11.846  -8.057   8.316  1.00  0.00     0.059 C 
ATOM      7  C   UNL     1       9.003  -8.688   7.433  1.00  0.00     0.008 C 
ATOM      8  C   UNL     1      11.500  -8.329   6.836  1.00  0.00     0.143 C 
ATOM      9  C   UNL     1      10.030  -7.994   6.513  1.00  0.00     0.034 C 
ENDROOT
BRANCH   1  10
ATOM     10  C   UNL     1      11.648  -8.031  11.631  1.00  0.00     0.246 C 
ATOM     11  O   UNL     1      12.758  -7.572  11.342  1.00  0.00    -0.272 OA
BRANCH  10  12
ATOM     12  C   UNL     1      11.091  -7.951  13.082  1.00  0.00     0.174 C 
BRANCH  12  13
ATOM     13  N   UNL     1      10.272  -6.749  13.236  1.00  0.00    -0.342 N 
ATOM     14  C   UNL     1       8.905  -6.699  13.079  1.00  0.00     0.249 C 
ATOM     15  O   UNL     1       8.213  -7.675  12.817  1.00  0.00    -0.272 OA
ATOM     16  H   UNL     1      10.721  -5.839  13.298  1.00  0.00     0.164 HD
BRANCH  14  17
ATOM     17  C   UNL     1       8.333  -5.281  13.291  1.00  0.00     0.207 C 
BRANCH  17  18
ATOM     18  C   UNL     1       9.445  -4.311  13.701  1.00  0.00     0.077 C 
BRANCH  18  19
ATOM     19  C   UNL     1       9.551  -3.142  12.747  1.00  0.00    -0.043 A 
ATOM     20  C   UNL     1      10.346  -0.907  12.241  1.00  0.00     0.083 A 
ATOM     21  C   UNL     1      10.291  -2.003  13.103  1.00  0.00     0.028 A 
ATOM     22  C   UNL     1       9.664  -0.940  11.024  1.00  0.00     0.134 A 
ATOM     23  C   UNL     1       8.929  -2.062  10.660  1.00  0.00     0.048 A 
ATOM     24  C   UNL     1       8.870  -3.160  11.521  1.00  0.00     0.008 A 
ATOM     25  Cl  UNL     1      11.259   0.484  12.695  1.00  0.00    -0.080 Cl
BRANCH  22  26
ATOM     26  O   UNL     1       9.680   0.114  10.151  1.00  0.00    -0.506 OA
ATOM     27  H   UNL     1       9.110  -0.135   9.400  1.00  0.00     0.293 HD
ENDBRANCH  22  26
ENDBRANCH  18  19
ENDBRANCH  17  18
BRANCH  17  28
ATOM     28  O   UNL     1       7.306  -5.282  14.296  1.00  0.00    -0.383 OA
ATOM     29  H   UNL     1       6.895  -6.176  14.263  1.00  0.00     0.211 HD
ENDBRANCH  17  28
ENDBRANCH  14  17
ENDBRANCH  12  13
BRANCH  12  30
ATOM     30  C   UNL     1      12.206  -8.050  14.158  1.00  0.00     0.018 C 
ATOM     31  C   UNL     1      13.033  -9.332  13.971  1.00  0.00     0.010 C 
BRANCH  30  32
ATOM     32  C   UNL     1      11.677  -7.966  15.611  1.00  0.00     0.002 C 
ATOM     33  C   UNL     1      12.489  -7.083  16.549  1.00  0.00     0.004 C 
ENDBRANCH  30  32
ENDBRANCH  12  30
ENDBRANCH  10  12
ENDBRANCH   1  10
BRANCH   5  34
ATOM     34  C   UNL     1      10.597 -11.060  10.929  1.00  0.00     0.242 C 
ATOM     35  O   UNL     1      11.820 -11.188  10.877  1.00  0.00    -0.273 OA
ATOM     36  N   UNL     1       9.739 -12.136  10.889  1.00  0.00    -0.354 N 
ATOM     37  H   UNL     1       8.736 -11.962  10.813  1.00  0.00     0.163 HD
BRANCH  36  38
ATOM     38  C   UNL     1      10.199 -13.499  11.053  1.00  0.00     0.116 C 
BRANCH  38  39
ATOM     39  C   UNL     1      10.118 -14.238   9.719  1.00  0.00     0.023 C 
BRANCH  39  40
ATOM     40  C   UNL     1      11.475 -14.355   9.034  1.00  0.00     0.026 C 
BRANCH  40  41
ATOM     41  C   UNL     1      11.674 -13.220   8.028  1.00  0.00     0.146 C 
BRANCH  41  42
ATOM     42  N   UNL     1      13.031 -13.264   7.499  1.00  0.00    -0.254 NA
ATOM     43  C   UNL     1      13.827 -12.285   7.718  1.00  0.00     0.185 C 
ATOM     44  N   UNL     1      13.626 -11.141   8.396  1.00  0.00    -0.370 N 
ATOM     45  N   UNL     1      15.072 -12.342   7.218  1.00  0.00    -0.370 N 
ATOM     46  H   UNL     1      14.249 -10.360   8.281  1.00  0.00     0.159 HD
ATOM     47  H   UNL     1      12.741 -10.940   8.852  1.00  0.00     0.159 HD
ATOM     48  H   UNL     1      15.309 -13.177   6.699  1.00  0.00     0.159 HD
ATOM     49  H   UNL     1      15.814 -11.745   7.536  1.00  0.00     0.159 HD
ENDBRANCH  41  42
ENDBRANCH  40  41
ENDBRANCH  39  40
ENDBRANCH  38  39
ENDBRANCH  36  38
ENDBRANCH   5  34
BRANCH   8  50
ATOM     50  O   UNL     1      11.731  -9.703   6.523  1.00  0.00    -0.245 OA
BRANCH  50  51
ATOM     51  S   UNL     1      12.334 -10.104   5.066  1.00  0.00     0.397 S 
ATOM     52  O   UNL     1      12.006  -9.044   4.140  1.00  0.00    -0.169 OA
ATOM     53  O   UNL     1      12.025 -11.489   4.777  1.00  0.00    -0.169 OA
BRANCH  51  54
ATOM     54  O   UNL     1      13.919  -9.992   5.317  1.00  0.00    -0.264 OA
ATOM     55  H   UNL     1      14.054  -9.678   6.235  1.00  0.00     0.236 HD
ENDBRANCH  51  54
ENDBRANCH  50  51
ENDBRANCH   8  50
TORSDOF 19
ENDMDL
MODEL 42
REMARK VINA RESULT:    -6.771      3.725      5.651
REMARK INTER + INTRA:         -16.609
REMARK INTER:                 -13.177
REMARK INTRA:                  -3.432
REMARK UNBOUND:                -2.911
REMARK SMILES CC[C@@H](C)[C@@H](NC(=O)[C@@H](O)Cc1ccc(O)c(Cl)c1)C(=O)N1[C@H](C(=O)NCCCCN=C(N)N)C[C@H]2CC[C@H](OS(=O)(=O)O)C[C@@H]21
REMARK SMILES IDX 22 1 36 2 46 3 35 4 23 5 45 6 37 7 39 8 38 9 20 10 21 11
REMARK SMILES IDX 5 12 6 13 7 14 8 15 9 17 11 18 12 19 17 20 19 21 15 22 14 23
REMARK SMILES IDX 13 24 18 25 16 26 10 28 3 30 4 31 2 32 1 33 24 34 25 35
REMARK SMILES IDX 26 36 27 38 28 39 29 40 30 41 31 42 32 43 33 44 34 45 40 50
REMARK SMILES IDX 41 51 42 52 43 53 44 54
REMARK H PARENT 6 16 16 27 10 29 26 37 33 46 33 47 34 48 34 49 44 55
ROOT
ATOM      1  N   UNL     1      -2.662   4.940   5.893  1.00  0.00    -0.326 N 
ATOM      2  C   UNL     1      -4.492   3.527   6.337  1.00  0.00     0.014 C 
ATOM      3  C   UNL     1      -3.010   3.518   5.951  1.00  0.00     0.091 C 
ATOM      4  C   UNL     1      -5.014   4.769   5.632  1.00  0.00     0.041 C 
ATOM      5  C   UNL     1      -3.891   5.767   5.972  1.00  0.00     0.175 C 
ATOM      6  C   UNL     1      -2.258   2.628   6.939  1.00  0.00     0.059 C 
ATOM      7  C   UNL     1      -5.135   2.184   6.052  1.00  0.00     0.008 C 
ATOM      8  C   UNL     1      -3.100   1.452   7.481  1.00  0.00     0.143 C 
ATOM      9  C   UNL     1      -4.210   1.032   6.496  1.00  0.00     0.034 C 
ENDROOT
BRANCH   1  10
ATOM     10  C   UNL     1      -1.460   5.548   5.574  1.00  0.00     0.246 C 
ATOM     11  O   UNL     1      -0.758   5.060   4.682  1.00  0.00    -0.272 OA
BRANCH  10  12
ATOM     12  C   UNL     1      -1.039   6.851   6.313  1.00  0.00     0.174 C 
BRANCH  12  13
ATOM     13  N   UNL     1      -0.822   7.926   5.345  1.00  0.00    -0.342 N 
ATOM     14  C   UNL     1      -1.728   8.920   5.052  1.00  0.00     0.249 C 
ATOM     15  O   UNL     1      -2.818   9.032   5.597  1.00  0.00    -0.272 OA
ATOM     16  H   UNL     1      -0.033   7.875   4.705  1.00  0.00     0.164 HD
BRANCH  14  17
ATOM     17  C   UNL     1      -1.212   9.896   3.973  1.00  0.00     0.207 C 
BRANCH  17  18
ATOM     18  C   UNL     1       0.080   9.365   3.343  1.00  0.00     0.077 C 
BRANCH  18  19
ATOM     19  C   UNL     1      -0.138   8.906   1.918  1.00  0.00    -0.043 A 
ATOM     20  C   UNL     1      -1.634   8.404   0.076  1.00  0.00     0.083 A 
ATOM     21  C   UNL     1      -1.431   8.874   1.374  1.00  0.00     0.028 A 
ATOM     22  C   UNL     1      -0.550   7.963  -0.684  1.00  0.00     0.134 A 
ATOM     23  C   UNL     1       0.736   7.989  -0.158  1.00  0.00     0.048 A 
ATOM     24  C   UNL     1       0.942   8.458   1.142  1.00  0.00     0.008 A 
ATOM     25  Cl  UNL     1      -3.231   8.372  -0.575  1.00  0.00    -0.080 Cl
BRANCH  22  26
ATOM     26  O   UNL     1      -0.701   7.484  -1.957  1.00  0.00    -0.506 OA
ATOM     27  H   UNL     1      -1.022   8.227  -2.500  1.00  0.00     0.293 HD
ENDBRANCH  22  26
ENDBRANCH  18  19
ENDBRANCH  17  18
BRANCH  17  28
ATOM     28  O   UNL     1      -0.970  11.200   4.528  1.00  0.00    -0.383 OA
ATOM     29  H   UNL     1      -1.837  11.514   4.872  1.00  0.00     0.211 HD
ENDBRANCH  17  28
ENDBRANCH  14  17
ENDBRANCH  12  13
BRANCH  12  30
ATOM     30  C   UNL     1       0.181   6.643   7.250  1.00  0.00     0.018 C 
ATOM     31  C   UNL     1       0.119   5.266   7.929  1.00  0.00     0.010 C 
BRANCH  30  32
ATOM     32  C   UNL     1       0.344   7.754   8.315  1.00  0.00     0.002 C 
ATOM     33  C   UNL     1       1.555   7.609   9.228  1.00  0.00     0.004 C 
ENDBRANCH  30  32
ENDBRANCH  12  30
ENDBRANCH  10  12
ENDBRANCH   1  10
BRANCH   5  34
ATOM     34  C   UNL     1      -4.065   6.360   7.396  1.00  0.00     0.242 C 
ATOM     35  O   UNL     1      -3.660   5.781   8.404  1.00  0.00    -0.273 OA
ATOM     36  N   UNL     1      -4.751   7.553   7.454  1.00  0.00    -0.354 N 
ATOM     37  H   UNL     1      -5.165   7.924   6.598  1.00  0.00     0.163 HD
BRANCH  36  38
ATOM     38  C   UNL     1      -4.816   8.349   8.662  1.00  0.00     0.116 C 
BRANCH  38  39
ATOM     39  C   UNL     1      -3.406   8.720   9.116  1.00  0.00     0.023 C 
BRANCH  39  40
ATOM     40  C   UNL     1      -3.211   8.541  10.617  1.00  0.00     0.026 C 
BRANCH  40  41
ATOM     41  C   UNL     1      -4.512   8.090  11.283  1.00  0.00     0.146 C 
BRANCH  41  42
ATOM     42  N   UNL     1      -4.277   6.870  12.045  1.00  0.00    -0.254 NA
ATOM     43  C   UNL     1      -4.840   5.779  11.682  1.00  0.00     0.185 C 
ATOM     44  N   UNL     1      -5.667   5.534  10.649  1.00  0.00    -0.370 N 
ATOM     45  N   UNL     1      -4.614   4.667  12.400  1.00  0.00    -0.370 N 
ATOM     46  H   UNL     1      -6.223   4.696  10.626  1.00  0.00     0.159 HD
ATOM     47  H   UNL     1      -5.932   6.263   9.994  1.00  0.00     0.159 HD
ATOM     48  H   UNL     1      -3.994   4.763  13.192  1.00  0.00     0.159 HD
ATOM     49  H   UNL     1      -4.817   3.746  12.054  1.00  0.00     0.159 HD
ENDBRANCH  41  42
ENDBRANCH  40  41
ENDBRANCH  39  40
ENDBRANCH  38  39
ENDBRANCH  36  38
ENDBRANCH   5  34
BRANCH   8  50
ATOM     50  O   UNL     1      -3.708   1.815   8.721  1.00  0.00    -0.245 OA
BRANCH  50  51
ATOM     51  S   UNL     1      -3.216   1.099  10.096  1.00  0.00     0.397 S 
ATOM     52  O   UNL     1      -4.240   1.303  11.096  1.00  0.00    -0.169 OA
ATOM     53  O   UNL     1      -1.830   1.433  10.349  1.00  0.00    -0.169 OA
BRANCH  51  54
ATOM     54  O   UNL     1      -3.287  -0.459   9.707  1.00  0.00    -0.264 OA
ATOM     55  H   UNL     1      -3.038  -0.543   8.764  1.00  0.00     0.236 HD
ENDBRANCH  51  54
ENDBRANCH  50  51
ENDBRANCH   8  50
TORSDOF 19
ENDMDL
MODEL 43
REMARK VINA RESULT:    -6.723      2.563      3.479
REMARK INTER + INTRA:         -16.511
REMARK INTER:                 -13.841
REMARK INTRA:                  -2.670
REMARK UNBOUND:                -2.911
REMARK SMILES CC[C@@H](C)[C@@H](NC(=O)[C@@H](O)Cc1ccc(O)c(Cl)c1)C(=O)N1[C@H](C(=O)NCCCCN=C(N)N)C[C@H]2CC[C@H](OS(=O)(=O)O)C[C@@H]21
REMARK SMILES IDX 22 1 36 2 46 3 35 4 23 5 45 6 37 7 39 8 38 9 20 10 21 11
REMARK SMILES IDX 5 12 6 13 7 14 8 15 9 17 11 18 12 19 17 20 19 21 15 22 14 23
REMARK SMILES IDX 13 24 18 25 16 26 10 28 3 30 4 31 2 32 1 33 24 34 25 35
REMARK SMILES IDX 26 36 27 38 28 39 29 40 30 41 31 42 32 43 33 44 34 45 40 50
REMARK SMILES IDX 41 51 42 52 43 53 44 54
REMARK H PARENT 6 16 16 27 10 29 26 37 33 46 33 47 34 48 34 49 44 55
ROOT
ATOM      1  N   UNL     1      -4.748   4.920   7.588  1.00  0.00    -0.326 N 
ATOM      2  C   UNL     1      -4.749   2.586   7.284  1.00  0.00     0.014 C 
ATOM      3  C   UNL     1      -3.824   3.785   7.509  1.00  0.00     0.091 C 
ATOM      4  C   UNL     1      -5.859   3.175   6.428  1.00  0.00     0.041 C 
ATOM      5  C   UNL     1      -6.109   4.496   7.178  1.00  0.00     0.175 C 
ATOM      6  C   UNL     1      -2.934   3.490   8.715  1.00  0.00     0.059 C 
ATOM      7  C   UNL     1      -3.971   1.390   6.772  1.00  0.00     0.008 C 
ATOM      8  C   UNL     1      -2.597   1.993   8.886  1.00  0.00     0.143 C 
ATOM      9  C   UNL     1      -2.645   1.231   7.547  1.00  0.00     0.034 C 
ENDROOT
BRANCH   1  10
ATOM     10  C   UNL     1      -4.485   6.268   7.764  1.00  0.00     0.246 C 
ATOM     11  O   UNL     1      -4.994   6.860   8.723  1.00  0.00    -0.272 OA
BRANCH  10  12
ATOM     12  C   UNL     1      -3.525   6.997   6.781  1.00  0.00     0.174 C 
BRANCH  12  13
ATOM     13  N   UNL     1      -2.136   6.758   7.170  1.00  0.00    -0.342 N 
ATOM     14  C   UNL     1      -1.242   5.978   6.471  1.00  0.00     0.249 C 
ATOM     15  O   UNL     1      -1.508   5.414   5.417  1.00  0.00    -0.272 OA
ATOM     16  H   UNL     1      -1.819   7.030   8.097  1.00  0.00     0.164 HD
BRANCH  14  17
ATOM     17  C   UNL     1       0.143   5.906   7.148  1.00  0.00     0.207 C 
BRANCH  17  18
ATOM     18  C   UNL     1       1.257   5.979   6.099  1.00  0.00     0.077 C 
BRANCH  18  19
ATOM     19  C   UNL     1       2.161   7.171   6.321  1.00  0.00    -0.043 A 
ATOM     20  C   UNL     1       2.492   9.572   6.406  1.00  0.00     0.083 A 
ATOM     21  C   UNL     1       1.645   8.474   6.250  1.00  0.00     0.028 A 
ATOM     22  C   UNL     1       3.855   9.377   6.633  1.00  0.00     0.134 A 
ATOM     23  C   UNL     1       4.379   8.091   6.706  1.00  0.00     0.048 A 
ATOM     24  C   UNL     1       3.534   6.990   6.548  1.00  0.00     0.008 A 
ATOM     25  Cl  UNL     1       1.840  11.166   6.314  1.00  0.00    -0.080 Cl
BRANCH  22  26
ATOM     26  O   UNL     1       4.725  10.422   6.782  1.00  0.00    -0.506 OA
ATOM     27  H   UNL     1       4.422  10.931   7.557  1.00  0.00     0.293 HD
ENDBRANCH  22  26
ENDBRANCH  18  19
ENDBRANCH  17  18
BRANCH  17  28
ATOM     28  O   UNL     1       0.284   4.696   7.910  1.00  0.00    -0.383 OA
ATOM     29  H   UNL     1       0.279   3.961   7.256  1.00  0.00     0.211 HD
ENDBRANCH  17  28
ENDBRANCH  14  17
ENDBRANCH  12  13
BRANCH  12  30
ATOM     30  C   UNL     1      -3.847   8.509   6.637  1.00  0.00     0.018 C 
ATOM     31  C   UNL     1      -5.127   8.719   5.813  1.00  0.00     0.010 C 
BRANCH  30  32
ATOM     32  C   UNL     1      -2.686   9.338   6.037  1.00  0.00     0.002 C 
ATOM     33  C   UNL     1      -2.321   9.001   4.598  1.00  0.00     0.004 C 
ENDBRANCH  30  32
ENDBRANCH  12  30
ENDBRANCH  10  12
ENDBRANCH   1  10
BRANCH   5  34
ATOM     34  C   UNL     1      -7.018   4.287   8.418  1.00  0.00     0.242 C 
ATOM     35  O   UNL     1      -8.216   4.020   8.319  1.00  0.00    -0.273 OA
ATOM     36  N   UNL     1      -6.401   4.474   9.635  1.00  0.00    -0.354 N 
ATOM     37  H   UNL     1      -5.437   4.812   9.650  1.00  0.00     0.163 HD
BRANCH  36  38
ATOM     38  C   UNL     1      -7.033   4.113  10.887  1.00  0.00     0.116 C 
BRANCH  38  39
ATOM     39  C   UNL     1      -6.014   4.181  12.021  1.00  0.00     0.023 C 
BRANCH  39  40
ATOM     40  C   UNL     1      -5.126   5.418  11.934  1.00  0.00     0.026 C 
BRANCH  40  41
ATOM     41  C   UNL     1      -5.892   6.667  12.370  1.00  0.00     0.146 C 
BRANCH  41  42
ATOM     42  N   UNL     1      -5.946   6.728  13.825  1.00  0.00    -0.254 NA
ATOM     43  C   UNL     1      -5.592   7.800  14.427  1.00  0.00     0.185 C 
ATOM     44  N   UNL     1      -5.148   8.968  13.927  1.00  0.00    -0.370 N 
ATOM     45  N   UNL     1      -5.645   7.835  15.769  1.00  0.00    -0.370 N 
ATOM     46  H   UNL     1      -4.677   9.632  14.517  1.00  0.00     0.159 HD
ATOM     47  H   UNL     1      -5.059   9.119  12.927  1.00  0.00     0.159 HD
ATOM     48  H   UNL     1      -5.979   6.997  16.226  1.00  0.00     0.159 HD
ATOM     49  H   UNL     1      -5.616   8.691  16.293  1.00  0.00     0.159 HD
ENDBRANCH  41  42
ENDBRANCH  40  41
ENDBRANCH  39  40
ENDBRANCH  38  39
ENDBRANCH  36  38
ENDBRANCH   5  34
BRANCH   8  50
ATOM     50  O   UNL     1      -3.520   1.383   9.788  1.00  0.00    -0.245 OA
BRANCH  50  51
ATOM     51  S   UNL     1      -3.009   0.896  11.254  1.00  0.00     0.397 S 
ATOM     52  O   UNL     1      -2.069   1.876  11.747  1.00  0.00    -0.169 OA
ATOM     53  O   UNL     1      -2.684  -0.515  11.210  1.00  0.00    -0.169 OA
BRANCH  51  54
ATOM     54  O   UNL     1      -4.334   1.071  12.147  1.00  0.00    -0.264 OA
ATOM     55  H   UNL     1      -5.064   0.601  11.694  1.00  0.00     0.236 HD
ENDBRANCH  51  54
ENDBRANCH  50  51
ENDBRANCH   8  50
TORSDOF 19
ENDMDL
MODEL 44
REMARK VINA RESULT:    -6.678      3.798      8.755
REMARK INTER + INTRA:         -16.421
REMARK INTER:                 -12.481
REMARK INTRA:                  -3.940
REMARK UNBOUND:                -2.911
REMARK SMILES CC[C@@H](C)[C@@H](NC(=O)[C@@H](O)Cc1ccc(O)c(Cl)c1)C(=O)N1[C@H](C(=O)NCCCCN=C(N)N)C[C@H]2CC[C@H](OS(=O)(=O)O)C[C@@H]21
REMARK SMILES IDX 22 1 36 2 46 3 35 4 23 5 45 6 37 7 39 8 38 9 20 10 21 11
REMARK SMILES IDX 5 12 6 13 7 14 8 15 9 17 11 18 12 19 17 20 19 21 15 22 14 23
REMARK SMILES IDX 13 24 18 25 16 26 10 28 3 30 4 31 2 32 1 33 24 34 25 35
REMARK SMILES IDX 26 36 27 38 28 39 29 40 30 41 31 42 32 43 33 44 34 45 40 50
REMARK SMILES IDX 41 51 42 52 43 53 44 54
REMARK H PARENT 6 16 16 27 10 29 26 37 33 46 33 47 34 48 34 49 44 55
ROOT
ATOM      1  N   UNL     1      -3.244   3.739   7.942  1.00  0.00    -0.326 N 
ATOM      2  C   UNL     1      -4.342   5.094   6.360  1.00  0.00     0.014 C 
ATOM      3  C   UNL     1      -4.302   4.750   7.852  1.00  0.00     0.091 C 
ATOM      4  C   UNL     1      -4.022   3.761   5.701  1.00  0.00     0.041 C 
ATOM      5  C   UNL     1      -2.848   3.296   6.582  1.00  0.00     0.175 C 
ATOM      6  C   UNL     1      -4.133   6.047   8.642  1.00  0.00     0.059 C 
ATOM      7  C   UNL     1      -5.630   5.809   6.003  1.00  0.00     0.008 C 
ATOM      8  C   UNL     1      -4.793   7.272   7.973  1.00  0.00     0.143 C 
ATOM      9  C   UNL     1      -5.976   6.871   7.069  1.00  0.00     0.034 C 
ENDROOT
BRANCH   1  10
ATOM     10  C   UNL     1      -2.772   3.044   9.042  1.00  0.00     0.246 C 
ATOM     11  O   UNL     1      -1.563   3.069   9.295  1.00  0.00    -0.272 OA
BRANCH  10  12
ATOM     12  C   UNL     1      -3.775   2.285   9.958  1.00  0.00     0.174 C 
BRANCH  12  13
ATOM     13  N   UNL     1      -4.414   3.221  10.882  1.00  0.00    -0.342 N 
ATOM     14  C   UNL     1      -5.767   3.468  10.947  1.00  0.00     0.249 C 
ATOM     15  O   UNL     1      -6.598   2.901  10.247  1.00  0.00    -0.272 OA
ATOM     16  H   UNL     1      -3.843   3.875  11.412  1.00  0.00     0.164 HD
BRANCH  14  17
ATOM     17  C   UNL     1      -6.130   4.522  12.014  1.00  0.00     0.207 C 
BRANCH  17  18
ATOM     18  C   UNL     1      -4.891   5.332  12.409  1.00  0.00     0.077 C 
BRANCH  18  19
ATOM     19  C   UNL     1      -5.035   6.793  12.047  1.00  0.00    -0.043 A 
ATOM     20  C   UNL     1      -6.314   8.595  11.047  1.00  0.00     0.083 A 
ATOM     21  C   UNL     1      -6.204   7.256  11.425  1.00  0.00     0.028 A 
ATOM     22  C   UNL     1      -5.259   9.476  11.285  1.00  0.00     0.134 A 
ATOM     23  C   UNL     1      -4.095   9.031  11.900  1.00  0.00     0.048 A 
ATOM     24  C   UNL     1      -3.981   7.691  12.278  1.00  0.00     0.008 A 
ATOM     25  Cl  UNL     1      -7.759   9.146  10.284  1.00  0.00    -0.080 Cl
BRANCH  22  26
ATOM     26  O   UNL     1      -5.316  10.795  10.922  1.00  0.00    -0.506 OA
ATOM     27  H   UNL     1      -6.022  10.872  10.254  1.00  0.00     0.293 HD
ENDBRANCH  22  26
ENDBRANCH  18  19
ENDBRANCH  17  18
BRANCH  17  28
ATOM     28  O   UNL     1      -6.688   3.903  13.184  1.00  0.00    -0.383 OA
ATOM     29  H   UNL     1      -5.940   3.783  13.811  1.00  0.00     0.211 HD
ENDBRANCH  17  28
ENDBRANCH  14  17
ENDBRANCH  12  13
BRANCH  12  30
ATOM     30  C   UNL     1      -3.124   1.080  10.691  1.00  0.00     0.018 C 
ATOM     31  C   UNL     1      -4.125  -0.077  10.834  1.00  0.00     0.010 C 
BRANCH  30  32
ATOM     32  C   UNL     1      -2.529   1.442  12.073  1.00  0.00     0.002 C 
ATOM     33  C   UNL     1      -1.030   1.215  12.216  1.00  0.00     0.004 C 
ENDBRANCH  30  32
ENDBRANCH  12  30
ENDBRANCH  10  12
ENDBRANCH   1  10
BRANCH   5  34
ATOM     34  C   UNL     1      -1.513   3.961   6.154  1.00  0.00     0.242 C 
ATOM     35  O   UNL     1      -1.020   3.789   5.039  1.00  0.00    -0.273 OA
ATOM     36  N   UNL     1      -0.894   4.712   7.128  1.00  0.00    -0.354 N 
ATOM     37  H   UNL     1      -1.290   4.720   8.069  1.00  0.00     0.163 HD
BRANCH  36  38
ATOM     38  C   UNL     1       0.236   5.571   6.841  1.00  0.00     0.116 C 
BRANCH  38  39
ATOM     39  C   UNL     1       0.339   6.665   7.901  1.00  0.00     0.023 C 
BRANCH  39  40
ATOM     40  C   UNL     1       1.692   6.670   8.604  1.00  0.00     0.026 C 
BRANCH  40  41
ATOM     41  C   UNL     1       2.802   6.241   7.645  1.00  0.00     0.146 C 
BRANCH  41  42
ATOM     42  N   UNL     1       3.706   7.358   7.406  1.00  0.00    -0.254 NA
ATOM     43  C   UNL     1       3.500   8.137   6.411  1.00  0.00     0.185 C 
ATOM     44  N   UNL     1       2.530   8.112   5.479  1.00  0.00    -0.370 N 
ATOM     45  N   UNL     1       4.347   9.159   6.205  1.00  0.00    -0.370 N 
ATOM     46  H   UNL     1       2.628   8.630   4.622  1.00  0.00     0.159 HD
ATOM     47  H   UNL     1       1.796   7.411   5.492  1.00  0.00     0.159 HD
ATOM     48  H   UNL     1       5.103   9.256   6.869  1.00  0.00     0.159 HD
ATOM     49  H   UNL     1       4.126   9.936   5.608  1.00  0.00     0.159 HD
ENDBRANCH  41  42
ENDBRANCH  40  41
ENDBRANCH  39  40
ENDBRANCH  38  39
ENDBRANCH  36  38
ENDBRANCH   5  34
BRANCH   8  50
ATOM     50  O   UNL     1      -3.834   7.974   7.181  1.00  0.00    -0.245 OA
BRANCH  50  51
ATOM     51  S   UNL     1      -3.558   9.552   7.465  1.00  0.00     0.397 S 
ATOM     52  O   UNL     1      -4.786  10.138   7.953  1.00  0.00    -0.169 OA
ATOM     53  O   UNL     1      -2.831  10.126   6.353  1.00  0.00    -0.169 OA
BRANCH  51  54
ATOM     54  O   UNL     1      -2.567   9.497   8.730  1.00  0.00    -0.264 OA
ATOM     55  H   UNL     1      -2.986   9.997   9.460  1.00  0.00     0.236 HD
ENDBRANCH  51  54
ENDBRANCH  50  51
ENDBRANCH   8  50
TORSDOF 19
ENDMDL
MODEL 45
REMARK VINA RESULT:    -6.636      5.222      8.159
REMARK INTER + INTRA:         -16.335
REMARK INTER:                 -13.023
REMARK INTRA:                  -3.313
REMARK UNBOUND:                -2.911
REMARK SMILES CC[C@@H](C)[C@@H](NC(=O)[C@@H](O)Cc1ccc(O)c(Cl)c1)C(=O)N1[C@H](C(=O)NCCCCN=C(N)N)C[C@H]2CC[C@H](OS(=O)(=O)O)C[C@@H]21
REMARK SMILES IDX 22 1 36 2 46 3 35 4 23 5 45 6 37 7 39 8 38 9 20 10 21 11
REMARK SMILES IDX 5 12 6 13 7 14 8 15 9 17 11 18 12 19 17 20 19 21 15 22 14 23
REMARK SMILES IDX 13 24 18 25 16 26 10 28 3 30 4 31 2 32 1 33 24 34 25 35
REMARK SMILES IDX 26 36 27 38 28 39 29 40 30 41 31 42 32 43 33 44 34 45 40 50
REMARK SMILES IDX 41 51 42 52 43 53 44 54
REMARK H PARENT 6 16 16 27 10 29 26 37 33 46 33 47 34 48 34 49 44 55
ROOT
ATOM      1  N   UNL     1      -5.051   6.934  10.814  1.00  0.00    -0.326 N 
ATOM      2  C   UNL     1      -5.114   8.399   8.972  1.00  0.00     0.014 C 
ATOM      3  C   UNL     1      -5.857   7.231   9.626  1.00  0.00     0.091 C 
ATOM      4  C   UNL     1      -3.658   8.081   9.274  1.00  0.00     0.041 C 
ATOM      5  C   UNL     1      -3.768   7.677  10.756  1.00  0.00     0.175 C 
ATOM      6  C   UNL     1      -7.317   7.637   9.824  1.00  0.00     0.059 C 
ATOM      7  C   UNL     1      -5.553   8.583   7.533  1.00  0.00     0.008 C 
ATOM      8  C   UNL     1      -7.845   8.605   8.743  1.00  0.00     0.143 C 
ATOM      9  C   UNL     1      -7.085   8.454   7.410  1.00  0.00     0.034 C 
ENDROOT
BRANCH   1  10
ATOM     10  C   UNL     1      -5.223   5.960  11.783  1.00  0.00     0.246 C 
ATOM     11  O   UNL     1      -5.221   6.289  12.973  1.00  0.00    -0.272 OA
BRANCH  10  12
ATOM     12  C   UNL     1      -5.459   4.483  11.352  1.00  0.00     0.174 C 
BRANCH  12  13
ATOM     13  N   UNL     1      -4.187   3.761  11.329  1.00  0.00    -0.342 N 
ATOM     14  C   UNL     1      -4.023   2.437  11.668  1.00  0.00     0.249 C 
ATOM     15  O   UNL     1      -4.942   1.701  12.006  1.00  0.00    -0.272 OA
ATOM     16  H   UNL     1      -3.317   4.277  11.221  1.00  0.00     0.164 HD
BRANCH  14  17
ATOM     17  C   UNL     1      -2.556   1.971  11.558  1.00  0.00     0.207 C 
BRANCH  17  18
ATOM     18  C   UNL     1      -2.430   0.832  10.543  1.00  0.00     0.077 C 
BRANCH  18  19
ATOM     19  C   UNL     1      -2.530   1.333   9.120  1.00  0.00    -0.043 A 
ATOM     20  C   UNL     1      -2.059   3.028   7.450  1.00  0.00     0.083 A 
ATOM     21  C   UNL     1      -1.923   2.544   8.751  1.00  0.00     0.028 A 
ATOM     22  C   UNL     1      -2.801   2.311   6.511  1.00  0.00     0.134 A 
ATOM     23  C   UNL     1      -3.408   1.111   6.863  1.00  0.00     0.048 A 
ATOM     24  C   UNL     1      -3.275   0.624   8.165  1.00  0.00     0.008 A 
ATOM     25  Cl  UNL     1      -1.305   4.518   7.016  1.00  0.00    -0.080 Cl
BRANCH  22  26
ATOM     26  O   UNL     1      -2.972   2.751   5.227  1.00  0.00    -0.506 OA
ATOM     27  H   UNL     1      -2.151   2.535   4.746  1.00  0.00     0.293 HD
ENDBRANCH  22  26
ENDBRANCH  18  19
ENDBRANCH  17  18
BRANCH  17  28
ATOM     28  O   UNL     1      -2.055   1.532  12.832  1.00  0.00    -0.383 OA
ATOM     29  H   UNL     1      -1.571   0.693  12.659  1.00  0.00     0.211 HD
ENDBRANCH  17  28
ENDBRANCH  14  17
ENDBRANCH  12  13
BRANCH  12  30
ATOM     30  C   UNL     1      -6.232   4.365  10.011  1.00  0.00     0.018 C 
ATOM     31  C   UNL     1      -7.533   3.570  10.199  1.00  0.00     0.010 C 
BRANCH  30  32
ATOM     32  C   UNL     1      -5.394   3.751   8.863  1.00  0.00     0.002 C 
ATOM     33  C   UNL     1      -6.054   3.774   7.491  1.00  0.00     0.004 C 
ENDBRANCH  30  32
ENDBRANCH  12  30
ENDBRANCH  10  12
ENDBRANCH   1  10
BRANCH   5  34
ATOM     34  C   UNL     1      -3.810   8.920  11.685  1.00  0.00     0.242 C 
ATOM     35  O   UNL     1      -2.842   9.666  11.829  1.00  0.00    -0.273 OA
ATOM     36  N   UNL     1      -4.988   9.094  12.377  1.00  0.00    -0.354 N 
ATOM     37  H   UNL     1      -5.710   8.376  12.308  1.00  0.00     0.163 HD
BRANCH  36  38
ATOM     38  C   UNL     1      -5.278  10.306  13.115  1.00  0.00     0.116 C 
BRANCH  38  39
ATOM     39  C   UNL     1      -6.587  10.142  13.885  1.00  0.00     0.023 C 
BRANCH  39  40
ATOM     40  C   UNL     1      -7.485   9.066  13.286  1.00  0.00     0.026 C 
BRANCH  40  41
ATOM     41  C   UNL     1      -8.789   9.673  12.768  1.00  0.00     0.146 C 
BRANCH  41  42
ATOM     42  N   UNL     1      -9.908   9.193  13.569  1.00  0.00    -0.254 NA
ATOM     43  C   UNL     1     -10.381   9.931  14.502  1.00  0.00     0.185 C 
ATOM     44  N   UNL     1     -10.008  11.158  14.908  1.00  0.00    -0.370 N 
ATOM     45  N   UNL     1     -11.409   9.468  15.231  1.00  0.00    -0.370 N 
ATOM     46  H   UNL     1     -10.301  11.514  15.802  1.00  0.00     0.159 HD
ATOM     47  H   UNL     1      -9.252  11.663  14.455  1.00  0.00     0.159 HD
ATOM     48  H   UNL     1     -11.758   8.552  14.984  1.00  0.00     0.159 HD
ATOM     49  H   UNL     1     -11.979  10.063  15.806  1.00  0.00     0.159 HD
ENDBRANCH  41  42
ENDBRANCH  40  41
ENDBRANCH  39  40
ENDBRANCH  38  39
ENDBRANCH  36  38
ENDBRANCH   5  34
BRANCH   8  50
ATOM     50  O   UNL     1      -7.714   9.955   9.189  1.00  0.00    -0.245 OA
BRANCH  50  51
ATOM     51  S   UNL     1      -8.950  10.992   8.981  1.00  0.00     0.397 S 
ATOM     52  O   UNL     1      -8.964  11.398   7.594  1.00  0.00    -0.169 OA
ATOM     53  O   UNL     1      -8.957  11.962  10.057  1.00  0.00    -0.169 OA
BRANCH  51  54
ATOM     54  O   UNL     1     -10.227  10.034   9.170  1.00  0.00    -0.264 OA
ATOM     55  H   UNL     1     -10.783  10.116   8.368  1.00  0.00     0.236 HD
ENDBRANCH  51  54
ENDBRANCH  50  51
ENDBRANCH   8  50
TORSDOF 19
ENDMDL
MODEL 46
REMARK VINA RESULT:    -6.596     12.430     15.371
REMARK INTER + INTRA:         -16.254
REMARK INTER:                 -11.456
REMARK INTRA:                  -4.798
REMARK UNBOUND:                -2.911
REMARK SMILES CC[C@@H](C)[C@@H](NC(=O)[C@@H](O)Cc1ccc(O)c(Cl)c1)C(=O)N1[C@H](C(=O)NCCCCN=C(N)N)C[C@H]2CC[C@H](OS(=O)(=O)O)C[C@@H]21
REMARK SMILES IDX 22 1 36 2 46 3 35 4 23 5 45 6 37 7 39 8 38 9 20 10 21 11
REMARK SMILES IDX 5 12 6 13 7 14 8 15 9 17 11 18 12 19 17 20 19 21 15 22 14 23
REMARK SMILES IDX 13 24 18 25 16 26 10 28 3 30 4 31 2 32 1 33 24 34 25 35
REMARK SMILES IDX 26 36 27 38 28 39 29 40 30 41 31 42 32 43 33 44 34 45 40 50
REMARK SMILES IDX 41 51 42 52 43 53 44 54
REMARK H PARENT 6 16 16 27 10 29 26 37 33 46 33 47 34 48 34 49 44 55
ROOT
ATOM      1  N   UNL     1      10.972  -1.267  14.132  1.00  0.00    -0.326 N 
ATOM      2  C   UNL     1       9.761  -1.916  12.220  1.00  0.00     0.014 C 
ATOM      3  C   UNL     1      11.113  -2.080  12.920  1.00  0.00     0.091 C 
ATOM      4  C   UNL     1       9.381  -0.482  12.556  1.00  0.00     0.041 C 
ATOM      5  C   UNL     1       9.735  -0.451  14.054  1.00  0.00     0.175 C 
ATOM      6  C   UNL     1      11.398  -3.572  13.078  1.00  0.00     0.059 C 
ATOM      7  C   UNL     1       9.848  -2.341  10.767  1.00  0.00     0.008 C 
ATOM      8  C   UNL     1      10.811  -4.440  11.944  1.00  0.00     0.143 C 
ATOM      9  C   UNL     1      10.656  -3.649  10.630  1.00  0.00     0.034 C 
ENDROOT
BRANCH   1  10
ATOM     10  C   UNL     1      11.882  -1.018  15.145  1.00  0.00     0.246 C 
ATOM     11  O   UNL     1      11.729  -1.570  16.239  1.00  0.00    -0.272 OA
BRANCH  10  12
ATOM     12  C   UNL     1      13.098  -0.086  14.871  1.00  0.00     0.174 C 
BRANCH  12  13
ATOM     13  N   UNL     1      12.742   0.917  13.869  1.00  0.00    -0.342 N 
ATOM     14  C   UNL     1      13.070   2.253  13.936  1.00  0.00     0.249 C 
ATOM     15  O   UNL     1      13.729   2.748  14.841  1.00  0.00    -0.272 OA
ATOM     16  H   UNL     1      12.066   0.687  13.144  1.00  0.00     0.164 HD
BRANCH  14  17
ATOM     17  C   UNL     1      12.535   3.058  12.732  1.00  0.00     0.207 C 
BRANCH  17  18
ATOM     18  C   UNL     1      11.588   4.164  13.207  1.00  0.00     0.077 C 
BRANCH  18  19
ATOM     19  C   UNL     1      10.402   3.604  13.961  1.00  0.00    -0.043 A 
ATOM     20  C   UNL     1       8.159   2.682  13.965  1.00  0.00     0.083 A 
ATOM     21  C   UNL     1       9.270   3.152  13.265  1.00  0.00     0.028 A 
ATOM     22  C   UNL     1       8.170   2.660  15.360  1.00  0.00     0.134 A 
ATOM     23  C   UNL     1       9.285   3.104  16.062  1.00  0.00     0.048 A 
ATOM     24  C   UNL     1      10.398   3.577  15.364  1.00  0.00     0.008 A 
ATOM     25  Cl  UNL     1       6.777   2.132  13.093  1.00  0.00    -0.080 Cl
BRANCH  22  26
ATOM     26  O   UNL     1       7.101   2.218  16.091  1.00  0.00    -0.506 OA
ATOM     27  H   UNL     1       6.322   2.269  15.506  1.00  0.00     0.293 HD
ENDBRANCH  22  26
ENDBRANCH  18  19
ENDBRANCH  17  18
BRANCH  17  28
ATOM     28  O   UNL     1      11.846   2.206  11.804  1.00  0.00    -0.383 OA
ATOM     29  H   UNL     1      10.915   2.157  12.120  1.00  0.00     0.211 HD
ENDBRANCH  17  28
ENDBRANCH  14  17
ENDBRANCH  12  13
BRANCH  12  30
ATOM     30  C   UNL     1      14.383  -0.871  14.494  1.00  0.00     0.018 C 
ATOM     31  C   UNL     1      15.625  -0.223  15.126  1.00  0.00     0.010 C 
BRANCH  30  32
ATOM     32  C   UNL     1      14.586  -1.033  12.968  1.00  0.00     0.002 C 
ATOM     33  C   UNL     1      14.932  -2.442  12.503  1.00  0.00     0.004 C 
ENDBRANCH  30  32
ENDBRANCH  12  30
ENDBRANCH  10  12
ENDBRANCH   1  10
BRANCH   5  34
ATOM     34  C   UNL     1       8.609  -1.076  14.921  1.00  0.00     0.242 C 
ATOM     35  O   UNL     1       7.441  -0.690  14.860  1.00  0.00    -0.273 OA
ATOM     36  N   UNL     1       9.020  -2.053  15.799  1.00  0.00    -0.354 N 
ATOM     37  H   UNL     1      10.018  -2.245  15.889  1.00  0.00     0.163 HD
BRANCH  36  38
ATOM     38  C   UNL     1       8.082  -2.887  16.523  1.00  0.00     0.116 C 
BRANCH  38  39
ATOM     39  C   UNL     1       7.772  -4.142  15.711  1.00  0.00     0.023 C 
BRANCH  39  40
ATOM     40  C   UNL     1       6.297  -4.526  15.772  1.00  0.00     0.026 C 
BRANCH  40  41
ATOM     41  C   UNL     1       5.707  -4.634  14.366  1.00  0.00     0.146 C 
BRANCH  41  42
ATOM     42  N   UNL     1       5.598  -3.307  13.774  1.00  0.00    -0.254 NA
ATOM     43  C   UNL     1       6.121  -3.081  12.628  1.00  0.00     0.185 C 
ATOM     44  N   UNL     1       6.801  -3.904  11.809  1.00  0.00    -0.370 N 
ATOM     45  N   UNL     1       6.013  -1.850  12.101  1.00  0.00    -0.370 N 
ATOM     46  H   UNL     1       7.361  -3.534  11.060  1.00  0.00     0.159 HD
ATOM     47  H   UNL     1       6.963  -4.877  12.047  1.00  0.00     0.159 HD
ATOM     48  H   UNL     1       5.507  -1.169  12.651  1.00  0.00     0.159 HD
ATOM     49  H   UNL     1       6.180  -1.657  11.129  1.00  0.00     0.159 HD
ENDBRANCH  41  42
ENDBRANCH  40  41
ENDBRANCH  39  40
ENDBRANCH  38  39
ENDBRANCH  36  38
ENDBRANCH   5  34
BRANCH   8  50
ATOM     50  O   UNL     1       9.529  -4.943  12.325  1.00  0.00    -0.245 OA
BRANCH  50  51
ATOM     51  S   UNL     1       9.266  -6.548  12.331  1.00  0.00     0.397 S 
ATOM     52  O   UNL     1       7.860  -6.769  12.580  1.00  0.00    -0.169 OA
ATOM     53  O   UNL     1      10.289  -7.206  13.117  1.00  0.00    -0.169 OA
BRANCH  51  54
ATOM     54  O   UNL     1       9.503  -6.933  10.788  1.00  0.00    -0.264 OA
ATOM     55  H   UNL     1      10.262  -7.550  10.747  1.00  0.00     0.236 HD
ENDBRANCH  51  54
ENDBRANCH  50  51
ENDBRANCH   8  50
TORSDOF 19
ENDMDL
MODEL 47
REMARK VINA RESULT:    -6.550     10.659     13.132
REMARK INTER + INTRA:         -16.161
REMARK INTER:                 -12.638
REMARK INTRA:                  -3.523
REMARK UNBOUND:                -2.911
REMARK SMILES CC[C@@H](C)[C@@H](NC(=O)[C@@H](O)Cc1ccc(O)c(Cl)c1)C(=O)N1[C@H](C(=O)NCCCCN=C(N)N)C[C@H]2CC[C@H](OS(=O)(=O)O)C[C@@H]21
REMARK SMILES IDX 22 1 36 2 46 3 35 4 23 5 45 6 37 7 39 8 38 9 20 10 21 11
REMARK SMILES IDX 5 12 6 13 7 14 8 15 9 17 11 18 12 19 17 20 19 21 15 22 14 23
REMARK SMILES IDX 13 24 18 25 16 26 10 28 3 30 4 31 2 32 1 33 24 34 25 35
REMARK SMILES IDX 26 36 27 38 28 39 29 40 30 41 31 42 32 43 33 44 34 45 40 50
REMARK SMILES IDX 41 51 42 52 43 53 44 54
REMARK H PARENT 6 16 16 27 10 29 26 37 33 46 33 47 34 48 34 49 44 55
ROOT
ATOM      1  N   UNL     1      -6.134   4.760  -2.571  1.00  0.00    -0.326 N 
ATOM      2  C   UNL     1      -6.799   3.362  -0.797  1.00  0.00     0.014 C 
ATOM      3  C   UNL     1      -7.104   4.701  -1.473  1.00  0.00     0.091 C 
ATOM      4  C   UNL     1      -5.291   3.244  -0.953  1.00  0.00     0.041 C 
ATOM      5  C   UNL     1      -5.134   3.674  -2.423  1.00  0.00     0.175 C 
ATOM      6  C   UNL     1      -8.591   4.741  -1.818  1.00  0.00     0.059 C 
ATOM      7  C   UNL     1      -7.410   3.303   0.589  1.00  0.00     0.008 C 
ATOM      8  C   UNL     1      -9.480   3.960  -0.826  1.00  0.00     0.143 C 
ATOM      9  C   UNL     1      -8.844   3.873   0.576  1.00  0.00     0.034 C 
ENDROOT
BRANCH   1  10
ATOM     10  C   UNL     1      -5.921   5.749  -3.516  1.00  0.00     0.246 C 
ATOM     11  O   UNL     1      -6.433   5.633  -4.634  1.00  0.00    -0.272 OA
BRANCH  10  12
ATOM     12  C   UNL     1      -5.080   7.003  -3.137  1.00  0.00     0.174 C 
BRANCH  12  13
ATOM     13  N   UNL     1      -4.095   7.277  -4.183  1.00  0.00    -0.342 N 
ATOM     14  C   UNL     1      -3.967   8.472  -4.854  1.00  0.00     0.249 C 
ATOM     15  O   UNL     1      -4.655   9.459  -4.627  1.00  0.00    -0.272 OA
ATOM     16  H   UNL     1      -3.562   6.510  -4.586  1.00  0.00     0.164 HD
BRANCH  14  17
ATOM     17  C   UNL     1      -2.845   8.442  -5.914  1.00  0.00     0.207 C 
BRANCH  17  18
ATOM     18  C   UNL     1      -1.489   8.179  -5.251  1.00  0.00     0.077 C 
BRANCH  18  19
ATOM     19  C   UNL     1      -1.021   9.366  -4.439  1.00  0.00    -0.043 A 
ATOM     20  C   UNL     1      -1.011  10.621  -2.363  1.00  0.00     0.083 A 
ATOM     21  C   UNL     1      -1.404   9.500  -3.095  1.00  0.00     0.028 A 
ATOM     22  C   UNL     1      -0.237  11.613  -2.966  1.00  0.00     0.134 A 
ATOM     23  C   UNL     1       0.150  11.492  -4.296  1.00  0.00     0.048 A 
ATOM     24  C   UNL     1      -0.243  10.373  -5.032  1.00  0.00     0.008 A 
ATOM     25  Cl  UNL     1      -1.492  10.768  -0.713  1.00  0.00    -0.080 Cl
BRANCH  22  26
ATOM     26  O   UNL     1       0.163  12.734  -2.291  1.00  0.00    -0.506 OA
ATOM     27  H   UNL     1       0.551  12.431  -1.449  1.00  0.00     0.293 HD
ENDBRANCH  22  26
ENDBRANCH  18  19
ENDBRANCH  17  18
BRANCH  17  28
ATOM     28  O   UNL     1      -2.787   9.680  -6.641  1.00  0.00    -0.383 OA
ATOM     29  H   UNL     1      -2.874  10.394  -5.970  1.00  0.00     0.211 HD
ENDBRANCH  17  28
ENDBRANCH  14  17
ENDBRANCH  12  13
BRANCH  12  30
ATOM     30  C   UNL     1      -4.434   6.889  -1.730  1.00  0.00     0.018 C 
ATOM     31  C   UNL     1      -4.564   8.213  -0.961  1.00  0.00     0.010 C 
BRANCH  30  32
ATOM     32  C   UNL     1      -2.955   6.434  -1.760  1.00  0.00     0.002 C 
ATOM     33  C   UNL     1      -2.093   6.945  -0.613  1.00  0.00     0.004 C 
ENDBRANCH  30  32
ENDBRANCH  12  30
ENDBRANCH  10  12
ENDBRANCH   1  10
BRANCH   5  34
ATOM     34  C   UNL     1      -5.443   2.505  -3.397  1.00  0.00     0.242 C 
ATOM     35  O   UNL     1      -6.431   1.783  -3.265  1.00  0.00    -0.273 OA
ATOM     36  N   UNL     1      -4.505   2.302  -4.384  1.00  0.00    -0.354 N 
ATOM     37  H   UNL     1      -3.648   2.856  -4.369  1.00  0.00     0.163 HD
BRANCH  36  38
ATOM     38  C   UNL     1      -4.736   1.405  -5.498  1.00  0.00     0.116 C 
BRANCH  38  39
ATOM     39  C   UNL     1      -4.693   2.185  -6.809  1.00  0.00     0.023 C 
BRANCH  39  40
ATOM     40  C   UNL     1      -5.551   3.446  -6.765  1.00  0.00     0.026 C 
BRANCH  40  41
ATOM     41  C   UNL     1      -6.933   3.182  -7.362  1.00  0.00     0.146 C 
BRANCH  41  42
ATOM     42  N   UNL     1      -7.629   2.178  -6.568  1.00  0.00    -0.254 NA
ATOM     43  C   UNL     1      -8.490   2.546  -5.696  1.00  0.00     0.185 C 
ATOM     44  N   UNL     1      -8.902   3.780  -5.353  1.00  0.00    -0.370 N 
ATOM     45  N   UNL     1      -9.117   1.605  -4.971  1.00  0.00    -0.370 N 
ATOM     46  H   UNL     1      -9.397   3.935  -4.491  1.00  0.00     0.159 HD
ATOM     47  H   UNL     1      -8.539   4.610  -5.812  1.00  0.00     0.159 HD
ATOM     48  H   UNL     1      -8.871   0.645  -5.173  1.00  0.00     0.159 HD
ATOM     49  H   UNL     1      -9.957   1.789  -4.450  1.00  0.00     0.159 HD
ENDBRANCH  41  42
ENDBRANCH  40  41
ENDBRANCH  39  40
ENDBRANCH  38  39
ENDBRANCH  36  38
ENDBRANCH   5  34
BRANCH   8  50
ATOM     50  O   UNL     1      -9.704   2.634  -1.306  1.00  0.00    -0.245 OA
BRANCH  50  51
ATOM     51  S   UNL     1     -11.107   2.275  -2.047  1.00  0.00     0.397 S 
ATOM     52  O   UNL     1     -11.094   2.896  -3.352  1.00  0.00    -0.169 OA
ATOM     53  O   UNL     1     -12.207   2.467  -1.125  1.00  0.00    -0.169 OA
BRANCH  51  54
ATOM     54  O   UNL     1     -10.951   0.696  -2.312  1.00  0.00    -0.264 OA
ATOM     55  H   UNL     1     -11.839   0.339  -2.518  1.00  0.00     0.236 HD
ENDBRANCH  51  54
ENDBRANCH  50  51
ENDBRANCH   8  50
TORSDOF 19
ENDMDL
MODEL 48
REMARK VINA RESULT:    -6.540     11.578     14.989
REMARK INTER + INTRA:         -16.140
REMARK INTER:                 -12.947
REMARK INTRA:                  -3.194
REMARK UNBOUND:                -2.911
REMARK SMILES CC[C@@H](C)[C@@H](NC(=O)[C@@H](O)Cc1ccc(O)c(Cl)c1)C(=O)N1[C@H](C(=O)NCCCCN=C(N)N)C[C@H]2CC[C@H](OS(=O)(=O)O)C[C@@H]21
REMARK SMILES IDX 22 1 36 2 46 3 35 4 23 5 45 6 37 7 39 8 38 9 20 10 21 11
REMARK SMILES IDX 5 12 6 13 7 14 8 15 9 17 11 18 12 19 17 20 19 21 15 22 14 23
REMARK SMILES IDX 13 24 18 25 16 26 10 28 3 30 4 31 2 32 1 33 24 34 25 35
REMARK SMILES IDX 26 36 27 38 28 39 29 40 30 41 31 42 32 43 33 44 34 45 40 50
REMARK SMILES IDX 41 51 42 52 43 53 44 54
REMARK H PARENT 6 16 16 27 10 29 26 37 33 46 33 47 34 48 34 49 44 55
ROOT
ATOM      1  N   UNL     1      -6.258   4.112  -5.802  1.00  0.00    -0.326 N 
ATOM      2  C   UNL     1      -6.896   3.478  -7.978  1.00  0.00     0.014 C 
ATOM      3  C   UNL     1      -5.688   3.576  -7.042  1.00  0.00     0.091 C 
ATOM      4  C   UNL     1      -7.734   4.680  -7.570  1.00  0.00     0.041 C 
ATOM      5  C   UNL     1      -7.652   4.562  -6.037  1.00  0.00     0.175 C 
ATOM      6  C   UNL     1      -5.002   2.212  -6.994  1.00  0.00     0.059 C 
ATOM      7  C   UNL     1      -6.454   3.335  -9.421  1.00  0.00     0.008 C 
ATOM      8  C   UNL     1      -5.114   1.414  -8.311  1.00  0.00     0.143 C 
ATOM      9  C   UNL     1      -5.284   2.336  -9.535  1.00  0.00     0.034 C 
ENDROOT
BRANCH   1  10
ATOM     10  C   UNL     1      -5.638   4.430  -4.606  1.00  0.00     0.246 C 
ATOM     11  O   UNL     1      -5.673   3.617  -3.676  1.00  0.00    -0.272 OA
BRANCH  10  12
ATOM     12  C   UNL     1      -4.877   5.780  -4.472  1.00  0.00     0.174 C 
BRANCH  12  13
ATOM     13  N   UNL     1      -5.306   6.477  -3.260  1.00  0.00    -0.342 N 
ATOM     14  C   UNL     1      -4.584   6.543  -2.089  1.00  0.00     0.249 C 
ATOM     15  O   UNL     1      -3.476   6.043  -1.942  1.00  0.00    -0.272 OA
ATOM     16  H   UNL     1      -6.265   6.804  -3.180  1.00  0.00     0.164 HD
BRANCH  14  17
ATOM     17  C   UNL     1      -5.313   7.337  -0.984  1.00  0.00     0.207 C 
BRANCH  17  18
ATOM     18  C   UNL     1      -6.788   7.533  -1.350  1.00  0.00     0.077 C 
BRANCH  18  19
ATOM     19  C   UNL     1      -7.672   6.496  -0.694  1.00  0.00    -0.043 A 
ATOM     20  C   UNL     1      -9.660   5.927   0.575  1.00  0.00     0.083 A 
ATOM     21  C   UNL     1      -8.871   6.879  -0.072  1.00  0.00     0.028 A 
ATOM     22  C   UNL     1      -9.257   4.592   0.607  1.00  0.00     0.134 A 
ATOM     23  C   UNL     1      -8.073   4.199  -0.005  1.00  0.00     0.048 A 
ATOM     24  C   UNL     1      -7.280   5.149  -0.652  1.00  0.00     0.008 A 
ATOM     25  Cl  UNL     1     -11.129   6.417   1.334  1.00  0.00    -0.080 Cl
BRANCH  22  26
ATOM     26  O   UNL     1      -9.992   3.625   1.238  1.00  0.00    -0.506 OA
ATOM     27  H   UNL     1     -10.242   3.987   2.108  1.00  0.00     0.293 HD
ENDBRANCH  22  26
ENDBRANCH  18  19
ENDBRANCH  17  18
BRANCH  17  28
ATOM     28  O   UNL     1      -4.699   8.619  -0.777  1.00  0.00    -0.383 OA
ATOM     29  H   UNL     1      -3.818   8.437  -0.377  1.00  0.00     0.211 HD
ENDBRANCH  17  28
ENDBRANCH  14  17
ENDBRANCH  12  13
BRANCH  12  30
ATOM     30  C   UNL     1      -5.001   6.667  -5.740  1.00  0.00     0.018 C 
ATOM     31  C   UNL     1      -3.623   7.186  -6.181  1.00  0.00     0.010 C 
BRANCH  30  32
ATOM     32  C   UNL     1      -5.987   7.850  -5.578  1.00  0.00     0.002 C 
ATOM     33  C   UNL     1      -5.634   9.105  -6.364  1.00  0.00     0.004 C 
ENDBRANCH  30  32
ENDBRANCH  12  30
ENDBRANCH  10  12
ENDBRANCH   1  10
BRANCH   5  34
ATOM     34  C   UNL     1      -8.665   3.522  -5.488  1.00  0.00     0.242 C 
ATOM     35  O   UNL     1      -9.882   3.700  -5.539  1.00  0.00    -0.273 OA
ATOM     36  N   UNL     1      -8.104   2.415  -4.893  1.00  0.00    -0.354 N 
ATOM     37  H   UNL     1      -7.091   2.381  -4.774  1.00  0.00     0.163 HD
BRANCH  36  38
ATOM     38  C   UNL     1      -8.888   1.254  -4.524  1.00  0.00     0.116 C 
BRANCH  38  39
ATOM     39  C   UNL     1      -9.432   1.426  -3.108  1.00  0.00     0.023 C 
BRANCH  39  40
ATOM     40  C   UNL     1     -10.910   1.064  -3.003  1.00  0.00     0.026 C 
BRANCH  40  41
ATOM     41  C   UNL     1     -11.620   1.970  -1.997  1.00  0.00     0.146 C 
BRANCH  41  42
ATOM     42  N   UNL     1     -10.978   3.278  -1.974  1.00  0.00    -0.254 NA
ATOM     43  C   UNL     1     -11.367   4.188  -2.785  1.00  0.00     0.185 C 
ATOM     44  N   UNL     1     -12.330   4.157  -3.724  1.00  0.00    -0.370 N 
ATOM     45  N   UNL     1     -10.759   5.386  -2.751  1.00  0.00    -0.370 N 
ATOM     46  H   UNL     1     -12.363   4.854  -4.449  1.00  0.00     0.159 HD
ATOM     47  H   UNL     1     -12.900   3.330  -3.876  1.00  0.00     0.159 HD
ATOM     48  H   UNL     1     -10.026   5.497  -2.064  1.00  0.00     0.159 HD
ATOM     49  H   UNL     1     -11.152   6.207  -3.175  1.00  0.00     0.159 HD
ENDBRANCH  41  42
ENDBRANCH  40  41
ENDBRANCH  39  40
ENDBRANCH  38  39
ENDBRANCH  36  38
ENDBRANCH   5  34
BRANCH   8  50
ATOM     50  O   UNL     1      -6.232   0.527  -8.254  1.00  0.00    -0.245 OA
BRANCH  50  51
ATOM     51  S   UNL     1      -6.148  -0.811  -7.333  1.00  0.00     0.397 S 
ATOM     52  O   UNL     1      -7.196  -1.712  -7.758  1.00  0.00    -0.169 OA
ATOM     53  O   UNL     1      -5.987  -0.436  -5.944  1.00  0.00    -0.169 OA
BRANCH  51  54
ATOM     54  O   UNL     1      -4.771  -1.476  -7.831  1.00  0.00    -0.264 OA
ATOM     55  H   UNL     1      -4.648  -1.237  -8.772  1.00  0.00     0.236 HD
ENDBRANCH  51  54
ENDBRANCH  50  51
ENDBRANCH   8  50
TORSDOF 19
ENDMDL
MODEL 49
REMARK VINA RESULT:    -6.504     10.692     13.686
REMARK INTER + INTRA:         -16.068
REMARK INTER:                 -12.892
REMARK INTRA:                  -3.177
REMARK UNBOUND:                -2.911
REMARK SMILES CC[C@@H](C)[C@@H](NC(=O)[C@@H](O)Cc1ccc(O)c(Cl)c1)C(=O)N1[C@H](C(=O)NCCCCN=C(N)N)C[C@H]2CC[C@H](OS(=O)(=O)O)C[C@@H]21
REMARK SMILES IDX 22 1 36 2 46 3 35 4 23 5 45 6 37 7 39 8 38 9 20 10 21 11
REMARK SMILES IDX 5 12 6 13 7 14 8 15 9 17 11 18 12 19 17 20 19 21 15 22 14 23
REMARK SMILES IDX 13 24 18 25 16 26 10 28 3 30 4 31 2 32 1 33 24 34 25 35
REMARK SMILES IDX 26 36 27 38 28 39 29 40 30 41 31 42 32 43 33 44 34 45 40 50
REMARK SMILES IDX 41 51 42 52 43 53 44 54
REMARK H PARENT 6 16 16 27 10 29 26 37 33 46 33 47 34 48 34 49 44 55
ROOT
ATOM      1  N   UNL     1      -6.271   6.118  -2.037  1.00  0.00    -0.326 N 
ATOM      2  C   UNL     1      -6.604   3.996  -1.073  1.00  0.00     0.014 C 
ATOM      3  C   UNL     1      -6.592   5.493  -0.751  1.00  0.00     0.091 C 
ATOM      4  C   UNL     1      -5.514   3.871  -2.126  1.00  0.00     0.041 C 
ATOM      5  C   UNL     1      -5.853   5.082  -3.014  1.00  0.00     0.175 C 
ATOM      6  C   UNL     1      -7.917   5.854  -0.081  1.00  0.00     0.059 C 
ATOM      7  C   UNL     1      -6.513   3.168   0.193  1.00  0.00     0.008 C 
ATOM      8  C   UNL     1      -8.516   4.710   0.766  1.00  0.00     0.143 C 
ATOM      9  C   UNL     1      -7.432   3.747   1.290  1.00  0.00     0.034 C 
ENDROOT
BRANCH   1  10
ATOM     10  C   UNL     1      -6.105   7.454  -2.358  1.00  0.00     0.246 C 
ATOM     11  O   UNL     1      -7.089   8.115  -2.708  1.00  0.00    -0.272 OA
BRANCH  10  12
ATOM     12  C   UNL     1      -4.698   8.105  -2.230  1.00  0.00     0.174 C 
BRANCH  12  13
ATOM     13  N   UNL     1      -3.974   7.981  -3.495  1.00  0.00    -0.342 N 
ATOM     14  C   UNL     1      -3.851   8.978  -4.437  1.00  0.00     0.249 C 
ATOM     15  O   UNL     1      -4.318  10.102  -4.304  1.00  0.00    -0.272 OA
ATOM     16  H   UNL     1      -3.669   7.064  -3.813  1.00  0.00     0.164 HD
BRANCH  14  17
ATOM     17  C   UNL     1      -3.042   8.532  -5.673  1.00  0.00     0.207 C 
BRANCH  17  18
ATOM     18  C   UNL     1      -3.920   7.707  -6.619  1.00  0.00     0.077 C 
BRANCH  18  19
ATOM     19  C   UNL     1      -3.305   7.588  -7.996  1.00  0.00    -0.043 A 
ATOM     20  C   UNL     1      -3.005   6.359 -10.065  1.00  0.00     0.083 A 
ATOM     21  C   UNL     1      -3.612   6.491  -8.816  1.00  0.00     0.028 A 
ATOM     22  C   UNL     1      -2.090   7.317 -10.502  1.00  0.00     0.134 A 
ATOM     23  C   UNL     1      -1.777   8.409  -9.700  1.00  0.00     0.048 A 
ATOM     24  C   UNL     1      -2.382   8.543  -8.448  1.00  0.00     0.008 A 
ATOM     25  Cl  UNL     1      -3.394   5.004 -11.059  1.00  0.00    -0.080 Cl
BRANCH  22  26
ATOM     26  O   UNL     1      -1.462   7.225 -11.715  1.00  0.00    -0.506 OA
ATOM     27  H   UNL     1      -2.147   6.994 -12.368  1.00  0.00     0.293 HD
ENDBRANCH  22  26
ENDBRANCH  18  19
ENDBRANCH  17  18
BRANCH  17  28
ATOM     28  O   UNL     1      -1.895   7.757  -5.289  1.00  0.00    -0.383 OA
ATOM     29  H   UNL     1      -1.289   8.379  -4.825  1.00  0.00     0.211 HD
ENDBRANCH  17  28
ENDBRANCH  14  17
ENDBRANCH  12  13
BRANCH  12  30
ATOM     30  C   UNL     1      -3.888   7.551  -1.027  1.00  0.00     0.018 C 
ATOM     31  C   UNL     1      -3.203   8.692  -0.258  1.00  0.00     0.010 C 
BRANCH  30  32
ATOM     32  C   UNL     1      -2.846   6.476  -1.422  1.00  0.00     0.002 C 
ATOM     33  C   UNL     1      -1.533   6.528  -0.652  1.00  0.00     0.004 C 
ENDBRANCH  30  32
ENDBRANCH  12  30
ENDBRANCH  10  12
ENDBRANCH   1  10
BRANCH   5  34
ATOM     34  C   UNL     1      -7.006   4.762  -4.003  1.00  0.00     0.242 C 
ATOM     35  O   UNL     1      -7.994   5.486  -4.118  1.00  0.00    -0.273 OA
ATOM     36  N   UNL     1      -6.868   3.582  -4.700  1.00  0.00    -0.354 N 
ATOM     37  H   UNL     1      -6.086   2.966  -4.474  1.00  0.00     0.163 HD
BRANCH  36  38
ATOM     38  C   UNL     1      -7.731   3.235  -5.811  1.00  0.00     0.116 C 
BRANCH  38  39
ATOM     39  C   UNL     1      -8.783   2.227  -5.354  1.00  0.00     0.023 C 
BRANCH  39  40
ATOM     40  C   UNL     1     -10.164   2.855  -5.202  1.00  0.00     0.026 C 
BRANCH  40  41
ATOM     41  C   UNL     1     -10.530   3.009  -3.726  1.00  0.00     0.146 C 
BRANCH  41  42
ATOM     42  N   UNL     1      -9.441   2.515  -2.894  1.00  0.00    -0.254 NA
ATOM     43  C   UNL     1      -9.594   1.433  -2.227  1.00  0.00     0.185 C 
ATOM     44  N   UNL     1     -10.654   0.608  -2.148  1.00  0.00    -0.370 N 
ATOM     45  N   UNL     1      -8.579   0.996  -1.463  1.00  0.00    -0.370 N 
ATOM     46  H   UNL     1     -10.726  -0.065  -1.404  1.00  0.00     0.159 HD
ATOM     47  H   UNL     1     -11.505   0.781  -2.675  1.00  0.00     0.159 HD
ATOM     48  H   UNL     1      -7.738   1.557  -1.472  1.00  0.00     0.159 HD
ATOM     49  H   UNL     1      -8.531   0.058  -1.107  1.00  0.00     0.159 HD
ENDBRANCH  41  42
ENDBRANCH  40  41
ENDBRANCH  39  40
ENDBRANCH  38  39
ENDBRANCH  36  38
ENDBRANCH   5  34
BRANCH   8  50
ATOM     50  O   UNL     1      -9.450   3.962  -0.012  1.00  0.00    -0.245 OA
BRANCH  50  51
ATOM     51  S   UNL     1     -11.044   4.242   0.157  1.00  0.00     0.397 S 
ATOM     52  O   UNL     1     -11.421   5.262  -0.796  1.00  0.00    -0.169 OA
ATOM     53  O   UNL     1     -11.370   4.358   1.563  1.00  0.00    -0.169 OA
BRANCH  51  54
ATOM     54  O   UNL     1     -11.685   2.873  -0.390  1.00  0.00    -0.264 OA
ATOM     55  H   UNL     1     -10.961   2.222  -0.488  1.00  0.00     0.236 HD
ENDBRANCH  51  54
ENDBRANCH  50  51
ENDBRANCH   8  50
TORSDOF 19
ENDMDL
MODEL 50
REMARK VINA RESULT:    -6.497     17.314     20.069
REMARK INTER + INTRA:         -16.053
REMARK INTER:                 -11.603
REMARK INTRA:                  -4.451
REMARK UNBOUND:                -2.911
REMARK SMILES CC[C@@H](C)[C@@H](NC(=O)[C@@H](O)Cc1ccc(O)c(Cl)c1)C(=O)N1[C@H](C(=O)NCCCCN=C(N)N)C[C@H]2CC[C@H](OS(=O)(=O)O)C[C@@H]21
REMARK SMILES IDX 22 1 36 2 46 3 35 4 23 5 45 6 37 7 39 8 38 9 20 10 21 11
REMARK SMILES IDX 5 12 6 13 7 14 8 15 9 17 11 18 12 19 17 20 19 21 15 22 14 23
REMARK SMILES IDX 13 24 18 25 16 26 10 28 3 30 4 31 2 32 1 33 24 34 25 35
REMARK SMILES IDX 26 36 27 38 28 39 29 40 30 41 31 42 32 43 33 44 34 45 40 50
REMARK SMILES IDX 41 51 42 52 43 53 44 54
REMARK H PARENT 6 16 16 27 10 29 26 37 33 46 33 47 34 48 34 49 44 55
ROOT
ATOM      1  N   UNL     1      14.574  -9.184  11.584  1.00  0.00    -0.326 N 
ATOM      2  C   UNL     1      14.495 -11.352  10.670  1.00  0.00     0.014 C 
ATOM      3  C   UNL     1      14.412 -10.583  11.991  1.00  0.00     0.091 C 
ATOM      4  C   UNL     1      15.502 -10.539   9.871  1.00  0.00     0.041 C 
ATOM      5  C   UNL     1      14.994  -9.115  10.162  1.00  0.00     0.175 C 
ATOM      6  C   UNL     1      13.121 -10.984  12.703  1.00  0.00     0.059 C 
ATOM      7  C   UNL     1      14.757 -12.825  10.915  1.00  0.00     0.008 C 
ATOM      8  C   UNL     1      12.688 -12.441  12.430  1.00  0.00     0.143 C 
ATOM      9  C   UNL     1      13.887 -13.346  12.079  1.00  0.00     0.034 C 
ENDROOT
BRANCH   1  10
ATOM     10  C   UNL     1      14.604  -8.034  12.353  1.00  0.00     0.246 C 
ATOM     11  O   UNL     1      15.551  -7.250  12.226  1.00  0.00    -0.272 OA
BRANCH  10  12
ATOM     12  C   UNL     1      13.427  -7.731  13.325  1.00  0.00     0.174 C 
BRANCH  12  13
ATOM     13  N   UNL     1      12.526  -6.747  12.726  1.00  0.00    -0.342 N 
ATOM     14  C   UNL     1      11.234  -7.002  12.323  1.00  0.00     0.249 C 
ATOM     15  O   UNL     1      10.681  -8.087  12.451  1.00  0.00    -0.272 OA
ATOM     16  H   UNL     1      12.892  -5.851  12.415  1.00  0.00     0.164 HD
BRANCH  14  17
ATOM     17  C   UNL     1      10.545  -5.763  11.712  1.00  0.00     0.207 C 
BRANCH  17  18
ATOM     18  C   UNL     1      10.104  -4.796  12.815  1.00  0.00     0.077 C 
BRANCH  18  19
ATOM     19  C   UNL     1       9.492  -3.536  12.246  1.00  0.00    -0.043 A 
ATOM     20  C   UNL     1       7.547  -2.151  11.816  1.00  0.00     0.083 A 
ATOM     21  C   UNL     1       8.117  -3.291  12.385  1.00  0.00     0.028 A 
ATOM     22  C   UNL     1       8.344  -1.252  11.106  1.00  0.00     0.134 A 
ATOM     23  C   UNL     1       9.707  -1.483  10.961  1.00  0.00     0.048 A 
ATOM     24  C   UNL     1      10.280  -2.624  11.527  1.00  0.00     0.008 A 
ATOM     25  Cl  UNL     1       5.856  -1.867  11.997  1.00  0.00    -0.080 Cl
BRANCH  22  26
ATOM     26  O   UNL     1       7.829  -0.127  10.521  1.00  0.00    -0.506 OA
ATOM     27  H   UNL     1       8.530   0.238   9.951  1.00  0.00     0.293 HD
ENDBRANCH  22  26
ENDBRANCH  18  19
ENDBRANCH  17  18
BRANCH  17  28
ATOM     28  O   UNL     1       9.404  -6.141  10.924  1.00  0.00    -0.383 OA
ATOM     29  H   UNL     1       9.626  -7.013  10.525  1.00  0.00     0.211 HD
ENDBRANCH  17  28
ENDBRANCH  14  17
ENDBRANCH  12  13
BRANCH  12  30
ATOM     30  C   UNL     1      13.911  -7.307  14.738  1.00  0.00     0.018 C 
ATOM     31  C   UNL     1      13.328  -8.235  15.816  1.00  0.00     0.010 C 
BRANCH  30  32
ATOM     32  C   UNL     1      13.601  -5.830  15.084  1.00  0.00     0.002 C 
ATOM     33  C   UNL     1      14.764  -4.862  14.908  1.00  0.00     0.004 C 
ENDBRANCH  30  32
ENDBRANCH  12  30
ENDBRANCH  10  12
ENDBRANCH   1  10
BRANCH   5  34
ATOM     34  C   UNL     1      13.794  -8.739   9.252  1.00  0.00     0.242 C 
ATOM     35  O   UNL     1      12.739  -8.294   9.705  1.00  0.00    -0.273 OA
ATOM     36  N   UNL     1      13.975  -8.989   7.910  1.00  0.00    -0.354 N 
ATOM     37  H   UNL     1      14.825  -9.470   7.611  1.00  0.00     0.163 HD
BRANCH  36  38
ATOM     38  C   UNL     1      13.055  -8.506   6.902  1.00  0.00     0.116 C 
BRANCH  38  39
ATOM     39  C   UNL     1      12.577  -9.669   6.036  1.00  0.00     0.023 C 
BRANCH  39  40
ATOM     40  C   UNL     1      11.058  -9.723   5.920  1.00  0.00     0.026 C 
BRANCH  40  41
ATOM     41  C   UNL     1      10.442 -10.364   7.165  1.00  0.00     0.146 C 
BRANCH  41  42
ATOM     42  N   UNL     1       9.389  -9.506   7.690  1.00  0.00    -0.254 NA
ATOM     43  C   UNL     1       9.376  -9.208   8.935  1.00  0.00     0.185 C 
ATOM     44  N   UNL     1      10.220  -9.568   9.919  1.00  0.00    -0.370 N 
ATOM     45  N   UNL     1       8.394  -8.419   9.401  1.00  0.00    -0.370 N 
ATOM     46  H   UNL     1       9.956  -9.465  10.884  1.00  0.00     0.159 HD
ATOM     47  H   UNL     1      11.030 -10.154   9.740  1.00  0.00     0.159 HD
ATOM     48  H   UNL     1       7.719  -8.096   8.721  1.00  0.00     0.159 HD
ATOM     49  H   UNL     1       8.444  -7.955  10.290  1.00  0.00     0.159 HD
ENDBRANCH  41  42
ENDBRANCH  40  41
ENDBRANCH  39  40
ENDBRANCH  38  39
ENDBRANCH  36  38
ENDBRANCH   5  34
BRANCH   8  50
ATOM     50  O   UNL     1      11.757 -12.481  11.348  1.00  0.00    -0.245 OA
BRANCH  50  51
ATOM     51  S   UNL     1      10.166 -12.603  11.661  1.00  0.00     0.397 S 
ATOM     52  O   UNL     1       9.722 -11.343  12.214  1.00  0.00    -0.169 OA
ATOM     53  O   UNL     1       9.897 -13.861  12.326  1.00  0.00    -0.169 OA
BRANCH  51  54
ATOM     54  O   UNL     1       9.538 -12.679  10.183  1.00  0.00    -0.264 OA
ATOM     55  H   UNL     1      10.178 -12.270   9.566  1.00  0.00     0.236 HD
ENDBRANCH  51  54
ENDBRANCH  50  51
ENDBRANCH   8  50
TORSDOF 19
ENDMDL
