24970830
  -OEChem-01042617063D

 70 73  0     1  0  0  0  0  0999 V2000
    1.9963   -4.1223    1.0026 S   0  0  0  0  0  0  0  0  0  0  0  0
    2.3270    4.2194    1.6425 S   0  0  0  0  0  0  0  0  0  0  0  0
   -2.7839    1.3201    0.7707 O   0  0  0  0  0  0  0  0  0  0  0  0
   -2.0268   -3.3918   -0.8178 O   0  0  0  0  0  0  0  0  0  0  0  0
   -0.2261    2.0111   -1.9911 O   0  0  0  0  0  0  0  0  0  0  0  0
    3.8115   -0.0536    2.2756 O   0  0  0  0  0  0  0  0  0  0  0  0
   -2.0397   -1.3390    0.2705 N   0  0  0  0  0  0  0  0  0  0  0  0
   -2.7614    1.4044   -1.5146 N   0  0  0  0  0  0  0  0  0  0  0  0
    0.7557   -1.9538    0.2523 N   0  0  0  0  0  0  0  0  0  0  0  0
    2.9901   -0.3611    0.1301 N   0  0  0  0  0  0  0  0  0  0  0  0
   -0.2683    3.9930   -0.7909 N   0  0  0  0  0  0  0  0  0  0  0  0
    2.2129    2.2368    0.0073 N   0  0  0  0  0  0  0  0  0  0  0  0
   -3.1961   -0.7572   -0.3913 C   0  0  1  0  0  0  0  0  0  0  0  0
   -4.4872   -1.0692    0.3461 C   0  0  2  0  0  0  0  0  0  0  0  0
   -2.9158    0.7133   -0.4304 C   0  0  0  0  0  0  0  0  0  0  0  0
    3.2194   -1.7967    0.0273 C   0  0  2  0  0  0  0  0  0  0  0  0
    3.6268   -2.1672   -1.3922 C   0  0  2  0  0  0  0  0  0  0  0  0
   -2.6494    2.7057    0.4699 C   0  0  1  0  0  0  0  0  0  0  0  0
   -4.7947   -2.5799    0.3968 C   0  0  0  0  0  0  0  0  0  0  0  0
   -2.3304    2.7257   -1.0227 C   0  0  1  0  0  0  0  0  0  0  0  0
   -0.2699   -2.8843    0.7757 C   0  0  1  0  0  0  0  0  0  0  0  0
    1.9277   -2.4799    0.4038 C   0  0  0  0  0  0  0  0  0  0  0  0
   -5.6607   -0.3306   -0.3096 C   0  0  0  0  0  0  0  0  0  0  0  0
   -1.5341   -2.5984   -0.0215 C   0  0  0  0  0  0  0  0  0  0  0  0
    0.2370   -4.3135    0.6399 C   0  0  0  0  0  0  0  0  0  0  0  0
    4.9427   -1.4926   -1.8266 C   0  0  0  0  0  0  0  0  0  0  0  0
    2.5096   -1.7926   -2.3725 C   0  0  0  0  0  0  0  0  0  0  0  0
   -3.9580    3.4112    0.7998 C   0  0  0  0  0  0  0  0  0  0  0  0
   -6.0891   -2.9098    1.1264 C   0  0  0  0  0  0  0  0  0  0  0  0
   -0.8378    2.8447   -1.3245 C   0  0  0  0  0  0  0  0  0  0  0  0
    6.1314   -1.8621   -0.9507 C   0  0  0  0  0  0  0  0  0  0  0  0
    3.2715    0.3850    1.2641 C   0  0  0  0  0  0  0  0  0  0  0  0
    1.1509    4.2861   -0.8919 C   0  0  0  0  0  0  0  0  0  0  0  0
    2.8413    1.7733    1.1536 C   0  0  0  0  0  0  0  0  0  0  0  0
    1.8808    3.5020    0.1475 C   0  0  0  0  0  0  0  0  0  0  0  0
    2.9968    2.7236    2.1457 C   0  0  0  0  0  0  0  0  0  0  0  0
   -3.2366   -1.1387   -1.4189 H   0  0  0  0  0  0  0  0  0  0  0  0
   -4.4098   -0.7094    1.3818 H   0  0  0  0  0  0  0  0  0  0  0  0
    3.9853   -2.0877    0.7539 H   0  0  0  0  0  0  0  0  0  0  0  0
    3.7678   -3.2544   -1.4549 H   0  0  0  0  0  0  0  0  0  0  0  0
   -1.8477    3.1138    1.0931 H   0  0  0  0  0  0  0  0  0  0  0  0
   -3.9927   -3.0986    0.9321 H   0  0  0  0  0  0  0  0  0  0  0  0
   -4.8354   -2.9976   -0.6162 H   0  0  0  0  0  0  0  0  0  0  0  0
   -2.8497    3.5306   -1.5548 H   0  0  0  0  0  0  0  0  0  0  0  0
   -1.5728   -0.7853    0.9841 H   0  0  0  0  0  0  0  0  0  0  0  0
   -0.4679   -2.6460    1.8302 H   0  0  0  0  0  0  0  0  0  0  0  0
   -5.8506   -0.7079   -1.3205 H   0  0  0  0  0  0  0  0  0  0  0  0
   -5.4811    0.7455   -0.3833 H   0  0  0  0  0  0  0  0  0  0  0  0
   -6.5808   -0.4378    0.2729 H   0  0  0  0  0  0  0  0  0  0  0  0
   -0.2526   -4.9950    1.3408 H   0  0  0  0  0  0  0  0  0  0  0  0
    0.1249   -4.7059   -0.3756 H   0  0  0  0  0  0  0  0  0  0  0  0
    4.8352   -0.4015   -1.8469 H   0  0  0  0  0  0  0  0  0  0  0  0
    5.1717   -1.7980   -2.8555 H   0  0  0  0  0  0  0  0  0  0  0  0
    2.3072   -0.7192   -2.4194 H   0  0  0  0  0  0  0  0  0  0  0  0
    1.5745   -2.3222   -2.1722 H   0  0  0  0  0  0  0  0  0  0  0  0
    2.8048   -2.0900   -3.3867 H   0  0  0  0  0  0  0  0  0  0  0  0
    2.4800    0.1009   -0.6159 H   0  0  0  0  0  0  0  0  0  0  0  0
   -3.8877    4.4834    0.5937 H   0  0  0  0  0  0  0  0  0  0  0  0
   -4.2077    3.2729    1.8572 H   0  0  0  0  0  0  0  0  0  0  0  0
   -4.7933    2.9997    0.2238 H   0  0  0  0  0  0  0  0  0  0  0  0
   -6.1615   -3.9912    1.2837 H   0  0  0  0  0  0  0  0  0  0  0  0
   -6.9690   -2.6108    0.5494 H   0  0  0  0  0  0  0  0  0  0  0  0
   -6.1278   -2.4244    2.1066 H   0  0  0  0  0  0  0  0  0  0  0  0
    6.2343   -2.9482   -0.8630 H   0  0  0  0  0  0  0  0  0  0  0  0
    6.0408   -1.4373    0.0532 H   0  0  0  0  0  0  0  0  0  0  0  0
    7.0546   -1.4693   -1.3892 H   0  0  0  0  0  0  0  0  0  0  0  0
   -0.8532    4.6536   -0.2876 H   0  0  0  0  0  0  0  0  0  0  0  0
    1.2808    5.3657   -0.7691 H   0  0  0  0  0  0  0  0  0  0  0  0
    1.5034    4.0056   -1.8902 H   0  0  0  0  0  0  0  0  0  0  0  0
    3.4506    2.6162    3.1210 H   0  0  0  0  0  0  0  0  0  0  0  0
  1 22  1  0  0  0  0
  1 25  1  0  0  0  0
  2 35  1  0  0  0  0
  2 36  1  0  0  0  0
  3 15  1  0  0  0  0
  3 18  1  0  0  0  0
  4 24  2  0  0  0  0
  5 30  2  0  0  0  0
  6 32  2  0  0  0  0
  7 13  1  0  0  0  0
  7 24  1  0  0  0  0
  7 45  1  0  0  0  0
  8 15  2  0  0  0  0
  8 20  1  0  0  0  0
  9 21  1  0  0  0  0
  9 22  2  0  0  0  0
 10 16  1  0  0  0  0
 10 32  1  0  0  0  0
 10 57  1  0  0  0  0
 11 30  1  0  0  0  0
 11 33  1  0  0  0  0
 11 67  1  0  0  0  0
 12 34  1  0  0  0  0
 12 35  2  0  0  0  0
 13 14  1  0  0  0  0
 13 15  1  0  0  0  0
 13 37  1  0  0  0  0
 14 19  1  0  0  0  0
 14 23  1  0  0  0  0
 14 38  1  0  0  0  0
 16 17  1  0  0  0  0
 16 22  1  0  0  0  0
 16 39  1  0  0  0  0
 17 26  1  0  0  0  0
 17 27  1  0  0  0  0
 17 40  1  0  0  0  0
 18 20  1  0  0  0  0
 18 28  1  0  0  0  0
 18 41  1  0  0  0  0
 19 29  1  0  0  0  0
 19 42  1  0  0  0  0
 19 43  1  0  0  0  0
 20 30  1  0  0  0  0
 20 44  1  0  0  0  0
 21 24  1  0  0  0  0
 21 25  1  0  0  0  0
 21 46  1  0  0  0  0
 23 47  1  0  0  0  0
 23 48  1  0  0  0  0
 23 49  1  0  0  0  0
 25 50  1  0  0  0  0
 25 51  1  0  0  0  0
 26 31  1  0  0  0  0
 26 52  1  0  0  0  0
 26 53  1  0  0  0  0
 27 54  1  0  0  0  0
 27 55  1  0  0  0  0
 27 56  1  0  0  0  0
 28 58  1  0  0  0  0
 28 59  1  0  0  0  0
 28 60  1  0  0  0  0
 29 61  1  0  0  0  0
 29 62  1  0  0  0  0
 29 63  1  0  0  0  0
 31 64  1  0  0  0  0
 31 65  1  0  0  0  0
 31 66  1  0  0  0  0
 32 34  1  0  0  0  0
 33 35  1  0  0  0  0
 33 68  1  0  0  0  0
 33 69  1  0  0  0  0
 34 36  2  0  0  0  0
 36 70  1  0  0  0  0
M  END
> <PUBCHEM_COMPOUND_CID>
24970830

> <PUBCHEM_CONFORMER_RMSD>
1

> <PUBCHEM_CONFORMER_DIVERSEORDER>
1
16
14
29
19
11
24
22
9
28
10
18
21
13
26
12
20
6
27
7
23
4
2
17
30
3
15
5
8
25

> <PUBCHEM_MMFF94_PARTIAL_CHARGES>
31
1 -0.37
10 -0.73
11 -0.73
12 -0.57
13 0.36
15 0.54
16 0.36
18 0.28
2 -0.08
20 0.31
21 0.31
22 0.53
24 0.57
25 0.23
3 -0.43
30 0.57
32 0.72
33 0.48
34 0.14
35 0.2
36 -0.11
4 -0.57
45 0.37
5 -0.57
57 0.37
6 -0.57
67 0.37
7 -0.73
70 0.15
8 -0.7
9 -0.7

> <PUBCHEM_EFFECTIVE_ROTOR_COUNT>
6

> <PUBCHEM_PHARMACOPHORE_FEATURES>
15
1 10 donor
1 11 donor
1 12 acceptor
1 23 hydrophobe
1 27 hydrophobe
1 29 hydrophobe
1 31 hydrophobe
1 4 acceptor
1 5 acceptor
1 6 acceptor
1 7 donor
1 9 acceptor
5 1 9 21 22 25 rings
5 2 12 34 35 36 rings
5 3 8 15 18 20 rings

> <PUBCHEM_HEAVY_ATOM_COUNT>
36

> <PUBCHEM_ATOM_DEF_STEREO_COUNT>
7

> <PUBCHEM_ATOM_UDEF_STEREO_COUNT>
0

> <PUBCHEM_BOND_DEF_STEREO_COUNT>
0

> <PUBCHEM_BOND_UDEF_STEREO_COUNT>
0

> <PUBCHEM_ISOTOPIC_ATOM_COUNT>
0

> <PUBCHEM_COMPONENT_COUNT>
1

> <PUBCHEM_CACTVS_TAUTO_COUNT>
8

> <PUBCHEM_CONFORMER_ID>
017D064E00000001

> <PUBCHEM_MMFF94_ENERGY>
56.3448

> <PUBCHEM_FEATURE_SELFOVERLAP>
76.125

> <PUBCHEM_SHAPE_FINGERPRINT>
10653451 467 18271235132582214280
10670039 82 18188500068851408838
11513181 2 17911522313709709158
12107698 1 18060135414464739687
12156800 1 12263254081180917133
12677640 9 18199191681698038465
12712778 12 17110979571321051410
12925494 130 18339072667685279849
13122387 1 18193264192177322992
13402501 40 18410570691354640300
1361 2 18047750683504735851
14040221 299 17840577425545228776
14114211 80 17911252619448235673
14725015 67 18187348961628044507
15840311 113 18058749000108599523
15975801 100 17604144832008690908
161222 619 17684665598525997507
17974551 9 17345182312015323016
19319366 153 17608663708175629435
1979834 28 18124032592341963793
19930381 70 18336256920989407457
20764821 26 18264200327620824052
21133410 38 17841152461684183535
22113638 7 16681740702576937660
22440779 20 15120712969668591724
23559900 14 18410295856323782917
238918 7 18126826404591771904
46194498 28 17988933275149756734
463206 1 17978224963533252361
469060 322 18261690185545650291
5047190 69 18340200784037729474
5081480 168 17838376117166042886
508706 21 18337664200988249133
5252454 2 18047759195644593543
5776283 40 18193572266656566220
6287921 2 18268709591904129456
6823239 73 18412543180902760808

> <PUBCHEM_SHAPE_MULTIPOLES>
695.2
10.67
7.27
1.81
5.63
2.8
0.17
-6.26
-0.13
-0.84
-1.15
-1.87
0.57
2.78

> <PUBCHEM_SHAPE_SELFOVERLAP>
1434.527

> <PUBCHEM_SHAPE_VOLUME>
402.6

> <PUBCHEM_COORDINATE_TYPE>
2
5
10

$$$$
