139585806
  -OEChem-01042617063D

 71 73  0     1  0  0  0  0  0999 V2000
   -4.5997    2.4308    1.0051 S   0  0  0  0  0  0  0  0  0  0  0  0
    0.3227   -4.2253    0.2308 O   0  0  0  0  0  0  0  0  0  0  0  0
    5.6903    0.2925   -2.4181 O   0  0  0  0  0  0  0  0  0  0  0  0
    4.6245   -1.6345   -0.8240 O   0  0  0  0  0  0  0  0  0  0  0  0
   -3.7495   -2.9732    0.0876 O   0  0  0  0  0  0  0  0  0  0  0  0
    2.2420    2.9777   -1.8085 O   0  0  0  0  0  0  0  0  0  0  0  0
   -0.7356    4.8675    1.2770 O   0  0  0  0  0  0  0  0  0  0  0  0
    2.4320   -1.2978   -0.1674 N   0  0  0  0  0  0  0  0  0  0  0  0
   -2.7155   -0.9006   -0.0589 N   0  0  0  0  0  0  0  0  0  0  0  0
    2.9216    1.4080   -0.2525 N   0  0  0  0  0  0  0  0  0  0  0  0
   -0.2750   -2.0492    0.1825 N   0  0  0  0  0  0  0  0  0  0  0  0
   -2.2335    1.7709    0.2488 N   0  0  0  0  0  0  0  0  0  0  0  0
    0.2089    2.9221    0.4371 N   0  0  0  0  0  0  0  0  0  0  0  0
   -4.4486   -0.0117   -1.5490 C   0  0  2  0  0  0  0  0  0  0  0  0
   -3.8955   -0.0415   -0.1273 C   0  0  2  0  0  0  0  0  0  0  0  0
    2.1757   -2.6474    0.3299 C   0  0  1  0  0  0  0  0  0  0  0  0
    2.6699   -2.7889    1.7664 C   0  0  0  0  0  0  0  0  0  0  0  0
   -5.3238   -1.2382   -1.8672 C   0  0  0  0  0  0  0  0  0  0  0  0
    3.6449    0.5513   -1.1859 C   0  0  2  0  0  0  0  0  0  0  0  0
   -3.2962    0.0753   -2.5543 C   0  0  0  0  0  0  0  0  0  0  0  0
    0.7154   -2.9138    0.2418 C   0  0  0  0  0  0  0  0  0  0  0  0
   -3.4714    1.3294    0.3232 C   0  0  0  0  0  0  0  0  0  0  0  0
    3.6598   -0.8875   -0.6661 C   0  0  0  0  0  0  0  0  0  0  0  0
    1.9760   -1.7773    2.6766 C   0  0  0  0  0  0  0  0  0  0  0  0
    2.4438   -4.2111    2.2758 C   0  0  0  0  0  0  0  0  0  0  0  0
    5.0570    1.0785   -1.4148 C   0  0  1  0  0  0  0  0  0  0  0  0
   -6.5351   -1.3732   -0.9555 C   0  0  0  0  0  0  0  0  0  0  0  0
   -2.7393   -2.2789    0.0527 C   0  0  0  0  0  0  0  0  0  0  0  0
   -1.4039   -2.8352    0.1273 C   0  0  0  0  0  0  0  0  0  0  0  0
    1.5968    3.3563    0.4693 C   0  0  2  0  0  0  0  0  0  0  0  0
    2.3124    2.5902   -0.6402 C   0  0  0  0  0  0  0  0  0  0  0  0
    5.8874    1.0355   -0.1425 C   0  0  0  0  0  0  0  0  0  0  0  0
   -1.0379   -4.1605    0.1618 C   0  0  0  0  0  0  0  0  0  0  0  0
   -2.1358    3.0424    0.7851 C   0  0  0  0  0  0  0  0  0  0  0  0
   -3.3346    3.5691    1.2283 C   0  0  0  0  0  0  0  0  0  0  0  0
   -0.8474    3.7175    0.8619 C   0  0  0  0  0  0  0  0  0  0  0  0
    2.1973    3.2308    1.8634 C   0  0  0  0  0  0  0  0  0  0  0  0
   -5.0803    0.8770   -1.6822 H   0  0  0  0  0  0  0  0  0  0  0  0
   -4.6210   -0.4316    0.5925 H   0  0  0  0  0  0  0  0  0  0  0  0
    2.7147   -3.3469   -0.3209 H   0  0  0  0  0  0  0  0  0  0  0  0
    3.7484   -2.5854    1.7932 H   0  0  0  0  0  0  0  0  0  0  0  0
   -4.7497   -2.1670   -1.8877 H   0  0  0  0  0  0  0  0  0  0  0  0
   -5.7022   -1.1180   -2.8917 H   0  0  0  0  0  0  0  0  0  0  0  0
    3.0995    0.5351   -2.1384 H   0  0  0  0  0  0  0  0  0  0  0  0
   -2.6987   -0.8414   -2.5986 H   0  0  0  0  0  0  0  0  0  0  0  0
   -2.6296    0.9184   -2.3483 H   0  0  0  0  0  0  0  0  0  0  0  0
   -3.6989    0.2323   -3.5621 H   0  0  0  0  0  0  0  0  0  0  0  0
    1.6839   -0.6120   -0.1052 H   0  0  0  0  0  0  0  0  0  0  0  0
   -1.8076   -0.4441   -0.1097 H   0  0  0  0  0  0  0  0  0  0  0  0
    5.0149    2.1100   -1.7836 H   0  0  0  0  0  0  0  0  0  0  0  0
    0.8970   -1.9455    2.7530 H   0  0  0  0  0  0  0  0  0  0  0  0
    2.3805   -1.8552    3.6926 H   0  0  0  0  0  0  0  0  0  0  0  0
    2.1418   -0.7456    2.3506 H   0  0  0  0  0  0  0  0  0  0  0  0
    2.9907   -4.3580    3.2145 H   0  0  0  0  0  0  0  0  0  0  0  0
    2.8164   -4.9553    1.5640 H   0  0  0  0  0  0  0  0  0  0  0  0
    1.3926   -4.4235    2.4934 H   0  0  0  0  0  0  0  0  0  0  0  0
   -7.0821   -0.4282   -0.8802 H   0  0  0  0  0  0  0  0  0  0  0  0
   -6.2599   -1.6996    0.0506 H   0  0  0  0  0  0  0  0  0  0  0  0
   -7.2206   -2.1255   -1.3599 H   0  0  0  0  0  0  0  0  0  0  0  0
    2.9000    1.1229    0.7206 H   0  0  0  0  0  0  0  0  0  0  0  0
    1.6270    4.4171    0.1890 H   0  0  0  0  0  0  0  0  0  0  0  0
    6.0997    0.0191    0.2000 H   0  0  0  0  0  0  0  0  0  0  0  0
    5.4220    1.5944    0.6749 H   0  0  0  0  0  0  0  0  0  0  0  0
    6.8681    1.4880   -0.3322 H   0  0  0  0  0  0  0  0  0  0  0  0
   -1.5624   -5.1042    0.1443 H   0  0  0  0  0  0  0  0  0  0  0  0
   -3.5261    4.5338    1.6770 H   0  0  0  0  0  0  0  0  0  0  0  0
    0.0149    1.9727    0.1288 H   0  0  0  0  0  0  0  0  0  0  0  0
    2.0324    2.2363    2.2922 H   0  0  0  0  0  0  0  0  0  0  0  0
    1.7342    3.9502    2.5477 H   0  0  0  0  0  0  0  0  0  0  0  0
    3.2748    3.4240    1.8467 H   0  0  0  0  0  0  0  0  0  0  0  0
    6.5835    0.6522   -2.5536 H   0  0  0  0  0  0  0  0  0  0  0  0
  1 22  1  0  0  0  0
  1 35  1  0  0  0  0
  2 21  1  0  0  0  0
  2 33  1  0  0  0  0
  3 26  1  0  0  0  0
  3 71  1  0  0  0  0
  4 23  2  0  0  0  0
  5 28  2  0  0  0  0
  6 31  2  0  0  0  0
  7 36  2  0  0  0  0
  8 16  1  0  0  0  0
  8 23  1  0  0  0  0
  8 48  1  0  0  0  0
  9 15  1  0  0  0  0
  9 28  1  0  0  0  0
  9 49  1  0  0  0  0
 10 19  1  0  0  0  0
 10 31  1  0  0  0  0
 10 60  1  0  0  0  0
 11 21  2  0  0  0  0
 11 29  1  0  0  0  0
 12 22  2  0  0  0  0
 12 34  1  0  0  0  0
 13 30  1  0  0  0  0
 13 36  1  0  0  0  0
 13 67  1  0  0  0  0
 14 15  1  0  0  0  0
 14 18  1  0  0  0  0
 14 20  1  0  0  0  0
 14 38  1  0  0  0  0
 15 22  1  0  0  0  0
 15 39  1  0  0  0  0
 16 17  1  0  0  0  0
 16 21  1  0  0  0  0
 16 40  1  0  0  0  0
 17 24  1  0  0  0  0
 17 25  1  0  0  0  0
 17 41  1  0  0  0  0
 18 27  1  0  0  0  0
 18 42  1  0  0  0  0
 18 43  1  0  0  0  0
 19 23  1  0  0  0  0
 19 26  1  0  0  0  0
 19 44  1  0  0  0  0
 20 45  1  0  0  0  0
 20 46  1  0  0  0  0
 20 47  1  0  0  0  0
 24 51  1  0  0  0  0
 24 52  1  0  0  0  0
 24 53  1  0  0  0  0
 25 54  1  0  0  0  0
 25 55  1  0  0  0  0
 25 56  1  0  0  0  0
 26 32  1  0  0  0  0
 26 50  1  0  0  0  0
 27 57  1  0  0  0  0
 27 58  1  0  0  0  0
 27 59  1  0  0  0  0
 28 29  1  0  0  0  0
 29 33  2  0  0  0  0
 30 31  1  0  0  0  0
 30 37  1  0  0  0  0
 30 61  1  0  0  0  0
 32 62  1  0  0  0  0
 32 63  1  0  0  0  0
 32 64  1  0  0  0  0
 33 65  1  0  0  0  0
 34 35  2  0  0  0  0
 34 36  1  0  0  0  0
 35 66  1  0  0  0  0
 37 68  1  0  0  0  0
 37 69  1  0  0  0  0
 37 70  1  0  0  0  0
M  END
> <PUBCHEM_COMPOUND_CID>
139585806

> <PUBCHEM_CONFORMER_RMSD>
1

> <PUBCHEM_CONFORMER_DIVERSEORDER>
1
5
3
6
10
11
7
4
9
2
8

> <PUBCHEM_MMFF94_PARTIAL_CHARGES>
35
1 -0.08
10 -0.73
11 -0.57
12 -0.57
13 -0.73
15 0.48
16 0.48
19 0.36
2 -0.28
21 0.3
22 0.2
23 0.57
26 0.28
28 0.72
29 0.14
3 -0.68
30 0.36
31 0.57
33 -0.01
34 0.14
35 -0.11
36 0.72
4 -0.57
48 0.37
49 0.37
5 -0.57
6 -0.57
60 0.37
65 0.15
66 0.15
67 0.37
7 -0.57
71 0.4
8 -0.73
9 -0.73

> <PUBCHEM_EFFECTIVE_ROTOR_COUNT>
5.6

> <PUBCHEM_PHARMACOPHORE_FEATURES>
16
1 10 donor
1 12 acceptor
1 13 donor
1 20 hydrophobe
1 27 hydrophobe
1 3 acceptor
1 3 donor
1 4 acceptor
1 5 acceptor
1 6 acceptor
1 7 acceptor
1 8 donor
1 9 donor
3 17 24 25 hydrophobe
5 1 12 22 34 35 rings
5 2 11 21 29 33 rings

> <PUBCHEM_HEAVY_ATOM_COUNT>
37

> <PUBCHEM_ATOM_DEF_STEREO_COUNT>
6

> <PUBCHEM_ATOM_UDEF_STEREO_COUNT>
0

> <PUBCHEM_BOND_DEF_STEREO_COUNT>
0

> <PUBCHEM_BOND_UDEF_STEREO_COUNT>
0

> <PUBCHEM_ISOTOPIC_ATOM_COUNT>
0

> <PUBCHEM_COMPONENT_COUNT>
1

> <PUBCHEM_CACTVS_TAUTO_COUNT>
-1

> <PUBCHEM_CONFORMER_ID>
0851E90E00000001

> <PUBCHEM_MMFF94_ENERGY>
61.005

> <PUBCHEM_FEATURE_SELFOVERLAP>
81.212

> <PUBCHEM_SHAPE_FINGERPRINT>
10439779 11 18338784685394927994
10815517 723 17690269414187662218
11513181 2 16977584617115160189
12788726 201 18342173328159187303
13122387 1 17618227200026032041
14394314 77 18342463612552692289
14725015 67 16680330028995276602
14931854 50 18410295817310212764
14940108 7 16181246789111163549
15001296 14 18192721050750168848
15160629 131 17917720097699888303
15297060 5 17916030044953076466
15320467 1 18412270561657893592
15351339 4 18410005542003508305
15406563 228 17971207047893389940
161222 10 18050321144058969772
17138139 8 18342184358226567100
17627616 140 18264775350300040007
19311894 1 18340498862556367614
20642791 35 18270114742601362691
20764821 26 18194120939284146697
20775438 99 17626357354259008799
21133410 62 18113905940395413035
21796203 349 16752731195327264234
3298306 158 18049707810033764687
437795 70 17986416450125698932
45266715 3 17839152441316288733
463206 1 18341340997910397208
474144 1 18044942268603231914
6608658 132 18272080600667127359

> <PUBCHEM_SHAPE_MULTIPOLES>
700.19
11.63
6.88
2.04
1.74
0.52
0.11
0.1
6.01
-0.06
-3.8
-0.99
-0.07
-3.56

> <PUBCHEM_SHAPE_SELFOVERLAP>
1451.659

> <PUBCHEM_SHAPE_VOLUME>
401.9

> <PUBCHEM_COORDINATE_TYPE>
2
5
10

$$$$
