MODEL 1
REMARK VINA RESULT:    -6.351      0.000      0.000
REMARK INTER + INTRA:         -21.888
REMARK INTER:                 -15.818
REMARK INTRA:                  -6.071
REMARK UNBOUND:                -6.071
REMARK SMILES CCCCCCC[C@H](N)[C@H](O)C(=O)N[C@H](C)C(=O)N(C)[C@H](CC(C)C)C(=O)N[C@@H](Cc1ccc(O)cc1)C(=O)N[C@@H](Cc1ccc(O)cc1)C(=O)O
REMARK SMILES IDX 18 1 17 2 15 3 16 4 14 5 12 6 13 7 10 9 11 10 8 12 9 13 7 16
REMARK SMILES IDX 6 17 5 18 4 19 3 20 2 21 1 22 19 23 20 24 21 25 22 26 23 27
REMARK SMILES IDX 24 28 25 29 26 30 27 31 28 32 29 34 30 35 31 36 32 37 37 38
REMARK SMILES IDX 33 39 36 40 34 41 35 42 38 44 39 45 40 46 41 48 42 49 43 50
REMARK SMILES IDX 44 51 49 52 45 53 48 54 46 55 47 56 50 58 51 59 52 60
REMARK H PARENT 14 8 11 11 9 14 9 15 28 33 35 43 40 47 47 57 52 61
ROOT
ATOM      1  O   UNL     1      -0.840  10.998  12.598  1.00  0.00    -0.272 OA
ATOM      2  C   UNL     1      -1.675  10.087  12.496  1.00  0.00     0.245 C 
ENDROOT
BRANCH   2   3
ATOM      3  C   UNL     1      -3.112  10.445  12.043  1.00  0.00     0.168 C 
ATOM      4  C   UNL     1      -3.897  11.082  13.185  1.00  0.00     0.041 C 
BRANCH   3   5
ATOM      5  N   UNL     1      -3.189  11.237  10.825  1.00  0.00    -0.342 N 
ATOM      6  C   UNL     1      -3.520  10.674   9.610  1.00  0.00     0.251 C 
ATOM      7  O   UNL     1      -3.731   9.476   9.455  1.00  0.00    -0.272 OA
ATOM      8  H   UNL     1      -3.001  12.237  10.822  1.00  0.00     0.164 HD
BRANCH   6   9
ATOM      9  C   UNL     1      -3.680  11.719   8.495  1.00  0.00     0.219 C 
BRANCH   9  10
ATOM     10  O   UNL     1      -3.610  13.064   8.983  1.00  0.00    -0.382 OA
ATOM     11  H   UNL     1      -2.828  13.054   9.577  1.00  0.00     0.211 HD
ENDBRANCH   9  10
BRANCH   9  12
ATOM     12  C   UNL     1      -2.692  11.509   7.317  1.00  0.00     0.089 C 
BRANCH  12  13
ATOM     13  N   UNL     1      -3.478  11.303   6.079  1.00  0.00    -0.325 NA
ATOM     14  H   UNL     1      -4.344  10.812   6.309  1.00  0.00     0.119 HD
ATOM     15  H   UNL     1      -2.965  10.668   5.464  1.00  0.00     0.119 HD
ENDBRANCH  12  13
BRANCH  12  16
ATOM     16  C   UNL     1      -1.645  12.629   7.103  1.00  0.00     0.022 C 
BRANCH  16  17
ATOM     17  C   UNL     1      -0.207  12.409   7.590  1.00  0.00     0.002 C 
BRANCH  17  18
ATOM     18  C   UNL     1      -0.040  12.367   9.108  1.00  0.00     0.000 C 
BRANCH  18  19
ATOM     19  C   UNL     1       0.652  11.099   9.625  1.00  0.00    -0.000 C 
BRANCH  19  20
ATOM     20  C   UNL     1       1.920  11.340  10.449  1.00  0.00    -0.000 C 
BRANCH  20  21
ATOM     21  C   UNL     1       2.334  10.124  11.282  1.00  0.00    -0.003 C 
ATOM     22  C   UNL     1       3.844   9.940  11.281  1.00  0.00     0.004 C 
ENDBRANCH  20  21
ENDBRANCH  19  20
ENDBRANCH  18  19
ENDBRANCH  17  18
ENDBRANCH  16  17
ENDBRANCH  12  16
ENDBRANCH   9  12
ENDBRANCH   6   9
ENDBRANCH   3   5
ENDBRANCH   2   3
BRANCH   2  23
ATOM     23  N   UNL     1      -1.284   8.763  12.668  1.00  0.00    -0.332 N 
ATOM     24  C   UNL     1      -0.112   8.339  13.419  1.00  0.00     0.147 C 
BRANCH  23  25
ATOM     25  C   UNL     1      -2.149   7.655  12.178  1.00  0.00     0.174 C 
BRANCH  25  26
ATOM     26  C   UNL     1      -2.568   6.677  13.300  1.00  0.00     0.038 C 
BRANCH  26  27
ATOM     27  C   UNL     1      -3.655   7.165  14.285  1.00  0.00    -0.015 C 
ATOM     28  C   UNL     1      -4.948   7.566  13.575  1.00  0.00     0.007 C 
ATOM     29  C   UNL     1      -3.944   6.175  15.410  1.00  0.00     0.007 C 
ENDBRANCH  26  27
ENDBRANCH  25  26
BRANCH  25  30
ATOM     30  C   UNL     1      -1.489   6.961  10.964  1.00  0.00     0.243 C 
ATOM     31  O   UNL     1      -0.837   5.925  11.083  1.00  0.00    -0.273 OA
ATOM     32  N   UNL     1      -1.674   7.580   9.754  1.00  0.00    -0.342 N 
ATOM     33  H   UNL     1      -2.343   8.354   9.715  1.00  0.00     0.164 HD
BRANCH  32  34
ATOM     34  C   UNL     1      -1.100   7.081   8.502  1.00  0.00     0.175 C 
BRANCH  34  35
ATOM     35  C   UNL     1       0.413   6.845   8.636  1.00  0.00     0.070 C 
BRANCH  35  36
ATOM     36  C   UNL     1       1.234   7.909   7.943  1.00  0.00    -0.045 A 
ATOM     37  C   UNL     1       2.566   8.128   8.326  1.00  0.00     0.007 A 
ATOM     38  C   UNL     1       0.676   8.702   6.931  1.00  0.00     0.007 A 
ATOM     39  C   UNL     1       3.327   9.116   7.701  1.00  0.00     0.046 A 
ATOM     40  C   UNL     1       1.437   9.693   6.306  1.00  0.00     0.046 A 
ATOM     41  C   UNL     1       2.758   9.890   6.697  1.00  0.00     0.115 A 
BRANCH  41  42
ATOM     42  O   UNL     1       3.535  10.847   6.115  1.00  0.00    -0.508 OA
ATOM     43  H   UNL     1       3.972  10.455   5.340  1.00  0.00     0.293 HD
ENDBRANCH  41  42
ENDBRANCH  35  36
ENDBRANCH  34  35
BRANCH  34  44
ATOM     44  C   UNL     1      -1.853   5.789   8.112  1.00  0.00     0.243 C 
ATOM     45  O   UNL     1      -1.323   4.689   7.983  1.00  0.00    -0.273 OA
ATOM     46  N   UNL     1      -3.176   6.002   7.786  1.00  0.00    -0.341 N 
ATOM     47  H   UNL     1      -3.540   6.952   7.795  1.00  0.00     0.164 HD
BRANCH  46  48
ATOM     48  C   UNL     1      -4.072   4.941   7.321  1.00  0.00     0.196 C 
BRANCH  48  49
ATOM     49  C   UNL     1      -5.106   4.570   8.397  1.00  0.00     0.072 C 
BRANCH  49  50
ATOM     50  C   UNL     1      -4.509   3.754   9.521  1.00  0.00    -0.045 A 
ATOM     51  C   UNL     1      -4.269   2.385   9.340  1.00  0.00     0.007 A 
ATOM     52  C   UNL     1      -4.207   4.342  10.756  1.00  0.00     0.007 A 
ATOM     53  C   UNL     1      -3.730   1.619  10.374  1.00  0.00     0.046 A 
ATOM     54  C   UNL     1      -3.669   3.575  11.793  1.00  0.00     0.046 A 
ATOM     55  C   UNL     1      -3.434   2.220  11.592  1.00  0.00     0.115 A 
BRANCH  55  56
ATOM     56  O   UNL     1      -2.911   1.436  12.578  1.00  0.00    -0.508 OA
ATOM     57  H   UNL     1      -2.581   0.617  12.175  1.00  0.00     0.293 HD
ENDBRANCH  55  56
ENDBRANCH  49  50
ENDBRANCH  48  49
BRANCH  48  58
ATOM     58  C   UNL     1      -4.796   5.419   6.054  1.00  0.00     0.326 C 
ATOM     59  O   UNL     1      -4.355   5.446   4.917  1.00  0.00    -0.250 OA
BRANCH  58  60
ATOM     60  O   UNL     1      -6.068   5.834   6.282  1.00  0.00    -0.480 OA
ATOM     61  H   UNL     1      -6.035   6.168   7.205  1.00  0.00     0.296 HD
ENDBRANCH  58  60
ENDBRANCH  48  58
ENDBRANCH  46  48
ENDBRANCH  34  44
ENDBRANCH  32  34
ENDBRANCH  25  30
ENDBRANCH  23  25
ENDBRANCH   2  23
TORSDOF 28
ENDMDL
MODEL 2
REMARK VINA RESULT:    -6.165      2.194      5.072
REMARK INTER + INTRA:         -21.425
REMARK INTER:                 -15.200
REMARK INTRA:                  -6.226
REMARK UNBOUND:                -6.071
REMARK SMILES CCCCCCC[C@H](N)[C@H](O)C(=O)N[C@H](C)C(=O)N(C)[C@H](CC(C)C)C(=O)N[C@@H](Cc1ccc(O)cc1)C(=O)N[C@@H](Cc1ccc(O)cc1)C(=O)O
REMARK SMILES IDX 18 1 17 2 15 3 16 4 14 5 12 6 13 7 10 9 11 10 8 12 9 13 7 16
REMARK SMILES IDX 6 17 5 18 4 19 3 20 2 21 1 22 19 23 20 24 21 25 22 26 23 27
REMARK SMILES IDX 24 28 25 29 26 30 27 31 28 32 29 34 30 35 31 36 32 37 37 38
REMARK SMILES IDX 33 39 36 40 34 41 35 42 38 44 39 45 40 46 41 48 42 49 43 50
REMARK SMILES IDX 44 51 49 52 45 53 48 54 46 55 47 56 50 58 51 59 52 60
REMARK H PARENT 14 8 11 11 9 14 9 15 28 33 35 43 40 47 47 57 52 61
ROOT
ATOM      1  O   UNL     1      -1.321  11.585   6.344  1.00  0.00    -0.272 OA
ATOM      2  C   UNL     1      -1.206  11.503   7.576  1.00  0.00     0.245 C 
ENDROOT
BRANCH   2   3
ATOM      3  C   UNL     1      -2.121  12.381   8.466  1.00  0.00     0.168 C 
ATOM      4  C   UNL     1      -3.357  12.831   7.694  1.00  0.00     0.041 C 
BRANCH   3   5
ATOM      5  N   UNL     1      -2.469  11.794   9.751  1.00  0.00    -0.342 N 
ATOM      6  C   UNL     1      -1.834  12.167  10.917  1.00  0.00     0.251 C 
ATOM      7  O   UNL     1      -0.914  12.977  10.957  1.00  0.00    -0.272 OA
ATOM      8  H   UNL     1      -3.194  11.086   9.838  1.00  0.00     0.164 HD
BRANCH   6   9
ATOM      9  C   UNL     1      -2.460  11.525  12.165  1.00  0.00     0.219 C 
BRANCH   9  10
ATOM     10  O   UNL     1      -1.542  11.439  13.262  1.00  0.00    -0.382 OA
ATOM     11  H   UNL     1      -2.119  11.512  14.053  1.00  0.00     0.211 HD
ENDBRANCH   9  10
BRANCH   9  12
ATOM     12  C   UNL     1      -3.780  12.210  12.606  1.00  0.00     0.089 C 
BRANCH  12  13
ATOM     13  N   UNL     1      -3.790  13.592  12.074  1.00  0.00    -0.325 NA
ATOM     14  H   UNL     1      -3.456  13.583  11.108  1.00  0.00     0.119 HD
ATOM     15  H   UNL     1      -3.103  14.149  12.588  1.00  0.00     0.119 HD
ENDBRANCH  12  13
BRANCH  12  16
ATOM     16  C   UNL     1      -5.087  11.480  12.212  1.00  0.00     0.022 C 
BRANCH  16  17
ATOM     17  C   UNL     1      -6.130  11.179  13.297  1.00  0.00     0.002 C 
BRANCH  17  18
ATOM     18  C   UNL     1      -5.667  10.216  14.388  1.00  0.00     0.000 C 
BRANCH  18  19
ATOM     19  C   UNL     1      -5.848   8.735  14.031  1.00  0.00    -0.000 C 
BRANCH  19  20
ATOM     20  C   UNL     1      -4.599   8.041  13.480  1.00  0.00    -0.000 C 
BRANCH  20  21
ATOM     21  C   UNL     1      -3.352   8.286  14.333  1.00  0.00    -0.003 C 
ATOM     22  C   UNL     1      -3.070   7.108  15.253  1.00  0.00     0.004 C 
ENDBRANCH  20  21
ENDBRANCH  19  20
ENDBRANCH  18  19
ENDBRANCH  17  18
ENDBRANCH  16  17
ENDBRANCH  12  16
ENDBRANCH   9  12
ENDBRANCH   6   9
ENDBRANCH   3   5
ENDBRANCH   2   3
BRANCH   2  23
ATOM     23  N   UNL     1      -0.360  10.550   8.133  1.00  0.00    -0.332 N 
ATOM     24  C   UNL     1       0.993  10.819   8.598  1.00  0.00     0.147 C 
BRANCH  23  25
ATOM     25  C   UNL     1      -0.856   9.175   8.412  1.00  0.00     0.174 C 
BRANCH  25  26
ATOM     26  C   UNL     1      -0.377   8.627   9.777  1.00  0.00     0.038 C 
BRANCH  26  27
ATOM     27  C   UNL     1      -1.468   8.270  10.810  1.00  0.00    -0.015 C 
ATOM     28  C   UNL     1      -2.864   8.208  10.190  1.00  0.00     0.007 C 
ATOM     29  C   UNL     1      -1.171   6.992  11.591  1.00  0.00     0.007 C 
ENDBRANCH  26  27
ENDBRANCH  25  26
BRANCH  25  30
ATOM     30  C   UNL     1      -0.538   8.242   7.221  1.00  0.00     0.243 C 
ATOM     31  O   UNL     1       0.079   8.638   6.233  1.00  0.00    -0.273 OA
ATOM     32  N   UNL     1      -0.992   6.954   7.338  1.00  0.00    -0.342 N 
ATOM     33  H   UNL     1      -1.369   6.665   8.244  1.00  0.00     0.164 HD
BRANCH  32  34
ATOM     34  C   UNL     1      -0.806   5.940   6.296  1.00  0.00     0.175 C 
BRANCH  34  35
ATOM     35  C   UNL     1       0.454   5.099   6.554  1.00  0.00     0.070 C 
BRANCH  35  36
ATOM     36  C   UNL     1       0.261   4.079   7.654  1.00  0.00    -0.045 A 
ATOM     37  C   UNL     1       0.253   2.710   7.347  1.00  0.00     0.007 A 
ATOM     38  C   UNL     1       0.066   4.482   8.981  1.00  0.00     0.007 A 
ATOM     39  C   UNL     1       0.062   1.762   8.353  1.00  0.00     0.046 A 
ATOM     40  C   UNL     1      -0.126   3.533   9.989  1.00  0.00     0.046 A 
ATOM     41  C   UNL     1      -0.125   2.181   9.665  1.00  0.00     0.115 A 
BRANCH  41  42
ATOM     42  O   UNL     1      -0.311   1.223  10.617  1.00  0.00    -0.508 OA
ATOM     43  H   UNL     1      -0.348   0.358  10.176  1.00  0.00     0.293 HD
ENDBRANCH  41  42
ENDBRANCH  35  36
ENDBRANCH  34  35
BRANCH  34  44
ATOM     44  C   UNL     1      -2.081   5.069   6.243  1.00  0.00     0.243 C 
ATOM     45  O   UNL     1      -2.307   4.223   5.382  1.00  0.00    -0.273 OA
ATOM     46  N   UNL     1      -3.023   5.417   7.187  1.00  0.00    -0.341 N 
ATOM     47  H   UNL     1      -2.837   6.204   7.804  1.00  0.00     0.164 HD
BRANCH  46  48
ATOM     48  C   UNL     1      -4.338   4.779   7.287  1.00  0.00     0.196 C 
BRANCH  48  49
ATOM     49  C   UNL     1      -4.965   5.002   8.673  1.00  0.00     0.072 C 
BRANCH  49  50
ATOM     50  C   UNL     1      -4.381   4.092   9.729  1.00  0.00    -0.045 A 
ATOM     51  C   UNL     1      -3.862   4.637  10.913  1.00  0.00     0.007 A 
ATOM     52  C   UNL     1      -4.330   2.705   9.538  1.00  0.00     0.007 A 
ATOM     53  C   UNL     1      -3.309   3.808  11.889  1.00  0.00     0.046 A 
ATOM     54  C   UNL     1      -3.775   1.875  10.515  1.00  0.00     0.046 A 
ATOM     55  C   UNL     1      -3.270   2.435  11.683  1.00  0.00     0.115 A 
BRANCH  55  56
ATOM     56  O   UNL     1      -2.719   1.660  12.661  1.00  0.00    -0.508 OA
ATOM     57  H   UNL     1      -1.777   1.880  12.731  1.00  0.00     0.293 HD
ENDBRANCH  55  56
ENDBRANCH  49  50
ENDBRANCH  48  49
BRANCH  48  58
ATOM     58  C   UNL     1      -5.259   5.360   6.205  1.00  0.00     0.326 C 
ATOM     59  O   UNL     1      -5.194   6.468   5.698  1.00  0.00    -0.250 OA
BRANCH  58  60
ATOM     60  O   UNL     1      -6.224   4.499   5.796  1.00  0.00    -0.480 OA
ATOM     61  H   UNL     1      -7.010   4.778   6.314  1.00  0.00     0.296 HD
ENDBRANCH  58  60
ENDBRANCH  48  58
ENDBRANCH  46  48
ENDBRANCH  34  44
ENDBRANCH  32  34
ENDBRANCH  25  30
ENDBRANCH  23  25
ENDBRANCH   2  23
TORSDOF 28
ENDMDL
MODEL 3
REMARK VINA RESULT:    -6.114      1.990      4.760
REMARK INTER + INTRA:         -21.299
REMARK INTER:                 -15.496
REMARK INTRA:                  -5.803
REMARK UNBOUND:                -6.071
REMARK SMILES CCCCCCC[C@H](N)[C@H](O)C(=O)N[C@H](C)C(=O)N(C)[C@H](CC(C)C)C(=O)N[C@@H](Cc1ccc(O)cc1)C(=O)N[C@@H](Cc1ccc(O)cc1)C(=O)O
REMARK SMILES IDX 18 1 17 2 15 3 16 4 14 5 12 6 13 7 10 9 11 10 8 12 9 13 7 16
REMARK SMILES IDX 6 17 5 18 4 19 3 20 2 21 1 22 19 23 20 24 21 25 22 26 23 27
REMARK SMILES IDX 24 28 25 29 26 30 27 31 28 32 29 34 30 35 31 36 32 37 37 38
REMARK SMILES IDX 33 39 36 40 34 41 35 42 38 44 39 45 40 46 41 48 42 49 43 50
REMARK SMILES IDX 44 51 49 52 45 53 48 54 46 55 47 56 50 58 51 59 52 60
REMARK H PARENT 14 8 11 11 9 14 9 15 28 33 35 43 40 47 47 57 52 61
ROOT
ATOM      1  O   UNL     1      -3.128   9.689   7.079  1.00  0.00    -0.272 OA
ATOM      2  C   UNL     1      -2.472  10.737   7.180  1.00  0.00     0.245 C 
ENDROOT
BRANCH   2   3
ATOM      3  C   UNL     1      -3.210  12.036   7.589  1.00  0.00     0.168 C 
ATOM      4  C   UNL     1      -4.265  12.409   6.554  1.00  0.00     0.041 C 
BRANCH   3   5
ATOM      5  N   UNL     1      -3.754  12.031   8.939  1.00  0.00    -0.342 N 
ATOM      6  C   UNL     1      -2.956  12.232  10.045  1.00  0.00     0.251 C 
ATOM      7  O   UNL     1      -1.741  12.387   9.984  1.00  0.00    -0.272 OA
ATOM      8  H   UNL     1      -4.744  11.878   9.118  1.00  0.00     0.164 HD
BRANCH   6   9
ATOM      9  C   UNL     1      -3.763  12.328  11.350  1.00  0.00     0.219 C 
BRANCH   9  10
ATOM     10  O   UNL     1      -5.176  12.214  11.136  1.00  0.00    -0.382 OA
ATOM     11  H   UNL     1      -5.308  12.613  10.248  1.00  0.00     0.211 HD
ENDBRANCH   9  10
BRANCH   9  12
ATOM     12  C   UNL     1      -3.288  11.326  12.435  1.00  0.00     0.089 C 
BRANCH  12  13
ATOM     13  N   UNL     1      -2.035  11.842  13.031  1.00  0.00    -0.325 NA
ATOM     14  H   UNL     1      -2.026  11.631  14.030  1.00  0.00     0.119 HD
ATOM     15  H   UNL     1      -2.038  12.863  12.974  1.00  0.00     0.119 HD
ENDBRANCH  12  13
BRANCH  12  16
ATOM     16  C   UNL     1      -4.311  10.998  13.549  1.00  0.00     0.022 C 
BRANCH  16  17
ATOM     17  C   UNL     1      -4.527   9.534  13.957  1.00  0.00     0.002 C 
BRANCH  17  18
ATOM     18  C   UNL     1      -3.499   8.551  13.401  1.00  0.00     0.000 C 
BRANCH  18  19
ATOM     19  C   UNL     1      -2.410   8.151  14.405  1.00  0.00    -0.000 C 
BRANCH  19  20
ATOM     20  C   UNL     1      -0.976   8.473  13.973  1.00  0.00    -0.000 C 
BRANCH  20  21
ATOM     21  C   UNL     1      -0.625   7.908  12.594  1.00  0.00    -0.003 C 
ATOM     22  C   UNL     1      -0.161   9.004  11.647  1.00  0.00     0.004 C 
ENDBRANCH  20  21
ENDBRANCH  19  20
ENDBRANCH  18  19
ENDBRANCH  17  18
ENDBRANCH  16  17
ENDBRANCH  12  16
ENDBRANCH   9  12
ENDBRANCH   6   9
ENDBRANCH   3   5
ENDBRANCH   2   3
BRANCH   2  23
ATOM     23  N   UNL     1      -1.088  10.707   7.048  1.00  0.00    -0.332 N 
ATOM     24  C   UNL     1      -0.316  11.634   6.235  1.00  0.00     0.147 C 
BRANCH  23  25
ATOM     25  C   UNL     1      -0.276   9.763   7.864  1.00  0.00     0.174 C 
BRANCH  25  26
ATOM     26  C   UNL     1       1.038  10.393   8.382  1.00  0.00     0.038 C 
BRANCH  26  27
ATOM     27  C   UNL     1       2.313   9.525   8.293  1.00  0.00    -0.015 C 
ATOM     28  C   UNL     1       3.194   9.901   7.102  1.00  0.00     0.007 C 
ATOM     29  C   UNL     1       3.130   9.511   9.582  1.00  0.00     0.007 C 
ENDBRANCH  26  27
ENDBRANCH  25  26
BRANCH  25  30
ATOM     30  C   UNL     1      -0.070   8.437   7.097  1.00  0.00     0.243 C 
ATOM     31  O   UNL     1       0.218   8.416   5.901  1.00  0.00    -0.273 OA
ATOM     32  N   UNL     1      -0.235   7.293   7.835  1.00  0.00    -0.342 N 
ATOM     33  H   UNL     1      -0.333   7.393   8.848  1.00  0.00     0.164 HD
BRANCH  32  34
ATOM     34  C   UNL     1      -0.106   5.948   7.268  1.00  0.00     0.175 C 
BRANCH  34  35
ATOM     35  C   UNL     1       1.157   5.243   7.785  1.00  0.00     0.070 C 
BRANCH  35  36
ATOM     36  C   UNL     1       2.412   5.693   7.070  1.00  0.00    -0.045 A 
ATOM     37  C   UNL     1       3.531   6.104   7.810  1.00  0.00     0.007 A 
ATOM     38  C   UNL     1       2.469   5.727   5.671  1.00  0.00     0.007 A 
ATOM     39  C   UNL     1       4.688   6.534   7.160  1.00  0.00     0.046 A 
ATOM     40  C   UNL     1       3.627   6.159   5.019  1.00  0.00     0.046 A 
ATOM     41  C   UNL     1       4.727   6.557   5.771  1.00  0.00     0.115 A 
BRANCH  41  42
ATOM     42  O   UNL     1       5.876   6.987   5.175  1.00  0.00    -0.508 OA
ATOM     43  H   UNL     1       5.823   7.951   5.070  1.00  0.00     0.293 HD
ENDBRANCH  41  42
ENDBRANCH  35  36
ENDBRANCH  34  35
BRANCH  34  44
ATOM     44  C   UNL     1      -1.389   5.158   7.611  1.00  0.00     0.243 C 
ATOM     45  O   UNL     1      -1.401   4.031   8.098  1.00  0.00    -0.273 OA
ATOM     46  N   UNL     1      -2.546   5.785   7.198  1.00  0.00    -0.341 N 
ATOM     47  H   UNL     1      -2.478   6.665   6.693  1.00  0.00     0.164 HD
BRANCH  46  48
ATOM     48  C   UNL     1      -3.879   5.199   7.352  1.00  0.00     0.196 C 
BRANCH  48  49
ATOM     49  C   UNL     1      -4.606   5.775   8.579  1.00  0.00     0.072 C 
BRANCH  49  50
ATOM     50  C   UNL     1      -4.222   5.077   9.864  1.00  0.00    -0.045 A 
ATOM     51  C   UNL     1      -3.505   5.771  10.850  1.00  0.00     0.007 A 
ATOM     52  C   UNL     1      -4.552   3.733  10.081  1.00  0.00     0.007 A 
ATOM     53  C   UNL     1      -3.134   5.134  12.033  1.00  0.00     0.046 A 
ATOM     54  C   UNL     1      -4.179   3.094  11.266  1.00  0.00     0.046 A 
ATOM     55  C   UNL     1      -3.473   3.801  12.233  1.00  0.00     0.115 A 
BRANCH  55  56
ATOM     56  O   UNL     1      -3.090   3.215  13.403  1.00  0.00    -0.508 OA
ATOM     57  H   UNL     1      -3.201   2.255  13.314  1.00  0.00     0.293 HD
ENDBRANCH  55  56
ENDBRANCH  49  50
ENDBRANCH  48  49
BRANCH  48  58
ATOM     58  C   UNL     1      -4.700   5.484   6.087  1.00  0.00     0.326 C 
ATOM     59  O   UNL     1      -4.316   5.434   4.930  1.00  0.00    -0.250 OA
BRANCH  58  60
ATOM     60  O   UNL     1      -5.992   5.811   6.342  1.00  0.00    -0.480 OA
ATOM     61  H   UNL     1      -5.924   6.417   7.111  1.00  0.00     0.296 HD
ENDBRANCH  58  60
ENDBRANCH  48  58
ENDBRANCH  46  48
ENDBRANCH  34  44
ENDBRANCH  32  34
ENDBRANCH  25  30
ENDBRANCH  23  25
ENDBRANCH   2  23
TORSDOF 28
ENDMDL
MODEL 4
REMARK VINA RESULT:    -6.012      2.309      5.404
REMARK INTER + INTRA:         -21.044
REMARK INTER:                 -15.067
REMARK INTRA:                  -5.977
REMARK UNBOUND:                -6.071
REMARK SMILES CCCCCCC[C@H](N)[C@H](O)C(=O)N[C@H](C)C(=O)N(C)[C@H](CC(C)C)C(=O)N[C@@H](Cc1ccc(O)cc1)C(=O)N[C@@H](Cc1ccc(O)cc1)C(=O)O
REMARK SMILES IDX 18 1 17 2 15 3 16 4 14 5 12 6 13 7 10 9 11 10 8 12 9 13 7 16
REMARK SMILES IDX 6 17 5 18 4 19 3 20 2 21 1 22 19 23 20 24 21 25 22 26 23 27
REMARK SMILES IDX 24 28 25 29 26 30 27 31 28 32 29 34 30 35 31 36 32 37 37 38
REMARK SMILES IDX 33 39 36 40 34 41 35 42 38 44 39 45 40 46 41 48 42 49 43 50
REMARK SMILES IDX 44 51 49 52 45 53 48 54 46 55 47 56 50 58 51 59 52 60
REMARK H PARENT 14 8 11 11 9 14 9 15 28 33 35 43 40 47 47 57 52 61
ROOT
ATOM      1  O   UNL     1      -3.897  10.561   6.021  1.00  0.00    -0.272 OA
ATOM      2  C   UNL     1      -3.242  11.409   6.646  1.00  0.00     0.245 C 
ENDROOT
BRANCH   2   3
ATOM      3  C   UNL     1      -1.876  11.860   6.070  1.00  0.00     0.168 C 
ATOM      4  C   UNL     1      -1.953  13.293   5.555  1.00  0.00     0.041 C 
BRANCH   3   5
ATOM      5  N   UNL     1      -0.743  11.664   6.961  1.00  0.00    -0.342 N 
ATOM      6  C   UNL     1       0.392  10.993   6.558  1.00  0.00     0.251 C 
ATOM      7  O   UNL     1       0.517  10.480   5.451  1.00  0.00    -0.272 OA
ATOM      8  H   UNL     1      -0.745  12.014   7.916  1.00  0.00     0.164 HD
BRANCH   6   9
ATOM      9  C   UNL     1       1.511  11.031   7.611  1.00  0.00     0.219 C 
BRANCH   9  10
ATOM     10  O   UNL     1       1.072  11.571   8.864  1.00  0.00    -0.382 OA
ATOM     11  H   UNL     1       1.526  12.441   8.912  1.00  0.00     0.211 HD
ENDBRANCH   9  10
BRANCH   9  12
ATOM     12  C   UNL     1       2.202   9.657   7.816  1.00  0.00     0.089 C 
BRANCH  12  13
ATOM     13  N   UNL     1       3.570   9.895   8.332  1.00  0.00    -0.325 NA
ATOM     14  H   UNL     1       4.153   9.083   8.122  1.00  0.00     0.119 HD
ATOM     15  H   UNL     1       3.535   9.942   9.353  1.00  0.00     0.119 HD
ENDBRANCH  12  13
BRANCH  12  16
ATOM     16  C   UNL     1       1.457   8.652   8.727  1.00  0.00     0.022 C 
BRANCH  16  17
ATOM     17  C   UNL     1       1.000   7.310   8.140  1.00  0.00     0.002 C 
BRANCH  17  18
ATOM     18  C   UNL     1       0.937   7.260   6.615  1.00  0.00     0.000 C 
BRANCH  18  19
ATOM     19  C   UNL     1       2.063   6.441   5.970  1.00  0.00    -0.000 C 
BRANCH  19  20
ATOM     20  C   UNL     1       3.071   5.835   6.951  1.00  0.00    -0.000 C 
BRANCH  20  21
ATOM     21  C   UNL     1       4.524   6.165   6.597  1.00  0.00    -0.003 C 
ATOM     22  C   UNL     1       5.247   6.810   7.769  1.00  0.00     0.004 C 
ENDBRANCH  20  21
ENDBRANCH  19  20
ENDBRANCH  18  19
ENDBRANCH  17  18
ENDBRANCH  16  17
ENDBRANCH  12  16
ENDBRANCH   9  12
ENDBRANCH   6   9
ENDBRANCH   3   5
ENDBRANCH   2   3
BRANCH   2  23
ATOM     23  N   UNL     1      -3.787  12.021   7.769  1.00  0.00    -0.332 N 
ATOM     24  C   UNL     1      -4.412  13.336   7.771  1.00  0.00     0.147 C 
BRANCH  23  25
ATOM     25  C   UNL     1      -3.878  11.282   9.058  1.00  0.00     0.174 C 
BRANCH  25  26
ATOM     26  C   UNL     1      -3.729  12.203  10.292  1.00  0.00     0.038 C 
BRANCH  26  27
ATOM     27  C   UNL     1      -3.826  11.533  11.681  1.00  0.00    -0.015 C 
ATOM     28  C   UNL     1      -3.479  12.494  12.818  1.00  0.00     0.007 C 
ATOM     29  C   UNL     1      -5.172  10.860  11.938  1.00  0.00     0.007 C 
ENDBRANCH  26  27
ENDBRANCH  25  26
BRANCH  25  30
ATOM     30  C   UNL     1      -2.901  10.084   9.054  1.00  0.00     0.243 C 
ATOM     31  O   UNL     1      -1.705  10.221   9.306  1.00  0.00    -0.273 OA
ATOM     32  N   UNL     1      -3.455   8.868   8.748  1.00  0.00    -0.342 N 
ATOM     33  H   UNL     1      -4.475   8.813   8.691  1.00  0.00     0.164 HD
BRANCH  32  34
ATOM     34  C   UNL     1      -2.676   7.629   8.671  1.00  0.00     0.175 C 
BRANCH  34  35
ATOM     35  C   UNL     1      -2.972   6.708   9.864  1.00  0.00     0.070 C 
BRANCH  35  36
ATOM     36  C   UNL     1      -2.390   7.224  11.160  1.00  0.00    -0.045 A 
ATOM     37  C   UNL     1      -3.240   7.627  12.201  1.00  0.00     0.007 A 
ATOM     38  C   UNL     1      -1.003   7.329  11.334  1.00  0.00     0.007 A 
ATOM     39  C   UNL     1      -2.712   8.117  13.395  1.00  0.00     0.046 A 
ATOM     40  C   UNL     1      -0.474   7.821  12.529  1.00  0.00     0.046 A 
ATOM     41  C   UNL     1      -1.334   8.210  13.551  1.00  0.00     0.115 A 
BRANCH  41  42
ATOM     42  O   UNL     1      -0.859   8.697  14.732  1.00  0.00    -0.508 OA
ATOM     43  H   UNL     1      -1.581   8.678  15.382  1.00  0.00     0.293 HD
ENDBRANCH  41  42
ENDBRANCH  35  36
ENDBRANCH  34  35
BRANCH  34  44
ATOM     44  C   UNL     1      -2.994   6.947   7.321  1.00  0.00     0.243 C 
ATOM     45  O   UNL     1      -2.749   7.435   6.222  1.00  0.00    -0.273 OA
ATOM     46  N   UNL     1      -3.708   5.775   7.454  1.00  0.00    -0.341 N 
ATOM     47  H   UNL     1      -3.989   5.470   8.383  1.00  0.00     0.164 HD
BRANCH  46  48
ATOM     48  C   UNL     1      -4.182   4.986   6.314  1.00  0.00     0.196 C 
BRANCH  48  49
ATOM     49  C   UNL     1      -3.388   3.677   6.170  1.00  0.00     0.072 C 
BRANCH  49  50
ATOM     50  C   UNL     1      -2.261   3.567   7.172  1.00  0.00    -0.045 A 
ATOM     51  C   UNL     1      -2.521   3.094   8.466  1.00  0.00     0.007 A 
ATOM     52  C   UNL     1      -0.957   3.950   6.835  1.00  0.00     0.007 A 
ATOM     53  C   UNL     1      -1.492   3.000   9.403  1.00  0.00     0.046 A 
ATOM     54  C   UNL     1       0.073   3.858   7.774  1.00  0.00     0.046 A 
ATOM     55  C   UNL     1      -0.203   3.382   9.050  1.00  0.00     0.115 A 
BRANCH  55  56
ATOM     56  O   UNL     1       0.774   3.277   9.996  1.00  0.00    -0.508 OA
ATOM     57  H   UNL     1       1.516   3.844   9.734  1.00  0.00     0.293 HD
ENDBRANCH  55  56
ENDBRANCH  49  50
ENDBRANCH  48  49
BRANCH  48  58
ATOM     58  C   UNL     1      -5.670   4.667   6.513  1.00  0.00     0.326 C 
ATOM     59  O   UNL     1      -6.536   4.618   5.654  1.00  0.00    -0.250 OA
BRANCH  58  60
ATOM     60  O   UNL     1      -6.000   4.405   7.802  1.00  0.00    -0.480 OA
ATOM     61  H   UNL     1      -5.784   5.243   8.266  1.00  0.00     0.296 HD
ENDBRANCH  58  60
ENDBRANCH  48  58
ENDBRANCH  46  48
ENDBRANCH  34  44
ENDBRANCH  32  34
ENDBRANCH  25  30
ENDBRANCH  23  25
ENDBRANCH   2  23
TORSDOF 28
ENDMDL
MODEL 5
REMARK VINA RESULT:    -6.009      1.918      6.040
REMARK INTER + INTRA:         -21.038
REMARK INTER:                 -15.673
REMARK INTRA:                  -5.365
REMARK UNBOUND:                -6.071
REMARK SMILES CCCCCCC[C@H](N)[C@H](O)C(=O)N[C@H](C)C(=O)N(C)[C@H](CC(C)C)C(=O)N[C@@H](Cc1ccc(O)cc1)C(=O)N[C@@H](Cc1ccc(O)cc1)C(=O)O
REMARK SMILES IDX 18 1 17 2 15 3 16 4 14 5 12 6 13 7 10 9 11 10 8 12 9 13 7 16
REMARK SMILES IDX 6 17 5 18 4 19 3 20 2 21 1 22 19 23 20 24 21 25 22 26 23 27
REMARK SMILES IDX 24 28 25 29 26 30 27 31 28 32 29 34 30 35 31 36 32 37 37 38
REMARK SMILES IDX 33 39 36 40 34 41 35 42 38 44 39 45 40 46 41 48 42 49 43 50
REMARK SMILES IDX 44 51 49 52 45 53 48 54 46 55 47 56 50 58 51 59 52 60
REMARK H PARENT 14 8 11 11 9 14 9 15 28 33 35 43 40 47 47 57 52 61
ROOT
ATOM      1  O   UNL     1      -1.969  11.982  12.917  1.00  0.00    -0.272 OA
ATOM      2  C   UNL     1      -2.689  11.014  12.629  1.00  0.00     0.245 C 
ENDROOT
BRANCH   2   3
ATOM      3  C   UNL     1      -3.770  11.194  11.535  1.00  0.00     0.168 C 
ATOM      4  C   UNL     1      -5.064  11.734  12.135  1.00  0.00     0.041 C 
BRANCH   3   5
ATOM      5  N   UNL     1      -3.346  11.967  10.377  1.00  0.00    -0.342 N 
ATOM      6  C   UNL     1      -3.260  11.407   9.120  1.00  0.00     0.251 C 
ATOM      7  O   UNL     1      -3.490  10.224   8.889  1.00  0.00    -0.272 OA
ATOM      8  H   UNL     1      -3.095  12.950  10.451  1.00  0.00     0.164 HD
BRANCH   6   9
ATOM      9  C   UNL     1      -2.931  12.440   8.031  1.00  0.00     0.219 C 
BRANCH   9  10
ATOM     10  O   UNL     1      -2.022  13.450   8.484  1.00  0.00    -0.382 OA
ATOM     11  H   UNL     1      -2.597  14.071   8.983  1.00  0.00     0.211 HD
ENDBRANCH   9  10
BRANCH   9  12
ATOM     12  C   UNL     1      -2.427  11.795   6.713  1.00  0.00     0.089 C 
BRANCH  12  13
ATOM     13  N   UNL     1      -3.557  11.076   6.082  1.00  0.00    -0.325 NA
ATOM     14  H   UNL     1      -3.273  10.116   5.881  1.00  0.00     0.119 HD
ATOM     15  H   UNL     1      -3.746  11.495   5.168  1.00  0.00     0.119 HD
ENDBRANCH  12  13
BRANCH  12  16
ATOM     16  C   UNL     1      -1.774  12.759   5.694  1.00  0.00     0.022 C 
BRANCH  16  17
ATOM     17  C   UNL     1      -0.287  12.589   5.351  1.00  0.00     0.002 C 
BRANCH  17  18
ATOM     18  C   UNL     1       0.364  11.328   5.914  1.00  0.00     0.000 C 
BRANCH  18  19
ATOM     19  C   UNL     1       1.890  11.417   6.045  1.00  0.00    -0.000 C 
BRANCH  19  20
ATOM     20  C   UNL     1       2.657  10.181   5.567  1.00  0.00    -0.000 C 
BRANCH  20  21
ATOM     21  C   UNL     1       3.534   9.561   6.658  1.00  0.00    -0.003 C 
ATOM     22  C   UNL     1       3.661   8.056   6.479  1.00  0.00     0.004 C 
ENDBRANCH  20  21
ENDBRANCH  19  20
ENDBRANCH  18  19
ENDBRANCH  17  18
ENDBRANCH  16  17
ENDBRANCH  12  16
ENDBRANCH   9  12
ENDBRANCH   6   9
ENDBRANCH   3   5
ENDBRANCH   2   3
BRANCH   2  23
ATOM     23  N   UNL     1      -2.437   9.769  13.194  1.00  0.00    -0.332 N 
ATOM     24  C   UNL     1      -1.175   9.378  13.805  1.00  0.00     0.147 C 
BRANCH  23  25
ATOM     25  C   UNL     1      -3.532   8.768  13.323  1.00  0.00     0.174 C 
BRANCH  25  26
ATOM     26  C   UNL     1      -4.193   8.775  14.722  1.00  0.00     0.038 C 
BRANCH  26  27
ATOM     27  C   UNL     1      -5.686   8.384  14.793  1.00  0.00    -0.015 C 
ATOM     28  C   UNL     1      -6.445   8.741  13.515  1.00  0.00     0.007 C 
ATOM     29  C   UNL     1      -5.913   6.920  15.162  1.00  0.00     0.007 C 
ENDBRANCH  26  27
ENDBRANCH  25  26
BRANCH  25  30
ATOM     30  C   UNL     1      -3.034   7.374  12.879  1.00  0.00     0.243 C 
ATOM     31  O   UNL     1      -2.781   6.485  13.691  1.00  0.00    -0.273 OA
ATOM     32  N   UNL     1      -2.887   7.199  11.527  1.00  0.00    -0.342 N 
ATOM     33  H   UNL     1      -3.251   7.932  10.913  1.00  0.00     0.164 HD
BRANCH  32  34
ATOM     34  C   UNL     1      -2.400   5.954  10.927  1.00  0.00     0.175 C 
BRANCH  34  35
ATOM     35  C   UNL     1      -3.562   5.091  10.411  1.00  0.00     0.070 C 
BRANCH  35  36
ATOM     36  C   UNL     1      -3.829   3.886  11.284  1.00  0.00    -0.045 A 
ATOM     37  C   UNL     1      -2.899   3.510  12.265  1.00  0.00     0.007 A 
ATOM     38  C   UNL     1      -4.988   3.118  11.115  1.00  0.00     0.007 A 
ATOM     39  C   UNL     1      -3.130   2.392  13.067  1.00  0.00     0.046 A 
ATOM     40  C   UNL     1      -5.220   1.998  11.916  1.00  0.00     0.046 A 
ATOM     41  C   UNL     1      -4.288   1.645  12.887  1.00  0.00     0.115 A 
BRANCH  41  42
ATOM     42  O   UNL     1      -4.475   0.559  13.689  1.00  0.00    -0.508 OA
ATOM     43  H   UNL     1      -5.418   0.507  13.917  1.00  0.00     0.293 HD
ENDBRANCH  41  42
ENDBRANCH  35  36
ENDBRANCH  34  35
BRANCH  34  44
ATOM     44  C   UNL     1      -1.408   6.321   9.801  1.00  0.00     0.243 C 
ATOM     45  O   UNL     1      -0.451   5.628   9.466  1.00  0.00    -0.273 OA
ATOM     46  N   UNL     1      -1.613   7.580   9.278  1.00  0.00    -0.341 N 
ATOM     47  H   UNL     1      -2.347   8.164   9.670  1.00  0.00     0.164 HD
BRANCH  46  48
ATOM     48  C   UNL     1      -0.757   8.174   8.248  1.00  0.00     0.196 C 
BRANCH  48  49
ATOM     49  C   UNL     1       0.716   8.199   8.690  1.00  0.00     0.072 C 
BRANCH  49  50
ATOM     50  C   UNL     1       1.069   9.447   9.467  1.00  0.00    -0.045 A 
ATOM     51  C   UNL     1       2.265   9.501  10.197  1.00  0.00     0.007 A 
ATOM     52  C   UNL     1       0.207  10.551   9.488  1.00  0.00     0.007 A 
ATOM     53  C   UNL     1       2.595  10.642  10.928  1.00  0.00     0.046 A 
ATOM     54  C   UNL     1       0.537  11.693  10.221  1.00  0.00     0.046 A 
ATOM     55  C   UNL     1       1.730  11.729  10.935  1.00  0.00     0.115 A 
BRANCH  55  56
ATOM     56  O   UNL     1       2.088  12.824  11.663  1.00  0.00    -0.508 OA
ATOM     57  H   UNL     1       1.286  13.214  12.046  1.00  0.00     0.293 HD
ENDBRANCH  55  56
ENDBRANCH  49  50
ENDBRANCH  48  49
BRANCH  48  58
ATOM     58  C   UNL     1      -0.893   7.358   6.955  1.00  0.00     0.326 C 
ATOM     59  O   UNL     1      -1.878   7.262   6.242  1.00  0.00    -0.250 OA
BRANCH  58  60
ATOM     60  O   UNL     1       0.243   6.702   6.607  1.00  0.00    -0.480 OA
ATOM     61  H   UNL     1      -0.062   5.779   6.470  1.00  0.00     0.296 HD
ENDBRANCH  58  60
ENDBRANCH  48  58
ENDBRANCH  46  48
ENDBRANCH  34  44
ENDBRANCH  32  34
ENDBRANCH  25  30
ENDBRANCH  23  25
ENDBRANCH   2  23
TORSDOF 28
ENDMDL
MODEL 6
REMARK VINA RESULT:    -5.842      2.201      5.674
REMARK INTER + INTRA:         -20.621
REMARK INTER:                 -14.707
REMARK INTRA:                  -5.914
REMARK UNBOUND:                -6.071
REMARK SMILES CCCCCCC[C@H](N)[C@H](O)C(=O)N[C@H](C)C(=O)N(C)[C@H](CC(C)C)C(=O)N[C@@H](Cc1ccc(O)cc1)C(=O)N[C@@H](Cc1ccc(O)cc1)C(=O)O
REMARK SMILES IDX 18 1 17 2 15 3 16 4 14 5 12 6 13 7 10 9 11 10 8 12 9 13 7 16
REMARK SMILES IDX 6 17 5 18 4 19 3 20 2 21 1 22 19 23 20 24 21 25 22 26 23 27
REMARK SMILES IDX 24 28 25 29 26 30 27 31 28 32 29 34 30 35 31 36 32 37 37 38
REMARK SMILES IDX 33 39 36 40 34 41 35 42 38 44 39 45 40 46 41 48 42 49 43 50
REMARK SMILES IDX 44 51 49 52 45 53 48 54 46 55 47 56 50 58 51 59 52 60
REMARK H PARENT 14 8 11 11 9 14 9 15 28 33 35 43 40 47 47 57 52 61
ROOT
ATOM      1  O   UNL     1      -3.459   9.869   7.004  1.00  0.00    -0.272 OA
ATOM      2  C   UNL     1      -2.808  10.676   7.684  1.00  0.00     0.245 C 
ENDROOT
BRANCH   2   3
ATOM      3  C   UNL     1      -1.364  11.021   7.243  1.00  0.00     0.168 C 
ATOM      4  C   UNL     1      -1.128  12.526   7.288  1.00  0.00     0.041 C 
BRANCH   3   5
ATOM      5  N   UNL     1      -0.320  10.288   7.944  1.00  0.00    -0.342 N 
ATOM      6  C   UNL     1       0.237   9.139   7.423  1.00  0.00     0.251 C 
ATOM      7  O   UNL     1      -0.125   8.629   6.368  1.00  0.00    -0.272 OA
ATOM      8  H   UNL     1       0.038  10.595   8.845  1.00  0.00     0.164 HD
BRANCH   6   9
ATOM      9  C   UNL     1       1.415   8.617   8.262  1.00  0.00     0.219 C 
BRANCH   9  10
ATOM     10  O   UNL     1       1.482   7.186   8.289  1.00  0.00    -0.382 OA
ATOM     11  H   UNL     1       2.386   6.991   7.958  1.00  0.00     0.211 HD
ENDBRANCH   9  10
BRANCH   9  12
ATOM     12  C   UNL     1       2.778   9.225   7.841  1.00  0.00     0.089 C 
BRANCH  12  13
ATOM     13  N   UNL     1       2.591  10.674   7.604  1.00  0.00    -0.325 NA
ATOM     14  H   UNL     1       3.504  11.132   7.580  1.00  0.00     0.119 HD
ATOM     15  H   UNL     1       2.108  11.082   8.408  1.00  0.00     0.119 HD
ENDBRANCH  12  13
BRANCH  12  16
ATOM     16  C   UNL     1       3.954   8.995   8.820  1.00  0.00     0.022 C 
BRANCH  16  17
ATOM     17  C   UNL     1       5.193   8.230   8.333  1.00  0.00     0.002 C 
BRANCH  17  18
ATOM     18  C   UNL     1       4.901   6.891   7.661  1.00  0.00     0.000 C 
BRANCH  18  19
ATOM     19  C   UNL     1       5.106   6.897   6.140  1.00  0.00    -0.000 C 
BRANCH  19  20
ATOM     20  C   UNL     1       5.775   8.156   5.580  1.00  0.00    -0.000 C 
BRANCH  20  21
ATOM     21  C   UNL     1       4.849   8.977   4.679  1.00  0.00    -0.003 C 
ATOM     22  C   UNL     1       5.021  10.469   4.919  1.00  0.00     0.004 C 
ENDBRANCH  20  21
ENDBRANCH  19  20
ENDBRANCH  18  19
ENDBRANCH  17  18
ENDBRANCH  16  17
ENDBRANCH  12  16
ENDBRANCH   9  12
ENDBRANCH   6   9
ENDBRANCH   3   5
ENDBRANCH   2   3
BRANCH   2  23
ATOM     23  N   UNL     1      -3.416  11.343   8.743  1.00  0.00    -0.332 N 
ATOM     24  C   UNL     1      -4.074  12.636   8.636  1.00  0.00     0.147 C 
BRANCH  23  25
ATOM     25  C   UNL     1      -3.540  10.684  10.072  1.00  0.00     0.174 C 
BRANCH  25  26
ATOM     26  C   UNL     1      -4.074  11.636  11.168  1.00  0.00     0.038 C 
BRANCH  26  27
ATOM     27  C   UNL     1      -5.179  11.086  12.096  1.00  0.00    -0.015 C 
ATOM     28  C   UNL     1      -5.495   9.616  11.821  1.00  0.00     0.007 C 
ATOM     29  C   UNL     1      -4.892  11.305  13.580  1.00  0.00     0.007 C 
ENDBRANCH  26  27
ENDBRANCH  25  26
BRANCH  25  30
ATOM     30  C   UNL     1      -2.212   9.987  10.447  1.00  0.00     0.243 C 
ATOM     31  O   UNL     1      -1.197  10.626  10.719  1.00  0.00    -0.273 OA
ATOM     32  N   UNL     1      -2.242   8.616  10.450  1.00  0.00    -0.342 N 
ATOM     33  H   UNL     1      -3.153   8.162  10.354  1.00  0.00     0.164 HD
BRANCH  32  34
ATOM     34  C   UNL     1      -1.070   7.790  10.755  1.00  0.00     0.175 C 
BRANCH  34  35
ATOM     35  C   UNL     1      -0.951   7.524  12.263  1.00  0.00     0.070 C 
BRANCH  35  36
ATOM     36  C   UNL     1      -2.278   7.188  12.905  1.00  0.00    -0.045 A 
ATOM     37  C   UNL     1      -2.826   8.042  13.873  1.00  0.00     0.007 A 
ATOM     38  C   UNL     1      -2.966   6.016  12.563  1.00  0.00     0.007 A 
ATOM     39  C   UNL     1      -4.044   7.734  14.480  1.00  0.00     0.046 A 
ATOM     40  C   UNL     1      -4.184   5.705  13.171  1.00  0.00     0.046 A 
ATOM     41  C   UNL     1      -4.713   6.569  14.125  1.00  0.00     0.115 A 
BRANCH  41  42
ATOM     42  O   UNL     1      -5.898   6.302  14.744  1.00  0.00    -0.508 OA
ATOM     43  H   UNL     1      -6.470   7.083  14.655  1.00  0.00     0.293 HD
ENDBRANCH  41  42
ENDBRANCH  35  36
ENDBRANCH  34  35
BRANCH  34  44
ATOM     44  C   UNL     1      -1.186   6.479   9.944  1.00  0.00     0.243 C 
ATOM     45  O   UNL     1      -0.410   5.533  10.041  1.00  0.00    -0.273 OA
ATOM     46  N   UNL     1      -2.180   6.510   8.989  1.00  0.00    -0.341 N 
ATOM     47  H   UNL     1      -2.722   7.362   8.868  1.00  0.00     0.164 HD
BRANCH  46  48
ATOM     48  C   UNL     1      -2.435   5.411   8.055  1.00  0.00     0.196 C 
BRANCH  48  49
ATOM     49  C   UNL     1      -3.883   4.904   8.169  1.00  0.00     0.072 C 
BRANCH  49  50
ATOM     50  C   UNL     1      -4.042   3.830   9.221  1.00  0.00    -0.045 A 
ATOM     51  C   UNL     1      -2.911   3.164   9.717  1.00  0.00     0.007 A 
ATOM     52  C   UNL     1      -5.309   3.470   9.698  1.00  0.00     0.007 A 
ATOM     53  C   UNL     1      -3.047   2.161  10.677  1.00  0.00     0.046 A 
ATOM     54  C   UNL     1      -5.444   2.466  10.660  1.00  0.00     0.046 A 
ATOM     55  C   UNL     1      -4.311   1.820  11.142  1.00  0.00     0.115 A 
BRANCH  55  56
ATOM     56  O   UNL     1      -4.401   0.834  12.079  1.00  0.00    -0.508 OA
ATOM     57  H   UNL     1      -5.230   0.952  12.569  1.00  0.00     0.293 HD
ENDBRANCH  55  56
ENDBRANCH  49  50
ENDBRANCH  48  49
BRANCH  48  58
ATOM     58  C   UNL     1      -2.172   5.900   6.625  1.00  0.00     0.326 C 
ATOM     59  O   UNL     1      -1.662   5.272   5.711  1.00  0.00    -0.250 OA
BRANCH  58  60
ATOM     60  O   UNL     1      -2.585   7.174   6.403  1.00  0.00    -0.480 OA
ATOM     61  H   UNL     1      -3.443   7.056   5.940  1.00  0.00     0.296 HD
ENDBRANCH  58  60
ENDBRANCH  48  58
ENDBRANCH  46  48
ENDBRANCH  34  44
ENDBRANCH  32  34
ENDBRANCH  25  30
ENDBRANCH  23  25
ENDBRANCH   2  23
TORSDOF 28
ENDMDL
MODEL 7
REMARK VINA RESULT:    -5.760      2.843      7.439
REMARK INTER + INTRA:         -20.418
REMARK INTER:                 -15.039
REMARK INTRA:                  -5.379
REMARK UNBOUND:                -6.071
REMARK SMILES CCCCCCC[C@H](N)[C@H](O)C(=O)N[C@H](C)C(=O)N(C)[C@H](CC(C)C)C(=O)N[C@@H](Cc1ccc(O)cc1)C(=O)N[C@@H](Cc1ccc(O)cc1)C(=O)O
REMARK SMILES IDX 18 1 17 2 15 3 16 4 14 5 12 6 13 7 10 9 11 10 8 12 9 13 7 16
REMARK SMILES IDX 6 17 5 18 4 19 3 20 2 21 1 22 19 23 20 24 21 25 22 26 23 27
REMARK SMILES IDX 24 28 25 29 26 30 27 31 28 32 29 34 30 35 31 36 32 37 37 38
REMARK SMILES IDX 33 39 36 40 34 41 35 42 38 44 39 45 40 46 41 48 42 49 43 50
REMARK SMILES IDX 44 51 49 52 45 53 48 54 46 55 47 56 50 58 51 59 52 60
REMARK H PARENT 14 8 11 11 9 14 9 15 28 33 35 43 40 47 47 57 52 61
ROOT
ATOM      1  O   UNL     1      -3.333  10.669   6.674  1.00  0.00    -0.272 OA
ATOM      2  C   UNL     1      -2.664  11.573   7.197  1.00  0.00     0.245 C 
ENDROOT
BRANCH   2   3
ATOM      3  C   UNL     1      -3.406  12.688   7.975  1.00  0.00     0.168 C 
ATOM      4  C   UNL     1      -4.332  13.470   7.049  1.00  0.00     0.041 C 
BRANCH   3   5
ATOM      5  N   UNL     1      -4.093  12.242   9.177  1.00  0.00    -0.342 N 
ATOM      6  C   UNL     1      -3.463  12.202  10.403  1.00  0.00     0.251 C 
ATOM      7  O   UNL     1      -2.283  12.494  10.567  1.00  0.00    -0.272 OA
ATOM      8  H   UNL     1      -5.065  11.941   9.159  1.00  0.00     0.164 HD
BRANCH   6   9
ATOM      9  C   UNL     1      -4.418  11.837  11.551  1.00  0.00     0.219 C 
BRANCH   9  10
ATOM     10  O   UNL     1      -5.773  12.219  11.285  1.00  0.00    -0.382 OA
ATOM     11  H   UNL     1      -5.715  12.696  10.428  1.00  0.00     0.211 HD
ENDBRANCH   9  10
BRANCH   9  12
ATOM     12  C   UNL     1      -4.337  10.343  11.958  1.00  0.00     0.089 C 
BRANCH  12  13
ATOM     13  N   UNL     1      -3.814   9.572  10.807  1.00  0.00    -0.325 NA
ATOM     14  H   UNL     1      -3.574  10.217  10.052  1.00  0.00     0.119 HD
ATOM     15  H   UNL     1      -4.565   8.988  10.431  1.00  0.00     0.119 HD
ENDBRANCH  12  13
BRANCH  12  16
ATOM     16  C   UNL     1      -3.508  10.030  13.228  1.00  0.00     0.022 C 
BRANCH  16  17
ATOM     17  C   UNL     1      -2.037   9.621  13.077  1.00  0.00     0.002 C 
BRANCH  17  18
ATOM     18  C   UNL     1      -1.628   8.382  13.870  1.00  0.00     0.000 C 
BRANCH  18  19
ATOM     19  C   UNL     1      -2.675   7.260  13.859  1.00  0.00    -0.000 C 
BRANCH  19  20
ATOM     20  C   UNL     1      -2.756   6.458  12.557  1.00  0.00    -0.000 C 
BRANCH  20  21
ATOM     21  C   UNL     1      -1.424   6.403  11.804  1.00  0.00    -0.003 C 
ATOM     22  C   UNL     1      -1.216   5.048  11.145  1.00  0.00     0.004 C 
ENDBRANCH  20  21
ENDBRANCH  19  20
ENDBRANCH  18  19
ENDBRANCH  17  18
ENDBRANCH  16  17
ENDBRANCH  12  16
ENDBRANCH   9  12
ENDBRANCH   6   9
ENDBRANCH   3   5
ENDBRANCH   2   3
BRANCH   2  23
ATOM     23  N   UNL     1      -1.275  11.507   7.184  1.00  0.00    -0.332 N 
ATOM     24  C   UNL     1      -0.425  12.208   6.233  1.00  0.00     0.147 C 
BRANCH  23  25
ATOM     25  C   UNL     1      -0.547  10.786   8.264  1.00  0.00     0.174 C 
BRANCH  25  26
ATOM     26  C   UNL     1       0.990  10.895   8.130  1.00  0.00     0.038 C 
BRANCH  26  27
ATOM     27  C   UNL     1       1.809  10.881   9.440  1.00  0.00    -0.015 C 
ATOM     28  C   UNL     1       1.036  11.468  10.620  1.00  0.00     0.007 C 
ATOM     29  C   UNL     1       2.364   9.503   9.794  1.00  0.00     0.007 C 
ENDBRANCH  26  27
ENDBRANCH  25  26
BRANCH  25  30
ATOM     30  C   UNL     1      -1.060   9.332   8.372  1.00  0.00     0.243 C 
ATOM     31  O   UNL     1      -1.413   8.845   9.445  1.00  0.00    -0.273 OA
ATOM     32  N   UNL     1      -1.087   8.623   7.198  1.00  0.00    -0.342 N 
ATOM     33  H   UNL     1      -0.914   9.138   6.331  1.00  0.00     0.164 HD
BRANCH  32  34
ATOM     34  C   UNL     1      -1.517   7.225   7.116  1.00  0.00     0.175 C 
BRANCH  34  35
ATOM     35  C   UNL     1      -3.036   7.119   6.911  1.00  0.00     0.070 C 
BRANCH  35  36
ATOM     36  C   UNL     1      -3.637   5.915   7.601  1.00  0.00    -0.045 A 
ATOM     37  C   UNL     1      -3.850   4.728   6.883  1.00  0.00     0.007 A 
ATOM     38  C   UNL     1      -4.008   5.971   8.950  1.00  0.00     0.007 A 
ATOM     39  C   UNL     1      -4.416   3.617   7.507  1.00  0.00     0.046 A 
ATOM     40  C   UNL     1      -4.577   4.859   9.576  1.00  0.00     0.046 A 
ATOM     41  C   UNL     1      -4.774   3.690   8.848  1.00  0.00     0.115 A 
BRANCH  41  42
ATOM     42  O   UNL     1      -5.327   2.583   9.420  1.00  0.00    -0.508 OA
ATOM     43  H   UNL     1      -5.391   2.734  10.378  1.00  0.00     0.293 HD
ENDBRANCH  41  42
ENDBRANCH  35  36
ENDBRANCH  34  35
BRANCH  34  44
ATOM     44  C   UNL     1      -0.731   6.549   5.970  1.00  0.00     0.243 C 
ATOM     45  O   UNL     1      -1.236   6.148   4.925  1.00  0.00    -0.273 OA
ATOM     46  N   UNL     1       0.592   6.312   6.278  1.00  0.00    -0.341 N 
ATOM     47  H   UNL     1       0.935   6.557   7.203  1.00  0.00     0.164 HD
BRANCH  46  48
ATOM     48  C   UNL     1       1.517   5.622   5.376  1.00  0.00     0.196 C 
BRANCH  48  49
ATOM     49  C   UNL     1       2.616   6.571   4.868  1.00  0.00     0.072 C 
BRANCH  49  50
ATOM     50  C   UNL     1       2.287   7.172   3.520  1.00  0.00    -0.045 A 
ATOM     51  C   UNL     1       1.370   8.229   3.431  1.00  0.00     0.007 A 
ATOM     52  C   UNL     1       2.871   6.675   2.348  1.00  0.00     0.007 A 
ATOM     53  C   UNL     1       1.049   8.783   2.191  1.00  0.00     0.046 A 
ATOM     54  C   UNL     1       2.549   7.229   1.107  1.00  0.00     0.046 A 
ATOM     55  C   UNL     1       1.640   8.280   1.039  1.00  0.00     0.115 A 
BRANCH  55  56
ATOM     56  O   UNL     1       1.298   8.847  -0.152  1.00  0.00    -0.508 OA
ATOM     57  H   UNL     1       1.599   9.770  -0.150  1.00  0.00     0.293 HD
ENDBRANCH  55  56
ENDBRANCH  49  50
ENDBRANCH  48  49
BRANCH  48  58
ATOM     58  C   UNL     1       2.160   4.446   6.124  1.00  0.00     0.326 C 
ATOM     59  O   UNL     1       2.317   4.334   7.329  1.00  0.00    -0.250 OA
BRANCH  58  60
ATOM     60  O   UNL     1       2.567   3.442   5.307  1.00  0.00    -0.480 OA
ATOM     61  H   UNL     1       1.943   3.499   4.551  1.00  0.00     0.296 HD
ENDBRANCH  58  60
ENDBRANCH  48  58
ENDBRANCH  46  48
ENDBRANCH  34  44
ENDBRANCH  32  34
ENDBRANCH  25  30
ENDBRANCH  23  25
ENDBRANCH   2  23
TORSDOF 28
ENDMDL
MODEL 8
REMARK VINA RESULT:    -5.665      2.767      5.644
REMARK INTER + INTRA:         -20.180
REMARK INTER:                 -14.399
REMARK INTRA:                  -5.781
REMARK UNBOUND:                -6.071
REMARK SMILES CCCCCCC[C@H](N)[C@H](O)C(=O)N[C@H](C)C(=O)N(C)[C@H](CC(C)C)C(=O)N[C@@H](Cc1ccc(O)cc1)C(=O)N[C@@H](Cc1ccc(O)cc1)C(=O)O
REMARK SMILES IDX 18 1 17 2 15 3 16 4 14 5 12 6 13 7 10 9 11 10 8 12 9 13 7 16
REMARK SMILES IDX 6 17 5 18 4 19 3 20 2 21 1 22 19 23 20 24 21 25 22 26 23 27
REMARK SMILES IDX 24 28 25 29 26 30 27 31 28 32 29 34 30 35 31 36 32 37 37 38
REMARK SMILES IDX 33 39 36 40 34 41 35 42 38 44 39 45 40 46 41 48 42 49 43 50
REMARK SMILES IDX 44 51 49 52 45 53 48 54 46 55 47 56 50 58 51 59 52 60
REMARK H PARENT 14 8 11 11 9 14 9 15 28 33 35 43 40 47 47 57 52 61
ROOT
ATOM      1  O   UNL     1      -3.466   9.910   6.929  1.00  0.00    -0.272 OA
ATOM      2  C   UNL     1      -2.697  10.841   7.212  1.00  0.00     0.245 C 
ENDROOT
BRANCH   2   3
ATOM      3  C   UNL     1      -3.303  12.181   7.698  1.00  0.00     0.168 C 
ATOM      4  C   UNL     1      -4.076  12.865   6.575  1.00  0.00     0.041 C 
BRANCH   3   5
ATOM      5  N   UNL     1      -4.089  12.089   8.918  1.00  0.00    -0.342 N 
ATOM      6  C   UNL     1      -3.520  12.249  10.164  1.00  0.00     0.251 C 
ATOM      7  O   UNL     1      -2.321  12.435  10.341  1.00  0.00    -0.272 OA
ATOM      8  H   UNL     1      -5.089  11.904   8.900  1.00  0.00     0.164 HD
BRANCH   6   9
ATOM      9  C   UNL     1      -4.560  12.254  11.296  1.00  0.00     0.219 C 
BRANCH   9  10
ATOM     10  O   UNL     1      -5.798  12.861  10.907  1.00  0.00    -0.382 OA
ATOM     11  H   UNL     1      -5.559  13.380  10.107  1.00  0.00     0.211 HD
ENDBRANCH   9  10
BRANCH   9  12
ATOM     12  C   UNL     1      -4.803  10.849  11.906  1.00  0.00     0.089 C 
BRANCH  12  13
ATOM     13  N   UNL     1      -4.199   9.838  11.008  1.00  0.00    -0.325 NA
ATOM     14  H   UNL     1      -3.194  10.008  10.939  1.00  0.00     0.119 HD
ATOM     15  H   UNL     1      -4.559   9.980  10.061  1.00  0.00     0.119 HD
ENDBRANCH  12  13
BRANCH  12  16
ATOM     16  C   UNL     1      -4.298  10.642  13.354  1.00  0.00     0.022 C 
BRANCH  16  17
ATOM     17  C   UNL     1      -5.165   9.847  14.341  1.00  0.00     0.002 C 
BRANCH  17  18
ATOM     18  C   UNL     1      -4.479   8.637  14.971  1.00  0.00     0.000 C 
BRANCH  18  19
ATOM     19  C   UNL     1      -3.507   7.910  14.032  1.00  0.00    -0.000 C 
BRANCH  19  20
ATOM     20  C   UNL     1      -4.126   6.782  13.202  1.00  0.00    -0.000 C 
BRANCH  20  21
ATOM     21  C   UNL     1      -3.349   5.467  13.304  1.00  0.00    -0.003 C 
ATOM     22  C   UNL     1      -3.992   4.376  12.462  1.00  0.00     0.004 C 
ENDBRANCH  20  21
ENDBRANCH  19  20
ENDBRANCH  18  19
ENDBRANCH  17  18
ENDBRANCH  16  17
ENDBRANCH  12  16
ENDBRANCH   9  12
ENDBRANCH   6   9
ENDBRANCH   3   5
ENDBRANCH   2   3
BRANCH   2  23
ATOM     23  N   UNL     1      -1.322  10.633   7.207  1.00  0.00    -0.332 N 
ATOM     24  C   UNL     1      -0.363  11.469   6.501  1.00  0.00     0.147 C 
BRANCH  23  25
ATOM     25  C   UNL     1      -0.719   9.574   8.062  1.00  0.00     0.174 C 
BRANCH  25  26
ATOM     26  C   UNL     1       0.519  10.066   8.848  1.00  0.00     0.038 C 
BRANCH  26  27
ATOM     27  C   UNL     1       0.313  10.398  10.343  1.00  0.00    -0.015 C 
ATOM     28  C   UNL     1       0.567   9.193  11.249  1.00  0.00     0.007 C 
ATOM     29  C   UNL     1       1.122  11.604  10.814  1.00  0.00     0.007 C 
ENDBRANCH  26  27
ENDBRANCH  25  26
BRANCH  25  30
ATOM     30  C   UNL     1      -0.459   8.299   7.227  1.00  0.00     0.243 C 
ATOM     31  O   UNL     1      -1.356   7.742   6.595  1.00  0.00    -0.273 OA
ATOM     32  N   UNL     1       0.830   7.832   7.244  1.00  0.00    -0.342 N 
ATOM     33  H   UNL     1       1.543   8.425   7.674  1.00  0.00     0.164 HD
BRANCH  32  34
ATOM     34  C   UNL     1       1.253   6.622   6.533  1.00  0.00     0.175 C 
BRANCH  34  35
ATOM     35  C   UNL     1       2.444   6.907   5.605  1.00  0.00     0.070 C 
BRANCH  35  36
ATOM     36  C   UNL     1       2.026   7.130   4.169  1.00  0.00    -0.045 A 
ATOM     37  C   UNL     1       1.649   8.411   3.738  1.00  0.00     0.007 A 
ATOM     38  C   UNL     1       1.986   6.066   3.258  1.00  0.00     0.007 A 
ATOM     39  C   UNL     1       1.249   8.624   2.419  1.00  0.00     0.046 A 
ATOM     40  C   UNL     1       1.584   6.278   1.937  1.00  0.00     0.046 A 
ATOM     41  C   UNL     1       1.220   7.557   1.529  1.00  0.00     0.115 A 
BRANCH  41  42
ATOM     42  O   UNL     1       0.820   7.806   0.250  1.00  0.00    -0.508 OA
ATOM     43  H   UNL     1      -0.069   8.198   0.279  1.00  0.00     0.293 HD
ENDBRANCH  41  42
ENDBRANCH  35  36
ENDBRANCH  34  35
BRANCH  34  44
ATOM     44  C   UNL     1       1.587   5.541   7.585  1.00  0.00     0.243 C 
ATOM     45  O   UNL     1       2.718   5.302   8.000  1.00  0.00    -0.273 OA
ATOM     46  N   UNL     1       0.505   4.760   7.932  1.00  0.00    -0.341 N 
ATOM     47  H   UNL     1      -0.388   4.921   7.473  1.00  0.00     0.164 HD
BRANCH  46  48
ATOM     48  C   UNL     1       0.591   3.630   8.859  1.00  0.00     0.196 C 
BRANCH  48  49
ATOM     49  C   UNL     1      -0.371   3.804  10.046  1.00  0.00     0.072 C 
BRANCH  49  50
ATOM     50  C   UNL     1      -1.460   4.815   9.769  1.00  0.00    -0.045 A 
ATOM     51  C   UNL     1      -2.575   4.449   9.001  1.00  0.00     0.007 A 
ATOM     52  C   UNL     1      -1.366   6.127  10.251  1.00  0.00     0.007 A 
ATOM     53  C   UNL     1      -3.579   5.377   8.727  1.00  0.00     0.046 A 
ATOM     54  C   UNL     1      -2.371   7.057   9.976  1.00  0.00     0.046 A 
ATOM     55  C   UNL     1      -3.471   6.673   9.217  1.00  0.00     0.115 A 
BRANCH  55  56
ATOM     56  O   UNL     1      -4.473   7.551   8.925  1.00  0.00    -0.508 OA
ATOM     57  H   UNL     1      -4.223   8.047   8.130  1.00  0.00     0.293 HD
ENDBRANCH  55  56
ENDBRANCH  49  50
ENDBRANCH  48  49
BRANCH  48  58
ATOM     58  C   UNL     1       0.248   2.338   8.104  1.00  0.00     0.326 C 
ATOM     59  O   UNL     1       0.458   1.192   8.467  1.00  0.00    -0.250 OA
BRANCH  58  60
ATOM     60  O   UNL     1      -0.367   2.553   6.914  1.00  0.00    -0.480 OA
ATOM     61  H   UNL     1       0.151   3.290   6.522  1.00  0.00     0.296 HD
ENDBRANCH  58  60
ENDBRANCH  48  58
ENDBRANCH  46  48
ENDBRANCH  34  44
ENDBRANCH  32  34
ENDBRANCH  25  30
ENDBRANCH  23  25
ENDBRANCH   2  23
TORSDOF 28
ENDMDL
MODEL 9
REMARK VINA RESULT:    -5.658      2.441      5.275
REMARK INTER + INTRA:         -20.164
REMARK INTER:                 -14.927
REMARK INTRA:                  -5.237
REMARK UNBOUND:                -6.071
REMARK SMILES CCCCCCC[C@H](N)[C@H](O)C(=O)N[C@H](C)C(=O)N(C)[C@H](CC(C)C)C(=O)N[C@@H](Cc1ccc(O)cc1)C(=O)N[C@@H](Cc1ccc(O)cc1)C(=O)O
REMARK SMILES IDX 18 1 17 2 15 3 16 4 14 5 12 6 13 7 10 9 11 10 8 12 9 13 7 16
REMARK SMILES IDX 6 17 5 18 4 19 3 20 2 21 1 22 19 23 20 24 21 25 22 26 23 27
REMARK SMILES IDX 24 28 25 29 26 30 27 31 28 32 29 34 30 35 31 36 32 37 37 38
REMARK SMILES IDX 33 39 36 40 34 41 35 42 38 44 39 45 40 46 41 48 42 49 43 50
REMARK SMILES IDX 44 51 49 52 45 53 48 54 46 55 47 56 50 58 51 59 52 60
REMARK H PARENT 14 8 11 11 9 14 9 15 28 33 35 43 40 47 47 57 52 61
ROOT
ATOM      1  O   UNL     1      -3.126  10.340   6.733  1.00  0.00    -0.272 OA
ATOM      2  C   UNL     1      -2.493  11.270   7.255  1.00  0.00     0.245 C 
ENDROOT
BRANCH   2   3
ATOM      3  C   UNL     1      -3.226  12.192   8.262  1.00  0.00     0.168 C 
ATOM      4  C   UNL     1      -4.442  12.843   7.613  1.00  0.00     0.041 C 
BRANCH   3   5
ATOM      5  N   UNL     1      -3.558  11.567   9.533  1.00  0.00    -0.342 N 
ATOM      6  C   UNL     1      -2.853  11.842  10.685  1.00  0.00     0.251 C 
ATOM      7  O   UNL     1      -1.881  12.589  10.722  1.00  0.00    -0.272 OA
ATOM      8  H   UNL     1      -4.323  10.903   9.619  1.00  0.00     0.164 HD
BRANCH   6   9
ATOM      9  C   UNL     1      -3.467  11.181  11.930  1.00  0.00     0.219 C 
BRANCH   9  10
ATOM     10  O   UNL     1      -4.682  10.479  11.640  1.00  0.00    -0.382 OA
ATOM     11  H   UNL     1      -4.596   9.647  12.156  1.00  0.00     0.211 HD
ENDBRANCH   9  10
BRANCH   9  12
ATOM     12  C   UNL     1      -2.470  10.268  12.689  1.00  0.00     0.089 C 
BRANCH  12  13
ATOM     13  N   UNL     1      -3.242   9.382  13.590  1.00  0.00    -0.325 NA
ATOM     14  H   UNL     1      -2.594   8.836  14.161  1.00  0.00     0.119 HD
ATOM     15  H   UNL     1      -3.745   8.693  13.026  1.00  0.00     0.119 HD
ENDBRANCH  12  13
BRANCH  12  16
ATOM     16  C   UNL     1      -1.514   9.428  11.808  1.00  0.00     0.022 C 
BRANCH  16  17
ATOM     17  C   UNL     1      -0.825   8.198  12.416  1.00  0.00     0.002 C 
BRANCH  17  18
ATOM     18  C   UNL     1      -1.168   6.870  11.746  1.00  0.00     0.000 C 
BRANCH  18  19
ATOM     19  C   UNL     1      -2.605   6.792  11.212  1.00  0.00    -0.000 C 
BRANCH  19  20
ATOM     20  C   UNL     1      -3.460   5.671  11.810  1.00  0.00    -0.000 C 
BRANCH  20  21
ATOM     21  C   UNL     1      -3.310   5.546  13.328  1.00  0.00    -0.003 C 
ATOM     22  C   UNL     1      -3.816   4.202  13.827  1.00  0.00     0.004 C 
ENDBRANCH  20  21
ENDBRANCH  19  20
ENDBRANCH  18  19
ENDBRANCH  17  18
ENDBRANCH  16  17
ENDBRANCH  12  16
ENDBRANCH   9  12
ENDBRANCH   6   9
ENDBRANCH   3   5
ENDBRANCH   2   3
BRANCH   2  23
ATOM     23  N   UNL     1      -1.126  11.395   7.028  1.00  0.00    -0.332 N 
ATOM     24  C   UNL     1      -0.526  12.353   6.111  1.00  0.00     0.147 C 
BRANCH  23  25
ATOM     25  C   UNL     1      -0.155  10.610   7.837  1.00  0.00     0.174 C 
BRANCH  25  26
ATOM     26  C   UNL     1       0.885  11.498   8.559  1.00  0.00     0.038 C 
BRANCH  26  27
ATOM     27  C   UNL     1       1.355  11.033   9.955  1.00  0.00    -0.015 C 
ATOM     28  C   UNL     1       2.580  10.122   9.886  1.00  0.00     0.007 C 
ATOM     29  C   UNL     1       1.596  12.184  10.929  1.00  0.00     0.007 C 
ENDBRANCH  26  27
ENDBRANCH  25  26
BRANCH  25  30
ATOM     30  C   UNL     1       0.474   9.491   6.976  1.00  0.00     0.243 C 
ATOM     31  O   UNL     1       1.156   9.741   5.983  1.00  0.00    -0.273 OA
ATOM     32  N   UNL     1       0.215   8.209   7.388  1.00  0.00    -0.342 N 
ATOM     33  H   UNL     1      -0.238   8.085   8.297  1.00  0.00     0.164 HD
BRANCH  32  34
ATOM     34  C   UNL     1       0.706   7.024   6.678  1.00  0.00     0.175 C 
BRANCH  34  35
ATOM     35  C   UNL     1       1.349   6.019   7.646  1.00  0.00     0.070 C 
BRANCH  35  36
ATOM     36  C   UNL     1       2.860   6.081   7.635  1.00  0.00    -0.045 A 
ATOM     37  C   UNL     1       3.611   4.896   7.643  1.00  0.00     0.007 A 
ATOM     38  C   UNL     1       3.529   7.312   7.640  1.00  0.00     0.007 A 
ATOM     39  C   UNL     1       5.005   4.943   7.647  1.00  0.00     0.046 A 
ATOM     40  C   UNL     1       4.925   7.360   7.645  1.00  0.00     0.046 A 
ATOM     41  C   UNL     1       5.651   6.173   7.647  1.00  0.00     0.115 A 
BRANCH  41  42
ATOM     42  O   UNL     1       7.015   6.175   7.654  1.00  0.00    -0.508 OA
ATOM     43  H   UNL     1       7.315   6.038   8.568  1.00  0.00     0.293 HD
ENDBRANCH  41  42
ENDBRANCH  35  36
ENDBRANCH  34  35
BRANCH  34  44
ATOM     44  C   UNL     1      -0.479   6.404   5.905  1.00  0.00     0.243 C 
ATOM     45  O   UNL     1      -0.647   6.507   4.693  1.00  0.00    -0.273 OA
ATOM     46  N   UNL     1      -1.423   5.821   6.723  1.00  0.00    -0.341 N 
ATOM     47  H   UNL     1      -1.297   5.863   7.731  1.00  0.00     0.164 HD
BRANCH  46  48
ATOM     48  C   UNL     1      -2.666   5.228   6.225  1.00  0.00     0.196 C 
BRANCH  48  49
ATOM     49  C   UNL     1      -2.897   3.829   6.820  1.00  0.00     0.072 C 
BRANCH  49  50
ATOM     50  C   UNL     1      -1.759   3.379   7.708  1.00  0.00    -0.045 A 
ATOM     51  C   UNL     1      -1.693   3.821   9.037  1.00  0.00     0.007 A 
ATOM     52  C   UNL     1      -0.750   2.540   7.218  1.00  0.00     0.007 A 
ATOM     53  C   UNL     1      -0.641   3.424   9.862  1.00  0.00     0.046 A 
ATOM     54  C   UNL     1       0.304   2.143   8.043  1.00  0.00     0.046 A 
ATOM     55  C   UNL     1       0.349   2.588   9.360  1.00  0.00     0.115 A 
BRANCH  55  56
ATOM     56  O   UNL     1       1.361   2.224  10.198  1.00  0.00    -0.508 OA
ATOM     57  H   UNL     1       1.718   3.025  10.613  1.00  0.00     0.293 HD
ENDBRANCH  55  56
ENDBRANCH  49  50
ENDBRANCH  48  49
BRANCH  48  58
ATOM     58  C   UNL     1      -3.840   6.145   6.594  1.00  0.00     0.326 C 
ATOM     59  O   UNL     1      -4.951   5.808   6.969  1.00  0.00    -0.250 OA
BRANCH  58  60
ATOM     60  O   UNL     1      -3.550   7.466   6.485  1.00  0.00    -0.480 OA
ATOM     61  H   UNL     1      -3.747   7.664   5.543  1.00  0.00     0.296 HD
ENDBRANCH  58  60
ENDBRANCH  48  58
ENDBRANCH  46  48
ENDBRANCH  34  44
ENDBRANCH  32  34
ENDBRANCH  25  30
ENDBRANCH  23  25
ENDBRANCH   2  23
TORSDOF 28
ENDMDL
MODEL 10
REMARK VINA RESULT:    -5.594      2.605      5.667
REMARK INTER + INTRA:         -20.004
REMARK INTER:                 -14.250
REMARK INTRA:                  -5.754
REMARK UNBOUND:                -6.071
REMARK SMILES CCCCCCC[C@H](N)[C@H](O)C(=O)N[C@H](C)C(=O)N(C)[C@H](CC(C)C)C(=O)N[C@@H](Cc1ccc(O)cc1)C(=O)N[C@@H](Cc1ccc(O)cc1)C(=O)O
REMARK SMILES IDX 18 1 17 2 15 3 16 4 14 5 12 6 13 7 10 9 11 10 8 12 9 13 7 16
REMARK SMILES IDX 6 17 5 18 4 19 3 20 2 21 1 22 19 23 20 24 21 25 22 26 23 27
REMARK SMILES IDX 24 28 25 29 26 30 27 31 28 32 29 34 30 35 31 36 32 37 37 38
REMARK SMILES IDX 33 39 36 40 34 41 35 42 38 44 39 45 40 46 41 48 42 49 43 50
REMARK SMILES IDX 44 51 49 52 45 53 48 54 46 55 47 56 50 58 51 59 52 60
REMARK H PARENT 14 8 11 11 9 14 9 15 28 33 35 43 40 47 47 57 52 61
ROOT
ATOM      1  O   UNL     1      -3.580  10.168   6.449  1.00  0.00    -0.272 OA
ATOM      2  C   UNL     1      -3.057  11.190   6.919  1.00  0.00     0.245 C 
ENDROOT
BRANCH   2   3
ATOM      3  C   UNL     1      -2.062  11.985   6.039  1.00  0.00     0.168 C 
ATOM      4  C   UNL     1      -2.621  13.363   5.698  1.00  0.00     0.041 C 
BRANCH   3   5
ATOM      5  N   UNL     1      -0.708  12.065   6.566  1.00  0.00    -0.342 N 
ATOM      6  C   UNL     1       0.156  10.992   6.518  1.00  0.00     0.251 C 
ATOM      7  O   UNL     1      -0.156   9.892   6.074  1.00  0.00    -0.272 OA
ATOM      8  H   UNL     1      -0.348  12.916   6.991  1.00  0.00     0.164 HD
BRANCH   6   9
ATOM      9  C   UNL     1       1.572  11.347   7.000  1.00  0.00     0.219 C 
BRANCH   9  10
ATOM     10  O   UNL     1       1.675  11.387   8.428  1.00  0.00    -0.382 OA
ATOM     11  H   UNL     1       1.755  10.440   8.681  1.00  0.00     0.211 HD
ENDBRANCH   9  10
BRANCH   9  12
ATOM     12  C   UNL     1       2.668  10.433   6.393  1.00  0.00     0.089 C 
BRANCH  12  13
ATOM     13  N   UNL     1       3.658  11.288   5.699  1.00  0.00    -0.325 NA
ATOM     14  H   UNL     1       3.833  12.124   6.261  1.00  0.00     0.119 HD
ATOM     15  H   UNL     1       3.245  11.633   4.829  1.00  0.00     0.119 HD
ENDBRANCH  12  13
BRANCH  12  16
ATOM     16  C   UNL     1       3.387   9.486   7.385  1.00  0.00     0.022 C 
BRANCH  16  17
ATOM     17  C   UNL     1       4.462   8.527   6.855  1.00  0.00     0.002 C 
BRANCH  17  18
ATOM     18  C   UNL     1       5.231   7.765   7.932  1.00  0.00     0.000 C 
BRANCH  18  19
ATOM     19  C   UNL     1       5.520   6.301   7.574  1.00  0.00    -0.000 C 
BRANCH  19  20
ATOM     20  C   UNL     1       6.280   6.090   6.261  1.00  0.00    -0.000 C 
BRANCH  20  21
ATOM     21  C   UNL     1       5.489   5.273   5.236  1.00  0.00    -0.003 C 
ATOM     22  C   UNL     1       6.296   5.046   3.967  1.00  0.00     0.004 C 
ENDBRANCH  20  21
ENDBRANCH  19  20
ENDBRANCH  18  19
ENDBRANCH  17  18
ENDBRANCH  16  17
ENDBRANCH  12  16
ENDBRANCH   9  12
ENDBRANCH   6   9
ENDBRANCH   3   5
ENDBRANCH   2   3
BRANCH   2  23
ATOM     23  N   UNL     1      -3.458  11.666   8.163  1.00  0.00    -0.332 N 
ATOM     24  C   UNL     1      -4.250  12.870   8.370  1.00  0.00     0.147 C 
BRANCH  23  25
ATOM     25  C   UNL     1      -3.194  10.870   9.393  1.00  0.00     0.174 C 
BRANCH  25  26
ATOM     26  C   UNL     1      -3.859  11.472  10.654  1.00  0.00     0.038 C 
BRANCH  26  27
ATOM     27  C   UNL     1      -3.917  10.575  11.910  1.00  0.00    -0.015 C 
ATOM     28  C   UNL     1      -4.067  11.383  13.199  1.00  0.00     0.007 C 
ATOM     29  C   UNL     1      -4.985   9.487  11.831  1.00  0.00     0.007 C 
ENDBRANCH  26  27
ENDBRANCH  25  26
BRANCH  25  30
ATOM     30  C   UNL     1      -1.677  10.620   9.550  1.00  0.00     0.243 C 
ATOM     31  O   UNL     1      -0.882  11.540   9.739  1.00  0.00    -0.273 OA
ATOM     32  N   UNL     1      -1.279   9.311   9.459  1.00  0.00    -0.342 N 
ATOM     33  H   UNL     1      -2.008   8.594   9.444  1.00  0.00     0.164 HD
BRANCH  32  34
ATOM     34  C   UNL     1       0.122   8.891   9.556  1.00  0.00     0.175 C 
BRANCH  34  35
ATOM     35  C   UNL     1       0.549   8.703  11.020  1.00  0.00     0.070 C 
BRANCH  35  36
ATOM     36  C   UNL     1      -0.573   8.191  11.895  1.00  0.00    -0.045 A 
ATOM     37  C   UNL     1      -0.866   8.834  13.108  1.00  0.00     0.007 A 
ATOM     38  C   UNL     1      -1.317   7.064  11.525  1.00  0.00     0.007 A 
ATOM     39  C   UNL     1      -1.890   8.361  13.929  1.00  0.00     0.046 A 
ATOM     40  C   UNL     1      -2.341   6.588  12.347  1.00  0.00     0.046 A 
ATOM     41  C   UNL     1      -2.620   7.243  13.542  1.00  0.00     0.115 A 
BRANCH  41  42
ATOM     42  O   UNL     1      -3.610   6.811  14.374  1.00  0.00    -0.508 OA
ATOM     43  H   UNL     1      -3.197   6.441  15.172  1.00  0.00     0.293 HD
ENDBRANCH  41  42
ENDBRANCH  35  36
ENDBRANCH  34  35
BRANCH  34  44
ATOM     44  C   UNL     1       0.289   7.592   8.735  1.00  0.00     0.243 C 
ATOM     45  O   UNL     1       1.318   6.922   8.699  1.00  0.00    -0.273 OA
ATOM     46  N   UNL     1      -0.791   7.311   7.926  1.00  0.00    -0.341 N 
ATOM     47  H   UNL     1      -1.574   7.960   7.903  1.00  0.00     0.164 HD
BRANCH  46  48
ATOM     48  C   UNL     1      -0.835   6.171   7.008  1.00  0.00     0.196 C 
BRANCH  48  49
ATOM     49  C   UNL     1      -2.268   5.634   6.850  1.00  0.00     0.072 C 
BRANCH  49  50
ATOM     50  C   UNL     1      -2.809   5.034   8.127  1.00  0.00    -0.045 A 
ATOM     51  C   UNL     1      -2.024   4.135   8.865  1.00  0.00     0.007 A 
ATOM     52  C   UNL     1      -4.097   5.344   8.581  1.00  0.00     0.007 A 
ATOM     53  C   UNL     1      -2.517   3.565  10.038  1.00  0.00     0.046 A 
ATOM     54  C   UNL     1      -4.592   4.772   9.755  1.00  0.00     0.046 A 
ATOM     55  C   UNL     1      -3.796   3.888  10.475  1.00  0.00     0.115 A 
BRANCH  55  56
ATOM     56  O   UNL     1      -4.242   3.307  11.626  1.00  0.00    -0.508 OA
ATOM     57  H   UNL     1      -4.544   4.008  12.225  1.00  0.00     0.293 HD
ENDBRANCH  55  56
ENDBRANCH  49  50
ENDBRANCH  48  49
BRANCH  48  58
ATOM     58  C   UNL     1      -0.296   6.611   5.640  1.00  0.00     0.326 C 
ATOM     59  O   UNL     1      -0.842   6.486   4.555  1.00  0.00    -0.250 OA
BRANCH  58  60
ATOM     60  O   UNL     1       0.919   7.211   5.704  1.00  0.00    -0.480 OA
ATOM     61  H   UNL     1       0.702   8.167   5.649  1.00  0.00     0.296 HD
ENDBRANCH  58  60
ENDBRANCH  48  58
ENDBRANCH  46  48
ENDBRANCH  34  44
ENDBRANCH  32  34
ENDBRANCH  25  30
ENDBRANCH  23  25
ENDBRANCH   2  23
TORSDOF 28
ENDMDL
