MODEL 1
REMARK VINA RESULT:    -6.832      0.000      0.000
REMARK INTER + INTRA:         -27.581
REMARK INTER:                 -19.614
REMARK INTRA:                  -7.967
REMARK UNBOUND:                -7.967
REMARK SMILES CCCCCC(=O)N[C@H](CC(=O)O)C(=O)N[C@H]1C(=O)N[C@H](CCCN=C(N)N)C(=O)N[C@@H]2CC[C@H](O)N(C2=O)[C@@H](CC(C)C)C(=O)N(C)[C@@H](Cc2ccccc2)C(=O)N[C@H](C(C)C)C(=O)O[C@@H]1C
REMARK SMILES IDX 30 1 31 2 29 3 32 5 35 6 37 7 34 8 38 9 33 10 39 11 36 12
REMARK SMILES IDX 40 14 41 15 42 16 43 17 44 18 45 19 46 20 47 21 48 22 49 23
REMARK SMILES IDX 50 24 51 25 52 26 56 27 53 28 55 29 54 30 57 31 58 32 59 33
REMARK SMILES IDX 60 35 61 36 62 37 63 38 64 39 65 40 66 41 67 42 68 43 21 45
REMARK SMILES IDX 20 46 18 47 19 48 17 50 16 52 14 53 15 54 9 56 8 57 6 58
REMARK SMILES IDX 7 59 5 61 4 62 3 63 2 64 1 65 10 66 11 67 12 68 13 69 22 71
REMARK SMILES IDX 23 72 24 73 25 74 26 75 27 76 28 77
REMARK H PARENT 31 4 36 13 59 34 20 49 16 55 8 60 13 70 27 78 27 79 28 80
REMARK H PARENT 28 81
REMARK Flexibility Score:  259.900
ROOT
ATOM      1  O   UNL     1      -1.722   1.869   3.079  1.00  0.00    -0.273 OA
ATOM      2  N   UNL     1      -3.708   2.979   3.311  1.00  0.00    -0.343 N 
ATOM      3  C   UNL     1      -2.598   2.333   3.810  1.00  0.00     0.243 C 
ATOM      4  H   UNL     1      -4.401   3.362   3.942  1.00  0.00     0.164 HD
ENDROOT
BRANCH   2   5
ATOM      5  C   UNL     1      -3.951   3.036   1.873  1.00  0.00     0.171 C 
ATOM      6  C   UNL     1      -6.035   4.269   0.279  1.00  0.00     0.214 C 
ATOM      7  N   UNL     1      -6.194   2.904   0.723  1.00  0.00    -0.303 N 
ATOM      8  C   UNL     1      -4.582   4.667   0.067  1.00  0.00     0.057 C 
ATOM      9  C   UNL     1      -5.261   2.271   1.529  1.00  0.00     0.247 C 
ATOM     10  C   UNL     1      -3.803   4.462   1.347  1.00  0.00     0.040 C 
ATOM     11  O   UNL     1      -5.446   1.132   1.976  1.00  0.00    -0.272 OA
BRANCH   6  12
ATOM     12  O   UNL     1      -6.640   5.107   1.237  1.00  0.00    -0.373 OA
ATOM     13  H   UNL     1      -7.449   4.648   1.550  1.00  0.00     0.213 HD
ENDBRANCH   6  12
BRANCH   7  14
ATOM     14  C   UNL     1      -7.476   2.241   0.405  1.00  0.00     0.177 C 
BRANCH  14  15
ATOM     15  C   UNL     1      -8.594   2.438   1.447  1.00  0.00     0.038 C 
BRANCH  15  16
ATOM     16  C   UNL     1      -9.479   1.238   1.851  1.00  0.00    -0.015 C 
ATOM     17  C   UNL     1      -8.723  -0.093   1.788  1.00  0.00     0.007 C 
ATOM     18  C   UNL     1     -10.689   1.147   0.913  1.00  0.00     0.007 C 
ENDBRANCH  15  16
ENDBRANCH  14  15
BRANCH  14  19
ATOM     19  C   UNL     1      -7.685   2.178  -1.148  1.00  0.00     0.245 C 
ATOM     20  O   UNL     1      -8.434   3.035  -1.646  1.00  0.00    -0.272 OA
BRANCH  19  21
ATOM     21  N   UNL     1      -7.180   1.173  -1.954  1.00  0.00    -0.332 N 
ATOM     22  C   UNL     1      -6.735  -0.131  -1.496  1.00  0.00     0.147 C 
BRANCH  21  23
ATOM     23  C   UNL     1      -7.068   1.443  -3.414  1.00  0.00     0.178 C 
BRANCH  23  24
ATOM     24  C   UNL     1      -5.889   0.735  -4.113  1.00  0.00     0.070 C 
BRANCH  24  25
ATOM     25  C   UNL     1      -4.977   1.591  -4.960  1.00  0.00    -0.045 A 
ATOM     26  C   UNL     1      -4.186   2.590  -4.379  1.00  0.00     0.004 A 
ATOM     27  C   UNL     1      -4.914   1.398  -6.349  1.00  0.00     0.004 A 
ATOM     28  C   UNL     1      -3.359   3.389  -5.172  1.00  0.00     0.000 A 
ATOM     29  C   UNL     1      -4.086   2.196  -7.139  1.00  0.00     0.000 A 
ATOM     30  C   UNL     1      -3.311   3.193  -6.550  1.00  0.00     0.000 A 
ENDBRANCH  24  25
ENDBRANCH  23  24
BRANCH  23  31
ATOM     31  C   UNL     1      -8.423   1.335  -4.153  1.00  0.00     0.243 C 
ATOM     32  O   UNL     1      -9.207   0.399  -4.018  1.00  0.00    -0.273 OA
ATOM     33  N   UNL     1      -8.598   2.300  -5.130  1.00  0.00    -0.341 N 
ATOM     34  H   UNL     1      -7.908   3.052  -5.199  1.00  0.00     0.164 HD
BRANCH  33  35
ATOM     35  C   UNL     1      -9.751   2.321  -6.035  1.00  0.00     0.194 C 
BRANCH  35  36
ATOM     36  C   UNL     1      -9.412   1.945  -7.505  1.00  0.00     0.017 C 
ATOM     37  C   UNL     1      -9.686   0.456  -7.779  1.00  0.00     0.010 C 
ATOM     38  C   UNL     1      -7.950   2.219  -7.877  1.00  0.00     0.010 C 
ENDBRANCH  35  36
BRANCH  35  39
ATOM     39  C   UNL     1     -10.557   3.648  -5.946  1.00  0.00     0.329 C 
ATOM     40  O   UNL     1     -10.119   4.685  -5.463  1.00  0.00    -0.250 OA
BRANCH  39  41
ATOM     41  O   UNL     1     -11.781   3.553  -6.547  1.00  0.00    -0.458 OA
BRANCH  41  42
ATOM     42  C   UNL     1     -12.532   4.785  -6.670  1.00  0.00     0.205 CG0
ATOM     43  C   UNL     1     -13.675   4.724  -5.660  1.00  0.00     0.056 C 
ATOM     44  G   UNL     1     -13.034   4.912  -8.122  1.00  0.00     0.000 G0
ENDBRANCH  41  42
ENDBRANCH  39  41
ENDBRANCH  35  39
ENDBRANCH  33  35
ENDBRANCH  23  31
ENDBRANCH  21  23
ENDBRANCH  19  21
ENDBRANCH  14  19
ENDBRANCH   7  14
ENDBRANCH   2   5
BRANCH   3  45
ATOM     45  C   UNL     1      -2.519   2.251   5.340  1.00  0.00     0.171 C 
BRANCH  45  46
ATOM     46  N   UNL     1      -1.237   1.623   5.635  1.00  0.00    -0.342 N 
ATOM     47  C   UNL     1      -0.376   2.117   6.582  1.00  0.00     0.247 C 
ATOM     48  O   UNL     1      -0.652   3.079   7.300  1.00  0.00    -0.273 OA
ATOM     49  H   UNL     1      -0.993   0.790   5.102  1.00  0.00     0.164 HD
BRANCH  47  50
ATOM     50  C   UNL     1       0.978   1.399   6.667  1.00  0.00     0.212 CG0
ATOM     51  G   UNL     1       0.901   0.391   7.831  1.00  0.00     0.000 G0
BRANCH  50  52
ATOM     52  N   UNL     1       1.165   0.764   5.365  1.00  0.00    -0.339 N 
ATOM     53  C   UNL     1       1.838   1.356   4.324  1.00  0.00     0.243 C 
ATOM     54  O   UNL     1       2.293   2.494   4.393  1.00  0.00    -0.273 OA
ATOM     55  H   UNL     1       0.714  -0.136   5.209  1.00  0.00     0.164 HD
BRANCH  53  56
ATOM     56  C   UNL     1       1.831   0.531   3.022  1.00  0.00     0.182 C 
BRANCH  56  57
ATOM     57  N   UNL     1       0.888   1.091   2.049  1.00  0.00    -0.344 N 
ATOM     58  C   UNL     1       1.254   1.399   0.761  1.00  0.00     0.220 C 
ATOM     59  O   UNL     1       2.407   1.297   0.357  1.00  0.00    -0.275 OA
ATOM     60  H   UNL     1      -0.095   1.096   2.311  1.00  0.00     0.164 HD
BRANCH  58  61
ATOM     61  C   UNL     1       0.103   1.910  -0.085  1.00  0.00     0.100 C 
BRANCH  61  62
ATOM     62  C   UNL     1      -0.241   3.379   0.164  1.00  0.00     0.010 C 
BRANCH  62  63
ATOM     63  C   UNL     1       0.087   4.308  -1.011  1.00  0.00     0.000 C 
BRANCH  63  64
ATOM     64  C   UNL     1      -0.783   4.088  -2.247  1.00  0.00    -0.003 C 
ATOM     65  C   UNL     1      -1.912   5.106  -2.320  1.00  0.00     0.004 C 
ENDBRANCH  63  64
ENDBRANCH  62  63
ENDBRANCH  61  62
ENDBRANCH  58  61
ENDBRANCH  56  57
BRANCH  56  66
ATOM     66  C   UNL     1       1.566  -0.948   3.297  1.00  0.00     0.157 C 
BRANCH  66  67
ATOM     67  C   UNL     1       0.192  -1.348   2.840  1.00  0.00     0.305 C 
ATOM     68  O   UNL     1      -0.087  -2.016   1.856  1.00  0.00    -0.252 OA
BRANCH  67  69
ATOM     69  O   UNL     1      -0.770  -0.927   3.683  1.00  0.00    -0.481 OA
ATOM     70  H   UNL     1      -1.079  -1.739   4.137  1.00  0.00     0.296 HD
ENDBRANCH  67  69
ENDBRANCH  66  67
ENDBRANCH  56  66
ENDBRANCH  53  56
ENDBRANCH  50  52
ENDBRANCH  47  50
ENDBRANCH  45  46
BRANCH  45  71
ATOM     71  C   UNL     1      -3.690   1.431   5.892  1.00  0.00     0.037 C 
BRANCH  71  72
ATOM     72  C   UNL     1      -3.695  -0.002   5.354  1.00  0.00     0.026 C 
BRANCH  72  73
ATOM     73  C   UNL     1      -3.337  -1.011   6.443  1.00  0.00     0.146 C 
BRANCH  73  74
ATOM     74  N   UNL     1      -2.079  -1.648   6.066  1.00  0.00    -0.254 NA
ATOM     75  C   UNL     1      -1.138  -1.675   6.935  1.00  0.00     0.185 C 
ATOM     76  N   UNL     1       0.031  -2.256   6.619  1.00  0.00    -0.370 N 
ATOM     77  N   UNL     1      -1.130  -1.187   8.188  1.00  0.00    -0.370 N 
ATOM     78  H   UNL     1       0.113  -2.643   5.689  1.00  0.00     0.159 HD
ATOM     79  H   UNL     1       0.856  -2.188   7.189  1.00  0.00     0.159 HD
ATOM     80  H   UNL     1      -1.944  -0.726   8.565  1.00  0.00     0.159 HD
ATOM     81  H   UNL     1      -0.369  -1.369   8.821  1.00  0.00     0.159 HD
ENDBRANCH  73  74
ENDBRANCH  72  73
ENDBRANCH  71  72
ENDBRANCH  45  71
ENDBRANCH   3  45
TORSDOF 20
ENDMDL
MODEL 2
REMARK VINA RESULT:    -6.528      2.723      4.569
REMARK INTER + INTRA:         -26.706
REMARK INTER:                 -19.551
REMARK INTRA:                  -7.155
REMARK UNBOUND:                -7.967
REMARK SMILES CCCCCC(=O)N[C@H](CC(=O)O)C(=O)N[C@H]1C(=O)N[C@H](CCCN=C(N)N)C(=O)N[C@@H]2CC[C@H](O)N(C2=O)[C@@H](CC(C)C)C(=O)N(C)[C@@H](Cc2ccccc2)C(=O)N[C@H](C(C)C)C(=O)O[C@@H]1C
REMARK SMILES IDX 30 1 31 2 29 3 32 5 35 6 37 7 34 8 38 9 33 10 39 11 36 12
REMARK SMILES IDX 40 14 41 15 42 16 43 17 44 18 45 19 46 20 47 21 48 22 49 23
REMARK SMILES IDX 50 24 51 25 52 26 56 27 53 28 55 29 54 30 57 31 58 32 59 33
REMARK SMILES IDX 60 35 61 36 62 37 63 38 64 39 65 40 66 41 67 42 68 43 21 45
REMARK SMILES IDX 20 46 18 47 19 48 17 50 16 52 14 53 15 54 9 56 8 57 6 58
REMARK SMILES IDX 7 59 5 61 4 62 3 63 2 64 1 65 10 66 11 67 12 68 13 69 22 71
REMARK SMILES IDX 23 72 24 73 25 74 26 75 27 76 28 77
REMARK H PARENT 31 4 36 13 59 34 20 49 16 55 8 60 13 70 27 78 27 79 28 80
REMARK H PARENT 28 81
REMARK Flexibility Score:  259.900
ROOT
ATOM      1  O   UNL     1      -2.584   3.341   2.560  1.00  0.00    -0.273 OA
ATOM      2  N   UNL     1      -4.731   2.743   2.044  1.00  0.00    -0.343 N 
ATOM      3  C   UNL     1      -3.638   2.791   2.882  1.00  0.00     0.243 C 
ATOM      4  H   UNL     1      -5.586   2.295   2.349  1.00  0.00     0.164 HD
ENDROOT
BRANCH   2   5
ATOM      5  C   UNL     1      -4.641   3.246   0.677  1.00  0.00     0.171 C 
ATOM      6  C   UNL     1      -6.644   4.077  -1.246  1.00  0.00     0.214 C 
ATOM      7  N   UNL     1      -6.205   2.702  -1.228  1.00  0.00    -0.303 N 
ATOM      8  C   UNL     1      -5.572   5.058  -0.797  1.00  0.00     0.057 C 
ATOM      9  C   UNL     1      -5.289   2.227  -0.303  1.00  0.00     0.247 C 
ATOM     10  C   UNL     1      -5.102   4.700   0.596  1.00  0.00     0.040 C 
ATOM     11  O   UNL     1      -4.982   1.029  -0.239  1.00  0.00    -0.272 OA
BRANCH   6  12
ATOM     12  O   UNL     1      -7.780   4.177  -0.418  1.00  0.00    -0.373 OA
ATOM     13  H   UNL     1      -7.480   4.551   0.438  1.00  0.00     0.213 HD
ENDBRANCH   6  12
BRANCH   7  14
ATOM     14  C   UNL     1      -6.884   1.769  -2.151  1.00  0.00     0.177 C 
BRANCH  14  15
ATOM     15  C   UNL     1      -8.401   1.611  -1.926  1.00  0.00     0.038 C 
BRANCH  15  16
ATOM     16  C   UNL     1      -9.151   0.436  -2.592  1.00  0.00    -0.015 C 
ATOM     17  C   UNL     1     -10.635   0.402  -2.216  1.00  0.00     0.007 C 
ATOM     18  C   UNL     1      -8.516  -0.894  -2.163  1.00  0.00     0.007 C 
ENDBRANCH  15  16
ENDBRANCH  14  15
BRANCH  14  19
ATOM     19  C   UNL     1      -6.170   1.768  -3.547  1.00  0.00     0.245 C 
ATOM     20  O   UNL     1      -5.405   0.817  -3.783  1.00  0.00    -0.272 OA
BRANCH  19  21
ATOM     21  N   UNL     1      -6.258   2.804  -4.459  1.00  0.00    -0.332 N 
ATOM     22  C   UNL     1      -5.242   3.815  -4.687  1.00  0.00     0.147 C 
BRANCH  21  23
ATOM     23  C   UNL     1      -7.499   2.908  -5.275  1.00  0.00     0.178 C 
BRANCH  23  24
ATOM     24  C   UNL     1      -8.299   4.211  -5.070  1.00  0.00     0.070 C 
BRANCH  24  25
ATOM     25  C   UNL     1      -9.642   4.093  -4.387  1.00  0.00    -0.045 A 
ATOM     26  C   UNL     1      -9.888   4.739  -3.169  1.00  0.00     0.004 A 
ATOM     27  C   UNL     1     -10.665   3.326  -4.966  1.00  0.00     0.004 A 
ATOM     28  C   UNL     1     -11.126   4.612  -2.537  1.00  0.00     0.000 A 
ATOM     29  C   UNL     1     -11.903   3.201  -4.333  1.00  0.00     0.000 A 
ATOM     30  C   UNL     1     -12.131   3.841  -3.117  1.00  0.00     0.000 A 
ENDBRANCH  24  25
ENDBRANCH  23  24
BRANCH  23  31
ATOM     31  C   UNL     1      -7.286   2.501  -6.753  1.00  0.00     0.243 C 
ATOM     32  O   UNL     1      -6.326   2.856  -7.432  1.00  0.00    -0.273 OA
ATOM     33  N   UNL     1      -8.373   1.846  -7.308  1.00  0.00    -0.341 N 
ATOM     34  H   UNL     1      -9.146   1.582  -6.693  1.00  0.00     0.164 HD
BRANCH  33  35
ATOM     35  C   UNL     1      -8.442   1.473  -8.723  1.00  0.00     0.194 C 
BRANCH  35  36
ATOM     36  C   UNL     1      -9.883   1.468  -9.309  1.00  0.00     0.017 C 
ATOM     37  C   UNL     1     -10.675   2.707  -8.856  1.00  0.00     0.010 C 
ATOM     38  C   UNL     1     -10.695   0.231  -8.906  1.00  0.00     0.010 C 
ENDBRANCH  35  36
BRANCH  35  39
ATOM     39  C   UNL     1      -7.687   0.149  -9.030  1.00  0.00     0.329 C 
ATOM     40  O   UNL     1      -7.475  -0.727  -8.200  1.00  0.00    -0.250 OA
BRANCH  39  41
ATOM     41  O   UNL     1      -7.361   0.031 -10.353  1.00  0.00    -0.458 OA
BRANCH  41  42
ATOM     42  C   UNL     1      -7.842  -1.155 -11.028  1.00  0.00     0.205 CG0
ATOM     43  C   UNL     1      -7.461  -1.025 -12.502  1.00  0.00     0.056 C 
ATOM     44  G   UNL     1      -9.366  -1.256 -10.820  1.00  0.00     0.000 G0
ENDBRANCH  41  42
ENDBRANCH  39  41
ENDBRANCH  35  39
ENDBRANCH  33  35
ENDBRANCH  23  31
ENDBRANCH  21  23
ENDBRANCH  19  21
ENDBRANCH  14  19
ENDBRANCH   7  14
ENDBRANCH   2   5
BRANCH   3  45
ATOM     45  C   UNL     1      -3.832   2.131   4.254  1.00  0.00     0.171 C 
BRANCH  45  46
ATOM     46  N   UNL     1      -2.829   2.729   5.125  1.00  0.00    -0.342 N 
ATOM     47  C   UNL     1      -3.106   3.109   6.414  1.00  0.00     0.247 C 
ATOM     48  O   UNL     1      -4.196   2.907   6.951  1.00  0.00    -0.273 OA
ATOM     49  H   UNL     1      -1.897   2.862   4.738  1.00  0.00     0.164 HD
BRANCH  47  50
ATOM     50  C   UNL     1      -1.962   3.834   7.137  1.00  0.00     0.212 CG0
ATOM     51  G   UNL     1      -2.461   4.202   8.549  1.00  0.00     0.000 G0
BRANCH  50  52
ATOM     52  N   UNL     1      -0.847   2.891   7.147  1.00  0.00    -0.339 N 
ATOM     53  C   UNL     1       0.434   3.239   7.500  1.00  0.00     0.243 C 
ATOM     54  O   UNL     1       0.752   4.390   7.786  1.00  0.00    -0.273 OA
ATOM     55  H   UNL     1      -1.025   1.946   6.813  1.00  0.00     0.164 HD
BRANCH  53  56
ATOM     56  C   UNL     1       1.458   2.096   7.350  1.00  0.00     0.182 C 
BRANCH  56  57
ATOM     57  N   UNL     1       1.125   1.236   6.210  1.00  0.00    -0.344 N 
ATOM     58  C   UNL     1       1.585   1.486   4.941  1.00  0.00     0.220 C 
ATOM     59  O   UNL     1       2.244   2.481   4.658  1.00  0.00    -0.275 OA
ATOM     60  H   UNL     1       0.670   0.351   6.419  1.00  0.00     0.164 HD
BRANCH  58  61
ATOM     61  C   UNL     1       1.164   0.434   3.931  1.00  0.00     0.100 C 
BRANCH  61  62
ATOM     62  C   UNL     1      -0.140   0.764   3.204  1.00  0.00     0.010 C 
BRANCH  62  63
ATOM     63  C   UNL     1       0.020   0.983   1.695  1.00  0.00     0.000 C 
BRANCH  63  64
ATOM     64  C   UNL     1       1.467   1.166   1.238  1.00  0.00    -0.003 C 
ATOM     65  C   UNL     1       1.908   0.031   0.325  1.00  0.00     0.004 C 
ENDBRANCH  63  64
ENDBRANCH  62  63
ENDBRANCH  61  62
ENDBRANCH  58  61
ENDBRANCH  56  57
BRANCH  56  66
ATOM     66  C   UNL     1       1.606   1.302   8.648  1.00  0.00     0.157 C 
BRANCH  66  67
ATOM     67  C   UNL     1       0.616   0.175   8.711  1.00  0.00     0.305 C 
ATOM     68  O   UNL     1      -0.565   0.253   9.013  1.00  0.00    -0.252 OA
BRANCH  67  69
ATOM     69  O   UNL     1       1.155  -1.001   8.337  1.00  0.00    -0.481 OA
ATOM     70  H   UNL     1       0.482  -1.672   8.579  1.00  0.00     0.296 HD
ENDBRANCH  67  69
ENDBRANCH  66  67
ENDBRANCH  56  66
ENDBRANCH  53  56
ENDBRANCH  50  52
ENDBRANCH  47  50
ENDBRANCH  45  46
BRANCH  45  71
ATOM     71  C   UNL     1      -3.654   0.612   4.145  1.00  0.00     0.037 C 
BRANCH  71  72
ATOM     72  C   UNL     1      -4.553  -0.144   5.126  1.00  0.00     0.026 C 
BRANCH  72  73
ATOM     73  C   UNL     1      -3.733  -0.892   6.175  1.00  0.00     0.146 C 
BRANCH  73  74
ATOM     74  N   UNL     1      -2.408  -1.137   5.615  1.00  0.00    -0.254 NA
ATOM     75  C   UNL     1      -1.561  -1.775   6.336  1.00  0.00     0.185 C 
ATOM     76  N   UNL     1      -0.334  -2.017   5.847  1.00  0.00    -0.370 N 
ATOM     77  N   UNL     1      -1.712  -2.271   7.576  1.00  0.00    -0.370 N 
ATOM     78  H   UNL     1      -0.134  -1.670   4.920  1.00  0.00     0.159 HD
ATOM     79  H   UNL     1       0.422  -2.378   6.402  1.00  0.00     0.159 HD
ATOM     80  H   UNL     1      -2.586  -2.167   8.068  1.00  0.00     0.159 HD
ATOM     81  H   UNL     1      -1.011  -2.857   8.000  1.00  0.00     0.159 HD
ENDBRANCH  73  74
ENDBRANCH  72  73
ENDBRANCH  71  72
ENDBRANCH  45  71
ENDBRANCH   3  45
TORSDOF 20
ENDMDL
MODEL 3
REMARK VINA RESULT:    -6.525      4.187      7.801
REMARK INTER + INTRA:         -26.699
REMARK INTER:                 -19.548
REMARK INTRA:                  -7.151
REMARK UNBOUND:                -7.967
REMARK SMILES CCCCCC(=O)N[C@H](CC(=O)O)C(=O)N[C@H]1C(=O)N[C@H](CCCN=C(N)N)C(=O)N[C@@H]2CC[C@H](O)N(C2=O)[C@@H](CC(C)C)C(=O)N(C)[C@@H](Cc2ccccc2)C(=O)N[C@H](C(C)C)C(=O)O[C@@H]1C
REMARK SMILES IDX 30 1 31 2 29 3 32 5 35 6 37 7 34 8 38 9 33 10 39 11 36 12
REMARK SMILES IDX 40 14 41 15 42 16 43 17 44 18 45 19 46 20 47 21 48 22 49 23
REMARK SMILES IDX 50 24 51 25 52 26 56 27 53 28 55 29 54 30 57 31 58 32 59 33
REMARK SMILES IDX 60 35 61 36 62 37 63 38 64 39 65 40 66 41 67 42 68 43 21 45
REMARK SMILES IDX 20 46 18 47 19 48 17 50 16 52 14 53 15 54 9 56 8 57 6 58
REMARK SMILES IDX 7 59 5 61 4 62 3 63 2 64 1 65 10 66 11 67 12 68 13 69 22 71
REMARK SMILES IDX 23 72 24 73 25 74 26 75 27 76 28 77
REMARK H PARENT 31 4 36 13 59 34 20 49 16 55 8 60 13 70 27 78 27 79 28 80
REMARK H PARENT 28 81
REMARK Flexibility Score:  259.900
ROOT
ATOM      1  O   UNL     1      -3.599   1.072   0.687  1.00  0.00    -0.273 OA
ATOM      2  N   UNL     1      -4.892   1.533  -1.143  1.00  0.00    -0.343 N 
ATOM      3  C   UNL     1      -3.793   1.731  -0.335  1.00  0.00     0.243 C 
ATOM      4  H   UNL     1      -5.011   2.084  -1.984  1.00  0.00     0.164 HD
ENDROOT
BRANCH   2   5
ATOM      5  C   UNL     1      -5.944   0.602  -0.749  1.00  0.00     0.171 C 
ATOM      6  C   UNL     1      -8.714   0.313  -1.556  1.00  0.00     0.214 C 
ATOM      7  N   UNL     1      -8.387   1.149  -0.424  1.00  0.00    -0.303 N 
ATOM      8  C   UNL     1      -7.744  -0.841  -1.752  1.00  0.00     0.057 C 
ATOM      9  C   UNL     1      -7.082   1.371  -0.017  1.00  0.00     0.247 C 
ATOM     10  C   UNL     1      -6.337  -0.306  -1.914  1.00  0.00     0.040 C 
ATOM     11  O   UNL     1      -6.804   2.157   0.898  1.00  0.00    -0.272 OA
BRANCH   6  12
ATOM     12  O   UNL     1      -8.743   1.132  -2.702  1.00  0.00    -0.373 OA
ATOM     13  H   UNL     1      -8.967   2.039  -2.402  1.00  0.00     0.213 HD
ENDBRANCH   6  12
BRANCH   7  14
ATOM     14  C   UNL     1      -9.501   1.889   0.206  1.00  0.00     0.177 C 
BRANCH  14  15
ATOM     15  C   UNL     1      -9.481   3.415  -0.011  1.00  0.00     0.038 C 
BRANCH  15  16
ATOM     16  C   UNL     1      -9.407   4.357   1.211  1.00  0.00    -0.015 C 
ATOM     17  C   UNL     1      -8.149   5.230   1.201  1.00  0.00     0.007 C 
ATOM     18  C   UNL     1      -9.407   3.530   2.504  1.00  0.00     0.007 C 
ENDBRANCH  15  16
ENDBRANCH  14  15
BRANCH  14  19
ATOM     19  C   UNL     1     -10.789   0.996   0.254  1.00  0.00     0.245 C 
ATOM     20  O   UNL     1     -11.242   0.609  -0.836  1.00  0.00    -0.272 OA
BRANCH  19  21
ATOM     21  N   UNL     1     -11.492   0.720   1.413  1.00  0.00    -0.332 N 
ATOM     22  C   UNL     1     -10.921   0.202   2.643  1.00  0.00     0.147 C 
BRANCH  21  23
ATOM     23  C   UNL     1     -12.962   0.958   1.408  1.00  0.00     0.178 C 
BRANCH  23  24
ATOM     24  C   UNL     1     -13.407   2.235   0.665  1.00  0.00     0.070 C 
BRANCH  24  25
ATOM     25  C   UNL     1     -13.141   3.556   1.348  1.00  0.00    -0.045 A 
ATOM     26  C   UNL     1     -13.095   3.645   2.745  1.00  0.00     0.004 A 
ATOM     27  C   UNL     1     -12.940   4.718   0.587  1.00  0.00     0.004 A 
ATOM     28  C   UNL     1     -12.865   4.874   3.369  1.00  0.00     0.000 A 
ATOM     29  C   UNL     1     -12.709   5.944   1.212  1.00  0.00     0.000 A 
ATOM     30  C   UNL     1     -12.675   6.022   2.603  1.00  0.00     0.000 A 
ENDBRANCH  24  25
ENDBRANCH  23  24
BRANCH  23  31
ATOM     31  C   UNL     1     -13.779  -0.312   1.067  1.00  0.00     0.243 C 
ATOM     32  O   UNL     1     -13.908  -1.269   1.825  1.00  0.00    -0.273 OA
ATOM     33  N   UNL     1     -14.203  -0.359  -0.250  1.00  0.00    -0.341 N 
ATOM     34  H   UNL     1     -14.062   0.468  -0.836  1.00  0.00     0.164 HD
BRANCH  33  35
ATOM     35  C   UNL     1     -14.890  -1.518  -0.827  1.00  0.00     0.194 C 
BRANCH  35  36
ATOM     36  C   UNL     1     -14.566  -1.767  -2.327  1.00  0.00     0.017 C 
ATOM     37  C   UNL     1     -13.065  -2.031  -2.538  1.00  0.00     0.010 C 
ATOM     38  C   UNL     1     -14.957  -0.593  -3.232  1.00  0.00     0.010 C 
ENDBRANCH  35  36
BRANCH  35  39
ATOM     39  C   UNL     1     -16.421  -1.501  -0.559  1.00  0.00     0.329 C 
ATOM     40  O   UNL     1     -17.107  -0.485  -0.567  1.00  0.00    -0.250 OA
BRANCH  39  41
ATOM     41  O   UNL     1     -16.935  -2.758  -0.399  1.00  0.00    -0.458 OA
BRANCH  41  42
ATOM     42  C   UNL     1     -18.088  -2.873   0.469  1.00  0.00     0.205 CG0
ATOM     43  C   UNL     1     -17.569  -3.144   1.879  1.00  0.00     0.056 C 
ATOM     44  G   UNL     1     -18.988  -4.009  -0.056  1.00  0.00     0.000 G0
ENDBRANCH  41  42
ENDBRANCH  39  41
ENDBRANCH  35  39
ENDBRANCH  33  35
ENDBRANCH  23  31
ENDBRANCH  21  23
ENDBRANCH  19  21
ENDBRANCH  14  19
ENDBRANCH   7  14
ENDBRANCH   2   5
BRANCH   3  45
ATOM     45  C   UNL     1      -2.816   2.816  -0.810  1.00  0.00     0.171 C 
BRANCH  45  46
ATOM     46  N   UNL     1      -1.576   2.573  -0.085  1.00  0.00    -0.342 N 
ATOM     47  C   UNL     1      -0.440   2.114  -0.702  1.00  0.00     0.247 C 
ATOM     48  O   UNL     1      -0.363   1.944  -1.920  1.00  0.00    -0.273 OA
ATOM     49  H   UNL     1      -1.579   2.755   0.917  1.00  0.00     0.164 HD
BRANCH  47  50
ATOM     50  C   UNL     1       0.730   1.798   0.240  1.00  0.00     0.212 CG0
ATOM     51  G   UNL     1       1.713   2.985   0.179  1.00  0.00     0.000 G0
BRANCH  50  52
ATOM     52  N   UNL     1       0.129   1.614   1.559  1.00  0.00    -0.339 N 
ATOM     53  C   UNL     1      -0.011   0.387   2.161  1.00  0.00     0.243 C 
ATOM     54  O   UNL     1       0.312  -0.661   1.609  1.00  0.00    -0.273 OA
ATOM     55  H   UNL     1      -0.259   2.434   2.020  1.00  0.00     0.164 HD
BRANCH  53  56
ATOM     56  C   UNL     1      -0.752   0.433   3.512  1.00  0.00     0.182 C 
BRANCH  56  57
ATOM     57  N   UNL     1      -1.442   1.714   3.692  1.00  0.00    -0.344 N 
ATOM     58  C   UNL     1      -2.721   1.798   4.186  1.00  0.00     0.220 C 
ATOM     59  O   UNL     1      -3.400   0.810   4.442  1.00  0.00    -0.275 OA
ATOM     60  H   UNL     1      -0.883   2.557   3.589  1.00  0.00     0.164 HD
BRANCH  58  61
ATOM     61  C   UNL     1      -3.213   3.226   4.342  1.00  0.00     0.100 C 
BRANCH  61  62
ATOM     62  C   UNL     1      -3.459   3.941   3.013  1.00  0.00     0.010 C 
BRANCH  62  63
ATOM     63  C   UNL     1      -4.832   4.618   2.910  1.00  0.00     0.000 C 
BRANCH  63  64
ATOM     64  C   UNL     1      -5.881   4.056   3.868  1.00  0.00    -0.003 C 
ATOM     65  C   UNL     1      -6.335   5.106   4.872  1.00  0.00     0.004 C 
ENDBRANCH  63  64
ENDBRANCH  62  63
ENDBRANCH  61  62
ENDBRANCH  58  61
ENDBRANCH  56  57
BRANCH  56  66
ATOM     66  C   UNL     1       0.185   0.115   4.676  1.00  0.00     0.157 C 
BRANCH  66  67
ATOM     67  C   UNL     1       0.854   1.357   5.190  1.00  0.00     0.305 C 
ATOM     68  O   UNL     1       1.689   2.033   4.609  1.00  0.00    -0.252 OA
BRANCH  67  69
ATOM     69  O   UNL     1       0.397   1.720   6.403  1.00  0.00    -0.481 OA
ATOM     70  H   UNL     1       0.862   2.559   6.605  1.00  0.00     0.296 HD
ENDBRANCH  67  69
ENDBRANCH  66  67
ENDBRANCH  56  66
ENDBRANCH  53  56
ENDBRANCH  50  52
ENDBRANCH  47  50
ENDBRANCH  45  46
BRANCH  45  71
ATOM     71  C   UNL     1      -3.381   4.209  -0.514  1.00  0.00     0.037 C 
BRANCH  71  72
ATOM     72  C   UNL     1      -3.635   5.011  -1.792  1.00  0.00     0.026 C 
BRANCH  72  73
ATOM     73  C   UNL     1      -5.116   5.022  -2.163  1.00  0.00     0.146 C 
BRANCH  73  74
ATOM     74  N   UNL     1      -5.259   4.356  -3.454  1.00  0.00    -0.254 NA
ATOM     75  C   UNL     1      -6.361   3.747  -3.695  1.00  0.00     0.185 C 
ATOM     76  N   UNL     1      -6.523   3.125  -4.874  1.00  0.00    -0.370 N 
ATOM     77  N   UNL     1      -7.446   3.621  -2.911  1.00  0.00    -0.370 N 
ATOM     78  H   UNL     1      -5.748   3.164  -5.522  1.00  0.00     0.159 HD
ATOM     79  H   UNL     1      -7.292   2.511  -5.076  1.00  0.00     0.159 HD
ATOM     80  H   UNL     1      -7.469   4.042  -1.995  1.00  0.00     0.159 HD
ATOM     81  H   UNL     1      -8.301   3.216  -3.254  1.00  0.00     0.159 HD
ENDBRANCH  73  74
ENDBRANCH  72  73
ENDBRANCH  71  72
ENDBRANCH  45  71
ENDBRANCH   3  45
TORSDOF 20
ENDMDL
MODEL 4
REMARK VINA RESULT:    -6.495      2.394      3.790
REMARK INTER + INTRA:         -26.613
REMARK INTER:                 -20.252
REMARK INTRA:                  -6.360
REMARK UNBOUND:                -7.967
REMARK SMILES CCCCCC(=O)N[C@H](CC(=O)O)C(=O)N[C@H]1C(=O)N[C@H](CCCN=C(N)N)C(=O)N[C@@H]2CC[C@H](O)N(C2=O)[C@@H](CC(C)C)C(=O)N(C)[C@@H](Cc2ccccc2)C(=O)N[C@H](C(C)C)C(=O)O[C@@H]1C
REMARK SMILES IDX 30 1 31 2 29 3 32 5 35 6 37 7 34 8 38 9 33 10 39 11 36 12
REMARK SMILES IDX 40 14 41 15 42 16 43 17 44 18 45 19 46 20 47 21 48 22 49 23
REMARK SMILES IDX 50 24 51 25 52 26 56 27 53 28 55 29 54 30 57 31 58 32 59 33
REMARK SMILES IDX 60 35 61 36 62 37 63 38 64 39 65 40 66 41 67 42 68 43 21 45
REMARK SMILES IDX 20 46 18 47 19 48 17 50 16 52 14 53 15 54 9 56 8 57 6 58
REMARK SMILES IDX 7 59 5 61 4 62 3 63 2 64 1 65 10 66 11 67 12 68 13 69 22 71
REMARK SMILES IDX 23 72 24 73 25 74 26 75 27 76 28 77
REMARK H PARENT 31 4 36 13 59 34 20 49 16 55 8 60 13 70 27 78 27 79 28 80
REMARK H PARENT 28 81
REMARK Flexibility Score:  259.900
ROOT
ATOM      1  O   UNL     1      -1.852   2.103   3.373  1.00  0.00    -0.273 OA
ATOM      2  N   UNL     1      -4.117   2.084   3.059  1.00  0.00    -0.343 N 
ATOM      3  C   UNL     1      -2.974   1.787   3.770  1.00  0.00     0.243 C 
ATOM      4  H   UNL     1      -5.025   1.821   3.423  1.00  0.00     0.164 HD
ENDROOT
BRANCH   2   5
ATOM      5  C   UNL     1      -4.032   2.688   1.734  1.00  0.00     0.171 C 
ATOM      6  C   UNL     1      -5.984   4.017   0.053  1.00  0.00     0.214 C 
ATOM      7  N   UNL     1      -5.790   2.592  -0.075  1.00  0.00    -0.303 N 
ATOM      8  C   UNL     1      -4.731   4.759   0.490  1.00  0.00     0.057 C 
ATOM      9  C   UNL     1      -4.911   1.887   0.732  1.00  0.00     0.247 C 
ATOM     10  C   UNL     1      -4.238   4.201   1.807  1.00  0.00     0.040 C 
ATOM     11  O   UNL     1      -4.814   0.654   0.675  1.00  0.00    -0.272 OA
BRANCH   6  12
ATOM     12  O   UNL     1      -7.028   4.229   0.975  1.00  0.00    -0.373 OA
ATOM     13  H   UNL     1      -7.248   5.184   0.946  1.00  0.00     0.213 HD
ENDBRANCH   6  12
BRANCH   7  14
ATOM     14  C   UNL     1      -6.681   1.875  -1.012  1.00  0.00     0.177 C 
BRANCH  14  15
ATOM     15  C   UNL     1      -8.075   1.527  -0.454  1.00  0.00     0.038 C 
BRANCH  15  16
ATOM     16  C   UNL     1      -8.383   0.074  -0.028  1.00  0.00    -0.015 C 
ATOM     17  C   UNL     1      -8.187  -0.148   1.474  1.00  0.00     0.007 C 
ATOM     18  C   UNL     1      -7.461  -0.894  -0.781  1.00  0.00     0.007 C 
ENDBRANCH  15  16
ENDBRANCH  14  15
BRANCH  14  19
ATOM     19  C   UNL     1      -6.376   2.304  -2.488  1.00  0.00     0.245 C 
ATOM     20  O   UNL     1      -5.230   2.076  -2.911  1.00  0.00    -0.272 OA
BRANCH  19  21
ATOM     21  N   UNL     1      -7.260   3.008  -3.286  1.00  0.00    -0.332 N 
ATOM     22  C   UNL     1      -7.549   4.426  -3.175  1.00  0.00     0.147 C 
BRANCH  21  23
ATOM     23  C   UNL     1      -7.993   2.257  -4.343  1.00  0.00     0.178 C 
BRANCH  23  24
ATOM     24  C   UNL     1      -9.530   2.355  -4.257  1.00  0.00     0.070 C 
BRANCH  24  25
ATOM     25  C   UNL     1     -10.283   1.086  -3.934  1.00  0.00    -0.045 A 
ATOM     26  C   UNL     1     -11.684   1.057  -3.957  1.00  0.00     0.004 A 
ATOM     27  C   UNL     1      -9.587  -0.085  -3.600  1.00  0.00     0.004 A 
ATOM     28  C   UNL     1     -12.373  -0.115  -3.641  1.00  0.00     0.000 A 
ATOM     29  C   UNL     1     -10.277  -1.256  -3.285  1.00  0.00     0.000 A 
ATOM     30  C   UNL     1     -11.670  -1.270  -3.303  1.00  0.00     0.000 A 
ENDBRANCH  24  25
ENDBRANCH  23  24
BRANCH  23  31
ATOM     31  C   UNL     1      -7.404   2.477  -5.757  1.00  0.00     0.243 C 
ATOM     32  O   UNL     1      -7.105   3.578  -6.213  1.00  0.00    -0.273 OA
ATOM     33  N   UNL     1      -7.415   1.338  -6.543  1.00  0.00    -0.341 N 
ATOM     34  H   UNL     1      -7.681   0.450  -6.109  1.00  0.00     0.164 HD
BRANCH  33  35
ATOM     35  C   UNL     1      -7.017   1.337  -7.954  1.00  0.00     0.194 C 
BRANCH  35  36
ATOM     36  C   UNL     1      -5.695   2.105  -8.241  1.00  0.00     0.017 C 
ATOM     37  C   UNL     1      -5.449   2.248  -9.752  1.00  0.00     0.010 C 
ATOM     38  C   UNL     1      -4.459   1.427  -7.636  1.00  0.00     0.010 C 
ENDBRANCH  35  36
BRANCH  35  39
ATOM     39  C   UNL     1      -8.165   1.786  -8.900  1.00  0.00     0.329 C 
ATOM     40  O   UNL     1      -8.618   2.924  -8.938  1.00  0.00    -0.250 OA
BRANCH  39  41
ATOM     41  O   UNL     1      -8.558   0.789  -9.750  1.00  0.00    -0.458 OA
BRANCH  41  42
ATOM     42  C   UNL     1      -9.966   0.746 -10.081  1.00  0.00     0.205 CG0
ATOM     43  C   UNL     1     -10.081   0.232 -11.514  1.00  0.00     0.056 C 
ATOM     44  G   UNL     1     -10.554   2.161  -9.913  1.00  0.00     0.000 G0
ENDBRANCH  41  42
ENDBRANCH  39  41
ENDBRANCH  35  39
ENDBRANCH  33  35
ENDBRANCH  23  31
ENDBRANCH  21  23
ENDBRANCH  19  21
ENDBRANCH  14  19
ENDBRANCH   7  14
ENDBRANCH   2   5
BRANCH   3  45
ATOM     45  C   UNL     1      -3.198   1.054   5.099  1.00  0.00     0.171 C 
BRANCH  45  46
ATOM     46  N   UNL     1      -1.883   0.586   5.517  1.00  0.00    -0.342 N 
ATOM     47  C   UNL     1      -1.336   0.917   6.732  1.00  0.00     0.247 C 
ATOM     48  O   UNL     1      -1.943   1.569   7.582  1.00  0.00    -0.273 OA
ATOM     49  H   UNL     1      -1.370  -0.004   4.865  1.00  0.00     0.164 HD
BRANCH  47  50
ATOM     50  C   UNL     1       0.106   0.437   6.947  1.00  0.00     0.212 CG0
ATOM     51  G   UNL     1       0.051  -0.829   7.825  1.00  0.00     0.000 G0
BRANCH  50  52
ATOM     52  N   UNL     1       0.638   0.190   5.610  1.00  0.00    -0.339 N 
ATOM     53  C   UNL     1       1.319   1.134   4.881  1.00  0.00     0.243 C 
ATOM     54  O   UNL     1       1.488   2.283   5.280  1.00  0.00    -0.273 OA
ATOM     55  H   UNL     1       0.434  -0.709   5.178  1.00  0.00     0.164 HD
BRANCH  53  56
ATOM     56  C   UNL     1       1.709   0.672   3.462  1.00  0.00     0.182 C 
BRANCH  56  57
ATOM     57  N   UNL     1       0.971   1.423   2.442  1.00  0.00    -0.344 N 
ATOM     58  C   UNL     1       1.509   1.721   1.214  1.00  0.00     0.220 C 
ATOM     59  O   UNL     1       2.665   1.444   0.912  1.00  0.00    -0.275 OA
ATOM     60  H   UNL     1      -0.019   1.581   2.613  1.00  0.00     0.164 HD
BRANCH  58  61
ATOM     61  C   UNL     1       0.547   2.453   0.297  1.00  0.00     0.100 C 
BRANCH  61  62
ATOM     62  C   UNL     1       0.220   1.692  -0.988  1.00  0.00     0.010 C 
BRANCH  62  63
ATOM     63  C   UNL     1      -0.725   2.440  -1.937  1.00  0.00     0.000 C 
BRANCH  63  64
ATOM     64  C   UNL     1      -1.790   3.276  -1.230  1.00  0.00    -0.003 C 
ATOM     65  C   UNL     1      -1.741   4.730  -1.676  1.00  0.00     0.004 C 
ENDBRANCH  63  64
ENDBRANCH  62  63
ENDBRANCH  61  62
ENDBRANCH  58  61
ENDBRANCH  56  57
BRANCH  56  66
ATOM     66  C   UNL     1       1.541  -0.838   3.300  1.00  0.00     0.157 C 
BRANCH  66  67
ATOM     67  C   UNL     1       0.373  -1.164   2.415  1.00  0.00     0.305 C 
ATOM     68  O   UNL     1       0.415  -1.644   1.293  1.00  0.00    -0.252 OA
BRANCH  67  69
ATOM     69  O   UNL     1      -0.808  -0.913   3.013  1.00  0.00    -0.481 OA
ATOM     70  H   UNL     1      -0.821   0.059   3.143  1.00  0.00     0.296 HD
ENDBRANCH  67  69
ENDBRANCH  66  67
ENDBRANCH  56  66
ENDBRANCH  53  56
ENDBRANCH  50  52
ENDBRANCH  47  50
ENDBRANCH  45  46
BRANCH  45  71
ATOM     71  C   UNL     1      -4.178  -0.109   4.908  1.00  0.00     0.037 C 
BRANCH  71  72
ATOM     72  C   UNL     1      -4.795  -0.565   6.233  1.00  0.00     0.026 C 
BRANCH  72  73
ATOM     73  C   UNL     1      -5.260   0.623   7.073  1.00  0.00     0.146 C 
BRANCH  73  74
ATOM     74  N   UNL     1      -6.718   0.582   7.137  1.00  0.00    -0.254 NA
ATOM     75  C   UNL     1      -7.279   0.936   8.234  1.00  0.00     0.185 C 
ATOM     76  N   UNL     1      -8.619   0.909   8.323  1.00  0.00    -0.370 N 
ATOM     77  N   UNL     1      -6.710   1.354   9.378  1.00  0.00    -0.370 N 
ATOM     78  H   UNL     1      -9.126   0.598   7.507  1.00  0.00     0.159 HD
ATOM     79  H   UNL     1      -9.119   1.032   9.186  1.00  0.00     0.159 HD
ATOM     80  H   UNL     1      -5.707   1.428   9.455  1.00  0.00     0.159 HD
ATOM     81  H   UNL     1      -7.260   1.717  10.139  1.00  0.00     0.159 HD
ENDBRANCH  73  74
ENDBRANCH  72  73
ENDBRANCH  71  72
ENDBRANCH  45  71
ENDBRANCH   3  45
TORSDOF 20
ENDMDL
MODEL 5
REMARK VINA RESULT:    -6.397      1.681      2.190
REMARK INTER + INTRA:         -26.330
REMARK INTER:                 -19.063
REMARK INTRA:                  -7.267
REMARK UNBOUND:                -7.967
REMARK SMILES CCCCCC(=O)N[C@H](CC(=O)O)C(=O)N[C@H]1C(=O)N[C@H](CCCN=C(N)N)C(=O)N[C@@H]2CC[C@H](O)N(C2=O)[C@@H](CC(C)C)C(=O)N(C)[C@@H](Cc2ccccc2)C(=O)N[C@H](C(C)C)C(=O)O[C@@H]1C
REMARK SMILES IDX 30 1 31 2 29 3 32 5 35 6 37 7 34 8 38 9 33 10 39 11 36 12
REMARK SMILES IDX 40 14 41 15 42 16 43 17 44 18 45 19 46 20 47 21 48 22 49 23
REMARK SMILES IDX 50 24 51 25 52 26 56 27 53 28 55 29 54 30 57 31 58 32 59 33
REMARK SMILES IDX 60 35 61 36 62 37 63 38 64 39 65 40 66 41 67 42 68 43 21 45
REMARK SMILES IDX 20 46 18 47 19 48 17 50 16 52 14 53 15 54 9 56 8 57 6 58
REMARK SMILES IDX 7 59 5 61 4 62 3 63 2 64 1 65 10 66 11 67 12 68 13 69 22 71
REMARK SMILES IDX 23 72 24 73 25 74 26 75 27 76 28 77
REMARK H PARENT 31 4 36 13 59 34 20 49 16 55 8 60 13 70 27 78 27 79 28 80
REMARK H PARENT 28 81
REMARK Flexibility Score:  259.900
ROOT
ATOM      1  O   UNL     1      -2.049   2.436   3.467  1.00  0.00    -0.273 OA
ATOM      2  N   UNL     1      -4.183   3.134   3.905  1.00  0.00    -0.343 N 
ATOM      3  C   UNL     1      -2.924   2.720   4.285  1.00  0.00     0.243 C 
ATOM      4  H   UNL     1      -4.873   3.373   4.606  1.00  0.00     0.164 HD
ENDROOT
BRANCH   2   5
ATOM      5  C   UNL     1      -4.569   3.137   2.498  1.00  0.00     0.171 C 
ATOM      6  C   UNL     1      -6.855   4.234   1.092  1.00  0.00     0.214 C 
ATOM      7  N   UNL     1      -6.908   2.877   1.583  1.00  0.00    -0.303 N 
ATOM      8  C   UNL     1      -5.451   4.687   0.725  1.00  0.00     0.057 C 
ATOM      9  C   UNL     1      -5.872   2.308   2.307  1.00  0.00     0.247 C 
ATOM     10  C   UNL     1      -4.539   4.553   1.925  1.00  0.00     0.040 C 
ATOM     11  O   UNL     1      -5.959   1.176   2.798  1.00  0.00    -0.272 OA
BRANCH   6  12
ATOM     12  O   UNL     1      -7.400   5.072   2.085  1.00  0.00    -0.373 OA
ATOM     13  H   UNL     1      -7.998   4.520   2.631  1.00  0.00     0.213 HD
ENDBRANCH   6  12
BRANCH   7  14
ATOM     14  C   UNL     1      -8.184   2.150   1.412  1.00  0.00     0.177 C 
BRANCH  14  15
ATOM     15  C   UNL     1      -9.012   1.966   2.698  1.00  0.00     0.038 C 
BRANCH  15  16
ATOM     16  C   UNL     1      -9.450   3.207   3.506  1.00  0.00    -0.015 C 
ATOM     17  C   UNL     1      -8.847   3.232   4.914  1.00  0.00     0.007 C 
ATOM     18  C   UNL     1     -10.978   3.227   3.638  1.00  0.00     0.007 C 
ENDBRANCH  15  16
ENDBRANCH  14  15
BRANCH  14  19
ATOM     19  C   UNL     1      -8.774   2.418  -0.016  1.00  0.00     0.245 C 
ATOM     20  O   UNL     1      -9.832   3.066  -0.071  1.00  0.00    -0.272 OA
BRANCH  19  21
ATOM     21  N   UNL     1      -8.249   1.884  -1.179  1.00  0.00    -0.332 N 
ATOM     22  C   UNL     1      -7.625   0.578  -1.301  1.00  0.00     0.147 C 
BRANCH  21  23
ATOM     23  C   UNL     1      -8.314   2.711  -2.416  1.00  0.00     0.178 C 
BRANCH  23  24
ATOM     24  C   UNL     1      -7.091   3.623  -2.647  1.00  0.00     0.070 C 
BRANCH  24  25
ATOM     25  C   UNL     1      -6.074   3.165  -3.667  1.00  0.00    -0.045 A 
ATOM     26  C   UNL     1      -5.169   2.139  -3.367  1.00  0.00     0.004 A 
ATOM     27  C   UNL     1      -6.021   3.768  -4.932  1.00  0.00     0.004 A 
ATOM     28  C   UNL     1      -4.221   1.734  -4.309  1.00  0.00     0.000 A 
ATOM     29  C   UNL     1      -5.074   3.360  -5.873  1.00  0.00     0.000 A 
ATOM     30  C   UNL     1      -4.173   2.345  -5.559  1.00  0.00     0.000 A 
ENDBRANCH  24  25
ENDBRANCH  23  24
BRANCH  23  31
ATOM     31  C   UNL     1      -8.771   1.908  -3.656  1.00  0.00     0.243 C 
ATOM     32  O   UNL     1      -8.233   0.874  -4.042  1.00  0.00    -0.273 OA
ATOM     33  N   UNL     1      -9.733   2.558  -4.412  1.00  0.00    -0.341 N 
ATOM     34  H   UNL     1     -10.140   3.420  -4.041  1.00  0.00     0.164 HD
BRANCH  33  35
ATOM     35  C   UNL     1     -10.228   2.041  -5.691  1.00  0.00     0.194 C 
BRANCH  35  36
ATOM     36  C   UNL     1      -9.675   2.791  -6.935  1.00  0.00     0.017 C 
ATOM     37  C   UNL     1      -8.338   2.190  -7.402  1.00  0.00     0.010 C 
ATOM     38  C   UNL     1      -9.444   4.286  -6.687  1.00  0.00     0.010 C 
ENDBRANCH  35  36
BRANCH  35  39
ATOM     39  C   UNL     1     -11.777   1.920  -5.727  1.00  0.00     0.329 C 
ATOM     40  O   UNL     1     -12.498   2.047  -4.745  1.00  0.00    -0.250 OA
BRANCH  39  41
ATOM     41  O   UNL     1     -12.255   1.740  -6.996  1.00  0.00    -0.458 OA
BRANCH  41  42
ATOM     42  C   UNL     1     -12.713   0.407  -7.326  1.00  0.00     0.205 CG0
ATOM     43  C   UNL     1     -12.673   0.277  -8.847  1.00  0.00     0.056 C 
ATOM     44  G   UNL     1     -14.132   0.220  -6.755  1.00  0.00     0.000 G0
ENDBRANCH  41  42
ENDBRANCH  39  41
ENDBRANCH  35  39
ENDBRANCH  33  35
ENDBRANCH  23  31
ENDBRANCH  21  23
ENDBRANCH  19  21
ENDBRANCH  14  19
ENDBRANCH   7  14
ENDBRANCH   2   5
BRANCH   3  45
ATOM     45  C   UNL     1      -2.683   2.659   5.799  1.00  0.00     0.171 C 
BRANCH  45  46
ATOM     46  N   UNL     1      -1.327   2.151   5.961  1.00  0.00    -0.342 N 
ATOM     47  C   UNL     1      -0.405   2.760   6.776  1.00  0.00     0.247 C 
ATOM     48  O   UNL     1      -0.676   3.732   7.482  1.00  0.00    -0.273 OA
ATOM     49  H   UNL     1      -1.077   1.314   5.437  1.00  0.00     0.164 HD
BRANCH  47  50
ATOM     50  C   UNL     1       1.006   2.158   6.724  1.00  0.00     0.212 CG0
ATOM     51  G   UNL     1       0.996   0.869   7.570  1.00  0.00     0.000 G0
BRANCH  50  52
ATOM     52  N   UNL     1       1.276   1.918   5.309  1.00  0.00    -0.339 N 
ATOM     53  C   UNL     1       0.994   0.732   4.677  1.00  0.00     0.243 C 
ATOM     54  O   UNL     1       0.538  -0.242   5.269  1.00  0.00    -0.273 OA
ATOM     55  H   UNL     1       1.756   2.650   4.789  1.00  0.00     0.164 HD
BRANCH  53  56
ATOM     56  C   UNL     1       1.446   0.683   3.203  1.00  0.00     0.182 C 
BRANCH  56  57
ATOM     57  N   UNL     1       0.443   1.291   2.324  1.00  0.00    -0.344 N 
ATOM     58  C   UNL     1       0.762   1.815   1.095  1.00  0.00     0.220 C 
ATOM     59  O   UNL     1       1.914   1.879   0.680  1.00  0.00    -0.275 OA
ATOM     60  H   UNL     1      -0.532   1.167   2.584  1.00  0.00     0.164 HD
BRANCH  58  61
ATOM     61  C   UNL     1      -0.442   2.337   0.333  1.00  0.00     0.100 C 
BRANCH  61  62
ATOM     62  C   UNL     1      -0.274   2.298  -1.186  1.00  0.00     0.010 C 
BRANCH  62  63
ATOM     63  C   UNL     1      -1.554   2.621  -1.968  1.00  0.00     0.000 C 
BRANCH  63  64
ATOM     64  C   UNL     1      -1.528   3.970  -2.684  1.00  0.00    -0.003 C 
ATOM     65  C   UNL     1      -2.829   4.732  -2.481  1.00  0.00     0.004 C 
ENDBRANCH  63  64
ENDBRANCH  62  63
ENDBRANCH  61  62
ENDBRANCH  58  61
ENDBRANCH  56  57
BRANCH  56  66
ATOM     66  C   UNL     1       1.804  -0.739   2.774  1.00  0.00     0.157 C 
BRANCH  66  67
ATOM     67  C   UNL     1       0.807  -1.277   1.789  1.00  0.00     0.305 C 
ATOM     68  O   UNL     1      -0.335  -1.640   2.026  1.00  0.00    -0.252 OA
BRANCH  67  69
ATOM     69  O   UNL     1       1.284  -1.282   0.529  1.00  0.00    -0.481 OA
ATOM     70  H   UNL     1       0.505  -1.480  -0.032  1.00  0.00     0.296 HD
ENDBRANCH  67  69
ENDBRANCH  66  67
ENDBRANCH  56  66
ENDBRANCH  53  56
ENDBRANCH  50  52
ENDBRANCH  47  50
ENDBRANCH  45  46
BRANCH  45  71
ATOM     71  C   UNL     1      -3.713   1.742   6.467  1.00  0.00     0.037 C 
BRANCH  71  72
ATOM     72  C   UNL     1      -3.086   0.437   6.966  1.00  0.00     0.026 C 
BRANCH  72  73
ATOM     73  C   UNL     1      -3.780  -0.784   6.367  1.00  0.00     0.146 C 
BRANCH  73  74
ATOM     74  N   UNL     1      -4.043  -0.502   4.959  1.00  0.00    -0.254 NA
ATOM     75  C   UNL     1      -3.116  -0.765   4.113  1.00  0.00     0.185 C 
ATOM     76  N   UNL     1      -3.328  -0.519   2.810  1.00  0.00    -0.370 N 
ATOM     77  N   UNL     1      -1.893  -1.279   4.332  1.00  0.00    -0.370 N 
ATOM     78  H   UNL     1      -4.223  -0.123   2.559  1.00  0.00     0.159 HD
ATOM     79  H   UNL     1      -2.605  -0.562   2.114  1.00  0.00     0.159 HD
ATOM     80  H   UNL     1      -1.596  -1.518   5.266  1.00  0.00     0.159 HD
ATOM     81  H   UNL     1      -1.291  -1.551   3.572  1.00  0.00     0.159 HD
ENDBRANCH  73  74
ENDBRANCH  72  73
ENDBRANCH  71  72
ENDBRANCH  45  71
ENDBRANCH   3  45
TORSDOF 20
ENDMDL
MODEL 6
REMARK VINA RESULT:    -6.375      3.547      6.601
REMARK INTER + INTRA:         -26.269
REMARK INTER:                 -19.909
REMARK INTRA:                  -6.360
REMARK UNBOUND:                -7.967
REMARK SMILES CCCCCC(=O)N[C@H](CC(=O)O)C(=O)N[C@H]1C(=O)N[C@H](CCCN=C(N)N)C(=O)N[C@@H]2CC[C@H](O)N(C2=O)[C@@H](CC(C)C)C(=O)N(C)[C@@H](Cc2ccccc2)C(=O)N[C@H](C(C)C)C(=O)O[C@@H]1C
REMARK SMILES IDX 30 1 31 2 29 3 32 5 35 6 37 7 34 8 38 9 33 10 39 11 36 12
REMARK SMILES IDX 40 14 41 15 42 16 43 17 44 18 45 19 46 20 47 21 48 22 49 23
REMARK SMILES IDX 50 24 51 25 52 26 56 27 53 28 55 29 54 30 57 31 58 32 59 33
REMARK SMILES IDX 60 35 61 36 62 37 63 38 64 39 65 40 66 41 67 42 68 43 21 45
REMARK SMILES IDX 20 46 18 47 19 48 17 50 16 52 14 53 15 54 9 56 8 57 6 58
REMARK SMILES IDX 7 59 5 61 4 62 3 63 2 64 1 65 10 66 11 67 12 68 13 69 22 71
REMARK SMILES IDX 23 72 24 73 25 74 26 75 27 76 28 77
REMARK H PARENT 31 4 36 13 59 34 20 49 16 55 8 60 13 70 27 78 27 79 28 80
REMARK H PARENT 28 81
REMARK Flexibility Score:  259.900
ROOT
ATOM      1  O   UNL     1      -4.827   2.967  -2.764  1.00  0.00    -0.273 OA
ATOM      2  N   UNL     1      -6.850   3.914  -2.275  1.00  0.00    -0.343 N 
ATOM      3  C   UNL     1      -5.617   3.406  -1.927  1.00  0.00     0.243 C 
ATOM      4  H   UNL     1      -7.468   4.280  -1.561  1.00  0.00     0.164 HD
ENDROOT
BRANCH   2   5
ATOM      5  C   UNL     1      -7.323   3.840  -3.653  1.00  0.00     0.171 C 
ATOM      6  C   UNL     1      -9.642   4.944  -4.997  1.00  0.00     0.214 C 
ATOM      7  N   UNL     1      -9.722   3.627  -4.408  1.00  0.00    -0.303 N 
ATOM      8  C   UNL     1      -8.245   5.305  -5.477  1.00  0.00     0.057 C 
ATOM      9  C   UNL     1      -8.668   3.062  -3.708  1.00  0.00     0.247 C 
ATOM     10  C   UNL     1      -7.268   5.211  -4.326  1.00  0.00     0.040 C 
ATOM     11  O   UNL     1      -8.774   1.970  -3.134  1.00  0.00    -0.272 OA
BRANCH   6  12
ATOM     12  O   UNL     1     -10.088   5.873  -4.035  1.00  0.00    -0.373 OA
ATOM     13  H   UNL     1      -9.586   5.696  -3.211  1.00  0.00     0.213 HD
ENDBRANCH   6  12
BRANCH   7  14
ATOM     14  C   UNL     1     -11.036   2.952  -4.453  1.00  0.00     0.177 C 
BRANCH  14  15
ATOM     15  C   UNL     1     -12.029   3.375  -3.353  1.00  0.00     0.038 C 
BRANCH  15  16
ATOM     16  C   UNL     1     -11.721   3.035  -1.878  1.00  0.00    -0.015 C 
ATOM     17  C   UNL     1     -12.743   2.066  -1.276  1.00  0.00     0.007 C 
ATOM     18  C   UNL     1     -11.725   4.319  -1.038  1.00  0.00     0.007 C 
ENDBRANCH  15  16
ENDBRANCH  14  15
BRANCH  14  19
ATOM     19  C   UNL     1     -11.417   2.601  -5.932  1.00  0.00     0.245 C 
ATOM     20  O   UNL     1     -12.061   3.456  -6.562  1.00  0.00    -0.272 OA
BRANCH  19  21
ATOM     21  N   UNL     1     -11.176   1.371  -6.520  1.00  0.00    -0.332 N 
ATOM     22  C   UNL     1      -9.910   0.941  -7.086  1.00  0.00     0.147 C 
BRANCH  21  23
ATOM     23  C   UNL     1     -12.305   0.402  -6.593  1.00  0.00     0.178 C 
BRANCH  23  24
ATOM     24  C   UNL     1     -13.397   0.601  -5.523  1.00  0.00     0.070 C 
BRANCH  24  25
ATOM     25  C   UNL     1     -13.374  -0.331  -4.334  1.00  0.00    -0.045 A 
ATOM     26  C   UNL     1     -12.160  -0.744  -3.770  1.00  0.00     0.004 A 
ATOM     27  C   UNL     1     -14.574  -0.801  -3.780  1.00  0.00     0.004 A 
ATOM     28  C   UNL     1     -12.146  -1.619  -2.682  1.00  0.00     0.000 A 
ATOM     29  C   UNL     1     -14.559  -1.675  -2.692  1.00  0.00     0.000 A 
ATOM     30  C   UNL     1     -13.344  -2.086  -2.145  1.00  0.00     0.000 A 
ENDBRANCH  24  25
ENDBRANCH  23  24
BRANCH  23  31
ATOM     31  C   UNL     1     -12.833   0.199  -8.033  1.00  0.00     0.243 C 
ATOM     32  O   UNL     1     -12.720  -0.848  -8.665  1.00  0.00    -0.273 OA
ATOM     33  N   UNL     1     -13.285   1.366  -8.626  1.00  0.00    -0.341 N 
ATOM     34  H   UNL     1     -13.350   2.209  -8.051  1.00  0.00     0.164 HD
BRANCH  33  35
ATOM     35  C   UNL     1     -13.719   1.435 -10.024  1.00  0.00     0.194 C 
BRANCH  35  36
ATOM     36  C   UNL     1     -12.599   1.855 -11.017  1.00  0.00     0.017 C 
ATOM     37  C   UNL     1     -11.913   0.626 -11.639  1.00  0.00     0.010 C 
ATOM     38  C   UNL     1     -11.505   2.711 -10.368  1.00  0.00     0.010 C 
ENDBRANCH  35  36
BRANCH  35  39
ATOM     39  C   UNL     1     -15.007   2.286 -10.209  1.00  0.00     0.329 C 
ATOM     40  O   UNL     1     -15.208   3.357  -9.648  1.00  0.00    -0.250 OA
BRANCH  39  41
ATOM     41  O   UNL     1     -15.856   1.749 -11.136  1.00  0.00    -0.458 OA
BRANCH  41  42
ATOM     42  C   UNL     1     -16.052   2.517 -12.347  1.00  0.00     0.205 CG0
ATOM     43  C   UNL     1     -17.517   2.948 -12.380  1.00  0.00     0.056 C 
ATOM     44  G   UNL     1     -15.669   1.638 -13.554  1.00  0.00     0.000 G0
ENDBRANCH  41  42
ENDBRANCH  39  41
ENDBRANCH  35  39
ENDBRANCH  33  35
ENDBRANCH  23  31
ENDBRANCH  21  23
ENDBRANCH  19  21
ENDBRANCH  14  19
ENDBRANCH   7  14
ENDBRANCH   2   5
BRANCH   3  45
ATOM     45  C   UNL     1      -5.288   3.447  -0.429  1.00  0.00     0.171 C 
BRANCH  45  46
ATOM     46  N   UNL     1      -3.838   3.568  -0.348  1.00  0.00    -0.342 N 
ATOM     47  C   UNL     1      -3.214   4.309   0.624  1.00  0.00     0.247 C 
ATOM     48  O   UNL     1      -3.827   4.865   1.537  1.00  0.00    -0.273 OA
ATOM     49  H   UNL     1      -3.290   3.077  -1.052  1.00  0.00     0.164 HD
BRANCH  47  50
ATOM     50  C   UNL     1      -1.690   4.423   0.477  1.00  0.00     0.212 CG0
ATOM     51  G   UNL     1      -1.226   5.616   1.336  1.00  0.00     0.000 G0
BRANCH  50  52
ATOM     52  N   UNL     1      -1.159   3.141   0.933  1.00  0.00    -0.339 N 
ATOM     53  C   UNL     1       0.013   2.599   0.464  1.00  0.00     0.243 C 
ATOM     54  O   UNL     1       0.680   3.129  -0.420  1.00  0.00    -0.273 OA
ATOM     55  H   UNL     1      -1.723   2.600   1.585  1.00  0.00     0.164 HD
BRANCH  53  56
ATOM     56  C   UNL     1       0.326   1.198   1.028  1.00  0.00     0.182 C 
BRANCH  56  57
ATOM     57  N   UNL     1      -0.072   1.097   2.436  1.00  0.00    -0.344 N 
ATOM     58  C   UNL     1      -0.518  -0.078   2.991  1.00  0.00     0.220 C 
ATOM     59  O   UNL     1      -0.684  -1.101   2.336  1.00  0.00    -0.275 OA
ATOM     60  H   UNL     1       0.145   1.889   3.034  1.00  0.00     0.164 HD
BRANCH  58  61
ATOM     61  C   UNL     1      -0.818   0.035   4.475  1.00  0.00     0.100 C 
BRANCH  61  62
ATOM     62  C   UNL     1       0.402   0.389   5.325  1.00  0.00     0.010 C 
BRANCH  62  63
ATOM     63  C   UNL     1       0.280   1.722   6.074  1.00  0.00     0.000 C 
BRANCH  63  64
ATOM     64  C   UNL     1       1.068   1.780   7.382  1.00  0.00    -0.003 C 
ATOM     65  C   UNL     1       1.243   3.214   7.860  1.00  0.00     0.004 C 
ENDBRANCH  63  64
ENDBRANCH  62  63
ENDBRANCH  61  62
ENDBRANCH  58  61
ENDBRANCH  56  57
BRANCH  56  66
ATOM     66  C   UNL     1       1.792   0.824   0.815  1.00  0.00     0.157 C 
BRANCH  66  67
ATOM     67  C   UNL     1       1.939  -0.201  -0.272  1.00  0.00     0.305 C 
ATOM     68  O   UNL     1       2.551  -0.073  -1.322  1.00  0.00    -0.252 OA
BRANCH  67  69
ATOM     69  O   UNL     1       1.345  -1.368   0.041  1.00  0.00    -0.481 OA
ATOM     70  H   UNL     1       2.084  -1.980   0.242  1.00  0.00     0.296 HD
ENDBRANCH  67  69
ENDBRANCH  66  67
ENDBRANCH  56  66
ENDBRANCH  53  56
ENDBRANCH  50  52
ENDBRANCH  47  50
ENDBRANCH  45  46
BRANCH  45  71
ATOM     71  C   UNL     1      -5.789   2.174   0.262  1.00  0.00     0.037 C 
BRANCH  71  72
ATOM     72  C   UNL     1      -4.765   1.039   0.191  1.00  0.00     0.026 C 
BRANCH  72  73
ATOM     73  C   UNL     1      -4.393   0.531   1.583  1.00  0.00     0.146 C 
BRANCH  73  74
ATOM     74  N   UNL     1      -3.485   1.502   2.185  1.00  0.00    -0.254 NA
ATOM     75  C   UNL     1      -3.769   1.945   3.354  1.00  0.00     0.185 C 
ATOM     76  N   UNL     1      -2.952   2.838   3.934  1.00  0.00    -0.370 N 
ATOM     77  N   UNL     1      -4.816   1.641   4.140  1.00  0.00    -0.370 N 
ATOM     78  H   UNL     1      -2.141   3.128   3.406  1.00  0.00     0.159 HD
ATOM     79  H   UNL     1      -3.183   3.334   4.777  1.00  0.00     0.159 HD
ATOM     80  H   UNL     1      -5.513   0.978   3.835  1.00  0.00     0.159 HD
ATOM     81  H   UNL     1      -4.875   1.966   5.091  1.00  0.00     0.159 HD
ENDBRANCH  73  74
ENDBRANCH  72  73
ENDBRANCH  71  72
ENDBRANCH  45  71
ENDBRANCH   3  45
TORSDOF 20
ENDMDL
MODEL 7
REMARK VINA RESULT:    -6.260      2.508      3.357
REMARK INTER + INTRA:         -25.938
REMARK INTER:                 -18.819
REMARK INTRA:                  -7.119
REMARK UNBOUND:                -7.967
REMARK SMILES CCCCCC(=O)N[C@H](CC(=O)O)C(=O)N[C@H]1C(=O)N[C@H](CCCN=C(N)N)C(=O)N[C@@H]2CC[C@H](O)N(C2=O)[C@@H](CC(C)C)C(=O)N(C)[C@@H](Cc2ccccc2)C(=O)N[C@H](C(C)C)C(=O)O[C@@H]1C
REMARK SMILES IDX 30 1 31 2 29 3 32 5 35 6 37 7 34 8 38 9 33 10 39 11 36 12
REMARK SMILES IDX 40 14 41 15 42 16 43 17 44 18 45 19 46 20 47 21 48 22 49 23
REMARK SMILES IDX 50 24 51 25 52 26 56 27 53 28 55 29 54 30 57 31 58 32 59 33
REMARK SMILES IDX 60 35 61 36 62 37 63 38 64 39 65 40 66 41 67 42 68 43 21 45
REMARK SMILES IDX 20 46 18 47 19 48 17 50 16 52 14 53 15 54 9 56 8 57 6 58
REMARK SMILES IDX 7 59 5 61 4 62 3 63 2 64 1 65 10 66 11 67 12 68 13 69 22 71
REMARK SMILES IDX 23 72 24 73 25 74 26 75 27 76 28 77
REMARK H PARENT 31 4 36 13 59 34 20 49 16 55 8 60 13 70 27 78 27 79 28 80
REMARK H PARENT 28 81
REMARK Flexibility Score:  259.900
ROOT
ATOM      1  O   UNL     1      -2.038   0.547   3.085  1.00  0.00    -0.273 OA
ATOM      2  N   UNL     1      -3.466   1.917   4.232  1.00  0.00    -0.343 N 
ATOM      3  C   UNL     1      -2.440   0.999   4.158  1.00  0.00     0.243 C 
ATOM      4  H   UNL     1      -3.760   2.278   5.131  1.00  0.00     0.164 HD
ENDROOT
BRANCH   2   5
ATOM      5  C   UNL     1      -4.205   2.303   3.036  1.00  0.00     0.171 C 
ATOM      6  C   UNL     1      -6.143   4.395   2.514  1.00  0.00     0.214 C 
ATOM      7  N   UNL     1      -6.601   3.094   2.942  1.00  0.00    -0.303 N 
ATOM      8  C   UNL     1      -4.848   4.346   1.718  1.00  0.00     0.057 C 
ATOM      9  C   UNL     1      -5.727   2.066   3.257  1.00  0.00     0.247 C 
ATOM     10  C   UNL     1      -3.766   3.680   2.540  1.00  0.00     0.040 C 
ATOM     11  O   UNL     1      -6.123   0.982   3.705  1.00  0.00    -0.272 OA
BRANCH   6  12
ATOM     12  O   UNL     1      -5.985   5.195   3.662  1.00  0.00    -0.373 OA
ATOM     13  H   UNL     1      -6.679   4.923   4.300  1.00  0.00     0.213 HD
ENDBRANCH   6  12
BRANCH   7  14
ATOM     14  C   UNL     1      -8.052   2.938   3.177  1.00  0.00     0.177 C 
BRANCH  14  15
ATOM     15  C   UNL     1      -8.570   3.534   4.499  1.00  0.00     0.038 C 
BRANCH  15  16
ATOM     16  C   UNL     1      -9.677   2.797   5.285  1.00  0.00    -0.015 C 
ATOM     17  C   UNL     1     -10.311   3.676   6.367  1.00  0.00     0.007 C 
ATOM     18  C   UNL     1      -9.091   1.551   5.961  1.00  0.00     0.007 C 
ENDBRANCH  15  16
ENDBRANCH  14  15
BRANCH  14  19
ATOM     19  C   UNL     1      -8.827   2.943   1.814  1.00  0.00     0.245 C 
ATOM     20  O   UNL     1      -9.444   3.981   1.526  1.00  0.00    -0.272 OA
BRANCH  19  21
ATOM     21  N   UNL     1      -8.947   1.837   0.991  1.00  0.00    -0.332 N 
ATOM     22  C   UNL     1      -8.917   0.453   1.430  1.00  0.00     0.147 C 
BRANCH  21  23
ATOM     23  C   UNL     1      -9.111   2.071  -0.470  1.00  0.00     0.178 C 
BRANCH  23  24
ATOM     24  C   UNL     1      -8.009   1.448  -1.352  1.00  0.00     0.070 C 
BRANCH  24  25
ATOM     25  C   UNL     1      -7.377   2.340  -2.395  1.00  0.00    -0.045 A 
ATOM     26  C   UNL     1      -7.477   3.734  -2.304  1.00  0.00     0.004 A 
ATOM     27  C   UNL     1      -6.681   1.779  -3.477  1.00  0.00     0.004 A 
ATOM     28  C   UNL     1      -6.905   4.550  -3.282  1.00  0.00     0.000 A 
ATOM     29  C   UNL     1      -6.108   2.596  -4.452  1.00  0.00     0.000 A 
ATOM     30  C   UNL     1      -6.223   3.981  -4.356  1.00  0.00     0.000 A 
ENDBRANCH  24  25
ENDBRANCH  23  24
BRANCH  23  31
ATOM     31  C   UNL     1     -10.557   1.824  -0.963  1.00  0.00     0.243 C 
ATOM     32  O   UNL     1     -11.562   2.123  -0.322  1.00  0.00    -0.273 OA
ATOM     33  N   UNL     1     -10.625   1.063  -2.117  1.00  0.00    -0.341 N 
ATOM     34  H   UNL     1      -9.754   0.841  -2.604  1.00  0.00     0.164 HD
BRANCH  33  35
ATOM     35  C   UNL     1     -11.891   0.606  -2.699  1.00  0.00     0.194 C 
BRANCH  35  36
ATOM     36  C   UNL     1     -11.820  -0.809  -3.339  1.00  0.00     0.017 C 
ATOM     37  C   UNL     1     -12.780  -1.788  -2.640  1.00  0.00     0.010 C 
ATOM     38  C   UNL     1     -10.418  -1.427  -3.288  1.00  0.00     0.010 C 
ENDBRANCH  35  36
BRANCH  35  39
ATOM     39  C   UNL     1     -12.516   1.650  -3.666  1.00  0.00     0.329 C 
ATOM     40  O   UNL     1     -11.962   2.067  -4.676  1.00  0.00    -0.250 OA
BRANCH  39  41
ATOM     41  O   UNL     1     -13.793   1.988  -3.311  1.00  0.00    -0.458 OA
BRANCH  41  42
ATOM     42  C   UNL     1     -14.643   2.483  -4.372  1.00  0.00     0.205 CG0
ATOM     43  C   UNL     1     -15.341   3.737  -3.848  1.00  0.00     0.056 C 
ATOM     44  G   UNL     1     -15.640   1.374  -4.762  1.00  0.00     0.000 G0
ENDBRANCH  41  42
ENDBRANCH  39  41
ENDBRANCH  35  39
ENDBRANCH  33  35
ENDBRANCH  23  31
ENDBRANCH  21  23
ENDBRANCH  19  21
ENDBRANCH  14  19
ENDBRANCH   7  14
ENDBRANCH   2   5
BRANCH   3  45
ATOM     45  C   UNL     1      -1.818   0.598   5.502  1.00  0.00     0.171 C 
BRANCH  45  46
ATOM     46  N   UNL     1      -0.376   0.687   5.311  1.00  0.00    -0.342 N 
ATOM     47  C   UNL     1       0.363   1.748   5.772  1.00  0.00     0.247 C 
ATOM     48  O   UNL     1      -0.123   2.661   6.440  1.00  0.00    -0.273 OA
ATOM     49  H   UNL     1       0.076  -0.076   4.812  1.00  0.00     0.164 HD
BRANCH  47  50
ATOM     50  C   UNL     1       1.844   1.731   5.370  1.00  0.00     0.212 CG0
ATOM     51  G   UNL     1       2.446   0.398   5.857  1.00  0.00     0.000 G0
BRANCH  50  52
ATOM     52  N   UNL     1       1.855   1.872   3.916  1.00  0.00    -0.339 N 
ATOM     53  C   UNL     1       1.746   0.810   3.053  1.00  0.00     0.243 C 
ATOM     54  O   UNL     1       1.684  -0.354   3.440  1.00  0.00    -0.273 OA
ATOM     55  H   UNL     1       2.016   2.802   3.533  1.00  0.00     0.164 HD
BRANCH  53  56
ATOM     56  C   UNL     1       1.870   1.195   1.565  1.00  0.00     0.182 C 
BRANCH  56  57
ATOM     57  N   UNL     1       0.557   1.203   0.912  1.00  0.00    -0.344 N 
ATOM     58  C   UNL     1       0.006   2.344   0.382  1.00  0.00     0.220 C 
ATOM     59  O   UNL     1       0.536   3.445   0.481  1.00  0.00    -0.275 OA
ATOM     60  H   UNL     1       0.134   0.299   0.719  1.00  0.00     0.164 HD
BRANCH  58  61
ATOM     61  C   UNL     1      -1.331   2.107  -0.296  1.00  0.00     0.100 C 
BRANCH  61  62
ATOM     62  C   UNL     1      -1.328   2.425  -1.792  1.00  0.00     0.010 C 
BRANCH  62  63
ATOM     63  C   UNL     1      -2.724   2.468  -2.426  1.00  0.00     0.000 C 
BRANCH  63  64
ATOM     64  C   UNL     1      -3.764   3.225  -1.601  1.00  0.00    -0.003 C 
ATOM     65  C   UNL     1      -3.621   4.730  -1.773  1.00  0.00     0.004 C 
ENDBRANCH  63  64
ENDBRANCH  62  63
ENDBRANCH  61  62
ENDBRANCH  58  61
ENDBRANCH  56  57
BRANCH  56  66
ATOM     66  C   UNL     1       2.871   0.300   0.836  1.00  0.00     0.157 C 
BRANCH  66  67
ATOM     67  C   UNL     1       2.184  -0.578  -0.170  1.00  0.00     0.305 C 
ATOM     68  O   UNL     1       1.548  -1.595   0.058  1.00  0.00    -0.252 OA
BRANCH  67  69
ATOM     69  O   UNL     1       2.289  -0.098  -1.424  1.00  0.00    -0.481 OA
ATOM     70  H   UNL     1       3.234  -0.214  -1.658  1.00  0.00     0.296 HD
ENDBRANCH  67  69
ENDBRANCH  66  67
ENDBRANCH  56  66
ENDBRANCH  53  56
ENDBRANCH  50  52
ENDBRANCH  47  50
ENDBRANCH  45  46
BRANCH  45  71
ATOM     71  C   UNL     1      -2.250  -0.821   5.887  1.00  0.00     0.037 C 
BRANCH  71  72
ATOM     72  C   UNL     1      -1.119  -1.607   6.555  1.00  0.00     0.026 C 
BRANCH  72  73
ATOM     73  C   UNL     1      -0.984  -1.247   8.033  1.00  0.00     0.146 C 
BRANCH  73  74
ATOM     74  N   UNL     1       0.408  -0.883   8.280  1.00  0.00    -0.254 NA
ATOM     75  C   UNL     1       0.641   0.244   8.845  1.00  0.00     0.185 C 
ATOM     76  N   UNL     1       1.911   0.606   9.087  1.00  0.00    -0.370 N 
ATOM     77  N   UNL     1      -0.233   1.177   9.262  1.00  0.00    -0.370 N 
ATOM     78  H   UNL     1       2.634  -0.037   8.797  1.00  0.00     0.159 HD
ATOM     79  H   UNL     1       2.176   1.527   9.390  1.00  0.00     0.159 HD
ATOM     80  H   UNL     1      -1.226   1.038   9.149  1.00  0.00     0.159 HD
ATOM     81  H   UNL     1       0.063   1.975   9.800  1.00  0.00     0.159 HD
ENDBRANCH  73  74
ENDBRANCH  72  73
ENDBRANCH  71  72
ENDBRANCH  45  71
ENDBRANCH   3  45
TORSDOF 20
ENDMDL
MODEL 8
REMARK VINA RESULT:    -6.255      3.288      6.698
REMARK INTER + INTRA:         -25.924
REMARK INTER:                 -19.298
REMARK INTRA:                  -6.626
REMARK UNBOUND:                -7.967
REMARK SMILES CCCCCC(=O)N[C@H](CC(=O)O)C(=O)N[C@H]1C(=O)N[C@H](CCCN=C(N)N)C(=O)N[C@@H]2CC[C@H](O)N(C2=O)[C@@H](CC(C)C)C(=O)N(C)[C@@H](Cc2ccccc2)C(=O)N[C@H](C(C)C)C(=O)O[C@@H]1C
REMARK SMILES IDX 30 1 31 2 29 3 32 5 35 6 37 7 34 8 38 9 33 10 39 11 36 12
REMARK SMILES IDX 40 14 41 15 42 16 43 17 44 18 45 19 46 20 47 21 48 22 49 23
REMARK SMILES IDX 50 24 51 25 52 26 56 27 53 28 55 29 54 30 57 31 58 32 59 33
REMARK SMILES IDX 60 35 61 36 62 37 63 38 64 39 65 40 66 41 67 42 68 43 21 45
REMARK SMILES IDX 20 46 18 47 19 48 17 50 16 52 14 53 15 54 9 56 8 57 6 58
REMARK SMILES IDX 7 59 5 61 4 62 3 63 2 64 1 65 10 66 11 67 12 68 13 69 22 71
REMARK SMILES IDX 23 72 24 73 25 74 26 75 27 76 28 77
REMARK H PARENT 31 4 36 13 59 34 20 49 16 55 8 60 13 70 27 78 27 79 28 80
REMARK H PARENT 28 81
REMARK Flexibility Score:  259.900
ROOT
ATOM      1  O   UNL     1      -2.128   1.751  -0.252  1.00  0.00    -0.273 OA
ATOM      2  N   UNL     1      -1.927   2.980   1.667  1.00  0.00    -0.343 N 
ATOM      3  C   UNL     1      -1.450   2.479   0.474  1.00  0.00     0.243 C 
ATOM      4  H   UNL     1      -1.347   3.588   2.231  1.00  0.00     0.164 HD
ENDROOT
BRANCH   2   5
ATOM      5  C   UNL     1      -3.228   2.565   2.179  1.00  0.00     0.171 C 
ATOM      6  C   UNL     1      -5.501   1.260   0.940  1.00  0.00     0.214 C 
ATOM      7  N   UNL     1      -5.435   2.702   0.960  1.00  0.00    -0.303 N 
ATOM      8  C   UNL     1      -4.808   0.609   2.126  1.00  0.00     0.057 C 
ATOM      9  C   UNL     1      -4.354   3.388   1.490  1.00  0.00     0.247 C 
ATOM     10  C   UNL     1      -3.359   1.042   2.174  1.00  0.00     0.040 C 
ATOM     11  O   UNL     1      -4.264   4.621   1.425  1.00  0.00    -0.272 OA
BRANCH   6  12
ATOM     12  O   UNL     1      -4.927   0.819  -0.268  1.00  0.00    -0.373 OA
ATOM     13  H   UNL     1      -4.524   1.603  -0.698  1.00  0.00     0.213 HD
ENDBRANCH   6  12
BRANCH   7  14
ATOM     14  C   UNL     1      -6.508   3.433   0.254  1.00  0.00     0.177 C 
BRANCH  14  15
ATOM     15  C   UNL     1      -6.460   3.345  -1.284  1.00  0.00     0.038 C 
BRANCH  15  16
ATOM     16  C   UNL     1      -6.461   4.643  -2.121  1.00  0.00    -0.015 C 
ATOM     17  C   UNL     1      -6.464   4.367  -3.628  1.00  0.00     0.007 C 
ATOM     18  C   UNL     1      -5.216   5.476  -1.789  1.00  0.00     0.007 C 
ENDBRANCH  15  16
ENDBRANCH  14  15
BRANCH  14  19
ATOM     19  C   UNL     1      -7.814   3.452   1.120  1.00  0.00     0.245 C 
ATOM     20  O   UNL     1      -7.747   4.024   2.221  1.00  0.00    -0.272 OA
BRANCH  19  21
ATOM     21  N   UNL     1      -8.976   2.782   0.779  1.00  0.00    -0.332 N 
ATOM     22  C   UNL     1      -9.351   1.457   1.240  1.00  0.00     0.147 C 
BRANCH  21  23
ATOM     23  C   UNL     1      -9.925   3.462  -0.145  1.00  0.00     0.178 C 
BRANCH  23  24
ATOM     24  C   UNL     1     -10.252   2.672  -1.429  1.00  0.00     0.070 C 
BRANCH  24  25
ATOM     25  C   UNL     1     -10.083   3.397  -2.744  1.00  0.00    -0.045 A 
ATOM     26  C   UNL     1     -10.199   4.791  -2.815  1.00  0.00     0.004 A 
ATOM     27  C   UNL     1      -9.812   2.678  -3.919  1.00  0.00     0.004 A 
ATOM     28  C   UNL     1     -10.058   5.452  -4.038  1.00  0.00     0.000 A 
ATOM     29  C   UNL     1      -9.671   3.340  -5.139  1.00  0.00     0.000 A 
ATOM     30  C   UNL     1      -9.797   4.727  -5.198  1.00  0.00     0.000 A 
ENDBRANCH  24  25
ENDBRANCH  23  24
BRANCH  23  31
ATOM     31  C   UNL     1     -11.153   4.060   0.582  1.00  0.00     0.243 C 
ATOM     32  O   UNL     1     -11.085   4.713   1.620  1.00  0.00    -0.273 OA
ATOM     33  N   UNL     1     -12.364   3.637   0.061  1.00  0.00    -0.341 N 
ATOM     34  H   UNL     1     -12.356   3.090  -0.803  1.00  0.00     0.164 HD
BRANCH  33  35
ATOM     35  C   UNL     1     -13.655   3.981   0.662  1.00  0.00     0.194 C 
BRANCH  35  36
ATOM     36  C   UNL     1     -14.007   3.151   1.929  1.00  0.00     0.017 C 
ATOM     37  C   UNL     1     -13.860   1.642   1.667  1.00  0.00     0.010 C 
ATOM     38  C   UNL     1     -15.435   3.392   2.433  1.00  0.00     0.010 C 
ENDBRANCH  35  36
BRANCH  35  39
ATOM     39  C   UNL     1     -14.816   3.981  -0.372  1.00  0.00     0.329 C 
ATOM     40  O   UNL     1     -15.063   3.046  -1.126  1.00  0.00    -0.250 OA
BRANCH  39  41
ATOM     41  O   UNL     1     -15.587   5.106  -0.288  1.00  0.00    -0.458 OA
BRANCH  41  42
ATOM     42  C   UNL     1     -16.856   5.067  -0.984  1.00  0.00     0.205 CG0
ATOM     43  C   UNL     1     -17.956   5.158   0.071  1.00  0.00     0.056 C 
ATOM     44  G   UNL     1     -16.929   3.762  -1.801  1.00  0.00     0.000 G0
ENDBRANCH  41  42
ENDBRANCH  39  41
ENDBRANCH  35  39
ENDBRANCH  33  35
ENDBRANCH  23  31
ENDBRANCH  21  23
ENDBRANCH  19  21
ENDBRANCH  14  19
ENDBRANCH   7  14
ENDBRANCH   2   5
BRANCH   3  45
ATOM     45  C   UNL     1      -0.025   2.910   0.104  1.00  0.00     0.171 C 
BRANCH  45  46
ATOM     46  N   UNL     1       0.817   2.481   1.213  1.00  0.00    -0.342 N 
ATOM     47  C   UNL     1       1.748   1.481   1.087  1.00  0.00     0.247 C 
ATOM     48  O   UNL     1       1.992   0.926   0.015  1.00  0.00    -0.273 OA
ATOM     49  H   UNL     1       0.687   2.954   2.106  1.00  0.00     0.164 HD
BRANCH  47  50
ATOM     50  C   UNL     1       2.452   1.080   2.391  1.00  0.00     0.212 CG0
ATOM     51  G   UNL     1       3.346   2.260   2.822  1.00  0.00     0.000 G0
BRANCH  50  52
ATOM     52  N   UNL     1       1.380   0.792   3.340  1.00  0.00    -0.339 N 
ATOM     53  C   UNL     1       1.121  -0.466   3.828  1.00  0.00     0.243 C 
ATOM     54  O   UNL     1       1.741  -1.459   3.460  1.00  0.00    -0.273 OA
ATOM     55  H   UNL     1       0.759   1.556   3.598  1.00  0.00     0.164 HD
BRANCH  53  56
ATOM     56  C   UNL     1      -0.114  -0.539   4.749  1.00  0.00     0.182 C 
BRANCH  56  57
ATOM     57  N   UNL     1      -0.014   0.433   5.842  1.00  0.00    -0.344 N 
ATOM     58  C   UNL     1      -0.578   1.683   5.770  1.00  0.00     0.220 C 
ATOM     59  O   UNL     1      -1.140   2.100   4.762  1.00  0.00    -0.275 OA
ATOM     60  H   UNL     1       0.352   0.093   6.728  1.00  0.00     0.164 HD
BRANCH  58  61
ATOM     61  C   UNL     1      -0.401   2.498   7.038  1.00  0.00     0.100 C 
BRANCH  61  62
ATOM     62  C   UNL     1      -1.486   2.250   8.086  1.00  0.00     0.010 C 
BRANCH  62  63
ATOM     63  C   UNL     1      -2.617   3.286   8.075  1.00  0.00     0.000 C 
BRANCH  63  64
ATOM     64  C   UNL     1      -2.333   4.515   7.213  1.00  0.00    -0.003 C 
ATOM     65  C   UNL     1      -3.335   4.639   6.075  1.00  0.00     0.004 C 
ENDBRANCH  63  64
ENDBRANCH  62  63
ENDBRANCH  61  62
ENDBRANCH  58  61
ENDBRANCH  56  57
BRANCH  56  66
ATOM     66  C   UNL     1      -0.348  -1.960   5.260  1.00  0.00     0.157 C 
BRANCH  66  67
ATOM     67  C   UNL     1      -0.695  -1.962   6.721  1.00  0.00     0.305 C 
ATOM     68  O   UNL     1      -1.803  -1.811   7.211  1.00  0.00    -0.252 OA
BRANCH  67  69
ATOM     69  O   UNL     1       0.376  -2.209   7.500  1.00  0.00    -0.481 OA
ATOM     70  H   UNL     1       0.071  -2.018   8.412  1.00  0.00     0.296 HD
ENDBRANCH  67  69
ENDBRANCH  66  67
ENDBRANCH  56  66
ENDBRANCH  53  56
ENDBRANCH  50  52
ENDBRANCH  47  50
ENDBRANCH  45  46
BRANCH  45  71
ATOM     71  C   UNL     1       0.039   4.428  -0.100  1.00  0.00     0.037 C 
BRANCH  71  72
ATOM     72  C   UNL     1      -0.702   4.870  -1.364  1.00  0.00     0.026 C 
BRANCH  72  73
ATOM     73  C   UNL     1      -0.388   3.955  -2.547  1.00  0.00     0.146 C 
BRANCH  73  74
ATOM     74  N   UNL     1      -1.238   4.360  -3.662  1.00  0.00    -0.254 NA
ATOM     75  C   UNL     1      -2.368   3.770  -3.798  1.00  0.00     0.185 C 
ATOM     76  N   UNL     1      -3.172   4.121  -4.815  1.00  0.00    -0.370 N 
ATOM     77  N   UNL     1      -2.911   2.800  -3.043  1.00  0.00    -0.370 N 
ATOM     78  H   UNL     1      -2.835   4.841  -5.438  1.00  0.00     0.159 HD
ATOM     79  H   UNL     1      -3.999   3.610  -5.068  1.00  0.00     0.159 HD
ATOM     80  H   UNL     1      -2.420   2.439  -2.239  1.00  0.00     0.159 HD
ATOM     81  H   UNL     1      -3.861   2.494  -3.179  1.00  0.00     0.159 HD
ENDBRANCH  73  74
ENDBRANCH  72  73
ENDBRANCH  71  72
ENDBRANCH  45  71
ENDBRANCH   3  45
TORSDOF 20
ENDMDL
MODEL 9
REMARK VINA RESULT:    -6.174      4.118      6.430
REMARK INTER + INTRA:         -25.690
REMARK INTER:                 -19.710
REMARK INTRA:                  -5.980
REMARK UNBOUND:                -7.967
REMARK SMILES CCCCCC(=O)N[C@H](CC(=O)O)C(=O)N[C@H]1C(=O)N[C@H](CCCN=C(N)N)C(=O)N[C@@H]2CC[C@H](O)N(C2=O)[C@@H](CC(C)C)C(=O)N(C)[C@@H](Cc2ccccc2)C(=O)N[C@H](C(C)C)C(=O)O[C@@H]1C
REMARK SMILES IDX 30 1 31 2 29 3 32 5 35 6 37 7 34 8 38 9 33 10 39 11 36 12
REMARK SMILES IDX 40 14 41 15 42 16 43 17 44 18 45 19 46 20 47 21 48 22 49 23
REMARK SMILES IDX 50 24 51 25 52 26 56 27 53 28 55 29 54 30 57 31 58 32 59 33
REMARK SMILES IDX 60 35 61 36 62 37 63 38 64 39 65 40 66 41 67 42 68 43 21 45
REMARK SMILES IDX 20 46 18 47 19 48 17 50 16 52 14 53 15 54 9 56 8 57 6 58
REMARK SMILES IDX 7 59 5 61 4 62 3 63 2 64 1 65 10 66 11 67 12 68 13 69 22 71
REMARK SMILES IDX 23 72 24 73 25 74 26 75 27 76 28 77
REMARK H PARENT 31 4 36 13 59 34 20 49 16 55 8 60 13 70 27 78 27 79 28 80
REMARK H PARENT 28 81
REMARK Flexibility Score:  259.900
ROOT
ATOM      1  O   UNL     1      -2.160   2.146   3.070  1.00  0.00    -0.273 OA
ATOM      2  N   UNL     1      -3.480   2.650   4.868  1.00  0.00    -0.343 N 
ATOM      3  C   UNL     1      -2.366   2.088   4.283  1.00  0.00     0.243 C 
ATOM      4  H   UNL     1      -3.609   2.595   5.871  1.00  0.00     0.164 HD
ENDROOT
BRANCH   2   5
ATOM      5  C   UNL     1      -4.532   3.239   4.048  1.00  0.00     0.171 C 
ATOM      6  C   UNL     1      -7.090   4.439   4.698  1.00  0.00     0.214 C 
ATOM      7  N   UNL     1      -7.020   3.025   4.416  1.00  0.00    -0.303 N 
ATOM      8  C   UNL     1      -6.037   5.252   3.962  1.00  0.00     0.057 C 
ATOM      9  C   UNL     1      -5.824   2.379   4.148  1.00  0.00     0.247 C 
ATOM     10  C   UNL     1      -4.657   4.739   4.311  1.00  0.00     0.040 C 
ATOM     11  O   UNL     1      -5.761   1.152   3.993  1.00  0.00    -0.272 OA
BRANCH   6  12
ATOM     12  O   UNL     1      -6.957   4.608   6.091  1.00  0.00    -0.373 OA
ATOM     13  H   UNL     1      -7.374   5.466   6.317  1.00  0.00     0.213 HD
ENDBRANCH   6  12
BRANCH   7  14
ATOM     14  C   UNL     1      -8.269   2.248   4.568  1.00  0.00     0.177 C 
BRANCH  14  15
ATOM     15  C   UNL     1      -8.746   2.050   6.020  1.00  0.00     0.038 C 
BRANCH  15  16
ATOM     16  C   UNL     1     -10.194   2.430   6.404  1.00  0.00    -0.015 C 
ATOM     17  C   UNL     1     -10.371   3.940   6.593  1.00  0.00     0.007 C 
ATOM     18  C   UNL     1     -10.583   1.733   7.714  1.00  0.00     0.007 C 
ENDBRANCH  15  16
ENDBRANCH  14  15
BRANCH  14  19
ATOM     19  C   UNL     1      -9.203   2.474   3.329  1.00  0.00     0.245 C 
ATOM     20  O   UNL     1      -9.705   3.603   3.205  1.00  0.00    -0.272 OA
BRANCH  19  21
ATOM     21  N   UNL     1      -9.577   1.470   2.453  1.00  0.00    -0.332 N 
ATOM     22  C   UNL     1      -8.667   0.644   1.680  1.00  0.00     0.147 C 
BRANCH  21  23
ATOM     23  C   UNL     1     -11.033   1.213   2.269  1.00  0.00     0.178 C 
BRANCH  23  24
ATOM     24  C   UNL     1     -11.837   1.094   3.580  1.00  0.00     0.070 C 
BRANCH  24  25
ATOM     25  C   UNL     1     -11.861  -0.259   4.252  1.00  0.00    -0.045 A 
ATOM     26  C   UNL     1     -12.481  -0.431   5.497  1.00  0.00     0.004 A 
ATOM     27  C   UNL     1     -11.255  -1.365   3.638  1.00  0.00     0.004 A 
ATOM     28  C   UNL     1     -12.484  -1.681   6.119  1.00  0.00     0.000 A 
ATOM     29  C   UNL     1     -11.260  -2.614   4.261  1.00  0.00     0.000 A 
ATOM     30  C   UNL     1     -11.872  -2.770   5.503  1.00  0.00     0.000 A 
ENDBRANCH  24  25
ENDBRANCH  23  24
BRANCH  23  31
ATOM     31  C   UNL     1     -11.674   2.118   1.191  1.00  0.00     0.243 C 
ATOM     32  O   UNL     1     -11.403   2.059  -0.006  1.00  0.00    -0.273 OA
ATOM     33  N   UNL     1     -12.453   3.137   1.715  1.00  0.00    -0.341 N 
ATOM     34  H   UNL     1     -12.639   3.137   2.721  1.00  0.00     0.164 HD
BRANCH  33  35
ATOM     35  C   UNL     1     -13.061   4.183   0.889  1.00  0.00     0.194 C 
BRANCH  35  36
ATOM     36  C   UNL     1     -12.582   5.622   1.231  1.00  0.00     0.017 C 
ATOM     37  C   UNL     1     -11.111   5.831   0.834  1.00  0.00     0.010 C 
ATOM     38  C   UNL     1     -12.708   5.962   2.722  1.00  0.00     0.010 C 
ENDBRANCH  35  36
BRANCH  35  39
ATOM     39  C   UNL     1     -14.612   4.083   0.844  1.00  0.00     0.329 C 
ATOM     40  O   UNL     1     -15.265   3.264   1.480  1.00  0.00    -0.250 OA
BRANCH  39  41
ATOM     41  O   UNL     1     -15.175   5.068   0.080  1.00  0.00    -0.458 OA
BRANCH  41  42
ATOM     42  C   UNL     1     -16.371   4.708  -0.651  1.00  0.00     0.205 CG0
ATOM     43  C   UNL     1     -15.926   4.106  -1.982  1.00  0.00     0.056 C 
ATOM     44  G   UNL     1     -17.234   5.972  -0.834  1.00  0.00     0.000 G0
ENDBRANCH  41  42
ENDBRANCH  39  41
ENDBRANCH  35  39
ENDBRANCH  33  35
ENDBRANCH  23  31
ENDBRANCH  21  23
ENDBRANCH  19  21
ENDBRANCH  14  19
ENDBRANCH   7  14
ENDBRANCH   2   5
BRANCH   3  45
ATOM     45  C   UNL     1      -1.389   1.405   5.250  1.00  0.00     0.171 C 
BRANCH  45  46
ATOM     46  N   UNL     1      -0.113   1.354   4.549  1.00  0.00    -0.342 N 
ATOM     47  C   UNL     1       1.067   1.732   5.140  1.00  0.00     0.247 C 
ATOM     48  O   UNL     1       1.144   2.070   6.321  1.00  0.00    -0.273 OA
ATOM     49  H   UNL     1      -0.123   1.025   3.585  1.00  0.00     0.164 HD
BRANCH  47  50
ATOM     50  C   UNL     1       2.289   1.729   4.211  1.00  0.00     0.212 CG0
ATOM     51  G   UNL     1       3.100   0.452   4.509  1.00  0.00     0.000 G0
BRANCH  50  52
ATOM     52  N   UNL     1       1.748   1.766   2.855  1.00  0.00    -0.339 N 
ATOM     53  C   UNL     1       2.526   1.664   1.728  1.00  0.00     0.243 C 
ATOM     54  O   UNL     1       3.751   1.587   1.773  1.00  0.00    -0.273 OA
ATOM     55  H   UNL     1       0.750   1.939   2.749  1.00  0.00     0.164 HD
BRANCH  53  56
ATOM     56  C   UNL     1       1.742   1.815   0.408  1.00  0.00     0.182 C 
BRANCH  56  57
ATOM     57  N   UNL     1       0.693   2.832   0.533  1.00  0.00    -0.344 N 
ATOM     58  C   UNL     1       0.274   3.592  -0.531  1.00  0.00     0.220 C 
ATOM     59  O   UNL     1       0.796   3.527  -1.639  1.00  0.00    -0.275 OA
ATOM     60  H   UNL     1       0.167   2.846   1.403  1.00  0.00     0.164 HD
BRANCH  58  61
ATOM     61  C   UNL     1      -0.862   4.538  -0.185  1.00  0.00     0.100 C 
BRANCH  61  62
ATOM     62  C   UNL     1      -2.190   3.832   0.086  1.00  0.00     0.010 C 
BRANCH  62  63
ATOM     63  C   UNL     1      -3.221   4.696   0.823  1.00  0.00     0.000 C 
BRANCH  63  64
ATOM     64  C   UNL     1      -4.674   4.359   0.491  1.00  0.00    -0.003 C 
ATOM     65  C   UNL     1      -5.072   4.902  -0.873  1.00  0.00     0.004 C 
ENDBRANCH  63  64
ENDBRANCH  62  63
ENDBRANCH  61  62
ENDBRANCH  58  61
ENDBRANCH  56  57
BRANCH  56  66
ATOM     66  C   UNL     1       1.192   0.474  -0.074  1.00  0.00     0.157 C 
BRANCH  66  67
ATOM     67  C   UNL     1       2.290  -0.535  -0.244  1.00  0.00     0.305 C 
ATOM     68  O   UNL     1       2.265  -1.710   0.090  1.00  0.00    -0.252 OA
BRANCH  67  69
ATOM     69  O   UNL     1       3.361  -0.023  -0.881  1.00  0.00    -0.481 OA
ATOM     70  H   UNL     1       3.110  -0.020  -1.829  1.00  0.00     0.296 HD
ENDBRANCH  67  69
ENDBRANCH  66  67
ENDBRANCH  56  66
ENDBRANCH  53  56
ENDBRANCH  50  52
ENDBRANCH  47  50
ENDBRANCH  45  46
BRANCH  45  71
ATOM     71  C   UNL     1      -1.892   0.003   5.613  1.00  0.00     0.037 C 
BRANCH  71  72
ATOM     72  C   UNL     1      -2.393  -0.072   7.058  1.00  0.00     0.026 C 
BRANCH  72  73
ATOM     73  C   UNL     1      -1.678   0.939   7.952  1.00  0.00     0.146 C 
BRANCH  73  74
ATOM     74  N   UNL     1      -2.533   2.117   8.066  1.00  0.00    -0.254 NA
ATOM     75  C   UNL     1      -1.974   3.238   8.339  1.00  0.00     0.185 C 
ATOM     76  N   UNL     1      -2.734   4.340   8.449  1.00  0.00    -0.370 N 
ATOM     77  N   UNL     1      -0.673   3.506   8.545  1.00  0.00    -0.370 N 
ATOM     78  H   UNL     1      -3.728   4.225   8.315  1.00  0.00     0.159 HD
ATOM     79  H   UNL     1      -2.390   5.217   8.800  1.00  0.00     0.159 HD
ATOM     80  H   UNL     1       0.018   2.772   8.490  1.00  0.00     0.159 HD
ATOM     81  H   UNL     1      -0.336   4.450   8.639  1.00  0.00     0.159 HD
ENDBRANCH  73  74
ENDBRANCH  72  73
ENDBRANCH  71  72
ENDBRANCH  45  71
ENDBRANCH   3  45
TORSDOF 20
ENDMDL
MODEL 10
REMARK VINA RESULT:    -6.155      3.461      7.110
REMARK INTER + INTRA:         -25.635
REMARK INTER:                 -19.680
REMARK INTRA:                  -5.954
REMARK UNBOUND:                -7.967
REMARK SMILES CCCCCC(=O)N[C@H](CC(=O)O)C(=O)N[C@H]1C(=O)N[C@H](CCCN=C(N)N)C(=O)N[C@@H]2CC[C@H](O)N(C2=O)[C@@H](CC(C)C)C(=O)N(C)[C@@H](Cc2ccccc2)C(=O)N[C@H](C(C)C)C(=O)O[C@@H]1C
REMARK SMILES IDX 30 1 31 2 29 3 32 5 35 6 37 7 34 8 38 9 33 10 39 11 36 12
REMARK SMILES IDX 40 14 41 15 42 16 43 17 44 18 45 19 46 20 47 21 48 22 49 23
REMARK SMILES IDX 50 24 51 25 52 26 56 27 53 28 55 29 54 30 57 31 58 32 59 33
REMARK SMILES IDX 60 35 61 36 62 37 63 38 64 39 65 40 66 41 67 42 68 43 21 45
REMARK SMILES IDX 20 46 18 47 19 48 17 50 16 52 14 53 15 54 9 56 8 57 6 58
REMARK SMILES IDX 7 59 5 61 4 62 3 63 2 64 1 65 10 66 11 67 12 68 13 69 22 71
REMARK SMILES IDX 23 72 24 73 25 74 26 75 27 76 28 77
REMARK H PARENT 31 4 36 13 59 34 20 49 16 55 8 60 13 70 27 78 27 79 28 80
REMARK H PARENT 28 81
REMARK Flexibility Score:  259.900
ROOT
ATOM      1  O   UNL     1      -3.571   2.056  -1.907  1.00  0.00    -0.273 OA
ATOM      2  N   UNL     1      -4.786   3.338  -3.360  1.00  0.00    -0.343 N 
ATOM      3  C   UNL     1      -3.917   3.169  -2.303  1.00  0.00     0.243 C 
ATOM      4  H   UNL     1      -5.037   4.270  -3.668  1.00  0.00     0.164 HD
ENDROOT
BRANCH   2   5
ATOM      5  C   UNL     1      -5.430   2.187  -3.983  1.00  0.00     0.171 C 
ATOM      6  C   UNL     1      -7.119   1.909  -6.323  1.00  0.00     0.214 C 
ATOM      7  N   UNL     1      -7.726   2.138  -5.032  1.00  0.00    -0.303 N 
ATOM      8  C   UNL     1      -5.803   1.151  -6.243  1.00  0.00     0.057 C 
ATOM      9  C   UNL     1      -6.976   2.330  -3.883  1.00  0.00     0.247 C 
ATOM     10  C   UNL     1      -4.832   1.902  -5.359  1.00  0.00     0.040 C 
ATOM     11  O   UNL     1      -7.500   2.612  -2.797  1.00  0.00    -0.272 OA
BRANCH   6  12
ATOM     12  O   UNL     1      -6.928   3.163  -6.937  1.00  0.00    -0.373 OA
ATOM     13  H   UNL     1      -7.193   3.065  -7.877  1.00  0.00     0.213 HD
ENDBRANCH   6  12
BRANCH   7  14
ATOM     14  C   UNL     1      -9.194   2.309  -5.003  1.00  0.00     0.177 C 
BRANCH  14  15
ATOM     15  C   UNL     1      -9.695   3.733  -5.312  1.00  0.00     0.038 C 
BRANCH  15  16
ATOM     16  C   UNL     1     -10.915   4.293  -4.547  1.00  0.00    -0.015 C 
ATOM     17  C   UNL     1     -12.025   4.772  -5.488  1.00  0.00     0.007 C 
ATOM     18  C   UNL     1     -10.481   5.476  -3.673  1.00  0.00     0.007 C 
ENDBRANCH  15  16
ENDBRANCH  14  15
BRANCH  14  19
ATOM     19  C   UNL     1      -9.904   0.982  -5.441  1.00  0.00     0.245 C 
ATOM     20  O   UNL     1      -9.684  -0.026  -4.748  1.00  0.00    -0.272 OA
BRANCH  19  21
ATOM     21  N   UNL     1     -10.654   0.854  -6.596  1.00  0.00    -0.332 N 
ATOM     22  C   UNL     1     -10.155   1.030  -7.949  1.00  0.00     0.147 C 
BRANCH  21  23
ATOM     23  C   UNL     1     -12.098   0.518  -6.456  1.00  0.00     0.178 C 
BRANCH  23  24
ATOM     24  C   UNL     1     -12.824   1.258  -5.314  1.00  0.00     0.070 C 
BRANCH  24  25
ATOM     25  C   UNL     1     -13.131   0.465  -4.065  1.00  0.00    -0.045 A 
ATOM     26  C   UNL     1     -13.479  -0.890  -4.143  1.00  0.00     0.004 A 
ATOM     27  C   UNL     1     -13.077   1.080  -2.805  1.00  0.00     0.004 A 
ATOM     28  C   UNL     1     -13.778  -1.611  -2.985  1.00  0.00     0.000 A 
ATOM     29  C   UNL     1     -13.375   0.357  -1.649  1.00  0.00     0.000 A 
ATOM     30  C   UNL     1     -13.728  -0.988  -1.741  1.00  0.00     0.000 A 
ENDBRANCH  24  25
ENDBRANCH  23  24
BRANCH  23  31
ATOM     31  C   UNL     1     -12.850   0.507  -7.808  1.00  0.00     0.243 C 
ATOM     32  O   UNL     1     -12.846  -0.442  -8.588  1.00  0.00    -0.273 OA
ATOM     33  N   UNL     1     -13.383   1.737  -8.154  1.00  0.00    -0.341 N 
ATOM     34  H   UNL     1     -13.350   2.491  -7.464  1.00  0.00     0.164 HD
BRANCH  33  35
ATOM     35  C   UNL     1     -14.034   1.991  -9.442  1.00  0.00     0.194 C 
BRANCH  35  36
ATOM     36  C   UNL     1     -13.104   2.641 -10.506  1.00  0.00     0.017 C 
ATOM     37  C   UNL     1     -12.417   1.574 -11.375  1.00  0.00     0.010 C 
ATOM     38  C   UNL     1     -12.002   3.513  -9.893  1.00  0.00     0.010 C 
ENDBRANCH  35  36
BRANCH  35  39
ATOM     39  C   UNL     1     -15.374   2.765  -9.292  1.00  0.00     0.329 C 
ATOM     40  O   UNL     1     -15.999   2.856  -8.243  1.00  0.00    -0.250 OA
BRANCH  39  41
ATOM     41  O   UNL     1     -15.735   3.407 -10.444  1.00  0.00    -0.458 OA
BRANCH  41  42
ATOM     42  C   UNL     1     -16.922   2.912 -11.109  1.00  0.00     0.205 CG0
ATOM     43  C   UNL     1     -16.461   2.108 -12.322  1.00  0.00     0.056 C 
ATOM     44  G   UNL     1     -17.804   4.115 -11.499  1.00  0.00     0.000 G0
ENDBRANCH  41  42
ENDBRANCH  39  41
ENDBRANCH  35  39
ENDBRANCH  33  35
ENDBRANCH  23  31
ENDBRANCH  21  23
ENDBRANCH  19  21
ENDBRANCH  14  19
ENDBRANCH   7  14
ENDBRANCH   2   5
BRANCH   3  45
ATOM     45  C   UNL     1      -3.394   4.465  -1.669  1.00  0.00     0.171 C 
BRANCH  45  46
ATOM     46  N   UNL     1      -1.963   4.263  -1.485  1.00  0.00    -0.342 N 
ATOM     47  C   UNL     1      -1.067   4.358  -2.520  1.00  0.00     0.247 C 
ATOM     48  O   UNL     1      -1.395   4.689  -3.660  1.00  0.00    -0.273 OA
ATOM     49  H   UNL     1      -1.641   4.042  -0.544  1.00  0.00     0.164 HD
BRANCH  47  50
ATOM     50  C   UNL     1       0.380   3.991  -2.163  1.00  0.00     0.212 CG0
ATOM     51  G   UNL     1       0.984   5.178  -1.385  1.00  0.00     0.000 G0
BRANCH  50  52
ATOM     52  N   UNL     1       0.288   2.769  -1.369  1.00  0.00    -0.339 N 
ATOM     53  C   UNL     1       0.232   2.761   0.003  1.00  0.00     0.243 C 
ATOM     54  O   UNL     1       0.310   3.786   0.675  1.00  0.00    -0.273 OA
ATOM     55  H   UNL     1       0.332   1.880  -1.864  1.00  0.00     0.164 HD
BRANCH  53  56
ATOM     56  C   UNL     1       0.226   1.349   0.623  1.00  0.00     0.182 C 
BRANCH  56  57
ATOM     57  N   UNL     1      -0.228   1.388   2.017  1.00  0.00    -0.344 N 
ATOM     58  C   UNL     1      -1.481   0.970   2.395  1.00  0.00     0.220 C 
ATOM     59  O   UNL     1      -2.330   0.607   1.588  1.00  0.00    -0.275 OA
ATOM     60  H   UNL     1       0.475   1.584   2.725  1.00  0.00     0.164 HD
BRANCH  58  61
ATOM     61  C   UNL     1      -1.713   1.044   3.893  1.00  0.00     0.100 C 
BRANCH  61  62
ATOM     62  C   UNL     1      -0.566   0.468   4.723  1.00  0.00     0.010 C 
BRANCH  62  63
ATOM     63  C   UNL     1      -0.540  -1.065   4.779  1.00  0.00     0.000 C 
BRANCH  63  64
ATOM     64  C   UNL     1      -0.775  -1.645   6.173  1.00  0.00    -0.003 C 
ATOM     65  C   UNL     1      -2.235  -1.529   6.585  1.00  0.00     0.004 C 
ENDBRANCH  63  64
ENDBRANCH  62  63
ENDBRANCH  61  62
ENDBRANCH  58  61
ENDBRANCH  56  57
BRANCH  56  66
ATOM     66  C   UNL     1       1.586   0.668   0.478  1.00  0.00     0.157 C 
BRANCH  66  67
ATOM     67  C   UNL     1       1.487  -0.806   0.747  1.00  0.00     0.305 C 
ATOM     68  O   UNL     1       1.330  -1.345   1.832  1.00  0.00    -0.252 OA
BRANCH  67  69
ATOM     69  O   UNL     1       1.540  -1.537  -0.383  1.00  0.00    -0.481 OA
ATOM     70  H   UNL     1       0.616  -1.826  -0.537  1.00  0.00     0.296 HD
ENDBRANCH  67  69
ENDBRANCH  66  67
ENDBRANCH  56  66
ENDBRANCH  53  56
ENDBRANCH  50  52
ENDBRANCH  47  50
ENDBRANCH  45  46
BRANCH  45  71
ATOM     71  C   UNL     1      -4.104   4.731  -0.337  1.00  0.00     0.037 C 
BRANCH  71  72
ATOM     72  C   UNL     1      -3.382   4.072   0.842  1.00  0.00     0.026 C 
BRANCH  72  73
ATOM     73  C   UNL     1      -4.357   3.329   1.752  1.00  0.00     0.146 C 
BRANCH  73  74
ATOM     74  N   UNL     1      -5.584   3.096   0.996  1.00  0.00    -0.254 NA
ATOM     75  C   UNL     1      -5.818   1.904   0.587  1.00  0.00     0.185 C 
ATOM     76  N   UNL     1      -6.939   1.658  -0.110  1.00  0.00    -0.370 N 
ATOM     77  N   UNL     1      -5.079   0.793   0.752  1.00  0.00    -0.370 N 
ATOM     78  H   UNL     1      -7.550   2.443  -0.286  1.00  0.00     0.159 HD
ATOM     79  H   UNL     1      -7.118   0.790  -0.583  1.00  0.00     0.159 HD
ATOM     80  H   UNL     1      -4.208   0.827   1.261  1.00  0.00     0.159 HD
ATOM     81  H   UNL     1      -5.421  -0.114   0.484  1.00  0.00     0.159 HD
ENDBRANCH  73  74
ENDBRANCH  72  73
ENDBRANCH  71  72
ENDBRANCH  45  71
ENDBRANCH   3  45
TORSDOF 20
ENDMDL
MODEL 11
REMARK VINA RESULT:    -6.122      3.251      6.838
REMARK INTER + INTRA:         -25.542
REMARK INTER:                 -19.340
REMARK INTRA:                  -6.202
REMARK UNBOUND:                -7.967
REMARK SMILES CCCCCC(=O)N[C@H](CC(=O)O)C(=O)N[C@H]1C(=O)N[C@H](CCCN=C(N)N)C(=O)N[C@@H]2CC[C@H](O)N(C2=O)[C@@H](CC(C)C)C(=O)N(C)[C@@H](Cc2ccccc2)C(=O)N[C@H](C(C)C)C(=O)O[C@@H]1C
REMARK SMILES IDX 30 1 31 2 29 3 32 5 35 6 37 7 34 8 38 9 33 10 39 11 36 12
REMARK SMILES IDX 40 14 41 15 42 16 43 17 44 18 45 19 46 20 47 21 48 22 49 23
REMARK SMILES IDX 50 24 51 25 52 26 56 27 53 28 55 29 54 30 57 31 58 32 59 33
REMARK SMILES IDX 60 35 61 36 62 37 63 38 64 39 65 40 66 41 67 42 68 43 21 45
REMARK SMILES IDX 20 46 18 47 19 48 17 50 16 52 14 53 15 54 9 56 8 57 6 58
REMARK SMILES IDX 7 59 5 61 4 62 3 63 2 64 1 65 10 66 11 67 12 68 13 69 22 71
REMARK SMILES IDX 23 72 24 73 25 74 26 75 27 76 28 77
REMARK H PARENT 31 4 36 13 59 34 20 49 16 55 8 60 13 70 27 78 27 79 28 80
REMARK H PARENT 28 81
REMARK Flexibility Score:  259.900
ROOT
ATOM      1  O   UNL     1      -1.070   5.104   0.835  1.00  0.00    -0.273 OA
ATOM      2  N   UNL     1      -1.944   3.027   1.228  1.00  0.00    -0.343 N 
ATOM      3  C   UNL     1      -1.049   3.890   0.631  1.00  0.00     0.243 C 
ATOM      4  H   UNL     1      -1.888   2.032   1.047  1.00  0.00     0.164 HD
ENDROOT
BRANCH   2   5
ATOM      5  C   UNL     1      -3.039   3.540   2.043  1.00  0.00     0.171 C 
ATOM      6  C   UNL     1      -5.417   2.300   3.143  1.00  0.00     0.214 C 
ATOM      7  N   UNL     1      -5.478   2.922   1.841  1.00  0.00    -0.303 N 
ATOM      8  C   UNL     1      -4.401   2.945   4.072  1.00  0.00     0.057 C 
ATOM      9  C   UNL     1      -4.368   3.487   1.236  1.00  0.00     0.247 C 
ATOM     10  C   UNL     1      -3.029   2.909   3.434  1.00  0.00     0.040 C 
ATOM     11  O   UNL     1      -4.408   3.941   0.084  1.00  0.00    -0.272 OA
BRANCH   6  12
ATOM     12  O   UNL     1      -5.116   0.936   2.955  1.00  0.00    -0.373 OA
ATOM     13  H   UNL     1      -5.670   0.430   3.586  1.00  0.00     0.213 HD
ENDBRANCH   6  12
BRANCH   7  14
ATOM     14  C   UNL     1      -6.752   2.805   1.101  1.00  0.00     0.177 C 
BRANCH  14  15
ATOM     15  C   UNL     1      -7.177   1.366   0.749  1.00  0.00     0.038 C 
BRANCH  15  16
ATOM     16  C   UNL     1      -7.374   0.970  -0.731  1.00  0.00    -0.015 C 
ATOM     17  C   UNL     1      -8.528  -0.018  -0.923  1.00  0.00     0.007 C 
ATOM     18  C   UNL     1      -6.092   0.321  -1.269  1.00  0.00     0.007 C 
ENDBRANCH  15  16
ENDBRANCH  14  15
BRANCH  14  19
ATOM     19  C   UNL     1      -7.726   3.964   1.507  1.00  0.00     0.245 C 
ATOM     20  O   UNL     1      -7.204   5.016   1.912  1.00  0.00    -0.272 OA
BRANCH  19  21
ATOM     21  N   UNL     1      -9.103   3.837   1.544  1.00  0.00    -0.332 N 
ATOM     22  C   UNL     1      -9.865   3.232   2.622  1.00  0.00     0.147 C 
BRANCH  21  23
ATOM     23  C   UNL     1      -9.881   4.351   0.383  1.00  0.00     0.178 C 
BRANCH  23  24
ATOM     24  C   UNL     1      -9.895   3.420  -0.847  1.00  0.00     0.070 C 
BRANCH  24  25
ATOM     25  C   UNL     1      -9.518   4.030  -2.177  1.00  0.00    -0.045 A 
ATOM     26  C   UNL     1     -10.439   4.798  -2.900  1.00  0.00     0.004 A 
ATOM     27  C   UNL     1      -8.236   3.829  -2.709  1.00  0.00     0.004 A 
ATOM     28  C   UNL     1     -10.088   5.345  -4.137  1.00  0.00     0.000 A 
ATOM     29  C   UNL     1      -7.887   4.377  -3.944  1.00  0.00     0.000 A 
ATOM     30  C   UNL     1      -8.815   5.132  -4.659  1.00  0.00     0.000 A 
ENDBRANCH  24  25
ENDBRANCH  23  24
BRANCH  23  31
ATOM     31  C   UNL     1     -11.262   4.920   0.785  1.00  0.00     0.243 C 
ATOM     32  O   UNL     1     -11.418   5.964   1.414  1.00  0.00    -0.273 OA
ATOM     33  N   UNL     1     -12.312   4.052   0.536  1.00  0.00    -0.341 N 
ATOM     34  H   UNL     1     -12.119   3.195   0.013  1.00  0.00     0.164 HD
BRANCH  33  35
ATOM     35  C   UNL     1     -13.692   4.331   0.943  1.00  0.00     0.194 C 
BRANCH  35  36
ATOM     36  C   UNL     1     -14.126   3.610   2.250  1.00  0.00     0.017 C 
ATOM     37  C   UNL     1     -13.807   4.462   3.491  1.00  0.00     0.010 C 
ATOM     38  C   UNL     1     -13.450   2.248   2.443  1.00  0.00     0.010 C 
ENDBRANCH  35  36
BRANCH  35  39
ATOM     39  C   UNL     1     -14.711   4.107  -0.209  1.00  0.00     0.329 C 
ATOM     40  O   UNL     1     -14.737   3.107  -0.918  1.00  0.00    -0.250 OA
BRANCH  39  41
ATOM     41  O   UNL     1     -15.635   5.112  -0.289  1.00  0.00    -0.458 OA
BRANCH  41  42
ATOM     42  C   UNL     1     -17.018   4.704  -0.419  1.00  0.00     0.205 CG0
ATOM     43  C   UNL     1     -17.473   5.083  -1.827  1.00  0.00     0.056 C 
ATOM     44  G   UNL     1     -17.843   5.406   0.677  1.00  0.00     0.000 G0
ENDBRANCH  41  42
ENDBRANCH  39  41
ENDBRANCH  35  39
ENDBRANCH  33  35
ENDBRANCH  23  31
ENDBRANCH  21  23
ENDBRANCH  19  21
ENDBRANCH  14  19
ENDBRANCH   7  14
ENDBRANCH   2   5
BRANCH   3  45
ATOM     45  C   UNL     1      -0.013   3.230  -0.288  1.00  0.00     0.171 C 
BRANCH  45  46
ATOM     46  N   UNL     1       1.102   2.862   0.575  1.00  0.00    -0.342 N 
ATOM     47  C   UNL     1       1.202   1.626   1.161  1.00  0.00     0.247 C 
ATOM     48  O   UNL     1       0.401   0.716   0.944  1.00  0.00    -0.273 OA
ATOM     49  H   UNL     1       1.818   3.568   0.736  1.00  0.00     0.164 HD
BRANCH  47  50
ATOM     50  C   UNL     1       2.377   1.462   2.135  1.00  0.00     0.212 CG0
ATOM     51  G   UNL     1       3.073   2.832   2.263  1.00  0.00     0.000 G0
BRANCH  50  52
ATOM     52  N   UNL     1       1.784   0.998   3.386  1.00  0.00    -0.339 N 
ATOM     53  C   UNL     1       1.767   1.746   4.538  1.00  0.00     0.243 C 
ATOM     54  O   UNL     1       2.301   2.849   4.619  1.00  0.00    -0.273 OA
ATOM     55  H   UNL     1       1.423   0.046   3.414  1.00  0.00     0.164 HD
BRANCH  53  56
ATOM     56  C   UNL     1       1.164   1.013   5.754  1.00  0.00     0.182 C 
BRANCH  56  57
ATOM     57  N   UNL     1      -0.279   0.812   5.585  1.00  0.00    -0.344 N 
ATOM     58  C   UNL     1      -0.799  -0.277   4.929  1.00  0.00     0.220 C 
ATOM     59  O   UNL     1      -0.096  -1.117   4.378  1.00  0.00    -0.275 OA
ATOM     60  H   UNL     1      -0.894   1.427   6.112  1.00  0.00     0.164 HD
BRANCH  58  61
ATOM     61  C   UNL     1      -2.316  -0.309   4.926  1.00  0.00     0.100 C 
BRANCH  61  62
ATOM     62  C   UNL     1      -2.928  -0.659   6.283  1.00  0.00     0.010 C 
BRANCH  62  63
ATOM     63  C   UNL     1      -2.486  -2.019   6.839  1.00  0.00     0.000 C 
BRANCH  63  64
ATOM     64  C   UNL     1      -1.461  -1.931   7.968  1.00  0.00    -0.003 C 
ATOM     65  C   UNL     1      -0.218  -2.752   7.653  1.00  0.00     0.004 C 
ENDBRANCH  63  64
ENDBRANCH  62  63
ENDBRANCH  61  62
ENDBRANCH  58  61
ENDBRANCH  56  57
BRANCH  56  66
ATOM     66  C   UNL     1       1.498   1.729   7.062  1.00  0.00     0.157 C 
BRANCH  66  67
ATOM     67  C   UNL     1       0.796   1.090   8.226  1.00  0.00     0.305 C 
ATOM     68  O   UNL     1      -0.333   1.334   8.624  1.00  0.00    -0.252 OA
BRANCH  67  69
ATOM     69  O   UNL     1       1.538   0.128   8.806  1.00  0.00    -0.481 OA
ATOM     70  H   UNL     1       1.608   0.398   9.746  1.00  0.00     0.296 HD
ENDBRANCH  67  69
ENDBRANCH  66  67
ENDBRANCH  56  66
ENDBRANCH  53  56
ENDBRANCH  50  52
ENDBRANCH  47  50
ENDBRANCH  45  46
BRANCH  45  71
ATOM     71  C   UNL     1       0.421   4.204  -1.389  1.00  0.00     0.037 C 
BRANCH  71  72
ATOM     72  C   UNL     1      -0.325   3.958  -2.703  1.00  0.00     0.026 C 
BRANCH  72  73
ATOM     73  C   UNL     1      -1.759   4.479  -2.639  1.00  0.00     0.146 C 
BRANCH  73  74
ATOM     74  N   UNL     1      -2.568   3.678  -3.553  1.00  0.00    -0.254 NA
ATOM     75  C   UNL     1      -3.117   2.616  -3.092  1.00  0.00     0.185 C 
ATOM     76  N   UNL     1      -3.868   1.858  -3.908  1.00  0.00    -0.370 N 
ATOM     77  N   UNL     1      -3.061   2.106  -1.849  1.00  0.00    -0.370 N 
ATOM     78  H   UNL     1      -3.956   2.167  -4.865  1.00  0.00     0.159 HD
ATOM     79  H   UNL     1      -4.207   0.946  -3.660  1.00  0.00     0.159 HD
ATOM     80  H   UNL     1      -2.535   2.573  -1.126  1.00  0.00     0.159 HD
ATOM     81  H   UNL     1      -3.631   1.324  -1.572  1.00  0.00     0.159 HD
ENDBRANCH  73  74
ENDBRANCH  72  73
ENDBRANCH  71  72
ENDBRANCH  45  71
ENDBRANCH   3  45
TORSDOF 20
ENDMDL
MODEL 12
REMARK VINA RESULT:    -6.116      3.708      7.183
REMARK INTER + INTRA:         -25.523
REMARK INTER:                 -19.000
REMARK INTRA:                  -6.523
REMARK UNBOUND:                -7.967
REMARK SMILES CCCCCC(=O)N[C@H](CC(=O)O)C(=O)N[C@H]1C(=O)N[C@H](CCCN=C(N)N)C(=O)N[C@@H]2CC[C@H](O)N(C2=O)[C@@H](CC(C)C)C(=O)N(C)[C@@H](Cc2ccccc2)C(=O)N[C@H](C(C)C)C(=O)O[C@@H]1C
REMARK SMILES IDX 30 1 31 2 29 3 32 5 35 6 37 7 34 8 38 9 33 10 39 11 36 12
REMARK SMILES IDX 40 14 41 15 42 16 43 17 44 18 45 19 46 20 47 21 48 22 49 23
REMARK SMILES IDX 50 24 51 25 52 26 56 27 53 28 55 29 54 30 57 31 58 32 59 33
REMARK SMILES IDX 60 35 61 36 62 37 63 38 64 39 65 40 66 41 67 42 68 43 21 45
REMARK SMILES IDX 20 46 18 47 19 48 17 50 16 52 14 53 15 54 9 56 8 57 6 58
REMARK SMILES IDX 7 59 5 61 4 62 3 63 2 64 1 65 10 66 11 67 12 68 13 69 22 71
REMARK SMILES IDX 23 72 24 73 25 74 26 75 27 76 28 77
REMARK H PARENT 31 4 36 13 59 34 20 49 16 55 8 60 13 70 27 78 27 79 28 80
REMARK H PARENT 28 81
REMARK Flexibility Score:  259.900
ROOT
ATOM      1  O   UNL     1      -5.396   3.196  -1.830  1.00  0.00    -0.273 OA
ATOM      2  N   UNL     1      -7.592   3.817  -1.683  1.00  0.00    -0.343 N 
ATOM      3  C   UNL     1      -6.372   3.480  -1.136  1.00  0.00     0.243 C 
ATOM      4  H   UNL     1      -8.369   4.059  -1.082  1.00  0.00     0.164 HD
ENDROOT
BRANCH   2   5
ATOM      5  C   UNL     1      -7.808   3.735  -3.124  1.00  0.00     0.171 C 
ATOM      6  C   UNL     1      -9.755   4.955  -4.891  1.00  0.00     0.214 C 
ATOM      7  N   UNL     1     -10.037   3.666  -4.306  1.00  0.00    -0.303 N 
ATOM      8  C   UNL     1      -8.271   5.204  -5.111  1.00  0.00     0.057 C 
ATOM      9  C   UNL     1      -9.174   3.050  -3.414  1.00  0.00     0.247 C 
ATOM     10  C   UNL     1      -7.530   5.078  -3.798  1.00  0.00     0.040 C 
ATOM     11  O   UNL     1      -9.462   1.986  -2.850  1.00  0.00    -0.272 OA
BRANCH   6  12
ATOM     12  O   UNL     1     -10.299   5.941  -4.045  1.00  0.00    -0.373 OA
ATOM     13  H   UNL     1     -10.090   5.677  -3.124  1.00  0.00     0.213 HD
ENDBRANCH   6  12
BRANCH   7  14
ATOM     14  C   UNL     1     -11.367   3.081  -4.581  1.00  0.00     0.177 C 
BRANCH  14  15
ATOM     15  C   UNL     1     -12.491   3.531  -3.628  1.00  0.00     0.038 C 
BRANCH  15  16
ATOM     16  C   UNL     1     -12.750   2.738  -2.328  1.00  0.00    -0.015 C 
ATOM     17  C   UNL     1     -14.225   2.366  -2.154  1.00  0.00     0.007 C 
ATOM     18  C   UNL     1     -12.319   3.574  -1.116  1.00  0.00     0.007 C 
ENDBRANCH  15  16
ENDBRANCH  14  15
BRANCH  14  19
ATOM     19  C   UNL     1     -11.534   2.808  -6.115  1.00  0.00     0.245 C 
ATOM     20  O   UNL     1     -12.052   3.713  -6.791  1.00  0.00    -0.272 OA
BRANCH  19  21
ATOM     21  N   UNL     1     -11.244   1.597  -6.719  1.00  0.00    -0.332 N 
ATOM     22  C   UNL     1      -9.949   1.207  -7.248  1.00  0.00     0.147 C 
BRANCH  21  23
ATOM     23  C   UNL     1     -12.347   0.606  -6.855  1.00  0.00     0.178 C 
BRANCH  23  24
ATOM     24  C   UNL     1     -13.439   0.703  -5.769  1.00  0.00     0.070 C 
BRANCH  24  25
ATOM     25  C   UNL     1     -13.324  -0.237  -4.592  1.00  0.00    -0.045 A 
ATOM     26  C   UNL     1     -14.463  -0.832  -4.035  1.00  0.00     0.004 A 
ATOM     27  C   UNL     1     -12.068  -0.522  -4.035  1.00  0.00     0.004 A 
ATOM     28  C   UNL     1     -14.349  -1.686  -2.935  1.00  0.00     0.000 A 
ATOM     29  C   UNL     1     -11.956  -1.377  -2.937  1.00  0.00     0.000 A 
ATOM     30  C   UNL     1     -13.098  -1.956  -2.386  1.00  0.00     0.000 A 
ENDBRANCH  24  25
ENDBRANCH  23  24
BRANCH  23  31
ATOM     31  C   UNL     1     -12.878   0.488  -8.303  1.00  0.00     0.243 C 
ATOM     32  O   UNL     1     -12.700  -0.493  -9.022  1.00  0.00    -0.273 OA
ATOM     33  N   UNL     1     -13.417   1.665  -8.793  1.00  0.00    -0.341 N 
ATOM     34  H   UNL     1     -13.534   2.450  -8.148  1.00  0.00     0.164 HD
BRANCH  33  35
ATOM     35  C   UNL     1     -13.872   1.820 -10.178  1.00  0.00     0.194 C 
BRANCH  35  36
ATOM     36  C   UNL     1     -13.034   2.829 -11.013  1.00  0.00     0.017 C 
ATOM     37  C   UNL     1     -11.699   2.210 -11.460  1.00  0.00     0.010 C 
ATOM     38  C   UNL     1     -12.710   4.120 -10.252  1.00  0.00     0.010 C 
ENDBRANCH  35  36
BRANCH  35  39
ATOM     39  C   UNL     1     -15.396   2.109 -10.277  1.00  0.00     0.329 C 
ATOM     40  O   UNL     1     -16.036   2.717  -9.427  1.00  0.00    -0.250 OA
BRANCH  39  41
ATOM     41  O   UNL     1     -15.930   1.685 -11.462  1.00  0.00    -0.458 OA
BRANCH  41  42
ATOM     42  C   UNL     1     -17.121   2.374 -11.912  1.00  0.00     0.205 CG0
ATOM     43  C   UNL     1     -18.267   1.364 -11.887  1.00  0.00     0.056 C 
ATOM     44  G   UNL     1     -16.860   2.935 -13.324  1.00  0.00     0.000 G0
ENDBRANCH  41  42
ENDBRANCH  39  41
ENDBRANCH  35  39
ENDBRANCH  33  35
ENDBRANCH  23  31
ENDBRANCH  21  23
ENDBRANCH  19  21
ENDBRANCH  14  19
ENDBRANCH   7  14
ENDBRANCH   2   5
BRANCH   3  45
ATOM     45  C   UNL     1      -6.311   3.504   0.397  1.00  0.00     0.171 C 
BRANCH  45  46
ATOM     46  N   UNL     1      -4.914   3.747   0.731  1.00  0.00    -0.342 N 
ATOM     47  C   UNL     1      -4.536   4.491   1.821  1.00  0.00     0.247 C 
ATOM     48  O   UNL     1      -5.344   4.944   2.633  1.00  0.00    -0.273 OA
ATOM     49  H   UNL     1      -4.211   3.342   0.116  1.00  0.00     0.164 HD
BRANCH  47  50
ATOM     50  C   UNL     1      -3.027   4.744   1.943  1.00  0.00     0.212 CG0
ATOM     51  G   UNL     1      -2.580   4.244   3.331  1.00  0.00     0.000 G0
BRANCH  50  52
ATOM     52  N   UNL     1      -2.417   4.007   0.840  1.00  0.00    -0.339 N 
ATOM     53  C   UNL     1      -1.282   4.423   0.188  1.00  0.00     0.243 C 
ATOM     54  O   UNL     1      -0.719   5.483   0.451  1.00  0.00    -0.273 OA
ATOM     55  H   UNL     1      -2.901   3.177   0.502  1.00  0.00     0.164 HD
BRANCH  53  56
ATOM     56  C   UNL     1      -0.875   3.528  -0.999  1.00  0.00     0.182 C 
BRANCH  56  57
ATOM     57  N   UNL     1       0.294   2.708  -0.664  1.00  0.00    -0.344 N 
ATOM     58  C   UNL     1       0.223   1.646   0.204  1.00  0.00     0.220 C 
ATOM     59  O   UNL     1      -0.799   1.354   0.814  1.00  0.00    -0.275 OA
ATOM     60  H   UNL     1       1.131   2.851  -1.222  1.00  0.00     0.164 HD
BRANCH  58  61
ATOM     61  C   UNL     1       1.539   0.905   0.356  1.00  0.00     0.100 C 
BRANCH  61  62
ATOM     62  C   UNL     1       1.436  -0.369   1.194  1.00  0.00     0.010 C 
BRANCH  62  63
ATOM     63  C   UNL     1       2.573  -0.547   2.208  1.00  0.00     0.000 C 
BRANCH  63  64
ATOM     64  C   UNL     1       2.453  -1.801   3.072  1.00  0.00    -0.003 C 
ATOM     65  C   UNL     1       3.750  -2.597   3.080  1.00  0.00     0.004 C 
ENDBRANCH  63  64
ENDBRANCH  62  63
ENDBRANCH  61  62
ENDBRANCH  58  61
ENDBRANCH  56  57
BRANCH  56  66
ATOM     66  C   UNL     1      -0.660   4.347  -2.271  1.00  0.00     0.157 C 
BRANCH  66  67
ATOM     67  C   UNL     1      -1.880   4.324  -3.145  1.00  0.00     0.305 C 
ATOM     68  O   UNL     1      -1.923   4.057  -4.337  1.00  0.00    -0.252 OA
BRANCH  67  69
ATOM     69  O   UNL     1      -3.008   4.590  -2.458  1.00  0.00    -0.481 OA
ATOM     70  H   UNL     1      -3.167   3.787  -1.919  1.00  0.00     0.296 HD
ENDBRANCH  67  69
ENDBRANCH  66  67
ENDBRANCH  56  66
ENDBRANCH  53  56
ENDBRANCH  50  52
ENDBRANCH  47  50
ENDBRANCH  45  46
BRANCH  45  71
ATOM     71  C   UNL     1      -6.807   2.172   0.972  1.00  0.00     0.037 C 
BRANCH  71  72
ATOM     72  C   UNL     1      -5.654   1.217   1.288  1.00  0.00     0.026 C 
BRANCH  72  73
ATOM     73  C   UNL     1      -5.416   0.229   0.148  1.00  0.00     0.146 C 
BRANCH  73  74
ATOM     74  N   UNL     1      -6.718  -0.152  -0.392  1.00  0.00    -0.254 NA
ATOM     75  C   UNL     1      -6.861  -0.152  -1.666  1.00  0.00     0.185 C 
ATOM     76  N   UNL     1      -8.046  -0.499  -2.193  1.00  0.00    -0.370 N 
ATOM     77  N   UNL     1      -5.963   0.157  -2.617  1.00  0.00    -0.370 N 
ATOM     78  H   UNL     1      -8.782  -0.740  -1.544  1.00  0.00     0.159 HD
ATOM     79  H   UNL     1      -8.276  -0.384  -3.164  1.00  0.00     0.159 HD
ATOM     80  H   UNL     1      -5.025   0.433  -2.368  1.00  0.00     0.159 HD
ATOM     81  H   UNL     1      -6.156   0.009  -3.594  1.00  0.00     0.159 HD
ENDBRANCH  73  74
ENDBRANCH  72  73
ENDBRANCH  71  72
ENDBRANCH  45  71
ENDBRANCH   3  45
TORSDOF 20
ENDMDL
MODEL 13
REMARK VINA RESULT:    -6.081      1.767      2.817
REMARK INTER + INTRA:         -25.425
REMARK INTER:                 -17.981
REMARK INTRA:                  -7.444
REMARK UNBOUND:                -7.967
REMARK SMILES CCCCCC(=O)N[C@H](CC(=O)O)C(=O)N[C@H]1C(=O)N[C@H](CCCN=C(N)N)C(=O)N[C@@H]2CC[C@H](O)N(C2=O)[C@@H](CC(C)C)C(=O)N(C)[C@@H](Cc2ccccc2)C(=O)N[C@H](C(C)C)C(=O)O[C@@H]1C
REMARK SMILES IDX 30 1 31 2 29 3 32 5 35 6 37 7 34 8 38 9 33 10 39 11 36 12
REMARK SMILES IDX 40 14 41 15 42 16 43 17 44 18 45 19 46 20 47 21 48 22 49 23
REMARK SMILES IDX 50 24 51 25 52 26 56 27 53 28 55 29 54 30 57 31 58 32 59 33
REMARK SMILES IDX 60 35 61 36 62 37 63 38 64 39 65 40 66 41 67 42 68 43 21 45
REMARK SMILES IDX 20 46 18 47 19 48 17 50 16 52 14 53 15 54 9 56 8 57 6 58
REMARK SMILES IDX 7 59 5 61 4 62 3 63 2 64 1 65 10 66 11 67 12 68 13 69 22 71
REMARK SMILES IDX 23 72 24 73 25 74 26 75 27 76 28 77
REMARK H PARENT 31 4 36 13 59 34 20 49 16 55 8 60 13 70 27 78 27 79 28 80
REMARK H PARENT 28 81
REMARK Flexibility Score:  259.900
ROOT
ATOM      1  O   UNL     1      -3.177   0.718   2.677  1.00  0.00    -0.273 OA
ATOM      2  N   UNL     1      -4.143   2.729   3.182  1.00  0.00    -0.343 N 
ATOM      3  C   UNL     1      -3.436   1.591   3.506  1.00  0.00     0.243 C 
ATOM      4  H   UNL     1      -4.325   3.433   3.887  1.00  0.00     0.164 HD
ENDROOT
BRANCH   2   5
ATOM      5  C   UNL     1      -4.723   2.889   1.853  1.00  0.00     0.171 C 
ATOM      6  C   UNL     1      -6.890   4.527   0.840  1.00  0.00     0.214 C 
ATOM      7  N   UNL     1      -7.170   3.189   1.309  1.00  0.00    -0.303 N 
ATOM      8  C   UNL     1      -5.491   4.683   0.267  1.00  0.00     0.057 C 
ATOM      9  C   UNL     1      -6.190   2.373   1.851  1.00  0.00     0.247 C 
ATOM     10  C   UNL     1      -4.464   4.293   1.308  1.00  0.00     0.040 C 
ATOM     11  O   UNL     1      -6.453   1.262   2.330  1.00  0.00    -0.272 OA
BRANCH   6  12
ATOM     12  O   UNL     1      -7.082   5.410   1.920  1.00  0.00    -0.373 OA
ATOM     13  H   UNL     1      -6.640   5.011   2.700  1.00  0.00     0.213 HD
ENDBRANCH   6  12
BRANCH   7  14
ATOM     14  C   UNL     1      -8.586   2.767   1.325  1.00  0.00     0.177 C 
BRANCH  14  15
ATOM     15  C   UNL     1      -9.494   3.550   2.292  1.00  0.00     0.038 C 
BRANCH  15  16
ATOM     16  C   UNL     1     -10.197   2.805   3.448  1.00  0.00    -0.015 C 
ATOM     17  C   UNL     1      -9.784   3.335   4.824  1.00  0.00     0.007 C 
ATOM     18  C   UNL     1      -9.854   1.311   3.386  1.00  0.00     0.007 C 
ENDBRANCH  15  16
ENDBRANCH  14  15
BRANCH  14  19
ATOM     19  C   UNL     1      -9.011   2.236  -0.088  1.00  0.00     0.245 C 
ATOM     20  O   UNL     1      -8.956   1.007  -0.263  1.00  0.00    -0.272 OA
BRANCH  19  21
ATOM     21  N   UNL     1      -9.326   3.055  -1.157  1.00  0.00    -0.332 N 
ATOM     22  C   UNL     1     -10.342   4.093  -1.152  1.00  0.00     0.147 C 
BRANCH  21  23
ATOM     23  C   UNL     1      -8.577   2.859  -2.429  1.00  0.00     0.178 C 
BRANCH  23  24
ATOM     24  C   UNL     1      -7.097   2.465  -2.252  1.00  0.00     0.070 C 
BRANCH  24  25
ATOM     25  C   UNL     1      -6.222   2.504  -3.483  1.00  0.00    -0.045 A 
ATOM     26  C   UNL     1      -5.991   3.708  -4.162  1.00  0.00     0.004 A 
ATOM     27  C   UNL     1      -5.630   1.328  -3.969  1.00  0.00     0.004 A 
ATOM     28  C   UNL     1      -5.196   3.733  -5.309  1.00  0.00     0.000 A 
ATOM     29  C   UNL     1      -4.834   1.355  -5.115  1.00  0.00     0.000 A 
ATOM     30  C   UNL     1      -4.620   2.557  -5.786  1.00  0.00     0.000 A 
ENDBRANCH  24  25
ENDBRANCH  23  24
BRANCH  23  31
ATOM     31  C   UNL     1      -9.357   2.015  -3.465  1.00  0.00     0.243 C 
ATOM     32  O   UNL     1      -9.549   0.806  -3.361  1.00  0.00    -0.273 OA
ATOM     33  N   UNL     1      -9.665   2.708  -4.623  1.00  0.00    -0.341 N 
ATOM     34  H   UNL     1      -9.475   3.712  -4.653  1.00  0.00     0.164 HD
BRANCH  33  35
ATOM     35  C   UNL     1     -10.295   2.078  -5.787  1.00  0.00     0.194 C 
BRANCH  35  36
ATOM     36  C   UNL     1      -9.297   1.356  -6.736  1.00  0.00     0.017 C 
ATOM     37  C   UNL     1      -8.096   2.256  -7.075  1.00  0.00     0.010 C 
ATOM     38  C   UNL     1      -9.932   0.921  -8.063  1.00  0.00     0.010 C 
ENDBRANCH  35  36
BRANCH  35  39
ATOM     39  C   UNL     1     -11.231   3.049  -6.559  1.00  0.00     0.329 C 
ATOM     40  O   UNL     1     -10.867   4.116  -7.039  1.00  0.00    -0.250 OA
BRANCH  39  41
ATOM     41  O   UNL     1     -12.490   2.540  -6.720  1.00  0.00    -0.458 OA
BRANCH  41  42
ATOM     42  C   UNL     1     -13.347   3.233  -7.659  1.00  0.00     0.205 CG0
ATOM     43  C   UNL     1     -14.788   2.857  -7.322  1.00  0.00     0.056 C 
ATOM     44  G   UNL     1     -12.948   2.816  -9.089  1.00  0.00     0.000 G0
ENDBRANCH  41  42
ENDBRANCH  39  41
ENDBRANCH  35  39
ENDBRANCH  33  35
ENDBRANCH  23  31
ENDBRANCH  21  23
ENDBRANCH  19  21
ENDBRANCH  14  19
ENDBRANCH   7  14
ENDBRANCH   2   5
BRANCH   3  45
ATOM     45  C   UNL     1      -2.975   1.498   4.967  1.00  0.00     0.171 C 
BRANCH  45  46
ATOM     46  N   UNL     1      -1.575   1.098   4.913  1.00  0.00    -0.342 N 
ATOM     47  C   UNL     1      -0.659   1.498   5.853  1.00  0.00     0.247 C 
ATOM     48  O   UNL     1      -0.965   2.159   6.846  1.00  0.00    -0.273 OA
ATOM     49  H   UNL     1      -1.290   0.504   4.137  1.00  0.00     0.164 HD
BRANCH  47  50
ATOM     50  C   UNL     1       0.791   1.084   5.565  1.00  0.00     0.212 CG0
ATOM     51  G   UNL     1       1.099  -0.163   6.419  1.00  0.00     0.000 G0
BRANCH  50  52
ATOM     52  N   UNL     1       0.845   0.827   4.129  1.00  0.00    -0.339 N 
ATOM     53  C   UNL     1       1.804   1.359   3.301  1.00  0.00     0.243 C 
ATOM     54  O   UNL     1       2.664   2.138   3.701  1.00  0.00    -0.273 OA
ATOM     55  H   UNL     1       0.093   0.277   3.718  1.00  0.00     0.164 HD
BRANCH  53  56
ATOM     56  C   UNL     1       1.606   1.017   1.811  1.00  0.00     0.182 C 
BRANCH  56  57
ATOM     57  N   UNL     1       0.271   1.415   1.352  1.00  0.00    -0.344 N 
ATOM     58  C   UNL     1       0.076   2.170   0.221  1.00  0.00     0.220 C 
ATOM     59  O   UNL     1       1.003   2.624  -0.441  1.00  0.00    -0.275 OA
ATOM     60  H   UNL     1      -0.523   0.977   1.812  1.00  0.00     0.164 HD
BRANCH  58  61
ATOM     61  C   UNL     1      -1.388   2.412  -0.095  1.00  0.00     0.100 C 
BRANCH  61  62
ATOM     62  C   UNL     1      -1.703   2.416  -1.591  1.00  0.00     0.010 C 
BRANCH  62  63
ATOM     63  C   UNL     1      -3.051   3.056  -1.947  1.00  0.00     0.000 C 
BRANCH  63  64
ATOM     64  C   UNL     1      -2.957   4.519  -2.376  1.00  0.00    -0.003 C 
ATOM     65  C   UNL     1      -1.836   4.731  -3.384  1.00  0.00     0.004 C 
ENDBRANCH  63  64
ENDBRANCH  62  63
ENDBRANCH  61  62
ENDBRANCH  58  61
ENDBRANCH  56  57
BRANCH  56  66
ATOM     66  C   UNL     1       1.897  -0.456   1.530  1.00  0.00     0.157 C 
BRANCH  66  67
ATOM     67  C   UNL     1       2.209  -0.682   0.079  1.00  0.00     0.305 C 
ATOM     68  O   UNL     1       1.514  -1.269  -0.737  1.00  0.00    -0.252 OA
BRANCH  67  69
ATOM     69  O   UNL     1       3.369  -0.107  -0.291  1.00  0.00    -0.481 OA
ATOM     70  H   UNL     1       3.103   0.668  -0.830  1.00  0.00     0.296 HD
ENDBRANCH  67  69
ENDBRANCH  66  67
ENDBRANCH  56  66
ENDBRANCH  53  56
ENDBRANCH  50  52
ENDBRANCH  47  50
ENDBRANCH  45  46
BRANCH  45  71
ATOM     71  C   UNL     1      -3.826   0.477   5.731  1.00  0.00     0.037 C 
BRANCH  71  72
ATOM     72  C   UNL     1      -5.314   0.832   5.702  1.00  0.00     0.026 C 
BRANCH  72  73
ATOM     73  C   UNL     1      -5.604   2.100   6.502  1.00  0.00     0.146 C 
BRANCH  73  74
ATOM     74  N   UNL     1      -6.266   3.049   5.611  1.00  0.00    -0.254 NA
ATOM     75  C   UNL     1      -5.750   4.216   5.488  1.00  0.00     0.185 C 
ATOM     76  N   UNL     1      -6.335   5.110   4.675  1.00  0.00    -0.370 N 
ATOM     77  N   UNL     1      -4.651   4.720   6.077  1.00  0.00    -0.370 N 
ATOM     78  H   UNL     1      -7.174   4.813   4.197  1.00  0.00     0.159 HD
ATOM     79  H   UNL     1      -6.076   6.080   4.640  1.00  0.00     0.159 HD
ATOM     80  H   UNL     1      -4.106   4.158   6.713  1.00  0.00     0.159 HD
ATOM     81  H   UNL     1      -4.275   5.616   5.814  1.00  0.00     0.159 HD
ENDBRANCH  73  74
ENDBRANCH  72  73
ENDBRANCH  71  72
ENDBRANCH  45  71
ENDBRANCH   3  45
TORSDOF 20
ENDMDL
MODEL 14
REMARK VINA RESULT:    -6.061      3.042      6.794
REMARK INTER + INTRA:         -25.367
REMARK INTER:                 -20.382
REMARK INTRA:                  -4.985
REMARK UNBOUND:                -7.967
REMARK SMILES CCCCCC(=O)N[C@H](CC(=O)O)C(=O)N[C@H]1C(=O)N[C@H](CCCN=C(N)N)C(=O)N[C@@H]2CC[C@H](O)N(C2=O)[C@@H](CC(C)C)C(=O)N(C)[C@@H](Cc2ccccc2)C(=O)N[C@H](C(C)C)C(=O)O[C@@H]1C
REMARK SMILES IDX 30 1 31 2 29 3 32 5 35 6 37 7 34 8 38 9 33 10 39 11 36 12
REMARK SMILES IDX 40 14 41 15 42 16 43 17 44 18 45 19 46 20 47 21 48 22 49 23
REMARK SMILES IDX 50 24 51 25 52 26 56 27 53 28 55 29 54 30 57 31 58 32 59 33
REMARK SMILES IDX 60 35 61 36 62 37 63 38 64 39 65 40 66 41 67 42 68 43 21 45
REMARK SMILES IDX 20 46 18 47 19 48 17 50 16 52 14 53 15 54 9 56 8 57 6 58
REMARK SMILES IDX 7 59 5 61 4 62 3 63 2 64 1 65 10 66 11 67 12 68 13 69 22 71
REMARK SMILES IDX 23 72 24 73 25 74 26 75 27 76 28 77
REMARK H PARENT 31 4 36 13 59 34 20 49 16 55 8 60 13 70 27 78 27 79 28 80
REMARK H PARENT 28 81
REMARK Flexibility Score:  259.900
ROOT
ATOM      1  O   UNL     1      -4.481   3.022   1.243  1.00  0.00    -0.273 OA
ATOM      2  N   UNL     1      -3.905   2.189  -0.808  1.00  0.00    -0.343 N 
ATOM      3  C   UNL     1      -3.607   2.705   0.435  1.00  0.00     0.243 C 
ATOM      4  H   UNL     1      -3.160   1.926  -1.441  1.00  0.00     0.164 HD
ENDROOT
BRANCH   2   5
ATOM      5  C   UNL     1      -5.287   2.108  -1.266  1.00  0.00     0.171 C 
ATOM      6  C   UNL     1      -6.587   0.522  -3.315  1.00  0.00     0.214 C 
ATOM      7  N   UNL     1      -6.063   1.826  -3.652  1.00  0.00    -0.303 N 
ATOM      8  C   UNL     1      -7.043   0.411  -1.869  1.00  0.00     0.057 C 
ATOM      9  C   UNL     1      -5.387   2.613  -2.734  1.00  0.00     0.247 C 
ATOM     10  C   UNL     1      -5.893   0.743  -0.943  1.00  0.00     0.040 C 
ATOM     11  O   UNL     1      -4.865   3.690  -3.052  1.00  0.00    -0.272 OA
BRANCH   6  12
ATOM     12  O   UNL     1      -5.585  -0.429  -3.590  1.00  0.00    -0.373 OA
ATOM     13  H   UNL     1      -4.836   0.054  -4.001  1.00  0.00     0.213 HD
ENDBRANCH   6  12
BRANCH   7  14
ATOM     14  C   UNL     1      -6.147   2.237  -5.069  1.00  0.00     0.177 C 
BRANCH  14  15
ATOM     15  C   UNL     1      -5.551   1.236  -6.078  1.00  0.00     0.038 C 
BRANCH  15  16
ATOM     16  C   UNL     1      -5.045   1.745  -7.446  1.00  0.00    -0.015 C 
ATOM     17  C   UNL     1      -4.832   0.608  -8.450  1.00  0.00     0.007 C 
ATOM     18  C   UNL     1      -3.711   2.481  -7.264  1.00  0.00     0.007 C 
ENDBRANCH  15  16
ENDBRANCH  14  15
BRANCH  14  19
ATOM     19  C   UNL     1      -7.425   3.112  -5.307  1.00  0.00     0.245 C 
ATOM     20  O   UNL     1      -7.312   4.333  -5.104  1.00  0.00    -0.272 OA
BRANCH  19  21
ATOM     21  N   UNL     1      -8.670   2.593  -5.613  1.00  0.00    -0.332 N 
ATOM     22  C   UNL     1      -9.653   2.136  -4.648  1.00  0.00     0.147 C 
BRANCH  21  23
ATOM     23  C   UNL     1      -9.041   2.476  -7.051  1.00  0.00     0.178 C 
BRANCH  23  24
ATOM     24  C   UNL     1      -9.407   1.050  -7.510  1.00  0.00     0.070 C 
BRANCH  24  25
ATOM     25  C   UNL     1      -8.706   0.521  -8.739  1.00  0.00    -0.045 A 
ATOM     26  C   UNL     1      -8.243   1.394  -9.732  1.00  0.00     0.004 A 
ATOM     27  C   UNL     1      -8.514  -0.858  -8.906  1.00  0.00     0.004 A 
ATOM     28  C   UNL     1      -7.612   0.896 -10.874  1.00  0.00     0.000 A 
ATOM     29  C   UNL     1      -7.881  -1.354 -10.047  1.00  0.00     0.000 A 
ATOM     30  C   UNL     1      -7.433  -0.476 -11.032  1.00  0.00     0.000 A 
ENDBRANCH  24  25
ENDBRANCH  23  24
BRANCH  23  31
ATOM     31  C   UNL     1     -10.021   3.581  -7.513  1.00  0.00     0.243 C 
ATOM     32  O   UNL     1      -9.682   4.731  -7.781  1.00  0.00    -0.273 OA
ATOM     33  N   UNL     1     -11.352   3.213  -7.421  1.00  0.00    -0.341 N 
ATOM     34  H   UNL     1     -11.572   2.242  -7.187  1.00  0.00     0.164 HD
BRANCH  33  35
ATOM     35  C   UNL     1     -12.457   4.137  -7.692  1.00  0.00     0.194 C 
BRANCH  35  36
ATOM     36  C   UNL     1     -12.826   5.056  -6.492  1.00  0.00     0.017 C 
ATOM     37  C   UNL     1     -12.878   4.262  -5.176  1.00  0.00     0.010 C 
ATOM     38  C   UNL     1     -14.180   5.756  -6.661  1.00  0.00     0.010 C 
ENDBRANCH  35  36
BRANCH  35  39
ATOM     39  C   UNL     1     -13.705   3.421  -8.279  1.00  0.00     0.329 C 
ATOM     40  O   UNL     1     -14.319   2.530  -7.704  1.00  0.00    -0.250 OA
BRANCH  39  41
ATOM     41  O   UNL     1     -14.097   3.956  -9.475  1.00  0.00    -0.458 OA
BRANCH  41  42
ATOM     42  C   UNL     1     -15.462   3.690  -9.880  1.00  0.00     0.205 CG0
ATOM     43  C   UNL     1     -15.404   2.973 -11.227  1.00  0.00     0.056 C 
ATOM     44  G   UNL     1     -16.221   5.029  -9.957  1.00  0.00     0.000 G0
ENDBRANCH  41  42
ENDBRANCH  39  41
ENDBRANCH  35  39
ENDBRANCH  33  35
ENDBRANCH  23  31
ENDBRANCH  21  23
ENDBRANCH  19  21
ENDBRANCH  14  19
ENDBRANCH   7  14
ENDBRANCH   2   5
BRANCH   3  45
ATOM     45  C   UNL     1      -2.111   2.837   0.751  1.00  0.00     0.171 C 
BRANCH  45  46
ATOM     46  N   UNL     1      -1.985   2.575   2.178  1.00  0.00    -0.342 N 
ATOM     47  C   UNL     1      -1.668   1.336   2.674  1.00  0.00     0.247 C 
ATOM     48  O   UNL     1      -1.397   0.376   1.952  1.00  0.00    -0.273 OA
ATOM     49  H   UNL     1      -2.146   3.357   2.811  1.00  0.00     0.164 HD
BRANCH  47  50
ATOM     50  C   UNL     1      -1.703   1.220   4.205  1.00  0.00     0.212 CG0
ATOM     51  G   UNL     1      -0.269   0.916   4.683  1.00  0.00     0.000 G0
BRANCH  50  52
ATOM     52  N   UNL     1      -2.210   2.504   4.681  1.00  0.00    -0.339 N 
ATOM     53  C   UNL     1      -2.406   2.793   6.010  1.00  0.00     0.243 C 
ATOM     54  O   UNL     1      -2.218   1.970   6.901  1.00  0.00    -0.273 OA
ATOM     55  H   UNL     1      -2.491   3.190   3.983  1.00  0.00     0.164 HD
BRANCH  53  56
ATOM     56  C   UNL     1      -3.031   4.180   6.265  1.00  0.00     0.182 C 
BRANCH  56  57
ATOM     57  N   UNL     1      -2.959   4.536   7.685  1.00  0.00    -0.344 N 
ATOM     58  C   UNL     1      -1.893   5.217   8.221  1.00  0.00     0.220 C 
ATOM     59  O   UNL     1      -0.897   5.509   7.567  1.00  0.00    -0.275 OA
ATOM     60  H   UNL     1      -3.803   4.404   8.236  1.00  0.00     0.164 HD
BRANCH  58  61
ATOM     61  C   UNL     1      -2.059   5.530   9.696  1.00  0.00     0.100 C 
BRANCH  61  62
ATOM     62  C   UNL     1      -1.085   6.589  10.214  1.00  0.00     0.010 C 
BRANCH  62  63
ATOM     63  C   UNL     1      -1.457   8.026   9.830  1.00  0.00     0.000 C 
BRANCH  63  64
ATOM     64  C   UNL     1      -2.590   8.624  10.663  1.00  0.00    -0.003 C 
ATOM     65  C   UNL     1      -2.933  10.034  10.202  1.00  0.00     0.004 C 
ENDBRANCH  63  64
ENDBRANCH  62  63
ENDBRANCH  61  62
ENDBRANCH  58  61
ENDBRANCH  56  57
BRANCH  56  66
ATOM     66  C   UNL     1      -4.456   4.260   5.721  1.00  0.00     0.157 C 
BRANCH  66  67
ATOM     67  C   UNL     1      -4.509   5.056   4.449  1.00  0.00     0.305 C 
ATOM     68  O   UNL     1      -3.721   5.002   3.518  1.00  0.00    -0.252 OA
BRANCH  67  69
ATOM     69  O   UNL     1      -5.593   5.853   4.389  1.00  0.00    -0.481 OA
ATOM     70  H   UNL     1      -5.928   5.752   3.473  1.00  0.00     0.296 HD
ENDBRANCH  67  69
ENDBRANCH  66  67
ENDBRANCH  56  66
ENDBRANCH  53  56
ENDBRANCH  50  52
ENDBRANCH  47  50
ENDBRANCH  45  46
BRANCH  45  71
ATOM     71  C   UNL     1      -1.610   4.239   0.386  1.00  0.00     0.037 C 
BRANCH  71  72
ATOM     72  C   UNL     1      -0.321   4.194  -0.438  1.00  0.00     0.026 C 
BRANCH  72  73
ATOM     73  C   UNL     1       0.327   2.812  -0.389  1.00  0.00     0.146 C 
BRANCH  73  74
ATOM     74  N   UNL     1       1.111   2.729   0.839  1.00  0.00    -0.254 NA
ATOM     75  C   UNL     1       1.830   1.683   1.022  1.00  0.00     0.185 C 
ATOM     76  N   UNL     1       2.563   1.578   2.142  1.00  0.00    -0.370 N 
ATOM     77  N   UNL     1       1.977   0.609   0.226  1.00  0.00    -0.370 N 
ATOM     78  H   UNL     1       2.504   2.342   2.800  1.00  0.00     0.159 HD
ATOM     79  H   UNL     1       3.032   0.734   2.420  1.00  0.00     0.159 HD
ATOM     80  H   UNL     1       1.487   0.551  -0.654  1.00  0.00     0.159 HD
ATOM     81  H   UNL     1       2.661  -0.103   0.421  1.00  0.00     0.159 HD
ENDBRANCH  73  74
ENDBRANCH  72  73
ENDBRANCH  71  72
ENDBRANCH  45  71
ENDBRANCH   3  45
TORSDOF 20
ENDMDL
MODEL 15
REMARK VINA RESULT:    -6.054      3.613      7.348
REMARK INTER + INTRA:         -25.346
REMARK INTER:                 -18.961
REMARK INTRA:                  -6.386
REMARK UNBOUND:                -7.967
REMARK SMILES CCCCCC(=O)N[C@H](CC(=O)O)C(=O)N[C@H]1C(=O)N[C@H](CCCN=C(N)N)C(=O)N[C@@H]2CC[C@H](O)N(C2=O)[C@@H](CC(C)C)C(=O)N(C)[C@@H](Cc2ccccc2)C(=O)N[C@H](C(C)C)C(=O)O[C@@H]1C
REMARK SMILES IDX 30 1 31 2 29 3 32 5 35 6 37 7 34 8 38 9 33 10 39 11 36 12
REMARK SMILES IDX 40 14 41 15 42 16 43 17 44 18 45 19 46 20 47 21 48 22 49 23
REMARK SMILES IDX 50 24 51 25 52 26 56 27 53 28 55 29 54 30 57 31 58 32 59 33
REMARK SMILES IDX 60 35 61 36 62 37 63 38 64 39 65 40 66 41 67 42 68 43 21 45
REMARK SMILES IDX 20 46 18 47 19 48 17 50 16 52 14 53 15 54 9 56 8 57 6 58
REMARK SMILES IDX 7 59 5 61 4 62 3 63 2 64 1 65 10 66 11 67 12 68 13 69 22 71
REMARK SMILES IDX 23 72 24 73 25 74 26 75 27 76 28 77
REMARK H PARENT 31 4 36 13 59 34 20 49 16 55 8 60 13 70 27 78 27 79 28 80
REMARK H PARENT 28 81
REMARK Flexibility Score:  259.900
ROOT
ATOM      1  O   UNL     1      -5.052   1.361  -1.888  1.00  0.00    -0.273 OA
ATOM      2  N   UNL     1      -5.556   3.472  -1.167  1.00  0.00    -0.343 N 
ATOM      3  C   UNL     1      -4.775   2.336  -1.190  1.00  0.00     0.243 C 
ATOM      4  H   UNL     1      -5.289   4.261  -0.591  1.00  0.00     0.164 HD
ENDROOT
BRANCH   2   5
ATOM      5  C   UNL     1      -6.822   3.517  -1.890  1.00  0.00     0.171 C 
ATOM      6  C   UNL     1      -8.076   1.700  -3.769  1.00  0.00     0.214 C 
ATOM      7  N   UNL     1      -7.223   2.755  -4.263  1.00  0.00    -0.303 N 
ATOM      8  C   UNL     1      -8.785   2.057  -2.472  1.00  0.00     0.057 C 
ATOM      9  C   UNL     1      -6.553   3.625  -3.419  1.00  0.00     0.247 C 
ATOM     10  C   UNL     1      -7.766   2.415  -1.413  1.00  0.00     0.040 C 
ATOM     11  O   UNL     1      -5.756   4.470  -3.846  1.00  0.00    -0.272 OA
BRANCH   6  12
ATOM     12  O   UNL     1      -7.282   0.549  -3.595  1.00  0.00    -0.373 OA
ATOM     13  H   UNL     1      -6.625   0.756  -2.897  1.00  0.00     0.213 HD
ENDBRANCH   6  12
BRANCH   7  14
ATOM     14  C   UNL     1      -6.968   2.784  -5.719  1.00  0.00     0.177 C 
BRANCH  14  15
ATOM     15  C   UNL     1      -5.938   1.756  -6.226  1.00  0.00     0.038 C 
BRANCH  15  16
ATOM     16  C   UNL     1      -4.919   2.170  -7.310  1.00  0.00    -0.015 C 
ATOM     17  C   UNL     1      -4.458   0.984  -8.163  1.00  0.00     0.007 C 
ATOM     18  C   UNL     1      -3.684   2.795  -6.650  1.00  0.00     0.007 C 
ENDBRANCH  15  16
ENDBRANCH  14  15
BRANCH  14  19
ATOM     19  C   UNL     1      -8.259   3.229  -6.488  1.00  0.00     0.245 C 
ATOM     20  O   UNL     1      -8.591   4.421  -6.382  1.00  0.00    -0.272 OA
BRANCH  19  21
ATOM     21  N   UNL     1      -9.090   2.357  -7.169  1.00  0.00    -0.332 N 
ATOM     22  C   UNL     1     -10.275   1.721  -6.621  1.00  0.00     0.147 C 
BRANCH  21  23
ATOM     23  C   UNL     1      -8.746   2.025  -8.579  1.00  0.00     0.178 C 
BRANCH  23  24
ATOM     24  C   UNL     1      -8.386   0.545  -8.825  1.00  0.00     0.070 C 
BRANCH  24  25
ATOM     25  C   UNL     1      -7.802   0.194 -10.173  1.00  0.00    -0.045 A 
ATOM     26  C   UNL     1      -8.268  -0.916 -10.889  1.00  0.00     0.004 A 
ATOM     27  C   UNL     1      -6.778   0.976 -10.727  1.00  0.00     0.004 A 
ATOM     28  C   UNL     1      -7.712  -1.245 -12.128  1.00  0.00     0.000 A 
ATOM     29  C   UNL     1      -6.224   0.648 -11.965  1.00  0.00     0.000 A 
ATOM     30  C   UNL     1      -6.690  -0.464 -12.663  1.00  0.00     0.000 A 
ENDBRANCH  24  25
ENDBRANCH  23  24
BRANCH  23  31
ATOM     31  C   UNL     1      -9.736   2.633  -9.601  1.00  0.00     0.243 C 
ATOM     32  O   UNL     1      -9.884   3.839  -9.780  1.00  0.00    -0.273 OA
ATOM     33  N   UNL     1     -10.582   1.699 -10.174  1.00  0.00    -0.341 N 
ATOM     34  H   UNL     1     -10.413   0.709  -9.983  1.00  0.00     0.164 HD
BRANCH  33  35
ATOM     35  C   UNL     1     -11.676   2.062 -11.079  1.00  0.00     0.194 C 
BRANCH  35  36
ATOM     36  C   UNL     1     -12.937   1.163 -10.944  1.00  0.00     0.017 C 
ATOM     37  C   UNL     1     -14.217   2.009 -10.823  1.00  0.00     0.010 C 
ATOM     38  C   UNL     1     -12.887   0.231  -9.727  1.00  0.00     0.010 C 
ENDBRANCH  35  36
BRANCH  35  39
ATOM     39  C   UNL     1     -11.211   2.190 -12.557  1.00  0.00     0.329 C 
ATOM     40  O   UNL     1     -10.499   1.372 -13.126  1.00  0.00    -0.250 OA
BRANCH  39  41
ATOM     41  O   UNL     1     -11.758   3.277 -13.181  1.00  0.00    -0.458 OA
BRANCH  41  42
ATOM     42  C   UNL     1     -11.208   3.617 -14.477  1.00  0.00     0.205 CG0
ATOM     43  C   UNL     1     -11.471   5.103 -14.707  1.00  0.00     0.056 C 
ATOM     44  G   UNL     1     -11.877   2.728 -15.543  1.00  0.00     0.000 G0
ENDBRANCH  41  42
ENDBRANCH  39  41
ENDBRANCH  35  39
ENDBRANCH  33  35
ENDBRANCH  23  31
ENDBRANCH  21  23
ENDBRANCH  19  21
ENDBRANCH  14  19
ENDBRANCH   7  14
ENDBRANCH   2   5
BRANCH   3  45
ATOM     45  C   UNL     1      -3.525   2.381  -0.300  1.00  0.00     0.171 C 
BRANCH  45  46
ATOM     46  N   UNL     1      -3.813   1.504   0.827  1.00  0.00    -0.342 N 
ATOM     47  C   UNL     1      -2.827   0.854   1.526  1.00  0.00     0.247 C 
ATOM     48  O   UNL     1      -1.628   1.020   1.299  1.00  0.00    -0.273 OA
ATOM     49  H   UNL     1      -4.791   1.382   1.085  1.00  0.00     0.164 HD
BRANCH  47  50
ATOM     50  C   UNL     1      -3.326  -0.123   2.599  1.00  0.00     0.212 CG0
ATOM     51  G   UNL     1      -2.397   0.011   3.822  1.00  0.00     0.000 G0
BRANCH  50  52
ATOM     52  N   UNL     1      -4.705   0.272   2.875  1.00  0.00    -0.339 N 
ATOM     53  C   UNL     1      -5.110   0.815   4.070  1.00  0.00     0.243 C 
ATOM     54  O   UNL     1      -4.349   0.961   5.023  1.00  0.00    -0.273 OA
ATOM     55  H   UNL     1      -5.405   0.073   2.164  1.00  0.00     0.164 HD
BRANCH  53  56
ATOM     56  C   UNL     1      -6.628   1.072   4.160  1.00  0.00     0.182 C 
BRANCH  56  57
ATOM     57  N   UNL     1      -6.940   2.479   3.885  1.00  0.00    -0.344 N 
ATOM     58  C   UNL     1      -6.883   3.012   2.621  1.00  0.00     0.220 C 
ATOM     59  O   UNL     1      -6.498   2.373   1.648  1.00  0.00    -0.275 OA
ATOM     60  H   UNL     1      -7.360   3.013   4.641  1.00  0.00     0.164 HD
BRANCH  58  61
ATOM     61  C   UNL     1      -7.304   4.469   2.563  1.00  0.00     0.100 C 
BRANCH  61  62
ATOM     62  C   UNL     1      -8.069   4.839   1.292  1.00  0.00     0.010 C 
BRANCH  62  63
ATOM     63  C   UNL     1      -9.479   4.240   1.210  1.00  0.00     0.000 C 
BRANCH  63  64
ATOM     64  C   UNL     1     -10.484   5.106   0.453  1.00  0.00    -0.003 C 
ATOM     65  C   UNL     1     -11.181   4.315  -0.645  1.00  0.00     0.004 C 
ENDBRANCH  63  64
ENDBRANCH  62  63
ENDBRANCH  61  62
ENDBRANCH  58  61
ENDBRANCH  56  57
BRANCH  56  66
ATOM     66  C   UNL     1      -7.197   0.606   5.499  1.00  0.00     0.157 C 
BRANCH  66  67
ATOM     67  C   UNL     1      -7.600   1.772   6.354  1.00  0.00     0.305 C 
ATOM     68  O   UNL     1      -8.737   2.109   6.645  1.00  0.00    -0.252 OA
BRANCH  67  69
ATOM     69  O   UNL     1      -6.537   2.435   6.850  1.00  0.00    -0.481 OA
ATOM     70  H   UNL     1      -6.026   1.756   7.340  1.00  0.00     0.296 HD
ENDBRANCH  67  69
ENDBRANCH  66  67
ENDBRANCH  56  66
ENDBRANCH  53  56
ENDBRANCH  50  52
ENDBRANCH  47  50
ENDBRANCH  45  46
BRANCH  45  71
ATOM     71  C   UNL     1      -3.246   3.817   0.157  1.00  0.00     0.037 C 
BRANCH  71  72
ATOM     72  C   UNL     1      -2.363   4.576  -0.836  1.00  0.00     0.026 C 
BRANCH  72  73
ATOM     73  C   UNL     1      -1.096   5.106  -0.167  1.00  0.00     0.146 C 
BRANCH  73  74
ATOM     74  N   UNL     1      -0.417   3.978   0.463  1.00  0.00    -0.254 NA
ATOM     75  C   UNL     1       0.521   3.402  -0.193  1.00  0.00     0.185 C 
ATOM     76  N   UNL     1       1.166   2.361   0.361  1.00  0.00    -0.370 N 
ATOM     77  N   UNL     1       0.995   3.687  -1.418  1.00  0.00    -0.370 N 
ATOM     78  H   UNL     1       0.866   2.075   1.282  1.00  0.00     0.159 HD
ATOM     79  H   UNL     1       1.806   1.774  -0.144  1.00  0.00     0.159 HD
ATOM     80  H   UNL     1       0.607   4.450  -1.953  1.00  0.00     0.159 HD
ATOM     81  H   UNL     1       1.817   3.237  -1.785  1.00  0.00     0.159 HD
ENDBRANCH  73  74
ENDBRANCH  72  73
ENDBRANCH  71  72
ENDBRANCH  45  71
ENDBRANCH   3  45
TORSDOF 20
ENDMDL
MODEL 16
REMARK VINA RESULT:    -6.024      3.078      6.272
REMARK INTER + INTRA:         -25.261
REMARK INTER:                 -19.325
REMARK INTRA:                  -5.936
REMARK UNBOUND:                -7.967
REMARK SMILES CCCCCC(=O)N[C@H](CC(=O)O)C(=O)N[C@H]1C(=O)N[C@H](CCCN=C(N)N)C(=O)N[C@@H]2CC[C@H](O)N(C2=O)[C@@H](CC(C)C)C(=O)N(C)[C@@H](Cc2ccccc2)C(=O)N[C@H](C(C)C)C(=O)O[C@@H]1C
REMARK SMILES IDX 30 1 31 2 29 3 32 5 35 6 37 7 34 8 38 9 33 10 39 11 36 12
REMARK SMILES IDX 40 14 41 15 42 16 43 17 44 18 45 19 46 20 47 21 48 22 49 23
REMARK SMILES IDX 50 24 51 25 52 26 56 27 53 28 55 29 54 30 57 31 58 32 59 33
REMARK SMILES IDX 60 35 61 36 62 37 63 38 64 39 65 40 66 41 67 42 68 43 21 45
REMARK SMILES IDX 20 46 18 47 19 48 17 50 16 52 14 53 15 54 9 56 8 57 6 58
REMARK SMILES IDX 7 59 5 61 4 62 3 63 2 64 1 65 10 66 11 67 12 68 13 69 22 71
REMARK SMILES IDX 23 72 24 73 25 74 26 75 27 76 28 77
REMARK H PARENT 31 4 36 13 59 34 20 49 16 55 8 60 13 70 27 78 27 79 28 80
REMARK H PARENT 28 81
REMARK Flexibility Score:  259.900
ROOT
ATOM      1  O   UNL     1      -5.072   3.489  -1.458  1.00  0.00    -0.273 OA
ATOM      2  N   UNL     1      -3.792   1.811  -2.339  1.00  0.00    -0.343 N 
ATOM      3  C   UNL     1      -4.153   2.679  -1.331  1.00  0.00     0.243 C 
ATOM      4  H   UNL     1      -3.040   1.148  -2.194  1.00  0.00     0.164 HD
ENDROOT
BRANCH   2   5
ATOM      5  C   UNL     1      -4.416   1.900  -3.655  1.00  0.00     0.171 C 
ATOM      6  C   UNL     1      -6.646   3.449  -4.671  1.00  0.00     0.214 C 
ATOM      7  N   UNL     1      -6.884   2.130  -4.133  1.00  0.00    -0.303 N 
ATOM      8  C   UNL     1      -5.268   3.605  -5.295  1.00  0.00     0.057 C 
ATOM      9  C   UNL     1      -5.872   1.358  -3.586  1.00  0.00     0.247 C 
ATOM     10  C   UNL     1      -4.202   3.282  -4.271  1.00  0.00     0.040 C 
ATOM     11  O   UNL     1      -6.098   0.265  -3.049  1.00  0.00    -0.272 OA
BRANCH   6  12
ATOM     12  O   UNL     1      -6.821   4.378  -3.626  1.00  0.00    -0.373 OA
ATOM     13  H   UNL     1      -6.029   4.315  -3.050  1.00  0.00     0.213 HD
ENDBRANCH   6  12
BRANCH   7  14
ATOM     14  C   UNL     1      -8.290   1.683  -4.053  1.00  0.00     0.177 C 
BRANCH  14  15
ATOM     15  C   UNL     1      -9.002   1.991  -2.721  1.00  0.00     0.038 C 
BRANCH  15  16
ATOM     16  C   UNL     1      -9.386   0.830  -1.777  1.00  0.00    -0.015 C 
ATOM     17  C   UNL     1      -8.459   0.735  -0.562  1.00  0.00     0.007 C 
ATOM     18  C   UNL     1      -9.320  -0.500  -2.537  1.00  0.00     0.007 C 
ENDBRANCH  15  16
ENDBRANCH  14  15
BRANCH  14  19
ATOM     19  C   UNL     1      -8.958   1.731  -5.470  1.00  0.00     0.245 C 
ATOM     20  O   UNL     1      -8.429   1.046  -6.362  1.00  0.00    -0.272 OA
BRANCH  19  21
ATOM     21  N   UNL     1     -10.012   2.565  -5.798  1.00  0.00    -0.332 N 
ATOM     22  C   UNL     1      -9.937   4.010  -5.920  1.00  0.00     0.147 C 
BRANCH  21  23
ATOM     23  C   UNL     1     -11.343   1.943  -6.039  1.00  0.00     0.178 C 
BRANCH  23  24
ATOM     24  C   UNL     1     -12.386   2.203  -4.933  1.00  0.00     0.070 C 
BRANCH  24  25
ATOM     25  C   UNL     1     -12.621   1.094  -3.934  1.00  0.00    -0.045 A 
ATOM     26  C   UNL     1     -12.553  -0.250  -4.324  1.00  0.00     0.004 A 
ATOM     27  C   UNL     1     -12.917   1.397  -2.596  1.00  0.00     0.004 A 
ATOM     28  C   UNL     1     -12.789  -1.269  -3.399  1.00  0.00     0.000 A 
ATOM     29  C   UNL     1     -13.151   0.377  -1.672  1.00  0.00     0.000 A 
ATOM     30  C   UNL     1     -13.089  -0.955  -2.076  1.00  0.00     0.000 A 
ENDBRANCH  24  25
ENDBRANCH  23  24
BRANCH  23  31
ATOM     31  C   UNL     1     -11.857   2.157  -7.482  1.00  0.00     0.243 C 
ATOM     32  O   UNL     1     -11.236   1.825  -8.489  1.00  0.00    -0.273 OA
ATOM     33  N   UNL     1     -13.005   2.928  -7.552  1.00  0.00    -0.341 N 
ATOM     34  H   UNL     1     -13.475   3.179  -6.679  1.00  0.00     0.164 HD
BRANCH  33  35
ATOM     35  C   UNL     1     -13.603   3.357  -8.819  1.00  0.00     0.194 C 
BRANCH  35  36
ATOM     36  C   UNL     1     -13.706   4.900  -8.983  1.00  0.00     0.017 C 
ATOM     37  C   UNL     1     -12.462   5.472  -9.683  1.00  0.00     0.010 C 
ATOM     38  C   UNL     1     -13.863   5.639  -7.649  1.00  0.00     0.010 C 
ENDBRANCH  35  36
BRANCH  35  39
ATOM     39  C   UNL     1     -14.957   2.651  -9.111  1.00  0.00     0.329 C 
ATOM     40  O   UNL     1     -15.988   2.856  -8.481  1.00  0.00    -0.250 OA
BRANCH  39  41
ATOM     41  O   UNL     1     -14.893   1.837 -10.208  1.00  0.00    -0.458 OA
BRANCH  41  42
ATOM     42  C   UNL     1     -16.021   1.891 -11.113  1.00  0.00     0.205 CG0
ATOM     43  C   UNL     1     -15.632   2.809 -12.270  1.00  0.00     0.056 C 
ATOM     44  G   UNL     1     -17.250   2.408 -10.338  1.00  0.00     0.000 G0
ENDBRANCH  41  42
ENDBRANCH  39  41
ENDBRANCH  35  39
ENDBRANCH  33  35
ENDBRANCH  23  31
ENDBRANCH  21  23
ENDBRANCH  19  21
ENDBRANCH  14  19
ENDBRANCH   7  14
ENDBRANCH   2   5
BRANCH   3  45
ATOM     45  C   UNL     1      -3.345   2.552  -0.033  1.00  0.00     0.171 C 
BRANCH  45  46
ATOM     46  N   UNL     1      -1.958   2.384  -0.448  1.00  0.00    -0.342 N 
ATOM     47  C   UNL     1      -0.958   3.225  -0.030  1.00  0.00     0.247 C 
ATOM     48  O   UNL     1      -1.144   4.135   0.779  1.00  0.00    -0.273 OA
ATOM     49  H   UNL     1      -1.750   1.608  -1.074  1.00  0.00     0.164 HD
BRANCH  47  50
ATOM     50  C   UNL     1       0.415   2.969  -0.668  1.00  0.00     0.212 CG0
ATOM     51  G   UNL     1       1.391   4.029  -0.118  1.00  0.00     0.000 G0
BRANCH  50  52
ATOM     52  N   UNL     1       0.773   1.605  -0.288  1.00  0.00    -0.339 N 
ATOM     53  C   UNL     1       1.276   1.271   0.945  1.00  0.00     0.243 C 
ATOM     54  O   UNL     1       1.516   2.108   1.811  1.00  0.00    -0.273 OA
ATOM     55  H   UNL     1       0.701   0.882  -1.002  1.00  0.00     0.164 HD
BRANCH  53  56
ATOM     56  C   UNL     1       1.661  -0.216   1.084  1.00  0.00     0.182 C 
BRANCH  56  57
ATOM     57  N   UNL     1       1.423  -0.696   2.449  1.00  0.00    -0.344 N 
ATOM     58  C   UNL     1       0.436  -1.603   2.749  1.00  0.00     0.220 C 
ATOM     59  O   UNL     1      -0.360  -2.018   1.913  1.00  0.00    -0.275 OA
ATOM     60  H   UNL     1       2.120  -0.457   3.149  1.00  0.00     0.164 HD
BRANCH  58  61
ATOM     61  C   UNL     1       0.410  -2.002   4.213  1.00  0.00     0.100 C 
BRANCH  61  62
ATOM     62  C   UNL     1      -0.152  -0.920   5.136  1.00  0.00     0.010 C 
BRANCH  62  63
ATOM     63  C   UNL     1      -1.358  -0.167   4.560  1.00  0.00     0.000 C 
BRANCH  63  64
ATOM     64  C   UNL     1      -2.690  -0.894   4.730  1.00  0.00    -0.003 C 
ATOM     65  C   UNL     1      -2.936  -1.269   6.184  1.00  0.00     0.004 C 
ENDBRANCH  63  64
ENDBRANCH  62  63
ENDBRANCH  61  62
ENDBRANCH  58  61
ENDBRANCH  56  57
BRANCH  56  66
ATOM     66  C   UNL     1       3.096  -0.469   0.626  1.00  0.00     0.157 C 
BRANCH  66  67
ATOM     67  C   UNL     1       4.086   0.115   1.592  1.00  0.00     0.305 C 
ATOM     68  O   UNL     1       4.529  -0.418   2.598  1.00  0.00    -0.252 OA
BRANCH  67  69
ATOM     69  O   UNL     1       4.514   1.333   1.212  1.00  0.00    -0.481 OA
ATOM     70  H   UNL     1       3.747   1.926   1.361  1.00  0.00     0.296 HD
ENDBRANCH  67  69
ENDBRANCH  66  67
ENDBRANCH  56  66
ENDBRANCH  53  56
ENDBRANCH  50  52
ENDBRANCH  47  50
ENDBRANCH  45  46
BRANCH  45  71
ATOM     71  C   UNL     1      -3.838   1.356   0.788  1.00  0.00     0.037 C 
BRANCH  71  72
ATOM     72  C   UNL     1      -4.026   1.710   2.265  1.00  0.00     0.026 C 
BRANCH  72  73
ATOM     73  C   UNL     1      -3.879   3.211   2.505  1.00  0.00     0.146 C 
BRANCH  73  74
ATOM     74  N   UNL     1      -5.158   3.712   2.999  1.00  0.00    -0.254 NA
ATOM     75  C   UNL     1      -5.145   4.747   3.754  1.00  0.00     0.185 C 
ATOM     76  N   UNL     1      -6.306   5.233   4.223  1.00  0.00    -0.370 N 
ATOM     77  N   UNL     1      -4.093   5.470   4.178  1.00  0.00    -0.370 N 
ATOM     78  H   UNL     1      -7.148   4.742   3.957  1.00  0.00     0.159 HD
ATOM     79  H   UNL     1      -6.363   5.945   4.930  1.00  0.00     0.159 HD
ATOM     80  H   UNL     1      -3.155   5.224   3.901  1.00  0.00     0.159 HD
ATOM     81  H   UNL     1      -4.214   6.336   4.677  1.00  0.00     0.159 HD
ENDBRANCH  73  74
ENDBRANCH  72  73
ENDBRANCH  71  72
ENDBRANCH  45  71
ENDBRANCH   3  45
TORSDOF 20
ENDMDL
MODEL 17
REMARK VINA RESULT:    -6.012      4.584      7.561
REMARK INTER + INTRA:         -25.226
REMARK INTER:                 -19.536
REMARK INTRA:                  -5.690
REMARK UNBOUND:                -7.967
REMARK SMILES CCCCCC(=O)N[C@H](CC(=O)O)C(=O)N[C@H]1C(=O)N[C@H](CCCN=C(N)N)C(=O)N[C@@H]2CC[C@H](O)N(C2=O)[C@@H](CC(C)C)C(=O)N(C)[C@@H](Cc2ccccc2)C(=O)N[C@H](C(C)C)C(=O)O[C@@H]1C
REMARK SMILES IDX 30 1 31 2 29 3 32 5 35 6 37 7 34 8 38 9 33 10 39 11 36 12
REMARK SMILES IDX 40 14 41 15 42 16 43 17 44 18 45 19 46 20 47 21 48 22 49 23
REMARK SMILES IDX 50 24 51 25 52 26 56 27 53 28 55 29 54 30 57 31 58 32 59 33
REMARK SMILES IDX 60 35 61 36 62 37 63 38 64 39 65 40 66 41 67 42 68 43 21 45
REMARK SMILES IDX 20 46 18 47 19 48 17 50 16 52 14 53 15 54 9 56 8 57 6 58
REMARK SMILES IDX 7 59 5 61 4 62 3 63 2 64 1 65 10 66 11 67 12 68 13 69 22 71
REMARK SMILES IDX 23 72 24 73 25 74 26 75 27 76 28 77
REMARK H PARENT 31 4 36 13 59 34 20 49 16 55 8 60 13 70 27 78 27 79 28 80
REMARK H PARENT 28 81
REMARK Flexibility Score:  259.900
ROOT
ATOM      1  O   UNL     1      -3.097   0.984   1.112  1.00  0.00    -0.273 OA
ATOM      2  N   UNL     1      -4.606   1.999  -0.276  1.00  0.00    -0.343 N 
ATOM      3  C   UNL     1      -3.381   1.910   0.351  1.00  0.00     0.243 C 
ATOM      4  H   UNL     1      -4.799   2.766  -0.907  1.00  0.00     0.164 HD
ENDROOT
BRANCH   2   5
ATOM      5  C   UNL     1      -5.670   1.050   0.035  1.00  0.00     0.171 C 
ATOM      6  C   UNL     1      -8.430   0.842  -0.828  1.00  0.00     0.214 C 
ATOM      7  N   UNL     1      -8.113   1.591   0.366  1.00  0.00    -0.303 N 
ATOM      8  C   UNL     1      -7.464  -0.303  -1.093  1.00  0.00     0.057 C 
ATOM      9  C   UNL     1      -6.812   1.773   0.806  1.00  0.00     0.247 C 
ATOM     10  C   UNL     1      -6.052   0.232  -1.197  1.00  0.00     0.040 C 
ATOM     11  O   UNL     1      -6.542   2.488   1.780  1.00  0.00    -0.272 OA
BRANCH   6  12
ATOM     12  O   UNL     1      -8.437   1.742  -1.912  1.00  0.00    -0.373 OA
ATOM     13  H   UNL     1      -8.543   1.208  -2.728  1.00  0.00     0.213 HD
ENDBRANCH   6  12
BRANCH   7  14
ATOM     14  C   UNL     1      -9.231   2.292   1.033  1.00  0.00     0.177 C 
BRANCH  14  15
ATOM     15  C   UNL     1      -9.530   3.706   0.501  1.00  0.00     0.038 C 
BRANCH  15  16
ATOM     16  C   UNL     1     -10.828   3.961  -0.296  1.00  0.00    -0.015 C 
ATOM     17  C   UNL     1     -10.560   4.234  -1.779  1.00  0.00     0.007 C 
ATOM     18  C   UNL     1     -11.567   5.171   0.289  1.00  0.00     0.007 C 
ENDBRANCH  15  16
ENDBRANCH  14  15
BRANCH  14  19
ATOM     19  C   UNL     1     -10.306   1.260   1.520  1.00  0.00     0.245 C 
ATOM     20  O   UNL     1      -9.910   0.104   1.746  1.00  0.00    -0.272 OA
BRANCH  19  21
ATOM     21  N   UNL     1     -11.659   1.536   1.600  1.00  0.00    -0.332 N 
ATOM     22  C   UNL     1     -12.293   2.362   2.612  1.00  0.00     0.147 C 
BRANCH  21  23
ATOM     23  C   UNL     1     -12.554   0.932   0.574  1.00  0.00     0.178 C 
BRANCH  23  24
ATOM     24  C   UNL     1     -11.869   0.605  -0.768  1.00  0.00     0.070 C 
BRANCH  24  25
ATOM     25  C   UNL     1     -12.757   0.148  -1.902  1.00  0.00    -0.045 A 
ATOM     26  C   UNL     1     -13.518   1.069  -2.634  1.00  0.00     0.004 A 
ATOM     27  C   UNL     1     -12.837  -1.213  -2.234  1.00  0.00     0.004 A 
ATOM     28  C   UNL     1     -14.350   0.636  -3.668  1.00  0.00     0.000 A 
ATOM     29  C   UNL     1     -13.668  -1.643  -3.269  1.00  0.00     0.000 A 
ATOM     30  C   UNL     1     -14.426  -0.718  -3.984  1.00  0.00     0.000 A 
ENDBRANCH  24  25
ENDBRANCH  23  24
BRANCH  23  31
ATOM     31  C   UNL     1     -13.448  -0.196   1.141  1.00  0.00     0.243 C 
ATOM     32  O   UNL     1     -13.024  -1.145   1.796  1.00  0.00    -0.273 OA
ATOM     33  N   UNL     1     -14.756  -0.146   0.689  1.00  0.00    -0.341 N 
ATOM     34  H   UNL     1     -15.049   0.667   0.142  1.00  0.00     0.164 HD
BRANCH  33  35
ATOM     35  C   UNL     1     -15.748  -1.178   1.000  1.00  0.00     0.194 C 
BRANCH  35  36
ATOM     36  C   UNL     1     -16.380  -1.850  -0.252  1.00  0.00     0.017 C 
ATOM     37  C   UNL     1     -16.891  -0.798  -1.252  1.00  0.00     0.010 C 
ATOM     38  C   UNL     1     -17.558  -2.772   0.087  1.00  0.00     0.010 C 
ENDBRANCH  35  36
BRANCH  35  39
ATOM     39  C   UNL     1     -16.830  -0.685   2.002  1.00  0.00     0.329 C 
ATOM     40  O   UNL     1     -17.545   0.292   1.813  1.00  0.00    -0.250 OA
BRANCH  39  41
ATOM     41  O   UNL     1     -16.955  -1.514   3.082  1.00  0.00    -0.458 OA
BRANCH  41  42
ATOM     42  C   UNL     1     -18.201  -1.429   3.814  1.00  0.00     0.205 CG0
ATOM     43  C   UNL     1     -19.016  -2.675   3.472  1.00  0.00     0.056 C 
ATOM     44  G   UNL     1     -18.920  -0.125   3.412  1.00  0.00     0.000 G0
ENDBRANCH  41  42
ENDBRANCH  39  41
ENDBRANCH  35  39
ENDBRANCH  33  35
ENDBRANCH  23  31
ENDBRANCH  21  23
ENDBRANCH  19  21
ENDBRANCH  14  19
ENDBRANCH   7  14
ENDBRANCH   2   5
BRANCH   3  45
ATOM     45  C   UNL     1      -2.390   3.032   0.018  1.00  0.00     0.171 C 
BRANCH  45  46
ATOM     46  N   UNL     1      -1.140   2.365  -0.324  1.00  0.00    -0.342 N 
ATOM     47  C   UNL     1      -0.775   2.105  -1.621  1.00  0.00     0.247 C 
ATOM     48  O   UNL     1      -1.437   2.480  -2.590  1.00  0.00    -0.273 OA
ATOM     49  H   UNL     1      -0.535   2.087   0.446  1.00  0.00     0.164 HD
BRANCH  47  50
ATOM     50  C   UNL     1       0.512   1.285  -1.782  1.00  0.00     0.212 CG0
ATOM     51  G   UNL     1       1.549   2.176  -2.495  1.00  0.00     0.000 G0
BRANCH  50  52
ATOM     52  N   UNL     1       0.908   0.910  -0.427  1.00  0.00    -0.339 N 
ATOM     53  C   UNL     1       1.422  -0.322  -0.103  1.00  0.00     0.243 C 
ATOM     54  O   UNL     1       1.539  -1.227  -0.925  1.00  0.00    -0.273 OA
ATOM     55  H   UNL     1       0.731   1.580   0.319  1.00  0.00     0.164 HD
BRANCH  53  56
ATOM     56  C   UNL     1       1.684  -0.515   1.404  1.00  0.00     0.182 C 
BRANCH  56  57
ATOM     57  N   UNL     1       0.475  -0.246   2.188  1.00  0.00    -0.344 N 
ATOM     58  C   UNL     1      -0.169  -1.224   2.907  1.00  0.00     0.220 C 
ATOM     59  O   UNL     1       0.177  -2.400   2.885  1.00  0.00    -0.275 OA
ATOM     60  H   UNL     1       0.215   0.728   2.314  1.00  0.00     0.164 HD
BRANCH  58  61
ATOM     61  C   UNL     1      -1.363  -0.708   3.689  1.00  0.00     0.100 C 
BRANCH  61  62
ATOM     62  C   UNL     1      -0.995   0.284   4.792  1.00  0.00     0.010 C 
BRANCH  62  63
ATOM     63  C   UNL     1       0.038  -0.247   5.794  1.00  0.00     0.000 C 
BRANCH  63  64
ATOM     64  C   UNL     1       0.259   0.657   7.006  1.00  0.00    -0.003 C 
ATOM     65  C   UNL     1       0.329   2.122   6.600  1.00  0.00     0.004 C 
ENDBRANCH  63  64
ENDBRANCH  62  63
ENDBRANCH  61  62
ENDBRANCH  58  61
ENDBRANCH  56  57
BRANCH  56  66
ATOM     66  C   UNL     1       2.875   0.317   1.877  1.00  0.00     0.157 C 
BRANCH  66  67
ATOM     67  C   UNL     1       2.423   1.528   2.641  1.00  0.00     0.305 C 
ATOM     68  O   UNL     1       2.517   1.711   3.845  1.00  0.00    -0.252 OA
BRANCH  67  69
ATOM     69  O   UNL     1       1.915   2.481   1.837  1.00  0.00    -0.481 OA
ATOM     70  H   UNL     1       1.015   2.651   2.188  1.00  0.00     0.296 HD
ENDBRANCH  67  69
ENDBRANCH  66  67
ENDBRANCH  56  66
ENDBRANCH  53  56
ENDBRANCH  50  52
ENDBRANCH  47  50
ENDBRANCH  45  46
BRANCH  45  71
ATOM     71  C   UNL     1      -2.220   3.969   1.219  1.00  0.00     0.037 C 
BRANCH  71  72
ATOM     72  C   UNL     1      -3.566   4.417   1.794  1.00  0.00     0.026 C 
BRANCH  72  73
ATOM     73  C   UNL     1      -3.583   4.323   3.318  1.00  0.00     0.146 C 
BRANCH  73  74
ATOM     74  N   UNL     1      -4.885   4.795   3.781  1.00  0.00    -0.254 NA
ATOM     75  C   UNL     1      -5.154   4.680   5.029  1.00  0.00     0.185 C 
ATOM     76  N   UNL     1      -6.344   5.106   5.484  1.00  0.00    -0.370 N 
ATOM     77  N   UNL     1      -4.394   4.174   6.015  1.00  0.00    -0.370 N 
ATOM     78  H   UNL     1      -6.981   5.495   4.805  1.00  0.00     0.159 HD
ATOM     79  H   UNL     1      -6.680   4.919   6.413  1.00  0.00     0.159 HD
ATOM     80  H   UNL     1      -3.470   3.819   5.820  1.00  0.00     0.159 HD
ATOM     81  H   UNL     1      -4.667   4.243   6.981  1.00  0.00     0.159 HD
ENDBRANCH  73  74
ENDBRANCH  72  73
ENDBRANCH  71  72
ENDBRANCH  45  71
ENDBRANCH   3  45
TORSDOF 20
ENDMDL
MODEL 18
REMARK VINA RESULT:    -6.001      3.811     14.002
REMARK INTER + INTRA:         -25.193
REMARK INTER:                 -19.561
REMARK INTRA:                  -5.632
REMARK UNBOUND:                -7.967
REMARK SMILES CCCCCC(=O)N[C@H](CC(=O)O)C(=O)N[C@H]1C(=O)N[C@H](CCCN=C(N)N)C(=O)N[C@@H]2CC[C@H](O)N(C2=O)[C@@H](CC(C)C)C(=O)N(C)[C@@H](Cc2ccccc2)C(=O)N[C@H](C(C)C)C(=O)O[C@@H]1C
REMARK SMILES IDX 30 1 31 2 29 3 32 5 35 6 37 7 34 8 38 9 33 10 39 11 36 12
REMARK SMILES IDX 40 14 41 15 42 16 43 17 44 18 45 19 46 20 47 21 48 22 49 23
REMARK SMILES IDX 50 24 51 25 52 26 56 27 53 28 55 29 54 30 57 31 58 32 59 33
REMARK SMILES IDX 60 35 61 36 62 37 63 38 64 39 65 40 66 41 67 42 68 43 21 45
REMARK SMILES IDX 20 46 18 47 19 48 17 50 16 52 14 53 15 54 9 56 8 57 6 58
REMARK SMILES IDX 7 59 5 61 4 62 3 63 2 64 1 65 10 66 11 67 12 68 13 69 22 71
REMARK SMILES IDX 23 72 24 73 25 74 26 75 27 76 28 77
REMARK H PARENT 31 4 36 13 59 34 20 49 16 55 8 60 13 70 27 78 27 79 28 80
REMARK H PARENT 28 81
REMARK Flexibility Score:  259.900
ROOT
ATOM      1  O   UNL     1      -8.014   5.733  -5.924  1.00  0.00    -0.273 OA
ATOM      2  N   UNL     1      -7.686   3.592  -5.192  1.00  0.00    -0.343 N 
ATOM      3  C   UNL     1      -8.482   4.642  -5.597  1.00  0.00     0.243 C 
ATOM      4  H   UNL     1      -8.104   2.704  -4.944  1.00  0.00     0.164 HD
ENDROOT
BRANCH   2   5
ATOM      5  C   UNL     1      -6.249   3.772  -5.019  1.00  0.00     0.171 C 
ATOM      6  C   UNL     1      -4.154   2.026  -4.036  1.00  0.00     0.214 C 
ATOM      7  N   UNL     1      -4.845   2.897  -3.113  1.00  0.00    -0.303 N 
ATOM      8  C   UNL     1      -4.072   2.588  -5.446  1.00  0.00     0.057 C 
ATOM      9  C   UNL     1      -5.888   3.718  -3.507  1.00  0.00     0.247 C 
ATOM     10  C   UNL     1      -5.465   2.867  -5.968  1.00  0.00     0.040 C 
ATOM     11  O   UNL     1      -6.532   4.396  -2.695  1.00  0.00    -0.272 OA
BRANCH   6  12
ATOM     12  O   UNL     1      -4.821   0.785  -4.038  1.00  0.00    -0.373 OA
ATOM     13  H   UNL     1      -5.593   0.873  -3.439  1.00  0.00     0.213 HD
ENDBRANCH   6  12
BRANCH   7  14
ATOM     14  C   UNL     1      -4.492   2.773  -1.683  1.00  0.00     0.177 C 
BRANCH  14  15
ATOM     15  C   UNL     1      -4.943   1.464  -1.006  1.00  0.00     0.038 C 
BRANCH  15  16
ATOM     16  C   UNL     1      -6.381   1.349  -0.455  1.00  0.00    -0.015 C 
ATOM     17  C   UNL     1      -6.454   0.495   0.814  1.00  0.00     0.007 C 
ATOM     18  C   UNL     1      -7.293   0.714  -1.513  1.00  0.00     0.007 C 
ENDBRANCH  15  16
ENDBRANCH  14  15
BRANCH  14  19
ATOM     19  C   UNL     1      -3.153   3.533  -1.385  1.00  0.00     0.245 C 
ATOM     20  O   UNL     1      -3.036   4.670  -1.872  1.00  0.00    -0.272 OA
BRANCH  19  21
ATOM     21  N   UNL     1      -2.078   2.970  -0.721  1.00  0.00    -0.332 N 
ATOM     22  C   UNL     1      -1.076   2.106  -1.319  1.00  0.00     0.147 C 
BRANCH  21  23
ATOM     23  C   UNL     1      -1.930   3.258   0.733  1.00  0.00     0.178 C 
BRANCH  23  24
ATOM     24  C   UNL     1      -2.598   4.567   1.203  1.00  0.00     0.070 C 
BRANCH  24  25
ATOM     25  C   UNL     1      -3.802   4.440   2.107  1.00  0.00    -0.045 A 
ATOM     26  C   UNL     1      -3.710   4.742   3.471  1.00  0.00     0.004 A 
ATOM     27  C   UNL     1      -5.033   4.009   1.589  1.00  0.00     0.004 A 
ATOM     28  C   UNL     1      -4.823   4.605   4.303  1.00  0.00     0.000 A 
ATOM     29  C   UNL     1      -6.145   3.874   2.422  1.00  0.00     0.000 A 
ATOM     30  C   UNL     1      -6.038   4.169   3.779  1.00  0.00     0.000 A 
ENDBRANCH  24  25
ENDBRANCH  23  24
BRANCH  23  31
ATOM     31  C   UNL     1      -2.214   2.026   1.624  1.00  0.00     0.243 C 
ATOM     32  O   UNL     1      -3.038   1.156   1.352  1.00  0.00    -0.273 OA
ATOM     33  N   UNL     1      -1.587   2.080   2.858  1.00  0.00    -0.341 N 
ATOM     34  H   UNL     1      -0.916   2.832   3.028  1.00  0.00     0.164 HD
BRANCH  33  35
ATOM     35  C   UNL     1      -1.805   1.082   3.909  1.00  0.00     0.194 C 
BRANCH  35  36
ATOM     36  C   UNL     1      -2.920   1.462   4.924  1.00  0.00     0.017 C 
ATOM     37  C   UNL     1      -2.618   0.897   6.323  1.00  0.00     0.010 C 
ATOM     38  C   UNL     1      -4.308   0.957   4.515  1.00  0.00     0.010 C 
ENDBRANCH  35  36
BRANCH  35  39
ATOM     39  C   UNL     1      -0.488   0.667   4.621  1.00  0.00     0.329 C 
ATOM     40  O   UNL     1      -0.187  -0.491   4.888  1.00  0.00    -0.250 OA
BRANCH  39  41
ATOM     41  O   UNL     1       0.342   1.731   4.841  1.00  0.00    -0.458 OA
BRANCH  41  42
ATOM     42  C   UNL     1       1.141   1.682   6.047  1.00  0.00     0.205 CG0
ATOM     43  C   UNL     1       0.530   2.671   7.038  1.00  0.00     0.056 C 
ATOM     44  G   UNL     1       2.598   2.034   5.686  1.00  0.00     0.000 G0
ENDBRANCH  41  42
ENDBRANCH  39  41
ENDBRANCH  35  39
ENDBRANCH  33  35
ENDBRANCH  23  31
ENDBRANCH  21  23
ENDBRANCH  19  21
ENDBRANCH  14  19
ENDBRANCH   7  14
ENDBRANCH   2   5
BRANCH   3  45
ATOM     45  C   UNL     1      -9.988   4.350  -5.632  1.00  0.00     0.171 C 
BRANCH  45  46
ATOM     46  N   UNL     1     -10.442   4.783  -6.947  1.00  0.00    -0.342 N 
ATOM     47  C   UNL     1     -10.406   3.962  -8.046  1.00  0.00     0.247 C 
ATOM     48  O   UNL     1     -10.058   2.782  -7.987  1.00  0.00    -0.273 OA
ATOM     49  H   UNL     1     -10.791   5.736  -7.029  1.00  0.00     0.164 HD
BRANCH  47  50
ATOM     50  C   UNL     1     -10.806   4.628  -9.369  1.00  0.00     0.212 CG0
ATOM     51  G   UNL     1     -11.089   3.508 -10.390  1.00  0.00     0.000 G0
BRANCH  50  52
ATOM     52  N   UNL     1     -11.982   5.436  -9.058  1.00  0.00    -0.339 N 
ATOM     53  C   UNL     1     -12.894   5.839 -10.004  1.00  0.00     0.243 C 
ATOM     54  O   UNL     1     -12.761   5.593 -11.199  1.00  0.00    -0.273 OA
ATOM     55  H   UNL     1     -12.090   5.766  -8.101  1.00  0.00     0.164 HD
BRANCH  53  56
ATOM     56  C   UNL     1     -14.005   6.756  -9.453  1.00  0.00     0.182 C 
BRANCH  56  57
ATOM     57  N   UNL     1     -13.438   7.972  -8.861  1.00  0.00    -0.344 N 
ATOM     58  C   UNL     1     -13.281   9.134  -9.576  1.00  0.00     0.220 C 
ATOM     59  O   UNL     1     -13.534   9.216 -10.774  1.00  0.00    -0.275 OA
ATOM     60  H   UNL     1     -13.312   7.977  -7.853  1.00  0.00     0.164 HD
BRANCH  58  61
ATOM     61  C   UNL     1     -12.731  10.281  -8.748  1.00  0.00     0.100 C 
BRANCH  61  62
ATOM     62  C   UNL     1     -12.829  11.642  -9.437  1.00  0.00     0.010 C 
BRANCH  62  63
ATOM     63  C   UNL     1     -13.356  12.765  -8.535  1.00  0.00     0.000 C 
BRANCH  63  64
ATOM     64  C   UNL     1     -14.022  13.915  -9.289  1.00  0.00    -0.003 C 
ATOM     65  C   UNL     1     -15.004  13.400 -10.331  1.00  0.00     0.004 C 
ENDBRANCH  63  64
ENDBRANCH  62  63
ENDBRANCH  61  62
ENDBRANCH  58  61
ENDBRANCH  56  57
BRANCH  56  66
ATOM     66  C   UNL     1     -14.915   6.011  -8.479  1.00  0.00     0.157 C 
BRANCH  66  67
ATOM     67  C   UNL     1     -14.660   6.437  -7.062  1.00  0.00     0.305 C 
ATOM     68  O   UNL     1     -15.462   6.948  -6.295  1.00  0.00    -0.252 OA
BRANCH  67  69
ATOM     69  O   UNL     1     -13.409   6.149  -6.658  1.00  0.00    -0.481 OA
ATOM     70  H   UNL     1     -12.915   6.991  -6.751  1.00  0.00     0.296 HD
ENDBRANCH  67  69
ENDBRANCH  66  67
ENDBRANCH  56  66
ENDBRANCH  53  56
ENDBRANCH  50  52
ENDBRANCH  47  50
ENDBRANCH  45  46
BRANCH  45  71
ATOM     71  C   UNL     1     -10.705   5.107  -4.509  1.00  0.00     0.037 C 
BRANCH  71  72
ATOM     72  C   UNL     1     -11.784   4.254  -3.838  1.00  0.00     0.026 C 
BRANCH  72  73
ATOM     73  C   UNL     1     -11.287   3.654  -2.524  1.00  0.00     0.146 C 
BRANCH  73  74
ATOM     74  N   UNL     1     -11.942   4.366  -1.431  1.00  0.00    -0.254 NA
ATOM     75  C   UNL     1     -11.213   4.767  -0.456  1.00  0.00     0.185 C 
ATOM     76  N   UNL     1     -11.787   5.426   0.564  1.00  0.00    -0.370 N 
ATOM     77  N   UNL     1      -9.888   4.626  -0.277  1.00  0.00    -0.370 N 
ATOM     78  H   UNL     1     -12.785   5.569   0.513  1.00  0.00     0.159 HD
ATOM     79  H   UNL     1     -11.311   5.641   1.422  1.00  0.00     0.159 HD
ATOM     80  H   UNL     1      -9.325   4.153  -0.967  1.00  0.00     0.159 HD
ATOM     81  H   UNL     1      -9.405   5.085   0.477  1.00  0.00     0.159 HD
ENDBRANCH  73  74
ENDBRANCH  72  73
ENDBRANCH  71  72
ENDBRANCH  45  71
ENDBRANCH   3  45
TORSDOF 20
ENDMDL
MODEL 19
REMARK VINA RESULT:    -5.978      3.414      6.989
REMARK INTER + INTRA:         -25.128
REMARK INTER:                 -19.128
REMARK INTRA:                  -6.000
REMARK UNBOUND:                -7.967
REMARK SMILES CCCCCC(=O)N[C@H](CC(=O)O)C(=O)N[C@H]1C(=O)N[C@H](CCCN=C(N)N)C(=O)N[C@@H]2CC[C@H](O)N(C2=O)[C@@H](CC(C)C)C(=O)N(C)[C@@H](Cc2ccccc2)C(=O)N[C@H](C(C)C)C(=O)O[C@@H]1C
REMARK SMILES IDX 30 1 31 2 29 3 32 5 35 6 37 7 34 8 38 9 33 10 39 11 36 12
REMARK SMILES IDX 40 14 41 15 42 16 43 17 44 18 45 19 46 20 47 21 48 22 49 23
REMARK SMILES IDX 50 24 51 25 52 26 56 27 53 28 55 29 54 30 57 31 58 32 59 33
REMARK SMILES IDX 60 35 61 36 62 37 63 38 64 39 65 40 66 41 67 42 68 43 21 45
REMARK SMILES IDX 20 46 18 47 19 48 17 50 16 52 14 53 15 54 9 56 8 57 6 58
REMARK SMILES IDX 7 59 5 61 4 62 3 63 2 64 1 65 10 66 11 67 12 68 13 69 22 71
REMARK SMILES IDX 23 72 24 73 25 74 26 75 27 76 28 77
REMARK H PARENT 31 4 36 13 59 34 20 49 16 55 8 60 13 70 27 78 27 79 28 80
REMARK H PARENT 28 81
REMARK Flexibility Score:  259.900
ROOT
ATOM      1  O   UNL     1      -1.920   3.747   1.522  1.00  0.00    -0.273 OA
ATOM      2  N   UNL     1      -2.682   2.239  -0.019  1.00  0.00    -0.343 N 
ATOM      3  C   UNL     1      -1.715   3.059   0.522  1.00  0.00     0.243 C 
ATOM      4  H   UNL     1      -2.473   1.676  -0.834  1.00  0.00     0.164 HD
ENDROOT
BRANCH   2   5
ATOM      5  C   UNL     1      -4.041   2.245   0.511  1.00  0.00     0.171 C 
ATOM      6  C   UNL     1      -6.476   0.904  -0.313  1.00  0.00     0.214 C 
ATOM      7  N   UNL     1      -6.177   2.217  -0.835  1.00  0.00    -0.303 N 
ATOM      8  C   UNL     1      -5.916   0.669   1.081  1.00  0.00     0.057 C 
ATOM      9  C   UNL     1      -5.008   2.891  -0.523  1.00  0.00     0.247 C 
ATOM     10  C   UNL     1      -4.417   0.874   1.072  1.00  0.00     0.040 C 
ATOM     11  O   UNL     1      -4.718   3.977  -1.042  1.00  0.00    -0.272 OA
BRANCH   6  12
ATOM     12  O   UNL     1      -5.962  -0.047  -1.217  1.00  0.00    -0.373 OA
ATOM     13  H   UNL     1      -5.107  -0.358  -0.851  1.00  0.00     0.213 HD
ENDBRANCH   6  12
BRANCH   7  14
ATOM     14  C   UNL     1      -7.106   2.764  -1.846  1.00  0.00     0.177 C 
BRANCH  14  15
ATOM     15  C   UNL     1      -6.918   2.219  -3.275  1.00  0.00     0.038 C 
BRANCH  15  16
ATOM     16  C   UNL     1      -7.453   3.030  -4.475  1.00  0.00    -0.015 C 
ATOM     17  C   UNL     1      -7.262   2.298  -5.807  1.00  0.00     0.007 C 
ATOM     18  C   UNL     1      -6.723   4.377  -4.559  1.00  0.00     0.007 C 
ENDBRANCH  15  16
ENDBRANCH  14  15
BRANCH  14  19
ATOM     19  C   UNL     1      -8.483   3.116  -1.184  1.00  0.00     0.245 C 
ATOM     20  O   UNL     1      -8.456   3.894  -0.216  1.00  0.00    -0.272 OA
BRANCH  19  21
ATOM     21  N   UNL     1      -9.684   2.529  -1.543  1.00  0.00    -0.332 N 
ATOM     22  C   UNL     1     -10.106   1.187  -1.183  1.00  0.00     0.147 C 
BRANCH  21  23
ATOM     23  C   UNL     1     -10.626   3.325  -2.377  1.00  0.00     0.178 C 
BRANCH  23  24
ATOM     24  C   UNL     1     -11.400   2.510  -3.433  1.00  0.00     0.070 C 
BRANCH  24  25
ATOM     25  C   UNL     1     -11.080   2.785  -4.884  1.00  0.00    -0.045 A 
ATOM     26  C   UNL     1     -11.023   1.742  -5.816  1.00  0.00     0.004 A 
ATOM     27  C   UNL     1     -10.830   4.096  -5.317  1.00  0.00     0.004 A 
ATOM     28  C   UNL     1     -10.710   2.002  -7.152  1.00  0.00     0.000 A 
ATOM     29  C   UNL     1     -10.519   4.355  -6.653  1.00  0.00     0.000 A 
ATOM     30  C   UNL     1     -10.456   3.307  -7.569  1.00  0.00     0.000 A 
ENDBRANCH  24  25
ENDBRANCH  23  24
BRANCH  23  31
ATOM     31  C   UNL     1     -11.491   4.302  -1.545  1.00  0.00     0.243 C 
ATOM     32  O   UNL     1     -11.209   5.483  -1.360  1.00  0.00    -0.273 OA
ATOM     33  N   UNL     1     -12.526   3.682  -0.865  1.00  0.00    -0.341 N 
ATOM     34  H   UNL     1     -12.709   2.694  -1.056  1.00  0.00     0.164 HD
BRANCH  33  35
ATOM     35  C   UNL     1     -13.400   4.389   0.075  1.00  0.00     0.194 C 
BRANCH  35  36
ATOM     36  C   UNL     1     -12.935   4.309   1.557  1.00  0.00     0.017 C 
ATOM     37  C   UNL     1     -12.280   2.952   1.865  1.00  0.00     0.010 C 
ATOM     38  C   UNL     1     -14.079   4.506   2.560  1.00  0.00     0.010 C 
ENDBRANCH  35  36
BRANCH  35  39
ATOM     39  C   UNL     1     -14.895   3.994  -0.086  1.00  0.00     0.329 C 
ATOM     40  O   UNL     1     -15.318   2.849   0.025  1.00  0.00    -0.250 OA
BRANCH  39  41
ATOM     41  O   UNL     1     -15.702   5.081  -0.280  1.00  0.00    -0.458 OA
BRANCH  41  42
ATOM     42  C   UNL     1     -17.033   4.810  -0.781  1.00  0.00     0.205 CG0
ATOM     43  C   UNL     1     -16.995   5.001  -2.296  1.00  0.00     0.056 C 
ATOM     44  G   UNL     1     -18.023   5.769  -0.091  1.00  0.00     0.000 G0
ENDBRANCH  41  42
ENDBRANCH  39  41
ENDBRANCH  35  39
ENDBRANCH  33  35
ENDBRANCH  23  31
ENDBRANCH  21  23
ENDBRANCH  19  21
ENDBRANCH  14  19
ENDBRANCH   7  14
ENDBRANCH   2   5
BRANCH   3  45
ATOM     45  C   UNL     1      -0.359   3.038  -0.196  1.00  0.00     0.171 C 
BRANCH  45  46
ATOM     46  N   UNL     1       0.629   2.756   0.836  1.00  0.00    -0.342 N 
ATOM     47  C   UNL     1       1.102   1.491   1.076  1.00  0.00     0.247 C 
ATOM     48  O   UNL     1       0.784   0.517   0.393  1.00  0.00    -0.273 OA
ATOM     49  H   UNL     1       0.963   3.544   1.389  1.00  0.00     0.164 HD
BRANCH  47  50
ATOM     50  C   UNL     1       2.043   1.367   2.283  1.00  0.00     0.212 CG0
ATOM     51  G   UNL     1       2.999   2.576   2.257  1.00  0.00     0.000 G0
BRANCH  50  52
ATOM     52  N   UNL     1       1.173   1.344   3.455  1.00  0.00    -0.339 N 
ATOM     53  C   UNL     1       0.791   0.188   4.091  1.00  0.00     0.243 C 
ATOM     54  O   UNL     1       1.113  -0.927   3.688  1.00  0.00    -0.273 OA
ATOM     55  H   UNL     1       0.782   2.229   3.771  1.00  0.00     0.164 HD
BRANCH  53  56
ATOM     56  C   UNL     1      -0.200   0.407   5.252  1.00  0.00     0.182 C 
BRANCH  56  57
ATOM     57  N   UNL     1       0.422   1.172   6.338  1.00  0.00    -0.344 N 
ATOM     58  C   UNL     1      -0.197   2.245   6.930  1.00  0.00     0.220 C 
ATOM     59  O   UNL     1      -1.275   2.684   6.546  1.00  0.00    -0.275 OA
ATOM     60  H   UNL     1       1.264   0.781   6.752  1.00  0.00     0.164 HD
BRANCH  58  61
ATOM     61  C   UNL     1       0.604   2.847   8.070  1.00  0.00     0.100 C 
BRANCH  61  62
ATOM     62  C   UNL     1       1.134   4.251   7.777  1.00  0.00     0.010 C 
BRANCH  62  63
ATOM     63  C   UNL     1       0.095   5.365   7.960  1.00  0.00     0.000 C 
BRANCH  63  64
ATOM     64  C   UNL     1       0.453   6.385   9.039  1.00  0.00    -0.003 C 
ATOM     65  C   UNL     1      -0.764   7.195   9.464  1.00  0.00     0.004 C 
ENDBRANCH  63  64
ENDBRANCH  62  63
ENDBRANCH  61  62
ENDBRANCH  58  61
ENDBRANCH  56  57
BRANCH  56  66
ATOM     66  C   UNL     1      -0.791  -0.914   5.741  1.00  0.00     0.157 C 
BRANCH  66  67
ATOM     67  C   UNL     1      -2.259  -0.779   6.028  1.00  0.00     0.305 C 
ATOM     68  O   UNL     1      -3.177  -1.302   5.414  1.00  0.00    -0.252 OA
BRANCH  67  69
ATOM     69  O   UNL     1      -2.500  -0.027   7.119  1.00  0.00    -0.481 OA
ATOM     70  H   UNL     1      -1.749  -0.212   7.721  1.00  0.00     0.296 HD
ENDBRANCH  67  69
ENDBRANCH  66  67
ENDBRANCH  56  66
ENDBRANCH  53  56
ENDBRANCH  50  52
ENDBRANCH  47  50
ENDBRANCH  45  46
BRANCH  45  71
ATOM     71  C   UNL     1      -0.096   4.385  -0.878  1.00  0.00     0.037 C 
BRANCH  71  72
ATOM     72  C   UNL     1      -0.436   4.351  -2.371  1.00  0.00     0.026 C 
BRANCH  72  73
ATOM     73  C   UNL     1      -1.781   5.017  -2.654  1.00  0.00     0.146 C 
BRANCH  73  74
ATOM     74  N   UNL     1      -2.037   4.914  -4.087  1.00  0.00    -0.254 NA
ATOM     75  C   UNL     1      -2.824   3.984  -4.490  1.00  0.00     0.185 C 
ATOM     76  N   UNL     1      -3.080   3.864  -5.802  1.00  0.00    -0.370 N 
ATOM     77  N   UNL     1      -3.472   3.055  -3.767  1.00  0.00    -0.370 N 
ATOM     78  H   UNL     1      -2.625   4.522  -6.419  1.00  0.00     0.159 HD
ATOM     79  H   UNL     1      -3.565   3.080  -6.202  1.00  0.00     0.159 HD
ATOM     80  H   UNL     1      -3.377   3.026  -2.763  1.00  0.00     0.159 HD
ATOM     81  H   UNL     1      -4.157   2.445  -4.183  1.00  0.00     0.159 HD
ENDBRANCH  73  74
ENDBRANCH  72  73
ENDBRANCH  71  72
ENDBRANCH  45  71
ENDBRANCH   3  45
TORSDOF 20
ENDMDL
MODEL 20
REMARK VINA RESULT:    -5.974      4.207      7.299
REMARK INTER + INTRA:         -25.117
REMARK INTER:                 -17.688
REMARK INTRA:                  -7.429
REMARK UNBOUND:                -7.967
REMARK SMILES CCCCCC(=O)N[C@H](CC(=O)O)C(=O)N[C@H]1C(=O)N[C@H](CCCN=C(N)N)C(=O)N[C@@H]2CC[C@H](O)N(C2=O)[C@@H](CC(C)C)C(=O)N(C)[C@@H](Cc2ccccc2)C(=O)N[C@H](C(C)C)C(=O)O[C@@H]1C
REMARK SMILES IDX 30 1 31 2 29 3 32 5 35 6 37 7 34 8 38 9 33 10 39 11 36 12
REMARK SMILES IDX 40 14 41 15 42 16 43 17 44 18 45 19 46 20 47 21 48 22 49 23
REMARK SMILES IDX 50 24 51 25 52 26 56 27 53 28 55 29 54 30 57 31 58 32 59 33
REMARK SMILES IDX 60 35 61 36 62 37 63 38 64 39 65 40 66 41 67 42 68 43 21 45
REMARK SMILES IDX 20 46 18 47 19 48 17 50 16 52 14 53 15 54 9 56 8 57 6 58
REMARK SMILES IDX 7 59 5 61 4 62 3 63 2 64 1 65 10 66 11 67 12 68 13 69 22 71
REMARK SMILES IDX 23 72 24 73 25 74 26 75 27 76 28 77
REMARK H PARENT 31 4 36 13 59 34 20 49 16 55 8 60 13 70 27 78 27 79 28 80
REMARK H PARENT 28 81
REMARK Flexibility Score:  259.900
ROOT
ATOM      1  O   UNL     1      -3.256   1.357  -0.058  1.00  0.00    -0.273 OA
ATOM      2  N   UNL     1      -4.520   2.769   1.223  1.00  0.00    -0.343 N 
ATOM      3  C   UNL     1      -3.371   2.060   0.947  1.00  0.00     0.243 C 
ATOM      4  H   UNL     1      -4.573   3.349   2.051  1.00  0.00     0.164 HD
ENDROOT
BRANCH   2   5
ATOM      5  C   UNL     1      -5.705   2.619   0.385  1.00  0.00     0.171 C 
ATOM      6  C   UNL     1      -8.435   3.554   0.657  1.00  0.00     0.214 C 
ATOM      7  N   UNL     1      -8.072   2.259   1.184  1.00  0.00    -0.303 N 
ATOM      8  C   UNL     1      -7.611   3.965  -0.552  1.00  0.00     0.057 C 
ATOM      9  C   UNL     1      -6.775   1.773   1.132  1.00  0.00     0.247 C 
ATOM     10  C   UNL     1      -6.140   3.963  -0.195  1.00  0.00     0.040 C 
ATOM     11  O   UNL     1      -6.455   0.701   1.662  1.00  0.00    -0.272 OA
BRANCH   6  12
ATOM     12  O   UNL     1      -8.290   4.496   1.695  1.00  0.00    -0.373 OA
ATOM     13  H   UNL     1      -9.106   5.040   1.705  1.00  0.00     0.213 HD
ENDBRANCH   6  12
BRANCH   7  14
ATOM     14  C   UNL     1      -9.117   1.518   1.921  1.00  0.00     0.177 C 
BRANCH  14  15
ATOM     15  C   UNL     1      -9.160   1.779   3.439  1.00  0.00     0.038 C 
BRANCH  15  16
ATOM     16  C   UNL     1      -8.911   0.611   4.419  1.00  0.00    -0.015 C 
ATOM     17  C   UNL     1     -10.086  -0.370   4.469  1.00  0.00     0.007 C 
ATOM     18  C   UNL     1      -8.684   1.161   5.833  1.00  0.00     0.007 C 
ENDBRANCH  15  16
ENDBRANCH  14  15
BRANCH  14  19
ATOM     19  C   UNL     1     -10.369   1.287   1.005  1.00  0.00     0.245 C 
ATOM     20  O   UNL     1     -10.177   0.678  -0.061  1.00  0.00    -0.272 OA
BRANCH  19  21
ATOM     21  N   UNL     1     -11.621   1.814   1.264  1.00  0.00    -0.332 N 
ATOM     22  C   UNL     1     -12.142   3.055   0.721  1.00  0.00     0.147 C 
BRANCH  21  23
ATOM     23  C   UNL     1     -12.517   1.060   2.185  1.00  0.00     0.178 C 
BRANCH  23  24
ATOM     24  C   UNL     1     -13.368   1.940   3.122  1.00  0.00     0.070 C 
BRANCH  24  25
ATOM     25  C   UNL     1     -12.736   2.369   4.426  1.00  0.00    -0.045 A 
ATOM     26  C   UNL     1     -12.856   1.579   5.576  1.00  0.00     0.004 A 
ATOM     27  C   UNL     1     -12.020   3.574   4.502  1.00  0.00     0.004 A 
ATOM     28  C   UNL     1     -12.283   1.992   6.781  1.00  0.00     0.000 A 
ATOM     29  C   UNL     1     -11.447   3.984   5.707  1.00  0.00     0.000 A 
ATOM     30  C   UNL     1     -11.582   3.193   6.846  1.00  0.00     0.000 A 
ENDBRANCH  24  25
ENDBRANCH  23  24
BRANCH  23  31
ATOM     31  C   UNL     1     -13.292  -0.077   1.476  1.00  0.00     0.243 C 
ATOM     32  O   UNL     1     -13.174  -1.267   1.757  1.00  0.00    -0.273 OA
ATOM     33  N   UNL     1     -13.999   0.346   0.364  1.00  0.00    -0.341 N 
ATOM     34  H   UNL     1     -14.057   1.350   0.178  1.00  0.00     0.164 HD
BRANCH  33  35
ATOM     35  C   UNL     1     -14.710  -0.574  -0.528  1.00  0.00     0.194 C 
BRANCH  35  36
ATOM     36  C   UNL     1     -14.145  -0.619  -1.976  1.00  0.00     0.017 C 
ATOM     37  C   UNL     1     -13.630  -2.024  -2.332  1.00  0.00     0.010 C 
ATOM     38  C   UNL     1     -12.991   0.365  -2.204  1.00  0.00     0.010 C 
ENDBRANCH  35  36
BRANCH  35  39
ATOM     39  C   UNL     1     -16.249  -0.354  -0.512  1.00  0.00     0.329 C 
ATOM     40  O   UNL     1     -16.790   0.681  -0.142  1.00  0.00    -0.250 OA
BRANCH  39  41
ATOM     41  O   UNL     1     -16.931  -1.414  -1.041  1.00  0.00    -0.458 OA
BRANCH  41  42
ATOM     42  C   UNL     1     -18.070  -1.886  -0.282  1.00  0.00     0.205 CG0
ATOM     43  C   UNL     1     -17.629  -3.143   0.465  1.00  0.00     0.056 C 
ATOM     44  G   UNL     1     -19.233  -2.158  -1.257  1.00  0.00     0.000 G0
ENDBRANCH  41  42
ENDBRANCH  39  41
ENDBRANCH  35  39
ENDBRANCH  33  35
ENDBRANCH  23  31
ENDBRANCH  21  23
ENDBRANCH  19  21
ENDBRANCH  14  19
ENDBRANCH   7  14
ENDBRANCH   2   5
BRANCH   3  45
ATOM     45  C   UNL     1      -2.236   2.224   1.967  1.00  0.00     0.171 C 
BRANCH  45  46
ATOM     46  N   UNL     1      -1.033   1.750   1.297  1.00  0.00    -0.342 N 
ATOM     47  C   UNL     1      -0.228   2.578   0.556  1.00  0.00     0.247 C 
ATOM     48  O   UNL     1      -0.421   3.791   0.464  1.00  0.00    -0.273 OA
ATOM     49  H   UNL     1      -0.804   0.762   1.395  1.00  0.00     0.164 HD
BRANCH  47  50
ATOM     50  C   UNL     1       0.925   1.879  -0.178  1.00  0.00     0.212 CG0
ATOM     51  G   UNL     1       2.080   2.892  -0.307  1.00  0.00     0.000 G0
BRANCH  50  52
ATOM     52  N   UNL     1       1.264   0.720   0.644  1.00  0.00    -0.339 N 
ATOM     53  C   UNL     1       2.432   0.616   1.359  1.00  0.00     0.243 C 
ATOM     54  O   UNL     1       3.311   1.472   1.319  1.00  0.00    -0.273 OA
ATOM     55  H   UNL     1       0.625  -0.073   0.630  1.00  0.00     0.164 HD
BRANCH  53  56
ATOM     56  C   UNL     1       2.607  -0.735   2.082  1.00  0.00     0.182 C 
BRANCH  56  57
ATOM     57  N   UNL     1       1.930  -0.729   3.382  1.00  0.00    -0.344 N 
ATOM     58  C   UNL     1       0.579  -0.939   3.510  1.00  0.00     0.220 C 
ATOM     59  O   UNL     1      -0.165  -1.073   2.544  1.00  0.00    -0.275 OA
ATOM     60  H   UNL     1       2.521  -0.723   4.209  1.00  0.00     0.164 HD
BRANCH  58  61
ATOM     61  C   UNL     1       0.105  -0.947   4.951  1.00  0.00     0.100 C 
BRANCH  61  62
ATOM     62  C   UNL     1      -1.241  -1.644   5.153  1.00  0.00     0.010 C 
BRANCH  62  63
ATOM     63  C   UNL     1      -2.074  -1.078   6.310  1.00  0.00     0.000 C 
BRANCH  63  64
ATOM     64  C   UNL     1      -1.455  -1.292   7.691  1.00  0.00    -0.003 C 
ATOM     65  C   UNL     1      -1.210  -2.769   7.966  1.00  0.00     0.004 C 
ENDBRANCH  63  64
ENDBRANCH  62  63
ENDBRANCH  61  62
ENDBRANCH  58  61
ENDBRANCH  56  57
BRANCH  56  66
ATOM     66  C   UNL     1       4.081  -1.120   2.201  1.00  0.00     0.157 C 
BRANCH  66  67
ATOM     67  C   UNL     1       4.238  -2.574   2.539  1.00  0.00     0.305 C 
ATOM     68  O   UNL     1       4.164  -3.518   1.767  1.00  0.00    -0.252 OA
BRANCH  67  69
ATOM     69  O   UNL     1       4.536  -2.769   3.838  1.00  0.00    -0.481 OA
ATOM     70  H   UNL     1       5.198  -3.492   3.837  1.00  0.00     0.296 HD
ENDBRANCH  67  69
ENDBRANCH  66  67
ENDBRANCH  56  66
ENDBRANCH  53  56
ENDBRANCH  50  52
ENDBRANCH  47  50
ENDBRANCH  45  46
BRANCH  45  71
ATOM     71  C   UNL     1      -2.535   1.413   3.233  1.00  0.00     0.037 C 
BRANCH  71  72
ATOM     72  C   UNL     1      -2.317   2.234   4.507  1.00  0.00     0.026 C 
BRANCH  72  73
ATOM     73  C   UNL     1      -3.619   2.417   5.285  1.00  0.00     0.146 C 
BRANCH  73  74
ATOM     74  N   UNL     1      -4.652   2.825   4.338  1.00  0.00    -0.254 NA
ATOM     75  C   UNL     1      -5.444   3.770   4.687  1.00  0.00     0.185 C 
ATOM     76  N   UNL     1      -6.405   4.169   3.837  1.00  0.00    -0.370 N 
ATOM     77  N   UNL     1      -5.471   4.470   5.834  1.00  0.00    -0.370 N 
ATOM     78  H   UNL     1      -6.460   3.687   2.951  1.00  0.00     0.159 HD
ATOM     79  H   UNL     1      -7.146   4.796   4.094  1.00  0.00     0.159 HD
ATOM     80  H   UNL     1      -4.803   4.282   6.567  1.00  0.00     0.159 HD
ATOM     81  H   UNL     1      -6.069   5.272   5.950  1.00  0.00     0.159 HD
ENDBRANCH  73  74
ENDBRANCH  72  73
ENDBRANCH  71  72
ENDBRANCH  45  71
ENDBRANCH   3  45
TORSDOF 20
ENDMDL
MODEL 21
REMARK VINA RESULT:    -5.969      3.545      6.939
REMARK INTER + INTRA:         -25.101
REMARK INTER:                 -17.887
REMARK INTRA:                  -7.215
REMARK UNBOUND:                -7.967
REMARK SMILES CCCCCC(=O)N[C@H](CC(=O)O)C(=O)N[C@H]1C(=O)N[C@H](CCCN=C(N)N)C(=O)N[C@@H]2CC[C@H](O)N(C2=O)[C@@H](CC(C)C)C(=O)N(C)[C@@H](Cc2ccccc2)C(=O)N[C@H](C(C)C)C(=O)O[C@@H]1C
REMARK SMILES IDX 30 1 31 2 29 3 32 5 35 6 37 7 34 8 38 9 33 10 39 11 36 12
REMARK SMILES IDX 40 14 41 15 42 16 43 17 44 18 45 19 46 20 47 21 48 22 49 23
REMARK SMILES IDX 50 24 51 25 52 26 56 27 53 28 55 29 54 30 57 31 58 32 59 33
REMARK SMILES IDX 60 35 61 36 62 37 63 38 64 39 65 40 66 41 67 42 68 43 21 45
REMARK SMILES IDX 20 46 18 47 19 48 17 50 16 52 14 53 15 54 9 56 8 57 6 58
REMARK SMILES IDX 7 59 5 61 4 62 3 63 2 64 1 65 10 66 11 67 12 68 13 69 22 71
REMARK SMILES IDX 23 72 24 73 25 74 26 75 27 76 28 77
REMARK H PARENT 31 4 36 13 59 34 20 49 16 55 8 60 13 70 27 78 27 79 28 80
REMARK H PARENT 28 81
REMARK Flexibility Score:  259.900
ROOT
ATOM      1  O   UNL     1      -7.127   5.863   1.214  1.00  0.00    -0.273 OA
ATOM      2  N   UNL     1      -8.606   4.127   1.397  1.00  0.00    -0.343 N 
ATOM      3  C   UNL     1      -7.423   4.769   1.696  1.00  0.00     0.243 C 
ATOM      4  H   UNL     1      -8.822   3.235   1.825  1.00  0.00     0.164 HD
ENDROOT
BRANCH   2   5
ATOM      5  C   UNL     1      -9.512   4.671   0.392  1.00  0.00     0.171 C 
ATOM      6  C   UNL     1     -12.110   3.823  -0.575  1.00  0.00     0.214 C 
ATOM      7  N   UNL     1     -10.917   3.348  -1.235  1.00  0.00    -0.303 N 
ATOM      8  C   UNL     1     -11.946   5.201   0.047  1.00  0.00     0.057 C 
ATOM      9  C   UNL     1      -9.645   3.673  -0.794  1.00  0.00     0.247 C 
ATOM     10  C   UNL     1     -10.800   5.184   1.035  1.00  0.00     0.040 C 
ATOM     11  O   UNL     1      -8.628   3.193  -1.312  1.00  0.00    -0.272 OA
BRANCH   6  12
ATOM     12  O   UNL     1     -12.463   2.878   0.409  1.00  0.00    -0.373 OA
ATOM     13  H   UNL     1     -12.575   3.368   1.251  1.00  0.00     0.213 HD
ENDBRANCH   6  12
BRANCH   7  14
ATOM     14  C   UNL     1     -11.100   2.369  -2.328  1.00  0.00     0.177 C 
BRANCH  14  15
ATOM     15  C   UNL     1     -11.347   0.917  -1.873  1.00  0.00     0.038 C 
BRANCH  15  16
ATOM     16  C   UNL     1     -10.942  -0.249  -2.801  1.00  0.00    -0.015 C 
ATOM     17  C   UNL     1     -10.161   0.225  -4.030  1.00  0.00     0.007 C 
ATOM     18  C   UNL     1     -12.198  -0.987  -3.285  1.00  0.00     0.007 C 
ENDBRANCH  15  16
ENDBRANCH  14  15
BRANCH  14  19
ATOM     19  C   UNL     1     -11.768   3.057  -3.568  1.00  0.00     0.245 C 
ATOM     20  O   UNL     1     -11.235   4.100  -3.983  1.00  0.00    -0.272 OA
BRANCH  19  21
ATOM     21  N   UNL     1     -12.956   2.635  -4.137  1.00  0.00    -0.332 N 
ATOM     22  C   UNL     1     -14.148   2.242  -3.406  1.00  0.00     0.147 C 
BRANCH  21  23
ATOM     23  C   UNL     1     -13.029   2.562  -5.623  1.00  0.00     0.178 C 
BRANCH  23  24
ATOM     24  C   UNL     1     -13.146   1.134  -6.194  1.00  0.00     0.070 C 
BRANCH  24  25
ATOM     25  C   UNL     1     -12.397   0.842  -7.474  1.00  0.00    -0.045 A 
ATOM     26  C   UNL     1     -13.085   0.503  -8.646  1.00  0.00     0.004 A 
ATOM     27  C   UNL     1     -10.996   0.901  -7.503  1.00  0.00     0.004 A 
ATOM     28  C   UNL     1     -12.385   0.218  -9.820  1.00  0.00     0.000 A 
ATOM     29  C   UNL     1     -10.297   0.616  -8.677  1.00  0.00     0.000 A 
ATOM     30  C   UNL     1     -10.993   0.272  -9.834  1.00  0.00     0.000 A 
ENDBRANCH  24  25
ENDBRANCH  23  24
BRANCH  23  31
ATOM     31  C   UNL     1     -14.014   3.590  -6.230  1.00  0.00     0.243 C 
ATOM     32  O   UNL     1     -13.952   4.800  -6.032  1.00  0.00    -0.273 OA
ATOM     33  N   UNL     1     -15.093   3.008  -6.873  1.00  0.00    -0.341 N 
ATOM     34  H   UNL     1     -15.091   1.993  -7.003  1.00  0.00     0.164 HD
BRANCH  33  35
ATOM     35  C   UNL     1     -16.210   3.783  -7.420  1.00  0.00     0.194 C 
BRANCH  35  36
ATOM     36  C   UNL     1     -17.548   3.599  -6.649  1.00  0.00     0.017 C 
ATOM     37  C   UNL     1     -18.202   4.956  -6.333  1.00  0.00     0.010 C 
ATOM     38  C   UNL     1     -17.382   2.849  -5.322  1.00  0.00     0.010 C 
ENDBRANCH  35  36
BRANCH  35  39
ATOM     39  C   UNL     1     -16.389   3.577  -8.950  1.00  0.00     0.329 C 
ATOM     40  O   UNL     1     -16.215   2.508  -9.523  1.00  0.00    -0.250 OA
BRANCH  39  41
ATOM     41  O   UNL     1     -16.847   4.703  -9.576  1.00  0.00    -0.458 OA
BRANCH  41  42
ATOM     42  C   UNL     1     -17.222   4.555 -10.967  1.00  0.00     0.205 CG0
ATOM     43  C   UNL     1     -16.870   5.862 -11.673  1.00  0.00     0.056 C 
ATOM     44  G   UNL     1     -18.728   4.233 -11.039  1.00  0.00     0.000 G0
ENDBRANCH  41  42
ENDBRANCH  39  41
ENDBRANCH  35  39
ENDBRANCH  33  35
ENDBRANCH  23  31
ENDBRANCH  21  23
ENDBRANCH  19  21
ENDBRANCH  14  19
ENDBRANCH   7  14
ENDBRANCH   2   5
BRANCH   3  45
ATOM     45  C   UNL     1      -6.511   4.036   2.689  1.00  0.00     0.171 C 
BRANCH  45  46
ATOM     46  N   UNL     1      -5.238   3.865   2.001  1.00  0.00    -0.342 N 
ATOM     47  C   UNL     1      -4.073   4.430   2.457  1.00  0.00     0.247 C 
ATOM     48  O   UNL     1      -4.004   5.058   3.514  1.00  0.00    -0.273 OA
ATOM     49  H   UNL     1      -5.239   3.305   1.150  1.00  0.00     0.164 HD
BRANCH  47  50
ATOM     50  C   UNL     1      -2.858   4.247   1.536  1.00  0.00     0.212 CG0
ATOM     51  G   UNL     1      -1.969   3.146   2.149  1.00  0.00     0.000 G0
BRANCH  50  52
ATOM     52  N   UNL     1      -3.408   3.885   0.233  1.00  0.00    -0.339 N 
ATOM     53  C   UNL     1      -3.153   2.687  -0.389  1.00  0.00     0.243 C 
ATOM     54  O   UNL     1      -2.395   1.844   0.083  1.00  0.00    -0.273 OA
ATOM     55  H   UNL     1      -3.955   4.588  -0.261  1.00  0.00     0.164 HD
BRANCH  53  56
ATOM     56  C   UNL     1      -3.772   2.566  -1.796  1.00  0.00     0.182 C 
BRANCH  56  57
ATOM     57  N   UNL     1      -4.567   1.340  -1.918  1.00  0.00    -0.344 N 
ATOM     58  C   UNL     1      -5.709   1.276  -2.678  1.00  0.00     0.220 C 
ATOM     59  O   UNL     1      -6.183   2.253  -3.247  1.00  0.00    -0.275 OA
ATOM     60  H   UNL     1      -4.156   0.486  -1.549  1.00  0.00     0.164 HD
BRANCH  58  61
ATOM     61  C   UNL     1      -6.336  -0.106  -2.707  1.00  0.00     0.100 C 
BRANCH  61  62
ATOM     62  C   UNL     1      -7.542  -0.255  -1.780  1.00  0.00     0.010 C 
BRANCH  62  63
ATOM     63  C   UNL     1      -7.187  -0.694  -0.354  1.00  0.00     0.000 C 
BRANCH  63  64
ATOM     64  C   UNL     1      -7.586   0.308   0.729  1.00  0.00    -0.003 C 
ATOM     65  C   UNL     1      -9.093   0.328   0.938  1.00  0.00     0.004 C 
ENDBRANCH  63  64
ENDBRANCH  62  63
ENDBRANCH  61  62
ENDBRANCH  58  61
ENDBRANCH  56  57
BRANCH  56  66
ATOM     66  C   UNL     1      -2.708   2.674  -2.887  1.00  0.00     0.157 C 
BRANCH  66  67
ATOM     67  C   UNL     1      -2.303   4.103  -3.113  1.00  0.00     0.305 C 
ATOM     68  O   UNL     1      -2.940   5.101  -2.811  1.00  0.00    -0.252 OA
BRANCH  67  69
ATOM     69  O   UNL     1      -1.080   4.207  -3.667  1.00  0.00    -0.481 OA
ATOM     70  H   UNL     1      -0.462   3.911  -2.965  1.00  0.00     0.296 HD
ENDBRANCH  67  69
ENDBRANCH  66  67
ENDBRANCH  56  66
ENDBRANCH  53  56
ENDBRANCH  50  52
ENDBRANCH  47  50
ENDBRANCH  45  46
BRANCH  45  71
ATOM     71  C   UNL     1      -7.125   2.689   3.084  1.00  0.00     0.037 C 
BRANCH  71  72
ATOM     72  C   UNL     1      -6.535   2.148   4.389  1.00  0.00     0.026 C 
BRANCH  72  73
ATOM     73  C   UNL     1      -5.751   0.858   4.157  1.00  0.00     0.146 C 
BRANCH  73  74
ATOM     74  N   UNL     1      -4.341   1.210   4.023  1.00  0.00    -0.254 NA
ATOM     75  C   UNL     1      -3.691   0.714   3.035  1.00  0.00     0.185 C 
ATOM     76  N   UNL     1      -2.393   1.020   2.885  1.00  0.00    -0.370 N 
ATOM     77  N   UNL     1      -4.125  -0.112   2.068  1.00  0.00    -0.370 N 
ATOM     78  H   UNL     1      -1.983   1.632   3.576  1.00  0.00     0.159 HD
ATOM     79  H   UNL     1      -1.788   0.560   2.227  1.00  0.00     0.159 HD
ATOM     80  H   UNL     1      -5.085  -0.424   2.051  1.00  0.00     0.159 HD
ATOM     81  H   UNL     1      -3.551  -0.345   1.275  1.00  0.00     0.159 HD
ENDBRANCH  73  74
ENDBRANCH  72  73
ENDBRANCH  71  72
ENDBRANCH  45  71
ENDBRANCH   3  45
TORSDOF 20
ENDMDL
MODEL 22
REMARK VINA RESULT:    -5.965      2.765     12.985
REMARK INTER + INTRA:         -25.090
REMARK INTER:                 -18.267
REMARK INTRA:                  -6.823
REMARK UNBOUND:                -7.967
REMARK SMILES CCCCCC(=O)N[C@H](CC(=O)O)C(=O)N[C@H]1C(=O)N[C@H](CCCN=C(N)N)C(=O)N[C@@H]2CC[C@H](O)N(C2=O)[C@@H](CC(C)C)C(=O)N(C)[C@@H](Cc2ccccc2)C(=O)N[C@H](C(C)C)C(=O)O[C@@H]1C
REMARK SMILES IDX 30 1 31 2 29 3 32 5 35 6 37 7 34 8 38 9 33 10 39 11 36 12
REMARK SMILES IDX 40 14 41 15 42 16 43 17 44 18 45 19 46 20 47 21 48 22 49 23
REMARK SMILES IDX 50 24 51 25 52 26 56 27 53 28 55 29 54 30 57 31 58 32 59 33
REMARK SMILES IDX 60 35 61 36 62 37 63 38 64 39 65 40 66 41 67 42 68 43 21 45
REMARK SMILES IDX 20 46 18 47 19 48 17 50 16 52 14 53 15 54 9 56 8 57 6 58
REMARK SMILES IDX 7 59 5 61 4 62 3 63 2 64 1 65 10 66 11 67 12 68 13 69 22 71
REMARK SMILES IDX 23 72 24 73 25 74 26 75 27 76 28 77
REMARK H PARENT 31 4 36 13 59 34 20 49 16 55 8 60 13 70 27 78 27 79 28 80
REMARK H PARENT 28 81
REMARK Flexibility Score:  259.900
ROOT
ATOM      1  O   UNL     1      -8.703   1.476  -2.804  1.00  0.00    -0.273 OA
ATOM      2  N   UNL     1      -7.511   3.296  -2.098  1.00  0.00    -0.343 N 
ATOM      3  C   UNL     1      -8.252   2.600  -3.028  1.00  0.00     0.243 C 
ATOM      4  H   UNL     1      -7.169   4.225  -2.312  1.00  0.00     0.164 HD
ENDROOT
BRANCH   2   5
ATOM      5  C   UNL     1      -7.126   2.671  -0.837  1.00  0.00     0.171 C 
ATOM      6  C   UNL     1      -5.980   3.724   1.609  1.00  0.00     0.214 C 
ATOM      7  N   UNL     1      -5.106   3.241   0.565  1.00  0.00    -0.303 N 
ATOM      8  C   UNL     1      -7.323   3.012   1.646  1.00  0.00     0.057 C 
ATOM      9  C   UNL     1      -5.585   2.773  -0.647  1.00  0.00     0.247 C 
ATOM     10  C   UNL     1      -8.015   3.152   0.308  1.00  0.00     0.040 C 
ATOM     11  O   UNL     1      -4.827   2.441  -1.568  1.00  0.00    -0.272 OA
BRANCH   6  12
ATOM     12  O   UNL     1      -6.162   5.107   1.412  1.00  0.00    -0.373 OA
ATOM     13  H   UNL     1      -6.615   5.454   2.210  1.00  0.00     0.213 HD
ENDBRANCH   6  12
BRANCH   7  14
ATOM     14  C   UNL     1      -3.652   3.401   0.781  1.00  0.00     0.177 C 
BRANCH  14  15
ATOM     15  C   UNL     1      -2.945   4.356  -0.199  1.00  0.00     0.038 C 
BRANCH  15  16
ATOM     16  C   UNL     1      -1.542   3.994  -0.736  1.00  0.00    -0.015 C 
ATOM     17  C   UNL     1      -1.262   2.490  -0.671  1.00  0.00     0.007 C 
ATOM     18  C   UNL     1      -0.469   4.719   0.087  1.00  0.00     0.007 C 
ENDBRANCH  15  16
ENDBRANCH  14  15
BRANCH  14  19
ATOM     19  C   UNL     1      -3.308   3.245   2.303  1.00  0.00     0.245 C 
ATOM     20  O   UNL     1      -2.960   4.274   2.906  1.00  0.00    -0.272 OA
BRANCH  19  21
ATOM     21  N   UNL     1      -3.265   2.030   2.963  1.00  0.00    -0.332 N 
ATOM     22  C   UNL     1      -3.171   0.728   2.326  1.00  0.00     0.147 C 
BRANCH  21  23
ATOM     23  C   UNL     1      -3.329   2.043   4.450  1.00  0.00     0.178 C 
BRANCH  23  24
ATOM     24  C   UNL     1      -4.607   1.419   5.047  1.00  0.00     0.070 C 
BRANCH  24  25
ATOM     25  C   UNL     1      -5.820   2.312   5.162  1.00  0.00    -0.045 A 
ATOM     26  C   UNL     1      -7.111   1.770   5.179  1.00  0.00     0.004 A 
ATOM     27  C   UNL     1      -5.668   3.705   5.247  1.00  0.00     0.004 A 
ATOM     28  C   UNL     1      -8.228   2.603   5.268  1.00  0.00     0.000 A 
ATOM     29  C   UNL     1      -6.786   4.536   5.337  1.00  0.00     0.000 A 
ATOM     30  C   UNL     1      -8.065   3.985   5.344  1.00  0.00     0.000 A 
ENDBRANCH  24  25
ENDBRANCH  23  24
BRANCH  23  31
ATOM     31  C   UNL     1      -2.009   1.586   5.116  1.00  0.00     0.243 C 
ATOM     32  O   UNL     1      -0.899   1.730   4.609  1.00  0.00    -0.273 OA
ATOM     33  N   UNL     1      -2.199   0.828   6.259  1.00  0.00    -0.341 N 
ATOM     34  H   UNL     1      -3.148   0.740   6.630  1.00  0.00     0.164 HD
BRANCH  33  35
ATOM     35  C   UNL     1      -1.098   0.191   6.987  1.00  0.00     0.194 C 
BRANCH  35  36
ATOM     36  C   UNL     1      -1.455  -1.198   7.588  1.00  0.00     0.017 C 
ATOM     37  C   UNL     1      -0.237  -2.138   7.584  1.00  0.00     0.010 C 
ATOM     38  C   UNL     1      -2.586  -1.909   6.836  1.00  0.00     0.010 C 
ENDBRANCH  35  36
BRANCH  35  39
ATOM     39  C   UNL     1      -0.455   1.133   8.043  1.00  0.00     0.329 C 
ATOM     40  O   UNL     1      -1.079   1.680   8.945  1.00  0.00    -0.250 OA
BRANCH  39  41
ATOM     41  O   UNL     1       0.903   1.216   7.908  1.00  0.00    -0.458 OA
BRANCH  41  42
ATOM     42  C   UNL     1       1.466   2.549   7.895  1.00  0.00     0.205 CG0
ATOM     43  C   UNL     1       1.910   2.841   6.463  1.00  0.00     0.056 C 
ATOM     44  G   UNL     1       2.637   2.598   8.897  1.00  0.00     0.000 G0
ENDBRANCH  41  42
ENDBRANCH  39  41
ENDBRANCH  35  39
ENDBRANCH  33  35
ENDBRANCH  23  31
ENDBRANCH  21  23
ENDBRANCH  19  21
ENDBRANCH  14  19
ENDBRANCH   7  14
ENDBRANCH   2   5
BRANCH   3  45
ATOM     45  C   UNL     1      -8.495   3.332  -4.355  1.00  0.00     0.171 C 
BRANCH  45  46
ATOM     46  N   UNL     1      -9.206   2.384  -5.203  1.00  0.00    -0.342 N 
ATOM     47  C   UNL     1     -10.424   2.670  -5.767  1.00  0.00     0.247 C 
ATOM     48  O   UNL     1     -10.969   3.769  -5.658  1.00  0.00    -0.273 OA
ATOM     49  H   UNL     1      -8.763   1.482  -5.366  1.00  0.00     0.164 HD
BRANCH  47  50
ATOM     50  C   UNL     1     -11.078   1.507  -6.525  1.00  0.00     0.212 CG0
ATOM     51  G   UNL     1     -12.602   1.741  -6.515  1.00  0.00     0.000 G0
BRANCH  50  52
ATOM     52  N   UNL     1     -10.498   1.540  -7.865  1.00  0.00    -0.339 N 
ATOM     53  C   UNL     1      -9.368   0.844  -8.217  1.00  0.00     0.243 C 
ATOM     54  O   UNL     1      -8.724   0.177  -7.411  1.00  0.00    -0.273 OA
ATOM     55  H   UNL     1     -10.923   2.163  -8.549  1.00  0.00     0.164 HD
BRANCH  53  56
ATOM     56  C   UNL     1      -8.895   1.103  -9.662  1.00  0.00     0.182 C 
BRANCH  56  57
ATOM     57  N   UNL     1      -7.540   1.663  -9.680  1.00  0.00    -0.344 N 
ATOM     58  C   UNL     1      -6.428   0.891  -9.914  1.00  0.00     0.220 C 
ATOM     59  O   UNL     1      -6.482  -0.326 -10.051  1.00  0.00    -0.275 OA
ATOM     60  H   UNL     1      -7.460   2.676  -9.673  1.00  0.00     0.164 HD
BRANCH  58  61
ATOM     61  C   UNL     1      -5.138   1.690  -9.946  1.00  0.00     0.100 C 
BRANCH  61  62
ATOM     62  C   UNL     1      -4.232   1.351 -11.130  1.00  0.00     0.010 C 
BRANCH  62  63
ATOM     63  C   UNL     1      -2.835   0.860 -10.730  1.00  0.00     0.000 C 
BRANCH  63  64
ATOM     64  C   UNL     1      -2.220  -0.143 -11.705  1.00  0.00    -0.003 C 
ATOM     65  C   UNL     1      -2.958  -0.147 -13.036  1.00  0.00     0.004 C 
ENDBRANCH  63  64
ENDBRANCH  62  63
ENDBRANCH  61  62
ENDBRANCH  58  61
ENDBRANCH  56  57
BRANCH  56  66
ATOM     66  C   UNL     1      -9.889   1.973 -10.429  1.00  0.00     0.157 C 
BRANCH  66  67
ATOM     67  C   UNL     1      -9.338   3.350 -10.664  1.00  0.00     0.305 C 
ATOM     68  O   UNL     1      -8.921   3.801 -11.720  1.00  0.00    -0.252 OA
BRANCH  67  69
ATOM     69  O   UNL     1      -9.387   4.117  -9.559  1.00  0.00    -0.481 OA
ATOM     70  H   UNL     1      -9.220   5.028  -9.879  1.00  0.00     0.296 HD
ENDBRANCH  67  69
ENDBRANCH  66  67
ENDBRANCH  56  66
ENDBRANCH  53  56
ENDBRANCH  50  52
ENDBRANCH  47  50
ENDBRANCH  45  46
BRANCH  45  71
ATOM     71  C   UNL     1      -7.163   3.761  -4.980  1.00  0.00     0.037 C 
BRANCH  71  72
ATOM     72  C   UNL     1      -6.900   3.058  -6.314  1.00  0.00     0.026 C 
BRANCH  72  73
ATOM     73  C   UNL     1      -5.729   2.082  -6.211  1.00  0.00     0.146 C 
BRANCH  73  74
ATOM     74  N   UNL     1      -6.096   1.044  -5.253  1.00  0.00    -0.254 NA
ATOM     75  C   UNL     1      -5.276   0.791  -4.300  1.00  0.00     0.185 C 
ATOM     76  N   UNL     1      -5.586  -0.158  -3.402  1.00  0.00    -0.370 N 
ATOM     77  N   UNL     1      -4.085   1.356  -4.039  1.00  0.00    -0.370 N 
ATOM     78  H   UNL     1      -6.465  -0.639  -3.530  1.00  0.00     0.159 HD
ATOM     79  H   UNL     1      -4.937  -0.509  -2.721  1.00  0.00     0.159 HD
ATOM     80  H   UNL     1      -3.723   2.089  -4.630  1.00  0.00     0.159 HD
ATOM     81  H   UNL     1      -3.579   1.154  -3.192  1.00  0.00     0.159 HD
ENDBRANCH  73  74
ENDBRANCH  72  73
ENDBRANCH  71  72
ENDBRANCH  45  71
ENDBRANCH   3  45
TORSDOF 20
ENDMDL
MODEL 23
REMARK VINA RESULT:    -5.962      5.139     15.384
REMARK INTER + INTRA:         -25.082
REMARK INTER:                 -19.034
REMARK INTRA:                  -6.048
REMARK UNBOUND:                -7.967
REMARK SMILES CCCCCC(=O)N[C@H](CC(=O)O)C(=O)N[C@H]1C(=O)N[C@H](CCCN=C(N)N)C(=O)N[C@@H]2CC[C@H](O)N(C2=O)[C@@H](CC(C)C)C(=O)N(C)[C@@H](Cc2ccccc2)C(=O)N[C@H](C(C)C)C(=O)O[C@@H]1C
REMARK SMILES IDX 30 1 31 2 29 3 32 5 35 6 37 7 34 8 38 9 33 10 39 11 36 12
REMARK SMILES IDX 40 14 41 15 42 16 43 17 44 18 45 19 46 20 47 21 48 22 49 23
REMARK SMILES IDX 50 24 51 25 52 26 56 27 53 28 55 29 54 30 57 31 58 32 59 33
REMARK SMILES IDX 60 35 61 36 62 37 63 38 64 39 65 40 66 41 67 42 68 43 21 45
REMARK SMILES IDX 20 46 18 47 19 48 17 50 16 52 14 53 15 54 9 56 8 57 6 58
REMARK SMILES IDX 7 59 5 61 4 62 3 63 2 64 1 65 10 66 11 67 12 68 13 69 22 71
REMARK SMILES IDX 23 72 24 73 25 74 26 75 27 76 28 77
REMARK H PARENT 31 4 36 13 59 34 20 49 16 55 8 60 13 70 27 78 27 79 28 80
REMARK H PARENT 28 81
REMARK Flexibility Score:  259.900
ROOT
ATOM      1  O   UNL     1     -12.507   4.976  -9.403  1.00  0.00    -0.273 OA
ATOM      2  N   UNL     1     -11.931   2.780  -9.126  1.00  0.00    -0.343 N 
ATOM      3  C   UNL     1     -12.823   3.786  -9.428  1.00  0.00     0.243 C 
ATOM      4  H   UNL     1     -12.223   1.812  -9.172  1.00  0.00     0.164 HD
ENDROOT
BRANCH   2   5
ATOM      5  C   UNL     1     -10.591   3.096  -8.644  1.00  0.00     0.171 C 
ATOM      6  C   UNL     1      -8.586   1.533  -7.251  1.00  0.00     0.214 C 
ATOM      7  N   UNL     1      -9.545   2.299  -6.489  1.00  0.00    -0.303 N 
ATOM      8  C   UNL     1      -8.262   2.147  -8.603  1.00  0.00     0.057 C 
ATOM      9  C   UNL     1     -10.560   3.026  -7.091  1.00  0.00     0.247 C 
ATOM     10  C   UNL     1      -9.532   2.305  -9.411  1.00  0.00     0.040 C 
ATOM     11  O   UNL     1     -11.429   3.610  -6.430  1.00  0.00    -0.272 OA
BRANCH   6  12
ATOM     12  O   UNL     1      -9.105   0.233  -7.412  1.00  0.00    -0.373 OA
ATOM     13  H   UNL     1      -9.555  -0.003  -6.573  1.00  0.00     0.213 HD
ENDBRANCH   6  12
BRANCH   7  14
ATOM     14  C   UNL     1      -9.496   2.162  -5.018  1.00  0.00     0.177 C 
BRANCH  14  15
ATOM     15  C   UNL     1     -10.765   1.573  -4.371  1.00  0.00     0.038 C 
BRANCH  15  16
ATOM     16  C   UNL     1     -11.213   0.142  -4.741  1.00  0.00    -0.015 C 
ATOM     17  C   UNL     1     -12.722   0.046  -4.982  1.00  0.00     0.007 C 
ATOM     18  C   UNL     1     -10.845  -0.825  -3.608  1.00  0.00     0.007 C 
ENDBRANCH  15  16
ENDBRANCH  14  15
BRANCH  14  19
ATOM     19  C   UNL     1      -8.027   1.889  -4.546  1.00  0.00     0.245 C 
ATOM     20  O   UNL     1      -7.798   0.774  -4.048  1.00  0.00    -0.272 OA
BRANCH  19  21
ATOM     21  N   UNL     1      -7.024   2.842  -4.553  1.00  0.00    -0.332 N 
ATOM     22  C   UNL     1      -7.228   4.279  -4.609  1.00  0.00     0.147 C 
BRANCH  21  23
ATOM     23  C   UNL     1      -5.613   2.369  -4.510  1.00  0.00     0.178 C 
BRANCH  23  24
ATOM     24  C   UNL     1      -4.697   2.971  -5.595  1.00  0.00     0.070 C 
BRANCH  24  25
ATOM     25  C   UNL     1      -4.472   2.147  -6.841  1.00  0.00    -0.045 A 
ATOM     26  C   UNL     1      -5.225   0.990  -7.082  1.00  0.00     0.004 A 
ATOM     27  C   UNL     1      -3.499   2.529  -7.776  1.00  0.00     0.004 A 
ATOM     28  C   UNL     1      -5.000   0.225  -8.228  1.00  0.00     0.000 A 
ATOM     29  C   UNL     1      -3.276   1.764  -8.922  1.00  0.00     0.000 A 
ATOM     30  C   UNL     1      -4.025   0.610  -9.145  1.00  0.00     0.000 A 
ENDBRANCH  24  25
ENDBRANCH  23  24
BRANCH  23  31
ATOM     31  C   UNL     1      -5.019   2.370  -3.081  1.00  0.00     0.243 C 
ATOM     32  O   UNL     1      -5.337   1.571  -2.204  1.00  0.00    -0.273 OA
ATOM     33  N   UNL     1      -4.225   3.472  -2.813  1.00  0.00    -0.341 N 
ATOM     34  H   UNL     1      -3.999   4.106  -3.584  1.00  0.00     0.164 HD
BRANCH  33  35
ATOM     35  C   UNL     1      -3.654   3.743  -1.491  1.00  0.00     0.194 C 
BRANCH  35  36
ATOM     36  C   UNL     1      -4.488   4.733  -0.630  1.00  0.00     0.017 C 
ATOM     37  C   UNL     1      -5.196   4.009   0.528  1.00  0.00     0.010 C 
ATOM     38  C   UNL     1      -5.564   5.474  -1.434  1.00  0.00     0.010 C 
ENDBRANCH  35  36
BRANCH  35  39
ATOM     39  C   UNL     1      -2.156   4.152  -1.559  1.00  0.00     0.329 C 
ATOM     40  O   UNL     1      -1.621   4.635  -2.549  1.00  0.00    -0.250 OA
BRANCH  39  41
ATOM     41  O   UNL     1      -1.519   3.994  -0.359  1.00  0.00    -0.458 OA
BRANCH  41  42
ATOM     42  C   UNL     1      -0.959   2.685  -0.098  1.00  0.00     0.205 CG0
ATOM     43  C   UNL     1      -1.675   2.119   1.126  1.00  0.00     0.056 C 
ATOM     44  G   UNL     1       0.559   2.835   0.124  1.00  0.00     0.000 G0
ENDBRANCH  41  42
ENDBRANCH  39  41
ENDBRANCH  35  39
ENDBRANCH  33  35
ENDBRANCH  23  31
ENDBRANCH  21  23
ENDBRANCH  19  21
ENDBRANCH  14  19
ENDBRANCH   7  14
ENDBRANCH   2   5
BRANCH   3  45
ATOM     45  C   UNL     1     -14.232   3.320  -9.818  1.00  0.00     0.171 C 
BRANCH  45  46
ATOM     46  N   UNL     1     -14.832   4.438 -10.535  1.00  0.00    -0.342 N 
ATOM     47  C   UNL     1     -14.900   4.482 -11.905  1.00  0.00     0.247 C 
ATOM     48  O   UNL     1     -14.528   3.553 -12.623  1.00  0.00    -0.273 OA
ATOM     49  H   UNL     1     -15.204   5.204  -9.977  1.00  0.00     0.164 HD
BRANCH  47  50
ATOM     50  C   UNL     1     -15.452   5.791 -12.486  1.00  0.00     0.212 CG0
ATOM     51  G   UNL     1     -16.856   6.013 -11.889  1.00  0.00     0.000 G0
BRANCH  50  52
ATOM     52  N   UNL     1     -14.492   6.823 -12.103  1.00  0.00    -0.339 N 
ATOM     53  C   UNL     1     -14.712   7.719 -11.085  1.00  0.00     0.243 C 
ATOM     54  O   UNL     1     -15.762   7.755 -10.450  1.00  0.00    -0.273 OA
ATOM     55  H   UNL     1     -13.648   6.916 -12.665  1.00  0.00     0.164 HD
BRANCH  53  56
ATOM     56  C   UNL     1     -13.594   8.769 -10.922  1.00  0.00     0.182 C 
BRANCH  56  57
ATOM     57  N   UNL     1     -14.144  10.062 -10.500  1.00  0.00    -0.344 N 
ATOM     58  C   UNL     1     -13.788  10.663  -9.318  1.00  0.00     0.220 C 
ATOM     59  O   UNL     1     -13.046  10.130  -8.500  1.00  0.00    -0.275 OA
ATOM     60  H   UNL     1     -14.681  10.581 -11.191  1.00  0.00     0.164 HD
BRANCH  58  61
ATOM     61  C   UNL     1     -14.435  12.021  -9.115  1.00  0.00     0.100 C 
BRANCH  61  62
ATOM     62  C   UNL     1     -13.432  13.155  -8.905  1.00  0.00     0.010 C 
BRANCH  62  63
ATOM     63  C   UNL     1     -14.059  14.555  -8.907  1.00  0.00     0.000 C 
BRANCH  63  64
ATOM     64  C   UNL     1     -14.507  15.044  -7.531  1.00  0.00    -0.003 C 
ATOM     65  C   UNL     1     -14.043  14.101  -6.429  1.00  0.00     0.004 C 
ENDBRANCH  63  64
ENDBRANCH  62  63
ENDBRANCH  61  62
ENDBRANCH  58  61
ENDBRANCH  56  57
BRANCH  56  66
ATOM     66  C   UNL     1     -12.748   8.888 -12.188  1.00  0.00     0.157 C 
BRANCH  66  67
ATOM     67  C   UNL     1     -11.360   9.366 -11.871  1.00  0.00     0.305 C 
ATOM     68  O   UNL     1     -10.578   9.906 -12.638  1.00  0.00    -0.252 OA
BRANCH  67  69
ATOM     69  O   UNL     1     -11.040   9.187 -10.575  1.00  0.00    -0.481 OA
ATOM     70  H   UNL     1     -10.661  10.045 -10.290  1.00  0.00     0.296 HD
ENDBRANCH  67  69
ENDBRANCH  66  67
ENDBRANCH  56  66
ENDBRANCH  53  56
ENDBRANCH  50  52
ENDBRANCH  47  50
ENDBRANCH  45  46
BRANCH  45  71
ATOM     71  C   UNL     1     -15.038   2.953  -8.567  1.00  0.00     0.037 C 
BRANCH  71  72
ATOM     72  C   UNL     1     -16.299   3.809  -8.423  1.00  0.00     0.026 C 
BRANCH  72  73
ATOM     73  C   UNL     1     -16.208   4.742  -7.216  1.00  0.00     0.146 C 
BRANCH  73  74
ATOM     74  N   UNL     1     -15.554   5.972  -7.651  1.00  0.00    -0.254 NA
ATOM     75  C   UNL     1     -14.389   6.230  -7.182  1.00  0.00     0.185 C 
ATOM     76  N   UNL     1     -13.762   7.354  -7.564  1.00  0.00    -0.370 N 
ATOM     77  N   UNL     1     -13.650   5.514  -6.317  1.00  0.00    -0.370 N 
ATOM     78  H   UNL     1     -14.253   7.955  -8.209  1.00  0.00     0.159 HD
ATOM     79  H   UNL     1     -12.920   7.692  -7.132  1.00  0.00     0.159 HD
ATOM     80  H   UNL     1     -13.994   4.640  -5.947  1.00  0.00     0.159 HD
ATOM     81  H   UNL     1     -12.696   5.759  -6.108  1.00  0.00     0.159 HD
ENDBRANCH  73  74
ENDBRANCH  72  73
ENDBRANCH  71  72
ENDBRANCH  45  71
ENDBRANCH   3  45
TORSDOF 20
ENDMDL
MODEL 24
REMARK VINA RESULT:    -5.927      2.504      6.662
REMARK INTER + INTRA:         -24.981
REMARK INTER:                 -18.513
REMARK INTRA:                  -6.468
REMARK UNBOUND:                -7.967
REMARK SMILES CCCCCC(=O)N[C@H](CC(=O)O)C(=O)N[C@H]1C(=O)N[C@H](CCCN=C(N)N)C(=O)N[C@@H]2CC[C@H](O)N(C2=O)[C@@H](CC(C)C)C(=O)N(C)[C@@H](Cc2ccccc2)C(=O)N[C@H](C(C)C)C(=O)O[C@@H]1C
REMARK SMILES IDX 30 1 31 2 29 3 32 5 35 6 37 7 34 8 38 9 33 10 39 11 36 12
REMARK SMILES IDX 40 14 41 15 42 16 43 17 44 18 45 19 46 20 47 21 48 22 49 23
REMARK SMILES IDX 50 24 51 25 52 26 56 27 53 28 55 29 54 30 57 31 58 32 59 33
REMARK SMILES IDX 60 35 61 36 62 37 63 38 64 39 65 40 66 41 67 42 68 43 21 45
REMARK SMILES IDX 20 46 18 47 19 48 17 50 16 52 14 53 15 54 9 56 8 57 6 58
REMARK SMILES IDX 7 59 5 61 4 62 3 63 2 64 1 65 10 66 11 67 12 68 13 69 22 71
REMARK SMILES IDX 23 72 24 73 25 74 26 75 27 76 28 77
REMARK H PARENT 31 4 36 13 59 34 20 49 16 55 8 60 13 70 27 78 27 79 28 80
REMARK H PARENT 28 81
REMARK Flexibility Score:  259.900
ROOT
ATOM      1  O   UNL     1      -3.896   3.044   1.242  1.00  0.00    -0.273 OA
ATOM      2  N   UNL     1      -3.569   1.799  -0.648  1.00  0.00    -0.343 N 
ATOM      3  C   UNL     1      -3.130   2.442   0.489  1.00  0.00     0.243 C 
ATOM      4  H   UNL     1      -2.912   1.302  -1.237  1.00  0.00     0.164 HD
ENDROOT
BRANCH   2   5
ATOM      5  C   UNL     1      -4.960   1.908  -1.073  1.00  0.00     0.171 C 
ATOM      6  C   UNL     1      -6.469   0.647  -3.203  1.00  0.00     0.214 C 
ATOM      7  N   UNL     1      -5.809   1.907  -3.451  1.00  0.00    -0.303 N 
ATOM      8  C   UNL     1      -6.906   0.470  -1.758  1.00  0.00     0.057 C 
ATOM      9  C   UNL     1      -5.031   2.538  -2.494  1.00  0.00     0.247 C 
ATOM     10  C   UNL     1      -5.709   0.597  -0.841  1.00  0.00     0.040 C 
ATOM     11  O   UNL     1      -4.398   3.574  -2.740  1.00  0.00    -0.272 OA
BRANCH   6  12
ATOM     12  O   UNL     1      -5.584  -0.383  -3.580  1.00  0.00    -0.373 OA
ATOM     13  H   UNL     1      -4.707   0.030  -3.726  1.00  0.00     0.213 HD
ENDBRANCH   6  12
BRANCH   7  14
ATOM     14  C   UNL     1      -5.872   2.439  -4.829  1.00  0.00     0.177 C 
BRANCH  14  15
ATOM     15  C   UNL     1      -5.361   1.483  -5.924  1.00  0.00     0.038 C 
BRANCH  15  16
ATOM     16  C   UNL     1      -4.774   2.066  -7.229  1.00  0.00    -0.015 C 
ATOM     17  C   UNL     1      -4.457   0.981  -8.262  1.00  0.00     0.007 C 
ATOM     18  C   UNL     1      -3.480   2.829  -6.920  1.00  0.00     0.007 C 
ENDBRANCH  15  16
ENDBRANCH  14  15
BRANCH  14  19
ATOM     19  C   UNL     1      -7.083   3.423  -4.976  1.00  0.00     0.245 C 
ATOM     20  O   UNL     1      -6.839   4.634  -4.848  1.00  0.00    -0.272 OA
BRANCH  19  21
ATOM     21  N   UNL     1      -8.397   3.013  -5.125  1.00  0.00    -0.332 N 
ATOM     22  C   UNL     1      -9.327   2.756  -4.041  1.00  0.00     0.147 C 
BRANCH  21  23
ATOM     23  C   UNL     1      -8.907   2.804  -6.508  1.00  0.00     0.178 C 
BRANCH  23  24
ATOM     24  C   UNL     1      -9.492   1.402  -6.775  1.00  0.00     0.070 C 
BRANCH  24  25
ATOM     25  C   UNL     1      -9.292   0.825  -8.157  1.00  0.00    -0.045 A 
ATOM     26  C   UNL     1     -10.347   0.783  -9.077  1.00  0.00     0.004 A 
ATOM     27  C   UNL     1      -8.041   0.316  -8.537  1.00  0.00     0.004 A 
ATOM     28  C   UNL     1     -10.158   0.232 -10.347  1.00  0.00     0.000 A 
ATOM     29  C   UNL     1      -7.853  -0.233  -9.807  1.00  0.00     0.000 A 
ATOM     30  C   UNL     1      -8.914  -0.277 -10.710  1.00  0.00     0.000 A 
ENDBRANCH  24  25
ENDBRANCH  23  24
BRANCH  23  31
ATOM     31  C   UNL     1      -9.777   3.979  -7.015  1.00  0.00     0.243 C 
ATOM     32  O   UNL     1      -9.336   5.094  -7.284  1.00  0.00    -0.273 OA
ATOM     33  N   UNL     1     -11.137   3.723  -6.964  1.00  0.00    -0.341 N 
ATOM     34  H   UNL     1     -11.444   2.777  -6.728  1.00  0.00     0.164 HD
BRANCH  33  35
ATOM     35  C   UNL     1     -12.152   4.732  -7.282  1.00  0.00     0.194 C 
BRANCH  35  36
ATOM     36  C   UNL     1     -13.475   4.576  -6.480  1.00  0.00     0.017 C 
ATOM     37  C   UNL     1     -14.369   5.819  -6.630  1.00  0.00     0.010 C 
ATOM     38  C   UNL     1     -13.249   4.352  -4.980  1.00  0.00     0.010 C 
ENDBRANCH  35  36
BRANCH  35  39
ATOM     39  C   UNL     1     -12.411   4.858  -8.810  1.00  0.00     0.329 C 
ATOM     40  O   UNL     1     -12.149   5.857  -9.470  1.00  0.00    -0.250 OA
BRANCH  39  41
ATOM     41  O   UNL     1     -12.884   3.696  -9.355  1.00  0.00    -0.458 OA
BRANCH  41  42
ATOM     42  C   UNL     1     -14.152   3.783 -10.047  1.00  0.00     0.205 CG0
ATOM     43  C   UNL     1     -15.131   2.864  -9.318  1.00  0.00     0.056 C 
ATOM     44  G   UNL     1     -13.939   3.370 -11.517  1.00  0.00     0.000 G0
ENDBRANCH  41  42
ENDBRANCH  39  41
ENDBRANCH  35  39
ENDBRANCH  33  35
ENDBRANCH  23  31
ENDBRANCH  21  23
ENDBRANCH  19  21
ENDBRANCH  14  19
ENDBRANCH   7  14
ENDBRANCH   2   5
BRANCH   3  45
ATOM     45  C   UNL     1      -1.624   2.338   0.763  1.00  0.00     0.171 C 
BRANCH  45  46
ATOM     46  N   UNL     1      -1.497   2.165   2.204  1.00  0.00    -0.342 N 
ATOM     47  C   UNL     1      -1.103   0.980   2.771  1.00  0.00     0.247 C 
ATOM     48  O   UNL     1      -0.760   0.002   2.106  1.00  0.00    -0.273 OA
ATOM     49  H   UNL     1      -1.717   2.968   2.790  1.00  0.00     0.164 HD
BRANCH  47  50
ATOM     50  C   UNL     1      -1.147   0.947   4.306  1.00  0.00     0.212 CG0
ATOM     51  G   UNL     1       0.171   1.556   4.824  1.00  0.00     0.000 G0
BRANCH  50  52
ATOM     52  N   UNL     1      -2.327   1.723   4.678  1.00  0.00    -0.339 N 
ATOM     53  C   UNL     1      -3.611   1.339   4.372  1.00  0.00     0.243 C 
ATOM     54  O   UNL     1      -3.862   0.335   3.712  1.00  0.00    -0.273 OA
ATOM     55  H   UNL     1      -2.178   2.622   5.131  1.00  0.00     0.164 HD
BRANCH  53  56
ATOM     56  C   UNL     1      -4.687   2.361   4.792  1.00  0.00     0.182 C 
BRANCH  56  57
ATOM     57  N   UNL     1      -5.678   2.548   3.728  1.00  0.00    -0.344 N 
ATOM     58  C   UNL     1      -6.989   2.161   3.866  1.00  0.00     0.220 C 
ATOM     59  O   UNL     1      -7.404   1.568   4.856  1.00  0.00    -0.275 OA
ATOM     60  H   UNL     1      -5.402   3.124   2.937  1.00  0.00     0.164 HD
BRANCH  58  61
ATOM     61  C   UNL     1      -7.848   2.505   2.664  1.00  0.00     0.100 C 
BRANCH  61  62
ATOM     62  C   UNL     1      -8.146   1.311   1.757  1.00  0.00     0.010 C 
BRANCH  62  63
ATOM     63  C   UNL     1      -9.640   1.069   1.509  1.00  0.00     0.000 C 
BRANCH  63  64
ATOM     64  C   UNL     1     -10.024   0.984   0.032  1.00  0.00    -0.003 C 
ATOM     65  C   UNL     1     -10.777   2.227  -0.418  1.00  0.00     0.004 C 
ENDBRANCH  63  64
ENDBRANCH  62  63
ENDBRANCH  61  62
ENDBRANCH  58  61
ENDBRANCH  56  57
BRANCH  56  66
ATOM     66  C   UNL     1      -4.062   3.682   5.237  1.00  0.00     0.157 C 
BRANCH  66  67
ATOM     67  C   UNL     1      -4.547   4.825   4.393  1.00  0.00     0.305 C 
ATOM     68  O   UNL     1      -5.548   5.500   4.578  1.00  0.00    -0.252 OA
BRANCH  67  69
ATOM     69  O   UNL     1      -3.710   5.099   3.374  1.00  0.00    -0.481 OA
ATOM     70  H   UNL     1      -2.937   4.514   3.521  1.00  0.00     0.296 HD
ENDBRANCH  67  69
ENDBRANCH  66  67
ENDBRANCH  56  66
ENDBRANCH  53  56
ENDBRANCH  50  52
ENDBRANCH  47  50
ENDBRANCH  45  46
BRANCH  45  71
ATOM     71  C   UNL     1      -0.905   3.602   0.279  1.00  0.00     0.037 C 
BRANCH  71  72
ATOM     72  C   UNL     1       0.044   3.314  -0.887  1.00  0.00     0.026 C 
BRANCH  72  73
ATOM     73  C   UNL     1       0.047   1.832  -1.254  1.00  0.00     0.146 C 
BRANCH  73  74
ATOM     74  N   UNL     1       1.164   1.599  -2.164  1.00  0.00    -0.254 NA
ATOM     75  C   UNL     1       1.777   0.475  -2.085  1.00  0.00     0.185 C 
ATOM     76  N   UNL     1       2.808   0.231  -2.910  1.00  0.00    -0.370 N 
ATOM     77  N   UNL     1       1.540  -0.560  -1.261  1.00  0.00    -0.370 N 
ATOM     78  H   UNL     1       3.058   0.963  -3.559  1.00  0.00     0.159 HD
ATOM     79  H   UNL     1       3.422  -0.558  -2.810  1.00  0.00     0.159 HD
ATOM     80  H   UNL     1       0.790  -0.519  -0.588  1.00  0.00     0.159 HD
ATOM     81  H   UNL     1       2.016  -1.441  -1.369  1.00  0.00     0.159 HD
ENDBRANCH  73  74
ENDBRANCH  72  73
ENDBRANCH  71  72
ENDBRANCH  45  71
ENDBRANCH   3  45
TORSDOF 20
ENDMDL
MODEL 25
REMARK VINA RESULT:    -5.923      2.865      6.449
REMARK INTER + INTRA:         -24.970
REMARK INTER:                 -19.868
REMARK INTRA:                  -5.102
REMARK UNBOUND:                -7.967
REMARK SMILES CCCCCC(=O)N[C@H](CC(=O)O)C(=O)N[C@H]1C(=O)N[C@H](CCCN=C(N)N)C(=O)N[C@@H]2CC[C@H](O)N(C2=O)[C@@H](CC(C)C)C(=O)N(C)[C@@H](Cc2ccccc2)C(=O)N[C@H](C(C)C)C(=O)O[C@@H]1C
REMARK SMILES IDX 30 1 31 2 29 3 32 5 35 6 37 7 34 8 38 9 33 10 39 11 36 12
REMARK SMILES IDX 40 14 41 15 42 16 43 17 44 18 45 19 46 20 47 21 48 22 49 23
REMARK SMILES IDX 50 24 51 25 52 26 56 27 53 28 55 29 54 30 57 31 58 32 59 33
REMARK SMILES IDX 60 35 61 36 62 37 63 38 64 39 65 40 66 41 67 42 68 43 21 45
REMARK SMILES IDX 20 46 18 47 19 48 17 50 16 52 14 53 15 54 9 56 8 57 6 58
REMARK SMILES IDX 7 59 5 61 4 62 3 63 2 64 1 65 10 66 11 67 12 68 13 69 22 71
REMARK SMILES IDX 23 72 24 73 25 74 26 75 27 76 28 77
REMARK H PARENT 31 4 36 13 59 34 20 49 16 55 8 60 13 70 27 78 27 79 28 80
REMARK H PARENT 28 81
REMARK Flexibility Score:  259.900
ROOT
ATOM      1  O   UNL     1      -4.629   2.390  -0.536  1.00  0.00    -0.273 OA
ATOM      2  N   UNL     1      -4.205   4.616  -0.225  1.00  0.00    -0.343 N 
ATOM      3  C   UNL     1      -3.844   3.286  -0.222  1.00  0.00     0.243 C 
ATOM      4  H   UNL     1      -3.528   5.327   0.025  1.00  0.00     0.164 HD
ENDROOT
BRANCH   2   5
ATOM      5  C   UNL     1      -5.584   5.011  -0.489  1.00  0.00     0.171 C 
ATOM      6  C   UNL     1      -7.966   3.500  -1.159  1.00  0.00     0.214 C 
ATOM      7  N   UNL     1      -7.127   4.010  -2.219  1.00  0.00    -0.303 N 
ATOM      8  C   UNL     1      -7.942   4.361   0.094  1.00  0.00     0.057 C 
ATOM      9  C   UNL     1      -5.949   4.695  -1.968  1.00  0.00     0.247 C 
ATOM     10  C   UNL     1      -6.521   4.491   0.599  1.00  0.00     0.040 C 
ATOM     11  O   UNL     1      -5.192   5.053  -2.880  1.00  0.00    -0.272 OA
BRANCH   6  12
ATOM     12  O   UNL     1      -7.540   2.190  -0.865  1.00  0.00    -0.373 OA
ATOM     13  H   UNL     1      -7.507   2.111   0.112  1.00  0.00     0.213 HD
ENDBRANCH   6  12
BRANCH   7  14
ATOM     14  C   UNL     1      -7.497   3.644  -3.602  1.00  0.00     0.177 C 
BRANCH  14  15
ATOM     15  C   UNL     1      -7.164   2.195  -4.009  1.00  0.00     0.038 C 
BRANCH  15  16
ATOM     16  C   UNL     1      -5.930   1.919  -4.896  1.00  0.00    -0.015 C 
ATOM     17  C   UNL     1      -6.301   1.730  -6.370  1.00  0.00     0.007 C 
ATOM     18  C   UNL     1      -5.218   0.649  -4.414  1.00  0.00     0.007 C 
ENDBRANCH  15  16
ENDBRANCH  14  15
BRANCH  14  19
ATOM     19  C   UNL     1      -8.767   4.444  -4.055  1.00  0.00     0.245 C 
ATOM     20  O   UNL     1      -8.631   5.669  -4.208  1.00  0.00    -0.272 OA
BRANCH  19  21
ATOM     21  N   UNL     1     -10.027   3.885  -4.178  1.00  0.00    -0.332 N 
ATOM     22  C   UNL     1     -10.901   3.526  -3.076  1.00  0.00     0.147 C 
BRANCH  21  23
ATOM     23  C   UNL     1     -10.536   3.615  -5.551  1.00  0.00     0.178 C 
BRANCH  23  24
ATOM     24  C   UNL     1     -10.366   2.158  -6.027  1.00  0.00     0.070 C 
BRANCH  24  25
ATOM     25  C   UNL     1     -11.051   1.083  -5.215  1.00  0.00    -0.045 A 
ATOM     26  C   UNL     1     -12.441   0.924  -5.263  1.00  0.00     0.004 A 
ATOM     27  C   UNL     1     -10.298   0.231  -4.393  1.00  0.00     0.004 A 
ATOM     28  C   UNL     1     -13.068  -0.061  -4.496  1.00  0.00     0.000 A 
ATOM     29  C   UNL     1     -10.926  -0.753  -3.627  1.00  0.00     0.000 A 
ATOM     30  C   UNL     1     -12.311  -0.896  -3.677  1.00  0.00     0.000 A 
ENDBRANCH  24  25
ENDBRANCH  23  24
BRANCH  23  31
ATOM     31  C   UNL     1     -11.936   4.224  -5.806  1.00  0.00     0.243 C 
ATOM     32  O   UNL     1     -12.769   4.424  -4.926  1.00  0.00    -0.273 OA
ATOM     33  N   UNL     1     -12.244   4.357  -7.150  1.00  0.00    -0.341 N 
ATOM     34  H   UNL     1     -11.510   4.170  -7.837  1.00  0.00     0.164 HD
BRANCH  33  35
ATOM     35  C   UNL     1     -13.557   4.800  -7.628  1.00  0.00     0.194 C 
BRANCH  35  36
ATOM     36  C   UNL     1     -14.475   3.647  -8.121  1.00  0.00     0.017 C 
ATOM     37  C   UNL     1     -15.491   3.239  -7.040  1.00  0.00     0.010 C 
ATOM     38  C   UNL     1     -13.700   2.386  -8.522  1.00  0.00     0.010 C 
ENDBRANCH  35  36
BRANCH  35  39
ATOM     39  C   UNL     1     -13.457   5.949  -8.670  1.00  0.00     0.329 C 
ATOM     40  O   UNL     1     -13.117   5.790  -9.836  1.00  0.00    -0.250 OA
BRANCH  39  41
ATOM     41  O   UNL     1     -13.875   7.148  -8.163  1.00  0.00    -0.458 OA
BRANCH  41  42
ATOM     42  C   UNL     1     -14.310   8.136  -9.129  1.00  0.00     0.205 CG0
ATOM     43  C   UNL     1     -13.460   9.386  -8.913  1.00  0.00     0.056 C 
ATOM     44  G   UNL     1     -15.814   8.400  -8.919  1.00  0.00     0.000 G0
ENDBRANCH  41  42
ENDBRANCH  39  41
ENDBRANCH  35  39
ENDBRANCH  33  35
ENDBRANCH  23  31
ENDBRANCH  21  23
ENDBRANCH  19  21
ENDBRANCH  14  19
ENDBRANCH   7  14
ENDBRANCH   2   5
BRANCH   3  45
ATOM     45  C   UNL     1      -2.391   3.000   0.178  1.00  0.00     0.171 C 
BRANCH  45  46
ATOM     46  N   UNL     1      -2.467   2.089   1.312  1.00  0.00    -0.342 N 
ATOM     47  C   UNL     1      -1.370   1.417   1.792  1.00  0.00     0.247 C 
ATOM     48  O   UNL     1      -0.234   1.589   1.348  1.00  0.00    -0.273 OA
ATOM     49  H   UNL     1      -3.379   1.960   1.746  1.00  0.00     0.164 HD
BRANCH  47  50
ATOM     50  C   UNL     1      -1.665   0.408   2.910  1.00  0.00     0.212 CG0
ATOM     51  G   UNL     1      -0.854  -0.870   2.612  1.00  0.00     0.000 G0
BRANCH  50  52
ATOM     52  N   UNL     1      -1.263   1.070   4.149  1.00  0.00    -0.339 N 
ATOM     53  C   UNL     1      -0.114   0.759   4.834  1.00  0.00     0.243 C 
ATOM     54  O   UNL     1       0.642  -0.143   4.483  1.00  0.00    -0.273 OA
ATOM     55  H   UNL     1      -1.905   1.750   4.550  1.00  0.00     0.164 HD
BRANCH  53  56
ATOM     56  C   UNL     1       0.055   1.530   6.159  1.00  0.00     0.182 C 
BRANCH  56  57
ATOM     57  N   UNL     1      -1.122   2.359   6.439  1.00  0.00    -0.344 N 
ATOM     58  C   UNL     1      -1.836   2.253   7.608  1.00  0.00     0.220 C 
ATOM     59  O   UNL     1      -1.585   1.412   8.464  1.00  0.00    -0.275 OA
ATOM     60  H   UNL     1      -1.302   3.133   5.805  1.00  0.00     0.164 HD
BRANCH  58  61
ATOM     61  C   UNL     1      -2.977   3.248   7.708  1.00  0.00     0.100 C 
BRANCH  61  62
ATOM     62  C   UNL     1      -2.960   4.317   6.616  1.00  0.00     0.010 C 
BRANCH  62  63
ATOM     63  C   UNL     1      -4.109   4.200   5.606  1.00  0.00     0.000 C 
BRANCH  63  64
ATOM     64  C   UNL     1      -3.657   3.964   4.166  1.00  0.00    -0.003 C 
ATOM     65  C   UNL     1      -4.086   5.105   3.255  1.00  0.00     0.004 C 
ENDBRANCH  63  64
ENDBRANCH  62  63
ENDBRANCH  61  62
ENDBRANCH  58  61
ENDBRANCH  56  57
BRANCH  56  66
ATOM     66  C   UNL     1       1.349   2.342   6.173  1.00  0.00     0.157 C 
BRANCH  66  67
ATOM     67  C   UNL     1       1.945   2.389   7.551  1.00  0.00     0.305 C 
ATOM     68  O   UNL     1       2.893   1.737   7.961  1.00  0.00    -0.252 OA
BRANCH  67  69
ATOM     69  O   UNL     1       1.346   3.304   8.337  1.00  0.00    -0.481 OA
ATOM     70  H   UNL     1       2.017   4.008   8.458  1.00  0.00     0.296 HD
ENDBRANCH  67  69
ENDBRANCH  66  67
ENDBRANCH  56  66
ENDBRANCH  53  56
ENDBRANCH  50  52
ENDBRANCH  47  50
ENDBRANCH  45  46
BRANCH  45  71
ATOM     71  C   UNL     1      -1.672   4.303   0.546  1.00  0.00     0.037 C 
BRANCH  71  72
ATOM     72  C   UNL     1      -0.679   4.737  -0.535  1.00  0.00     0.026 C 
BRANCH  72  73
ATOM     73  C   UNL     1      -0.586   3.707  -1.658  1.00  0.00     0.146 C 
BRANCH  73  74
ATOM     74  N   UNL     1      -0.852   4.394  -2.918  1.00  0.00    -0.254 NA
ATOM     75  C   UNL     1      -1.895   4.051  -3.579  1.00  0.00     0.185 C 
ATOM     76  N   UNL     1      -2.167   4.666  -4.741  1.00  0.00    -0.370 N 
ATOM     77  N   UNL     1      -2.817   3.119  -3.279  1.00  0.00    -0.370 N 
ATOM     78  H   UNL     1      -1.518   5.377  -5.046  1.00  0.00     0.159 HD
ATOM     79  H   UNL     1      -2.878   4.354  -5.380  1.00  0.00     0.159 HD
ATOM     80  H   UNL     1      -2.744   2.579  -2.430  1.00  0.00     0.159 HD
ATOM     81  H   UNL     1      -3.660   3.017  -3.820  1.00  0.00     0.159 HD
ENDBRANCH  73  74
ENDBRANCH  72  73
ENDBRANCH  71  72
ENDBRANCH  45  71
ENDBRANCH   3  45
TORSDOF 20
ENDMDL
MODEL 26
REMARK VINA RESULT:    -5.903      2.725      5.983
REMARK INTER + INTRA:         -24.911
REMARK INTER:                 -17.379
REMARK INTRA:                  -7.533
REMARK UNBOUND:                -7.967
REMARK SMILES CCCCCC(=O)N[C@H](CC(=O)O)C(=O)N[C@H]1C(=O)N[C@H](CCCN=C(N)N)C(=O)N[C@@H]2CC[C@H](O)N(C2=O)[C@@H](CC(C)C)C(=O)N(C)[C@@H](Cc2ccccc2)C(=O)N[C@H](C(C)C)C(=O)O[C@@H]1C
REMARK SMILES IDX 30 1 31 2 29 3 32 5 35 6 37 7 34 8 38 9 33 10 39 11 36 12
REMARK SMILES IDX 40 14 41 15 42 16 43 17 44 18 45 19 46 20 47 21 48 22 49 23
REMARK SMILES IDX 50 24 51 25 52 26 56 27 53 28 55 29 54 30 57 31 58 32 59 33
REMARK SMILES IDX 60 35 61 36 62 37 63 38 64 39 65 40 66 41 67 42 68 43 21 45
REMARK SMILES IDX 20 46 18 47 19 48 17 50 16 52 14 53 15 54 9 56 8 57 6 58
REMARK SMILES IDX 7 59 5 61 4 62 3 63 2 64 1 65 10 66 11 67 12 68 13 69 22 71
REMARK SMILES IDX 23 72 24 73 25 74 26 75 27 76 28 77
REMARK H PARENT 31 4 36 13 59 34 20 49 16 55 8 60 13 70 27 78 27 79 28 80
REMARK H PARENT 28 81
REMARK Flexibility Score:  259.900
ROOT
ATOM      1  O   UNL     1      -2.490   3.437   2.145  1.00  0.00    -0.273 OA
ATOM      2  N   UNL     1      -3.180   2.055   0.458  1.00  0.00    -0.343 N 
ATOM      3  C   UNL     1      -2.238   2.822   1.108  1.00  0.00     0.243 C 
ATOM      4  H   UNL     1      -2.933   1.551  -0.384  1.00  0.00     0.164 HD
ENDROOT
BRANCH   2   5
ATOM      5  C   UNL     1      -4.566   2.036   0.915  1.00  0.00     0.171 C 
ATOM      6  C   UNL     1      -6.982   0.872  -0.186  1.00  0.00     0.214 C 
ATOM      7  N   UNL     1      -6.626   2.229  -0.531  1.00  0.00    -0.303 N 
ATOM      8  C   UNL     1      -6.503   0.457   1.196  1.00  0.00     0.057 C 
ATOM      9  C   UNL     1      -5.461   2.828  -0.080  1.00  0.00     0.247 C 
ATOM     10  C   UNL     1      -5.001   0.619   1.288  1.00  0.00     0.040 C 
ATOM     11  O   UNL     1      -5.120   3.960  -0.449  1.00  0.00    -0.272 OA
BRANCH   6  12
ATOM     12  O   UNL     1      -6.441   0.022  -1.171  1.00  0.00    -0.373 OA
ATOM     13  H   UNL     1      -6.729  -0.890  -0.953  1.00  0.00     0.213 HD
ENDBRANCH   6  12
BRANCH   7  14
ATOM     14  C   UNL     1      -7.488   2.919  -1.513  1.00  0.00     0.177 C 
BRANCH  14  15
ATOM     15  C   UNL     1      -7.158   2.633  -2.991  1.00  0.00     0.038 C 
BRANCH  15  16
ATOM     16  C   UNL     1      -6.524   3.743  -3.858  1.00  0.00    -0.015 C 
ATOM     17  C   UNL     1      -7.414   4.985  -3.960  1.00  0.00     0.007 C 
ATOM     18  C   UNL     1      -6.274   3.214  -5.276  1.00  0.00     0.007 C 
ENDBRANCH  15  16
ENDBRANCH  14  15
BRANCH  14  19
ATOM     19  C   UNL     1      -8.928   3.118  -0.928  1.00  0.00     0.245 C 
ATOM     20  O   UNL     1      -9.042   3.911   0.022  1.00  0.00    -0.272 OA
BRANCH  19  21
ATOM     21  N   UNL     1     -10.032   2.388  -1.331  1.00  0.00    -0.332 N 
ATOM     22  C   UNL     1     -10.510   1.168  -0.705  1.00  0.00     0.147 C 
BRANCH  21  23
ATOM     23  C   UNL     1     -10.796   2.876  -2.512  1.00  0.00     0.178 C 
BRANCH  23  24
ATOM     24  C   UNL     1     -10.868   1.884  -3.691  1.00  0.00     0.070 C 
BRANCH  24  25
ATOM     25  C   UNL     1     -10.324   2.354  -5.020  1.00  0.00    -0.045 A 
ATOM     26  C   UNL     1     -10.450   3.692  -5.414  1.00  0.00     0.004 A 
ATOM     27  C   UNL     1      -9.687   1.450  -5.883  1.00  0.00     0.004 A 
ATOM     28  C   UNL     1      -9.960   4.115  -6.652  1.00  0.00     0.000 A 
ATOM     29  C   UNL     1      -9.196   1.874  -7.119  1.00  0.00     0.000 A 
ATOM     30  C   UNL     1      -9.336   3.206  -7.504  1.00  0.00     0.000 A 
ENDBRANCH  24  25
ENDBRANCH  23  24
BRANCH  23  31
ATOM     31  C   UNL     1     -12.145   3.532  -2.129  1.00  0.00     0.243 C 
ATOM     32  O   UNL     1     -12.292   4.296  -1.179  1.00  0.00    -0.273 OA
ATOM     33  N   UNL     1     -13.223   3.036  -2.843  1.00  0.00    -0.341 N 
ATOM     34  H   UNL     1     -13.038   2.397  -3.620  1.00  0.00     0.164 HD
BRANCH  33  35
ATOM     35  C   UNL     1     -14.609   3.423  -2.568  1.00  0.00     0.194 C 
BRANCH  35  36
ATOM     36  C   UNL     1     -15.446   2.323  -1.855  1.00  0.00     0.017 C 
ATOM     37  C   UNL     1     -15.640   2.647  -0.363  1.00  0.00     0.010 C 
ATOM     38  C   UNL     1     -14.813   0.930  -1.943  1.00  0.00     0.010 C 
ENDBRANCH  35  36
BRANCH  35  39
ATOM     39  C   UNL     1     -15.335   3.981  -3.824  1.00  0.00     0.329 C 
ATOM     40  O   UNL     1     -16.553   4.053  -3.938  1.00  0.00    -0.250 OA
BRANCH  39  41
ATOM     41  O   UNL     1     -14.460   4.465  -4.757  1.00  0.00    -0.458 OA
BRANCH  41  42
ATOM     42  C   UNL     1     -15.013   4.759  -6.062  1.00  0.00     0.205 CG0
ATOM     43  C   UNL     1     -14.182   5.891  -6.663  1.00  0.00     0.056 C 
ATOM     44  G   UNL     1     -16.496   5.144  -5.892  1.00  0.00     0.000 G0
ENDBRANCH  41  42
ENDBRANCH  39  41
ENDBRANCH  35  39
ENDBRANCH  33  35
ENDBRANCH  23  31
ENDBRANCH  21  23
ENDBRANCH  19  21
ENDBRANCH  14  19
ENDBRANCH   7  14
ENDBRANCH   2   5
BRANCH   3  45
ATOM     45  C   UNL     1      -0.846   2.840   0.462  1.00  0.00     0.171 C 
BRANCH  45  46
ATOM     46  N   UNL     1       0.064   2.318   1.473  1.00  0.00    -0.342 N 
ATOM     47  C   UNL     1       0.770   1.155   1.297  1.00  0.00     0.247 C 
ATOM     48  O   UNL     1       0.743   0.508   0.249  1.00  0.00    -0.273 OA
ATOM     49  H   UNL     1       0.160   2.853   2.334  1.00  0.00     0.164 HD
BRANCH  47  50
ATOM     50  C   UNL     1       1.582   0.696   2.517  1.00  0.00     0.212 CG0
ATOM     51  G   UNL     1       2.676   1.752   2.773  1.00  0.00     0.000 G0
BRANCH  50  52
ATOM     52  N   UNL     1       0.617   0.588   3.608  1.00  0.00    -0.339 N 
ATOM     53  C   UNL     1       0.701   1.323   4.766  1.00  0.00     0.243 C 
ATOM     54  O   UNL     1       1.629   2.093   4.996  1.00  0.00    -0.273 OA
ATOM     55  H   UNL     1      -0.114  -0.115   3.525  1.00  0.00     0.164 HD
BRANCH  53  56
ATOM     56  C   UNL     1      -0.380   0.974   5.809  1.00  0.00     0.182 C 
BRANCH  56  57
ATOM     57  N   UNL     1      -1.129   2.170   6.210  1.00  0.00    -0.344 N 
ATOM     58  C   UNL     1      -2.403   2.425   5.763  1.00  0.00     0.220 C 
ATOM     59  O   UNL     1      -2.973   1.713   4.943  1.00  0.00    -0.275 OA
ATOM     60  H   UNL     1      -0.735   2.729   6.962  1.00  0.00     0.164 HD
BRANCH  58  61
ATOM     61  C   UNL     1      -3.006   3.687   6.353  1.00  0.00     0.100 C 
BRANCH  61  62
ATOM     62  C   UNL     1      -3.709   4.573   5.324  1.00  0.00     0.010 C 
BRANCH  62  63
ATOM     63  C   UNL     1      -5.237   4.444   5.325  1.00  0.00     0.000 C 
BRANCH  63  64
ATOM     64  C   UNL     1      -5.809   3.745   4.093  1.00  0.00    -0.003 C 
ATOM     65  C   UNL     1      -6.148   4.742   2.996  1.00  0.00     0.004 C 
ENDBRANCH  63  64
ENDBRANCH  62  63
ENDBRANCH  61  62
ENDBRANCH  58  61
ENDBRANCH  56  57
BRANCH  56  66
ATOM     66  C   UNL     1       0.214   0.237   7.008  1.00  0.00     0.157 C 
BRANCH  66  67
ATOM     67  C   UNL     1       0.307   1.136   8.207  1.00  0.00     0.305 C 
ATOM     68  O   UNL     1       1.156   1.987   8.422  1.00  0.00    -0.252 OA
BRANCH  67  69
ATOM     69  O   UNL     1      -0.716   0.952   9.064  1.00  0.00    -0.481 OA
ATOM     70  H   UNL     1      -0.336   0.424   9.798  1.00  0.00     0.296 HD
ENDBRANCH  67  69
ENDBRANCH  66  67
ENDBRANCH  56  66
ENDBRANCH  53  56
ENDBRANCH  50  52
ENDBRANCH  47  50
ENDBRANCH  45  46
BRANCH  45  71
ATOM     71  C   UNL     1      -0.470   4.266   0.045  1.00  0.00     0.037 C 
BRANCH  71  72
ATOM     72  C   UNL     1      -1.552   4.917  -0.821  1.00  0.00     0.026 C 
BRANCH  72  73
ATOM     73  C   UNL     1      -1.426   4.497  -2.284  1.00  0.00     0.146 C 
BRANCH  73  74
ATOM     74  N   UNL     1      -2.632   3.756  -2.642  1.00  0.00    -0.254 NA
ATOM     75  C   UNL     1      -2.547   2.480  -2.730  1.00  0.00     0.185 C 
ATOM     76  N   UNL     1      -3.640   1.771  -3.056  1.00  0.00    -0.370 N 
ATOM     77  N   UNL     1      -1.478   1.689  -2.537  1.00  0.00    -0.370 N 
ATOM     78  H   UNL     1      -4.489   2.291  -3.226  1.00  0.00     0.159 HD
ATOM     79  H   UNL     1      -3.618   0.793  -3.284  1.00  0.00     0.159 HD
ATOM     80  H   UNL     1      -0.585   2.085  -2.282  1.00  0.00     0.159 HD
ATOM     81  H   UNL     1      -1.558   0.686  -2.521  1.00  0.00     0.159 HD
ENDBRANCH  73  74
ENDBRANCH  72  73
ENDBRANCH  71  72
ENDBRANCH  45  71
ENDBRANCH   3  45
TORSDOF 20
ENDMDL
MODEL 27
REMARK VINA RESULT:    -5.854      2.808     13.076
REMARK INTER + INTRA:         -24.771
REMARK INTER:                 -17.863
REMARK INTRA:                  -6.908
REMARK UNBOUND:                -7.967
REMARK SMILES CCCCCC(=O)N[C@H](CC(=O)O)C(=O)N[C@H]1C(=O)N[C@H](CCCN=C(N)N)C(=O)N[C@@H]2CC[C@H](O)N(C2=O)[C@@H](CC(C)C)C(=O)N(C)[C@@H](Cc2ccccc2)C(=O)N[C@H](C(C)C)C(=O)O[C@@H]1C
REMARK SMILES IDX 30 1 31 2 29 3 32 5 35 6 37 7 34 8 38 9 33 10 39 11 36 12
REMARK SMILES IDX 40 14 41 15 42 16 43 17 44 18 45 19 46 20 47 21 48 22 49 23
REMARK SMILES IDX 50 24 51 25 52 26 56 27 53 28 55 29 54 30 57 31 58 32 59 33
REMARK SMILES IDX 60 35 61 36 62 37 63 38 64 39 65 40 66 41 67 42 68 43 21 45
REMARK SMILES IDX 20 46 18 47 19 48 17 50 16 52 14 53 15 54 9 56 8 57 6 58
REMARK SMILES IDX 7 59 5 61 4 62 3 63 2 64 1 65 10 66 11 67 12 68 13 69 22 71
REMARK SMILES IDX 23 72 24 73 25 74 26 75 27 76 28 77
REMARK H PARENT 31 4 36 13 59 34 20 49 16 55 8 60 13 70 27 78 27 79 28 80
REMARK H PARENT 28 81
REMARK Flexibility Score:  259.900
ROOT
ATOM      1  O   UNL     1      -9.543   2.445  -2.933  1.00  0.00    -0.273 OA
ATOM      2  N   UNL     1      -7.707   3.427  -1.987  1.00  0.00    -0.343 N 
ATOM      3  C   UNL     1      -8.493   3.075  -3.063  1.00  0.00     0.243 C 
ATOM      4  H   UNL     1      -6.857   3.958  -2.130  1.00  0.00     0.164 HD
ENDROOT
BRANCH   2   5
ATOM      5  C   UNL     1      -8.033   2.959  -0.644  1.00  0.00     0.171 C 
ATOM      6  C   UNL     1      -7.301   3.903   1.997  1.00  0.00     0.214 C 
ATOM      7  N   UNL     1      -6.481   2.908   1.346  1.00  0.00    -0.303 N 
ATOM      8  C   UNL     1      -8.766   3.830   1.598  1.00  0.00     0.057 C 
ATOM      9  C   UNL     1      -6.745   2.451   0.065  1.00  0.00     0.247 C 
ATOM     10  C   UNL     1      -8.896   3.978   0.097  1.00  0.00     0.040 C 
ATOM     11  O   UNL     1      -5.990   1.664  -0.519  1.00  0.00    -0.272 OA
BRANCH   6  12
ATOM     12  O   UNL     1      -6.768   5.170   1.688  1.00  0.00    -0.373 OA
ATOM     13  H   UNL     1      -6.873   5.297   0.721  1.00  0.00     0.213 HD
ENDBRANCH   6  12
BRANCH   7  14
ATOM     14  C   UNL     1      -5.247   2.493   2.046  1.00  0.00     0.177 C 
BRANCH  14  15
ATOM     15  C   UNL     1      -4.075   3.490   1.956  1.00  0.00     0.038 C 
BRANCH  15  16
ATOM     16  C   UNL     1      -3.074   3.383   0.785  1.00  0.00    -0.015 C 
ATOM     17  C   UNL     1      -2.274   2.077   0.817  1.00  0.00     0.007 C 
ATOM     18  C   UNL     1      -2.084   4.554   0.840  1.00  0.00     0.007 C 
ENDBRANCH  15  16
ENDBRANCH  14  15
BRANCH  14  19
ATOM     19  C   UNL     1      -5.601   1.619   3.299  1.00  0.00     0.245 C 
ATOM     20  O   UNL     1      -6.288   0.604   3.097  1.00  0.00    -0.272 OA
BRANCH  19  21
ATOM     21  N   UNL     1      -5.289   1.974   4.599  1.00  0.00    -0.332 N 
ATOM     22  C   UNL     1      -6.011   2.945   5.404  1.00  0.00     0.147 C 
BRANCH  21  23
ATOM     23  C   UNL     1      -4.112   1.322   5.236  1.00  0.00     0.178 C 
BRANCH  23  24
ATOM     24  C   UNL     1      -3.821  -0.110   4.741  1.00  0.00     0.070 C 
BRANCH  24  25
ATOM     25  C   UNL     1      -2.636  -0.822   5.352  1.00  0.00    -0.045 A 
ATOM     26  C   UNL     1      -1.444  -0.976   4.633  1.00  0.00     0.004 A 
ATOM     27  C   UNL     1      -2.718  -1.344   6.651  1.00  0.00     0.004 A 
ATOM     28  C   UNL     1      -0.359  -1.651   5.199  1.00  0.00     0.000 A 
ATOM     29  C   UNL     1      -1.633  -2.017   7.215  1.00  0.00     0.000 A 
ATOM     30  C   UNL     1      -0.455  -2.172   6.487  1.00  0.00     0.000 A 
ENDBRANCH  24  25
ENDBRANCH  23  24
BRANCH  23  31
ATOM     31  C   UNL     1      -2.876   2.249   5.312  1.00  0.00     0.243 C 
ATOM     32  O   UNL     1      -2.206   2.582   4.337  1.00  0.00    -0.273 OA
ATOM     33  N   UNL     1      -2.471   2.527   6.606  1.00  0.00    -0.341 N 
ATOM     34  H   UNL     1      -3.067   2.218   7.378  1.00  0.00     0.164 HD
BRANCH  33  35
ATOM     35  C   UNL     1      -1.257   3.286   6.918  1.00  0.00     0.194 C 
BRANCH  35  36
ATOM     36  C   UNL     1      -0.199   2.486   7.730  1.00  0.00     0.017 C 
ATOM     37  C   UNL     1       0.880   1.891   6.808  1.00  0.00     0.010 C 
ATOM     38  C   UNL     1      -0.804   1.330   8.536  1.00  0.00     0.010 C 
ENDBRANCH  35  36
BRANCH  35  39
ATOM     39  C   UNL     1      -1.564   4.665   7.566  1.00  0.00     0.329 C 
ATOM     40  O   UNL     1      -2.477   5.402   7.211  1.00  0.00    -0.250 OA
BRANCH  39  41
ATOM     41  O   UNL     1      -0.754   4.929   8.635  1.00  0.00    -0.458 OA
BRANCH  41  42
ATOM     42  C   UNL     1      -1.305   5.791   9.659  1.00  0.00     0.205 CG0
ATOM     43  C   UNL     1      -0.692   7.177   9.465  1.00  0.00     0.056 C 
ATOM     44  G   UNL     1      -0.973   5.189  11.039  1.00  0.00     0.000 G0
ENDBRANCH  41  42
ENDBRANCH  39  41
ENDBRANCH  35  39
ENDBRANCH  33  35
ENDBRANCH  23  31
ENDBRANCH  21  23
ENDBRANCH  19  21
ENDBRANCH  14  19
ENDBRANCH   7  14
ENDBRANCH   2   5
BRANCH   3  45
ATOM     45  C   UNL     1      -7.979   3.540  -4.432  1.00  0.00     0.171 C 
BRANCH  45  46
ATOM     46  N   UNL     1      -9.135   3.509  -5.318  1.00  0.00    -0.342 N 
ATOM     47  C   UNL     1      -9.369   4.481  -6.258  1.00  0.00     0.247 C 
ATOM     48  O   UNL     1      -8.585   5.406  -6.471  1.00  0.00    -0.273 OA
ATOM     49  H   UNL     1      -9.781   2.729  -5.213  1.00  0.00     0.164 HD
BRANCH  47  50
ATOM     50  C   UNL     1     -10.699   4.349  -7.013  1.00  0.00     0.212 CG0
ATOM     51  G   UNL     1     -10.426   3.552  -8.304  1.00  0.00     0.000 G0
BRANCH  50  52
ATOM     52  N   UNL     1     -11.603   3.664  -6.093  1.00  0.00    -0.339 N 
ATOM     53  C   UNL     1     -12.812   4.182  -5.696  1.00  0.00     0.243 C 
ATOM     54  O   UNL     1     -13.203   5.293  -6.045  1.00  0.00    -0.273 OA
ATOM     55  H   UNL     1     -11.285   2.790  -5.680  1.00  0.00     0.164 HD
BRANCH  53  56
ATOM     56  C   UNL     1     -13.552   3.320  -4.653  1.00  0.00     0.182 C 
BRANCH  56  57
ATOM     57  N   UNL     1     -12.960   3.482  -3.321  1.00  0.00    -0.344 N 
ATOM     58  C   UNL     1     -13.723   3.596  -2.185  1.00  0.00     0.220 C 
ATOM     59  O   UNL     1     -14.948   3.646  -2.211  1.00  0.00    -0.275 OA
ATOM     60  H   UNL     1     -11.955   3.344  -3.244  1.00  0.00     0.164 HD
BRANCH  58  61
ATOM     61  C   UNL     1     -12.900   3.694  -0.914  1.00  0.00     0.100 C 
BRANCH  61  62
ATOM     62  C   UNL     1     -13.580   4.489   0.201  1.00  0.00     0.010 C 
BRANCH  62  63
ATOM     63  C   UNL     1     -12.665   5.506   0.895  1.00  0.00     0.000 C 
BRANCH  63  64
ATOM     64  C   UNL     1     -12.345   5.171   2.351  1.00  0.00    -0.003 C 
ATOM     65  C   UNL     1     -13.080   6.097   3.308  1.00  0.00     0.004 C 
ENDBRANCH  63  64
ENDBRANCH  62  63
ENDBRANCH  61  62
ENDBRANCH  58  61
ENDBRANCH  56  57
BRANCH  56  66
ATOM     66  C   UNL     1     -13.617   1.856  -5.082  1.00  0.00     0.157 C 
BRANCH  66  67
ATOM     67  C   UNL     1     -12.676   1.010  -4.273  1.00  0.00     0.305 C 
ATOM     68  O   UNL     1     -12.973   0.240  -3.372  1.00  0.00    -0.252 OA
BRANCH  67  69
ATOM     69  O   UNL     1     -11.398   1.138  -4.676  1.00  0.00    -0.481 OA
ATOM     70  H   UNL     1     -10.866   0.758  -3.945  1.00  0.00     0.296 HD
ENDBRANCH  67  69
ENDBRANCH  66  67
ENDBRANCH  56  66
ENDBRANCH  53  56
ENDBRANCH  50  52
ENDBRANCH  47  50
ENDBRANCH  45  46
BRANCH  45  71
ATOM     71  C   UNL     1      -6.863   2.613  -4.926  1.00  0.00     0.037 C 
BRANCH  71  72
ATOM     72  C   UNL     1      -5.791   3.372  -5.713  1.00  0.00     0.026 C 
BRANCH  72  73
ATOM     73  C   UNL     1      -4.386   2.900  -5.343  1.00  0.00     0.146 C 
BRANCH  73  74
ATOM     74  N   UNL     1      -3.730   3.979  -4.612  1.00  0.00    -0.254 NA
ATOM     75  C   UNL     1      -3.652   3.877  -3.336  1.00  0.00     0.185 C 
ATOM     76  N   UNL     1      -3.053   4.853  -2.635  1.00  0.00    -0.370 N 
ATOM     77  N   UNL     1      -4.099   2.891  -2.538  1.00  0.00    -0.370 N 
ATOM     78  H   UNL     1      -2.694   5.638  -3.159  1.00  0.00     0.159 HD
ATOM     79  H   UNL     1      -3.083   4.913  -1.633  1.00  0.00     0.159 HD
ATOM     80  H   UNL     1      -4.568   2.088  -2.929  1.00  0.00     0.159 HD
ATOM     81  H   UNL     1      -3.878   2.864  -1.557  1.00  0.00     0.159 HD
ENDBRANCH  73  74
ENDBRANCH  72  73
ENDBRANCH  71  72
ENDBRANCH  45  71
ENDBRANCH   3  45
TORSDOF 20
ENDMDL
MODEL 28
REMARK VINA RESULT:    -5.851      2.845      6.205
REMARK INTER + INTRA:         -24.764
REMARK INTER:                 -19.815
REMARK INTRA:                  -4.948
REMARK UNBOUND:                -7.967
REMARK SMILES CCCCCC(=O)N[C@H](CC(=O)O)C(=O)N[C@H]1C(=O)N[C@H](CCCN=C(N)N)C(=O)N[C@@H]2CC[C@H](O)N(C2=O)[C@@H](CC(C)C)C(=O)N(C)[C@@H](Cc2ccccc2)C(=O)N[C@H](C(C)C)C(=O)O[C@@H]1C
REMARK SMILES IDX 30 1 31 2 29 3 32 5 35 6 37 7 34 8 38 9 33 10 39 11 36 12
REMARK SMILES IDX 40 14 41 15 42 16 43 17 44 18 45 19 46 20 47 21 48 22 49 23
REMARK SMILES IDX 50 24 51 25 52 26 56 27 53 28 55 29 54 30 57 31 58 32 59 33
REMARK SMILES IDX 60 35 61 36 62 37 63 38 64 39 65 40 66 41 67 42 68 43 21 45
REMARK SMILES IDX 20 46 18 47 19 48 17 50 16 52 14 53 15 54 9 56 8 57 6 58
REMARK SMILES IDX 7 59 5 61 4 62 3 63 2 64 1 65 10 66 11 67 12 68 13 69 22 71
REMARK SMILES IDX 23 72 24 73 25 74 26 75 27 76 28 77
REMARK H PARENT 31 4 36 13 59 34 20 49 16 55 8 60 13 70 27 78 27 79 28 80
REMARK H PARENT 28 81
REMARK Flexibility Score:  259.900
ROOT
ATOM      1  O   UNL     1      -3.788   2.659  -2.077  1.00  0.00    -0.273 OA
ATOM      2  N   UNL     1      -5.568   3.239  -0.763  1.00  0.00    -0.343 N 
ATOM      3  C   UNL     1      -4.221   3.177  -1.047  1.00  0.00     0.243 C 
ATOM      4  H   UNL     1      -5.888   3.685   0.088  1.00  0.00     0.164 HD
ENDROOT
BRANCH   2   5
ATOM      5  C   UNL     1      -6.540   2.579  -1.627  1.00  0.00     0.171 C 
ATOM      6  C   UNL     1      -6.271   1.038  -4.068  1.00  0.00     0.214 C 
ATOM      7  N   UNL     1      -6.473   2.466  -4.148  1.00  0.00    -0.303 N 
ATOM      8  C   UNL     1      -6.910   0.408  -2.841  1.00  0.00     0.057 C 
ATOM      9  C   UNL     1      -6.559   3.268  -3.022  1.00  0.00     0.247 C 
ATOM     10  C   UNL     1      -6.368   1.061  -1.588  1.00  0.00     0.040 C 
ATOM     11  O   UNL     1      -6.645   4.501  -3.099  1.00  0.00    -0.272 OA
BRANCH   6  12
ATOM     12  O   UNL     1      -4.883   0.799  -4.078  1.00  0.00    -0.373 OA
ATOM     13  H   UNL     1      -4.445   1.636  -3.815  1.00  0.00     0.213 HD
ENDBRANCH   6  12
BRANCH   7  14
ATOM     14  C   UNL     1      -6.439   3.073  -5.496  1.00  0.00     0.177 C 
BRANCH  14  15
ATOM     15  C   UNL     1      -5.452   2.423  -6.484  1.00  0.00     0.038 C 
BRANCH  15  16
ATOM     16  C   UNL     1      -5.993   1.542  -7.632  1.00  0.00    -0.015 C 
ATOM     17  C   UNL     1      -5.207   0.237  -7.788  1.00  0.00     0.007 C 
ATOM     18  C   UNL     1      -5.914   2.312  -8.957  1.00  0.00     0.007 C 
ENDBRANCH  15  16
ENDBRANCH  14  15
BRANCH  14  19
ATOM     19  C   UNL     1      -7.850   3.647  -5.869  1.00  0.00     0.245 C 
ATOM     20  O   UNL     1      -7.955   4.884  -5.915  1.00  0.00    -0.272 OA
BRANCH  19  21
ATOM     21  N   UNL     1      -8.981   2.868  -6.033  1.00  0.00    -0.332 N 
ATOM     22  C   UNL     1      -9.767   2.286  -4.959  1.00  0.00     0.147 C 
BRANCH  21  23
ATOM     23  C   UNL     1      -9.436   2.585  -7.422  1.00  0.00     0.178 C 
BRANCH  23  24
ATOM     24  C   UNL     1      -9.894   1.133  -7.668  1.00  0.00     0.070 C 
BRANCH  24  25
ATOM     25  C   UNL     1      -9.322   0.427  -8.875  1.00  0.00    -0.045 A 
ATOM     26  C   UNL     1      -8.569  -0.746  -8.731  1.00  0.00     0.004 A 
ATOM     27  C   UNL     1      -9.536   0.941 -10.163  1.00  0.00     0.004 A 
ATOM     28  C   UNL     1      -8.030  -1.383  -9.850  1.00  0.00     0.000 A 
ATOM     29  C   UNL     1      -8.997   0.302 -11.281  1.00  0.00     0.000 A 
ATOM     30  C   UNL     1      -8.242  -0.859 -11.123  1.00  0.00     0.000 A 
ENDBRANCH  24  25
ENDBRANCH  23  24
BRANCH  23  31
ATOM     31  C   UNL     1     -10.386   3.672  -7.979  1.00  0.00     0.243 C 
ATOM     32  O   UNL     1     -10.005   4.737  -8.459  1.00  0.00    -0.273 OA
ATOM     33  N   UNL     1     -11.723   3.422  -7.722  1.00  0.00    -0.341 N 
ATOM     34  H   UNL     1     -11.978   2.519  -7.314  1.00  0.00     0.164 HD
BRANCH  33  35
ATOM     35  C   UNL     1     -12.791   4.370  -8.051  1.00  0.00     0.194 C 
BRANCH  35  36
ATOM     36  C   UNL     1     -13.094   5.401  -6.928  1.00  0.00     0.017 C 
ATOM     37  C   UNL     1     -13.126   4.728  -5.545  1.00  0.00     0.010 C 
ATOM     38  C   UNL     1     -14.432   6.126  -7.117  1.00  0.00     0.010 C 
ENDBRANCH  35  36
BRANCH  35  39
ATOM     39  C   UNL     1     -14.081   3.666  -8.556  1.00  0.00     0.329 C 
ATOM     40  O   UNL     1     -14.747   2.888  -7.882  1.00  0.00    -0.250 OA
BRANCH  39  41
ATOM     41  O   UNL     1     -14.442   4.077  -9.809  1.00  0.00    -0.458 OA
BRANCH  41  42
ATOM     42  C   UNL     1     -15.208   3.135 -10.598  1.00  0.00     0.205 CG0
ATOM     43  C   UNL     1     -14.220   2.372 -11.478  1.00  0.00     0.056 C 
ATOM     44  G   UNL     1     -16.251   3.916 -11.421  1.00  0.00     0.000 G0
ENDBRANCH  41  42
ENDBRANCH  39  41
ENDBRANCH  35  39
ENDBRANCH  33  35
ENDBRANCH  23  31
ENDBRANCH  21  23
ENDBRANCH  19  21
ENDBRANCH  14  19
ENDBRANCH   7  14
ENDBRANCH   2   5
BRANCH   3  45
ATOM     45  C   UNL     1      -3.299   3.817  -0.000  1.00  0.00     0.171 C 
BRANCH  45  46
ATOM     46  N   UNL     1      -1.981   3.239  -0.231  1.00  0.00    -0.342 N 
ATOM     47  C   UNL     1      -0.822   3.939  -0.010  1.00  0.00     0.247 C 
ATOM     48  O   UNL     1      -0.807   5.075   0.466  1.00  0.00    -0.273 OA
ATOM     49  H   UNL     1      -1.946   2.280  -0.571  1.00  0.00     0.164 HD
BRANCH  47  50
ATOM     50  C   UNL     1       0.465   3.212  -0.426  1.00  0.00     0.212 CG0
ATOM     51  G   UNL     1       1.655   3.987   0.174  1.00  0.00     0.000 G0
BRANCH  50  52
ATOM     52  N   UNL     1       0.335   1.856   0.101  1.00  0.00    -0.339 N 
ATOM     53  C   UNL     1       1.001   1.412   1.217  1.00  0.00     0.243 C 
ATOM     54  O   UNL     1       1.804   2.110   1.830  1.00  0.00    -0.273 OA
ATOM     55  H   UNL     1      -0.231   1.196  -0.428  1.00  0.00     0.164 HD
BRANCH  53  56
ATOM     56  C   UNL     1       0.774  -0.080   1.532  1.00  0.00     0.182 C 
BRANCH  56  57
ATOM     57  N   UNL     1       0.278  -0.260   2.900  1.00  0.00    -0.344 N 
ATOM     58  C   UNL     1      -0.737  -1.133   3.206  1.00  0.00     0.220 C 
ATOM     59  O   UNL     1      -1.348  -1.766   2.352  1.00  0.00    -0.275 OA
ATOM     60  H   UNL     1       0.821   0.166   3.646  1.00  0.00     0.164 HD
BRANCH  58  61
ATOM     61  C   UNL     1      -1.046  -1.200   4.690  1.00  0.00     0.100 C 
BRANCH  61  62
ATOM     62  C   UNL     1      -0.900   0.140   5.411  1.00  0.00     0.010 C 
BRANCH  62  63
ATOM     63  C   UNL     1       0.372   0.261   6.260  1.00  0.00     0.000 C 
BRANCH  63  64
ATOM     64  C   UNL     1       0.144   0.844   7.653  1.00  0.00    -0.003 C 
ATOM     65  C   UNL     1       1.091   0.231   8.674  1.00  0.00     0.004 C 
ENDBRANCH  63  64
ENDBRANCH  62  63
ENDBRANCH  61  62
ENDBRANCH  58  61
ENDBRANCH  56  57
BRANCH  56  66
ATOM     66  C   UNL     1       2.029  -0.908   1.260  1.00  0.00     0.157 C 
BRANCH  66  67
ATOM     67  C   UNL     1       2.714  -1.293   2.539  1.00  0.00     0.305 C 
ATOM     68  O   UNL     1       2.728  -2.398   3.059  1.00  0.00    -0.252 OA
BRANCH  67  69
ATOM     69  O   UNL     1       3.400  -0.268   3.080  1.00  0.00    -0.481 OA
ATOM     70  H   UNL     1       2.985   0.537   2.705  1.00  0.00     0.296 HD
ENDBRANCH  67  69
ENDBRANCH  66  67
ENDBRANCH  56  66
ENDBRANCH  53  56
ENDBRANCH  50  52
ENDBRANCH  47  50
ENDBRANCH  45  46
BRANCH  45  71
ATOM     71  C   UNL     1      -3.808   3.518   1.414  1.00  0.00     0.037 C 
BRANCH  71  72
ATOM     72  C   UNL     1      -3.714   4.741   2.330  1.00  0.00     0.026 C 
BRANCH  72  73
ATOM     73  C   UNL     1      -4.753   4.684   3.449  1.00  0.00     0.146 C 
BRANCH  73  74
ATOM     74  N   UNL     1      -4.054   4.869   4.717  1.00  0.00    -0.254 NA
ATOM     75  C   UNL     1      -4.329   4.064   5.676  1.00  0.00     0.185 C 
ATOM     76  N   UNL     1      -3.702   4.209   6.854  1.00  0.00    -0.370 N 
ATOM     77  N   UNL     1      -5.195   3.036   5.694  1.00  0.00    -0.370 N 
ATOM     78  H   UNL     1      -3.037   4.966   6.929  1.00  0.00     0.159 HD
ATOM     79  H   UNL     1      -3.967   3.714   7.687  1.00  0.00     0.159 HD
ATOM     80  H   UNL     1      -5.736   2.806   4.874  1.00  0.00     0.159 HD
ATOM     81  H   UNL     1      -5.242   2.399   6.471  1.00  0.00     0.159 HD
ENDBRANCH  73  74
ENDBRANCH  72  73
ENDBRANCH  71  72
ENDBRANCH  45  71
ENDBRANCH   3  45
TORSDOF 20
ENDMDL
MODEL 29
REMARK VINA RESULT:    -5.846      4.415      7.442
REMARK INTER + INTRA:         -24.749
REMARK INTER:                 -18.528
REMARK INTRA:                  -6.220
REMARK UNBOUND:                -7.967
REMARK SMILES CCCCCC(=O)N[C@H](CC(=O)O)C(=O)N[C@H]1C(=O)N[C@H](CCCN=C(N)N)C(=O)N[C@@H]2CC[C@H](O)N(C2=O)[C@@H](CC(C)C)C(=O)N(C)[C@@H](Cc2ccccc2)C(=O)N[C@H](C(C)C)C(=O)O[C@@H]1C
REMARK SMILES IDX 30 1 31 2 29 3 32 5 35 6 37 7 34 8 38 9 33 10 39 11 36 12
REMARK SMILES IDX 40 14 41 15 42 16 43 17 44 18 45 19 46 20 47 21 48 22 49 23
REMARK SMILES IDX 50 24 51 25 52 26 56 27 53 28 55 29 54 30 57 31 58 32 59 33
REMARK SMILES IDX 60 35 61 36 62 37 63 38 64 39 65 40 66 41 67 42 68 43 21 45
REMARK SMILES IDX 20 46 18 47 19 48 17 50 16 52 14 53 15 54 9 56 8 57 6 58
REMARK SMILES IDX 7 59 5 61 4 62 3 63 2 64 1 65 10 66 11 67 12 68 13 69 22 71
REMARK SMILES IDX 23 72 24 73 25 74 26 75 27 76 28 77
REMARK H PARENT 31 4 36 13 59 34 20 49 16 55 8 60 13 70 27 78 27 79 28 80
REMARK H PARENT 28 81
REMARK Flexibility Score:  259.900
ROOT
ATOM      1  O   UNL     1      -4.317   1.679  -0.541  1.00  0.00    -0.273 OA
ATOM      2  N   UNL     1      -5.753   3.228   0.335  1.00  0.00    -0.343 N 
ATOM      3  C   UNL     1      -4.547   2.564   0.284  1.00  0.00     0.243 C 
ATOM      4  H   UNL     1      -5.902   3.961   1.018  1.00  0.00     0.164 HD
ENDROOT
BRANCH   2   5
ATOM      5  C   UNL     1      -6.861   2.822  -0.523  1.00  0.00     0.171 C 
ATOM      6  C   UNL     1      -9.651   3.605  -0.631  1.00  0.00     0.214 C 
ATOM      7  N   UNL     1      -9.260   2.479   0.186  1.00  0.00    -0.303 N 
ATOM      8  C   UNL     1      -8.760   3.803  -1.847  1.00  0.00     0.057 C 
ATOM      9  C   UNL     1      -7.939   2.084   0.323  1.00  0.00     0.247 C 
ATOM     10  C   UNL     1      -7.323   3.979  -1.407  1.00  0.00     0.040 C 
ATOM     11  O   UNL     1      -7.603   1.174   1.092  1.00  0.00    -0.272 OA
BRANCH   6  12
ATOM     12  O   UNL     1      -9.635   4.754   0.184  1.00  0.00    -0.373 OA
ATOM     13  H   UNL     1      -8.714   4.867   0.503  1.00  0.00     0.213 HD
ENDBRANCH   6  12
BRANCH   7  14
ATOM     14  C   UNL     1     -10.317   1.843   1.001  1.00  0.00     0.177 C 
BRANCH  14  15
ATOM     15  C   UNL     1     -10.504   2.435   2.411  1.00  0.00     0.038 C 
BRANCH  15  16
ATOM     16  C   UNL     1     -10.903   1.507   3.579  1.00  0.00    -0.015 C 
ATOM     17  C   UNL     1     -10.772   2.193   4.942  1.00  0.00     0.007 C 
ATOM     18  C   UNL     1     -10.008   0.261   3.580  1.00  0.00     0.007 C 
ENDBRANCH  15  16
ENDBRANCH  14  15
BRANCH  14  19
ATOM     19  C   UNL     1     -11.469   1.314   0.079  1.00  0.00     0.245 C 
ATOM     20  O   UNL     1     -11.140   0.551  -0.846  1.00  0.00    -0.272 OA
BRANCH  19  21
ATOM     21  N   UNL     1     -12.784   1.733   0.170  1.00  0.00    -0.332 N 
ATOM     22  C   UNL     1     -13.424   2.698  -0.705  1.00  0.00     0.147 C 
BRANCH  21  23
ATOM     23  C   UNL     1     -13.622   1.162   1.261  1.00  0.00     0.178 C 
BRANCH  23  24
ATOM     24  C   UNL     1     -14.699   2.117   1.815  1.00  0.00     0.070 C 
BRANCH  24  25
ATOM     25  C   UNL     1     -14.278   3.068   2.911  1.00  0.00    -0.045 A 
ATOM     26  C   UNL     1     -13.644   4.279   2.605  1.00  0.00     0.004 A 
ATOM     27  C   UNL     1     -14.514   2.747   4.256  1.00  0.00     0.004 A 
ATOM     28  C   UNL     1     -13.243   5.146   3.624  1.00  0.00     0.000 A 
ATOM     29  C   UNL     1     -14.113   3.614   5.273  1.00  0.00     0.000 A 
ATOM     30  C   UNL     1     -13.475   4.812   4.957  1.00  0.00     0.000 A 
ENDBRANCH  24  25
ENDBRANCH  23  24
BRANCH  23  31
ATOM     31  C   UNL     1     -14.117  -0.272   0.955  1.00  0.00     0.243 C 
ATOM     32  O   UNL     1     -13.772  -1.267   1.587  1.00  0.00    -0.273 OA
ATOM     33  N   UNL     1     -14.845  -0.367  -0.219  1.00  0.00    -0.341 N 
ATOM     34  H   UNL     1     -15.097   0.498  -0.705  1.00  0.00     0.164 HD
BRANCH  33  35
ATOM     35  C   UNL     1     -15.313  -1.642  -0.768  1.00  0.00     0.194 C 
BRANCH  35  36
ATOM     36  C   UNL     1     -14.785  -1.950  -2.198  1.00  0.00     0.017 C 
ATOM     37  C   UNL     1     -13.313  -2.396  -2.167  1.00  0.00     0.010 C 
ATOM     38  C   UNL     1     -14.882  -0.750  -3.148  1.00  0.00     0.010 C 
ENDBRANCH  35  36
BRANCH  35  39
ATOM     39  C   UNL     1     -16.856  -1.805  -0.671  1.00  0.00     0.329 C 
ATOM     40  O   UNL     1     -17.658  -0.933  -0.983  1.00  0.00    -0.250 OA
BRANCH  39  41
ATOM     41  O   UNL     1     -17.222  -3.063  -0.279  1.00  0.00    -0.458 OA
BRANCH  41  42
ATOM     42  C   UNL     1     -18.267  -3.144   0.720  1.00  0.00     0.205 CG0
ATOM     43  C   UNL     1     -17.589  -3.125   2.088  1.00  0.00     0.056 C 
ATOM     44  G   UNL     1     -19.076  -4.435   0.481  1.00  0.00     0.000 G0
ENDBRANCH  41  42
ENDBRANCH  39  41
ENDBRANCH  35  39
ENDBRANCH  33  35
ENDBRANCH  23  31
ENDBRANCH  21  23
ENDBRANCH  19  21
ENDBRANCH  14  19
ENDBRANCH   7  14
ENDBRANCH   2   5
BRANCH   3  45
ATOM     45  C   UNL     1      -3.503   3.018   1.313  1.00  0.00     0.171 C 
BRANCH  45  46
ATOM     46  N   UNL     1      -2.267   2.339   0.946  1.00  0.00    -0.342 N 
ATOM     47  C   UNL     1      -1.171   3.012   0.469  1.00  0.00     0.247 C 
ATOM     48  O   UNL     1      -1.125   4.240   0.386  1.00  0.00    -0.273 OA
ATOM     49  H   UNL     1      -2.242   1.326   1.053  1.00  0.00     0.164 HD
BRANCH  47  50
ATOM     50  C   UNL     1      -0.005   2.121   0.018  1.00  0.00     0.212 CG0
ATOM     51  G   UNL     1       1.084   3.038  -0.572  1.00  0.00     0.000 G0
BRANCH  50  52
ATOM     52  N   UNL     1       0.427   1.408   1.217  1.00  0.00    -0.339 N 
ATOM     53  C   UNL     1       1.744   1.289   1.591  1.00  0.00     0.243 C 
ATOM     54  O   UNL     1       2.667   1.731   0.914  1.00  0.00    -0.273 OA
ATOM     55  H   UNL     1      -0.284   0.924   1.762  1.00  0.00     0.164 HD
BRANCH  53  56
ATOM     56  C   UNL     1       1.963   0.419   2.846  1.00  0.00     0.182 C 
BRANCH  56  57
ATOM     57  N   UNL     1       2.413   1.233   3.979  1.00  0.00    -0.344 N 
ATOM     58  C   UNL     1       1.545   1.725   4.923  1.00  0.00     0.220 C 
ATOM     59  O   UNL     1       0.330   1.581   4.846  1.00  0.00    -0.275 OA
ATOM     60  H   UNL     1       3.416   1.290   4.135  1.00  0.00     0.164 HD
BRANCH  58  61
ATOM     61  C   UNL     1       2.237   2.490   6.036  1.00  0.00     0.100 C 
BRANCH  61  62
ATOM     62  C   UNL     1       1.478   2.469   7.363  1.00  0.00     0.010 C 
BRANCH  62  63
ATOM     63  C   UNL     1       1.910   1.346   8.315  1.00  0.00     0.000 C 
BRANCH  63  64
ATOM     64  C   UNL     1       0.768   0.746   9.135  1.00  0.00    -0.003 C 
ATOM     65  C   UNL     1      -0.437   0.431   8.260  1.00  0.00     0.004 C 
ENDBRANCH  63  64
ENDBRANCH  62  63
ENDBRANCH  61  62
ENDBRANCH  58  61
ENDBRANCH  56  57
BRANCH  56  66
ATOM     66  C   UNL     1       2.909  -0.746   2.560  1.00  0.00     0.157 C 
BRANCH  66  67
ATOM     67  C   UNL     1       2.423  -1.571   1.404  1.00  0.00     0.305 C 
ATOM     68  O   UNL     1       1.290  -1.597   0.947  1.00  0.00    -0.252 OA
BRANCH  67  69
ATOM     69  O   UNL     1       3.410  -2.292   0.839  1.00  0.00    -0.481 OA
ATOM     70  H   UNL     1       3.894  -1.654   0.273  1.00  0.00     0.296 HD
ENDBRANCH  67  69
ENDBRANCH  66  67
ENDBRANCH  56  66
ENDBRANCH  53  56
ENDBRANCH  50  52
ENDBRANCH  47  50
ENDBRANCH  45  46
BRANCH  45  71
ATOM     71  C   UNL     1      -3.953   2.645   2.730  1.00  0.00     0.037 C 
BRANCH  71  72
ATOM     72  C   UNL     1      -4.396   1.183   2.828  1.00  0.00     0.026 C 
BRANCH  72  73
ATOM     73  C   UNL     1      -3.474   0.379   3.743  1.00  0.00     0.146 C 
BRANCH  73  74
ATOM     74  N   UNL     1      -2.671  -0.504   2.903  1.00  0.00    -0.254 NA
ATOM     75  C   UNL     1      -1.697  -1.131   3.452  1.00  0.00     0.185 C 
ATOM     76  N   UNL     1      -0.941  -1.952   2.706  1.00  0.00    -0.370 N 
ATOM     77  N   UNL     1      -1.286  -1.098   4.732  1.00  0.00    -0.370 N 
ATOM     78  H   UNL     1      -1.179  -2.030   1.727  1.00  0.00     0.159 HD
ATOM     79  H   UNL     1      -0.082  -2.360   3.029  1.00  0.00     0.159 HD
ATOM     80  H   UNL     1      -1.764  -0.525   5.411  1.00  0.00     0.159 HD
ATOM     81  H   UNL     1      -0.577  -1.725   5.075  1.00  0.00     0.159 HD
ENDBRANCH  73  74
ENDBRANCH  72  73
ENDBRANCH  71  72
ENDBRANCH  45  71
ENDBRANCH   3  45
TORSDOF 20
ENDMDL
MODEL 30
REMARK VINA RESULT:    -5.791      2.852     12.742
REMARK INTER + INTRA:         -24.592
REMARK INTER:                 -17.092
REMARK INTRA:                  -7.499
REMARK UNBOUND:                -7.967
REMARK SMILES CCCCCC(=O)N[C@H](CC(=O)O)C(=O)N[C@H]1C(=O)N[C@H](CCCN=C(N)N)C(=O)N[C@@H]2CC[C@H](O)N(C2=O)[C@@H](CC(C)C)C(=O)N(C)[C@@H](Cc2ccccc2)C(=O)N[C@H](C(C)C)C(=O)O[C@@H]1C
REMARK SMILES IDX 30 1 31 2 29 3 32 5 35 6 37 7 34 8 38 9 33 10 39 11 36 12
REMARK SMILES IDX 40 14 41 15 42 16 43 17 44 18 45 19 46 20 47 21 48 22 49 23
REMARK SMILES IDX 50 24 51 25 52 26 56 27 53 28 55 29 54 30 57 31 58 32 59 33
REMARK SMILES IDX 60 35 61 36 62 37 63 38 64 39 65 40 66 41 67 42 68 43 21 45
REMARK SMILES IDX 20 46 18 47 19 48 17 50 16 52 14 53 15 54 9 56 8 57 6 58
REMARK SMILES IDX 7 59 5 61 4 62 3 63 2 64 1 65 10 66 11 67 12 68 13 69 22 71
REMARK SMILES IDX 23 72 24 73 25 74 26 75 27 76 28 77
REMARK H PARENT 31 4 36 13 59 34 20 49 16 55 8 60 13 70 27 78 27 79 28 80
REMARK H PARENT 28 81
REMARK Flexibility Score:  259.900
ROOT
ATOM      1  O   UNL     1      -9.497   2.588  -2.769  1.00  0.00    -0.273 OA
ATOM      2  N   UNL     1      -8.083   4.043  -1.713  1.00  0.00    -0.343 N 
ATOM      3  C   UNL     1      -8.661   3.490  -2.835  1.00  0.00     0.243 C 
ATOM      4  H   UNL     1      -7.410   4.793  -1.805  1.00  0.00     0.164 HD
ENDROOT
BRANCH   2   5
ATOM      5  C   UNL     1      -8.355   3.492  -0.389  1.00  0.00     0.171 C 
ATOM      6  C   UNL     1      -7.565   4.307   2.278  1.00  0.00     0.214 C 
ATOM      7  N   UNL     1      -6.741   3.373   1.548  1.00  0.00    -0.303 N 
ATOM      8  C   UNL     1      -9.040   4.217   1.919  1.00  0.00     0.057 C 
ATOM      9  C   UNL     1      -7.032   2.981   0.251  1.00  0.00     0.247 C 
ATOM     10  C   UNL     1      -9.220   4.444   0.434  1.00  0.00     0.040 C 
ATOM     11  O   UNL     1      -6.275   2.248  -0.399  1.00  0.00    -0.272 OA
BRANCH   6  12
ATOM     12  O   UNL     1      -7.075   5.604   2.025  1.00  0.00    -0.373 OA
ATOM     13  H   UNL     1      -6.111   5.520   1.861  1.00  0.00     0.213 HD
ENDBRANCH   6  12
BRANCH   7  14
ATOM     14  C   UNL     1      -5.475   2.954   2.186  1.00  0.00     0.177 C 
BRANCH  14  15
ATOM     15  C   UNL     1      -4.344   4.001   2.151  1.00  0.00     0.038 C 
BRANCH  15  16
ATOM     16  C   UNL     1      -3.216   3.867   1.104  1.00  0.00    -0.015 C 
ATOM     17  C   UNL     1      -3.647   4.354  -0.283  1.00  0.00     0.007 C 
ATOM     18  C   UNL     1      -2.788   2.399   0.987  1.00  0.00     0.007 C 
ENDBRANCH  15  16
ENDBRANCH  14  15
BRANCH  14  19
ATOM     19  C   UNL     1      -5.764   1.971   3.373  1.00  0.00     0.245 C 
ATOM     20  O   UNL     1      -6.419   0.950   3.106  1.00  0.00    -0.272 OA
BRANCH  19  21
ATOM     21  N   UNL     1      -5.433   2.234   4.690  1.00  0.00    -0.332 N 
ATOM     22  C   UNL     1      -6.132   3.156   5.567  1.00  0.00     0.147 C 
BRANCH  21  23
ATOM     23  C   UNL     1      -4.256   1.527   5.266  1.00  0.00     0.178 C 
BRANCH  23  24
ATOM     24  C   UNL     1      -3.975   0.138   4.656  1.00  0.00     0.070 C 
BRANCH  24  25
ATOM     25  C   UNL     1      -2.827  -0.651   5.241  1.00  0.00    -0.045 A 
ATOM     26  C   UNL     1      -2.941  -1.262   6.496  1.00  0.00     0.004 A 
ATOM     27  C   UNL     1      -1.623  -0.779   4.532  1.00  0.00     0.004 A 
ATOM     28  C   UNL     1      -1.869  -1.975   7.037  1.00  0.00     0.000 A 
ATOM     29  C   UNL     1      -0.553  -1.494   5.073  1.00  0.00     0.000 A 
ATOM     30  C   UNL     1      -0.676  -2.088   6.327  1.00  0.00     0.000 A 
ENDBRANCH  24  25
ENDBRANCH  23  24
BRANCH  23  31
ATOM     31  C   UNL     1      -3.014   2.438   5.409  1.00  0.00     0.243 C 
ATOM     32  O   UNL     1      -2.368   2.873   4.459  1.00  0.00    -0.273 OA
ATOM     33  N   UNL     1      -2.576   2.576   6.715  1.00  0.00    -0.341 N 
ATOM     34  H   UNL     1      -3.154   2.187   7.464  1.00  0.00     0.164 HD
BRANCH  33  35
ATOM     35  C   UNL     1      -1.351   3.295   7.075  1.00  0.00     0.194 C 
BRANCH  35  36
ATOM     36  C   UNL     1      -0.095   2.387   7.203  1.00  0.00     0.017 C 
ATOM     37  C   UNL     1      -0.351   1.211   8.162  1.00  0.00     0.010 C 
ATOM     38  C   UNL     1       1.142   3.135   7.713  1.00  0.00     0.010 C 
ENDBRANCH  35  36
BRANCH  35  39
ATOM     39  C   UNL     1      -1.537   4.206   8.321  1.00  0.00     0.329 C 
ATOM     40  O   UNL     1      -1.838   3.793   9.434  1.00  0.00    -0.250 OA
BRANCH  39  41
ATOM     41  O   UNL     1      -1.241   5.515   8.057  1.00  0.00    -0.458 OA
BRANCH  41  42
ATOM     42  C   UNL     1      -0.748   6.298   9.170  1.00  0.00     0.205 CG0
ATOM     43  C   UNL     1       0.777   6.299   9.084  1.00  0.00     0.056 C 
ATOM     44  G   UNL     1      -1.265   5.670  10.480  1.00  0.00     0.000 G0
ENDBRANCH  41  42
ENDBRANCH  39  41
ENDBRANCH  35  39
ENDBRANCH  33  35
ENDBRANCH  23  31
ENDBRANCH  21  23
ENDBRANCH  19  21
ENDBRANCH  14  19
ENDBRANCH   7  14
ENDBRANCH   2   5
BRANCH   3  45
ATOM     45  C   UNL     1      -8.207   4.091  -4.172  1.00  0.00     0.171 C 
BRANCH  45  46
ATOM     46  N   UNL     1      -9.068   3.495  -5.184  1.00  0.00    -0.342 N 
ATOM     47  C   UNL     1      -9.404   4.149  -6.343  1.00  0.00     0.247 C 
ATOM     48  O   UNL     1      -8.947   5.252  -6.645  1.00  0.00    -0.273 OA
ATOM     49  H   UNL     1      -9.424   2.559  -5.001  1.00  0.00     0.164 HD
BRANCH  47  50
ATOM     50  C   UNL     1     -10.420   3.417  -7.232  1.00  0.00     0.212 CG0
ATOM     51  G   UNL     1      -9.641   2.768  -8.394  1.00  0.00     0.000 G0
BRANCH  50  52
ATOM     52  N   UNL     1     -11.071   2.444  -6.359  1.00  0.00    -0.339 N 
ATOM     53  C   UNL     1     -12.202   2.721  -5.630  1.00  0.00     0.243 C 
ATOM     54  O   UNL     1     -12.725   3.832  -5.615  1.00  0.00    -0.273 OA
ATOM     55  H   UNL     1     -10.621   1.538  -6.242  1.00  0.00     0.164 HD
BRANCH  53  56
ATOM     56  C   UNL     1     -12.657   1.566  -4.715  1.00  0.00     0.182 C 
BRANCH  56  57
ATOM     57  N   UNL     1     -12.353   1.856  -3.310  1.00  0.00    -0.344 N 
ATOM     58  C   UNL     1     -13.294   2.350  -2.440  1.00  0.00     0.220 C 
ATOM     59  O   UNL     1     -14.430   2.650  -2.792  1.00  0.00    -0.275 OA
ATOM     60  H   UNL     1     -11.459   1.528  -2.955  1.00  0.00     0.164 HD
BRANCH  58  61
ATOM     61  C   UNL     1     -12.775   2.518  -1.024  1.00  0.00     0.100 C 
BRANCH  61  62
ATOM     62  C   UNL     1     -12.203   1.236  -0.421  1.00  0.00     0.010 C 
BRANCH  62  63
ATOM     63  C   UNL     1     -12.048   1.274   1.105  1.00  0.00     0.000 C 
BRANCH  63  64
ATOM     64  C   UNL     1     -11.081   0.232   1.664  1.00  0.00    -0.003 C 
ATOM     65  C   UNL     1      -9.638   0.577   1.327  1.00  0.00     0.004 C 
ENDBRANCH  63  64
ENDBRANCH  62  63
ENDBRANCH  61  62
ENDBRANCH  58  61
ENDBRANCH  56  57
BRANCH  56  66
ATOM     66  C   UNL     1     -12.072   0.229  -5.167  1.00  0.00     0.157 C 
BRANCH  66  67
ATOM     67  C   UNL     1     -10.942  -0.200  -4.276  1.00  0.00     0.305 C 
ATOM     68  O   UNL     1     -11.002  -0.992  -3.348  1.00  0.00    -0.252 OA
BRANCH  67  69
ATOM     69  O   UNL     1      -9.769   0.357  -4.633  1.00  0.00    -0.481 OA
ATOM     70  H   UNL     1      -9.198   0.265  -3.841  1.00  0.00     0.296 HD
ENDBRANCH  67  69
ENDBRANCH  66  67
ENDBRANCH  56  66
ENDBRANCH  53  56
ENDBRANCH  50  52
ENDBRANCH  47  50
ENDBRANCH  45  46
BRANCH  45  71
ATOM     71  C   UNL     1      -6.730   3.772  -4.426  1.00  0.00     0.037 C 
BRANCH  71  72
ATOM     72  C   UNL     1      -6.177   2.761  -3.418  1.00  0.00     0.026 C 
BRANCH  72  73
ATOM     73  C   UNL     1      -6.005   1.380  -4.047  1.00  0.00     0.146 C 
BRANCH  73  74
ATOM     74  N   UNL     1      -7.138   0.557  -3.634  1.00  0.00    -0.254 NA
ATOM     75  C   UNL     1      -7.020  -0.129  -2.557  1.00  0.00     0.185 C 
ATOM     76  N   UNL     1      -8.045  -0.895  -2.151  1.00  0.00    -0.370 N 
ATOM     77  N   UNL     1      -5.972  -0.210  -1.718  1.00  0.00    -0.370 N 
ATOM     78  H   UNL     1      -8.872  -0.897  -2.731  1.00  0.00     0.159 HD
ATOM     79  H   UNL     1      -7.975  -1.564  -1.405  1.00  0.00     0.159 HD
ATOM     80  H   UNL     1      -5.130   0.316  -1.896  1.00  0.00     0.159 HD
ATOM     81  H   UNL     1      -6.037  -0.695  -0.838  1.00  0.00     0.159 HD
ENDBRANCH  73  74
ENDBRANCH  72  73
ENDBRANCH  71  72
ENDBRANCH  45  71
ENDBRANCH   3  45
TORSDOF 20
ENDMDL
MODEL 31
REMARK VINA RESULT:    -5.756      3.892     14.122
REMARK INTER + INTRA:         -24.490
REMARK INTER:                 -17.460
REMARK INTRA:                  -7.030
REMARK UNBOUND:                -7.967
REMARK SMILES CCCCCC(=O)N[C@H](CC(=O)O)C(=O)N[C@H]1C(=O)N[C@H](CCCN=C(N)N)C(=O)N[C@@H]2CC[C@H](O)N(C2=O)[C@@H](CC(C)C)C(=O)N(C)[C@@H](Cc2ccccc2)C(=O)N[C@H](C(C)C)C(=O)O[C@@H]1C
REMARK SMILES IDX 30 1 31 2 29 3 32 5 35 6 37 7 34 8 38 9 33 10 39 11 36 12
REMARK SMILES IDX 40 14 41 15 42 16 43 17 44 18 45 19 46 20 47 21 48 22 49 23
REMARK SMILES IDX 50 24 51 25 52 26 56 27 53 28 55 29 54 30 57 31 58 32 59 33
REMARK SMILES IDX 60 35 61 36 62 37 63 38 64 39 65 40 66 41 67 42 68 43 21 45
REMARK SMILES IDX 20 46 18 47 19 48 17 50 16 52 14 53 15 54 9 56 8 57 6 58
REMARK SMILES IDX 7 59 5 61 4 62 3 63 2 64 1 65 10 66 11 67 12 68 13 69 22 71
REMARK SMILES IDX 23 72 24 73 25 74 26 75 27 76 28 77
REMARK H PARENT 31 4 36 13 59 34 20 49 16 55 8 60 13 70 27 78 27 79 28 80
REMARK H PARENT 28 81
REMARK Flexibility Score:  259.900
ROOT
ATOM      1  O   UNL     1     -11.959   3.189  -6.646  1.00  0.00    -0.273 OA
ATOM      2  N   UNL     1     -11.904   5.123  -5.427  1.00  0.00    -0.343 N 
ATOM      3  C   UNL     1     -12.512   4.226  -6.279  1.00  0.00     0.243 C 
ATOM      4  H   UNL     1     -12.395   5.959  -5.134  1.00  0.00     0.164 HD
ENDROOT
BRANCH   2   5
ATOM      5  C   UNL     1     -10.517   4.935  -5.017  1.00  0.00     0.171 C 
ATOM      6  C   UNL     1      -8.729   2.655  -5.125  1.00  0.00     0.214 C 
ATOM      7  N   UNL     1      -9.536   2.870  -3.947  1.00  0.00    -0.303 N 
ATOM      8  C   UNL     1      -8.359   3.943  -5.844  1.00  0.00     0.057 C 
ATOM      9  C   UNL     1     -10.447   3.909  -3.850  1.00  0.00     0.247 C 
ATOM     10  C   UNL     1      -9.615   4.695  -6.227  1.00  0.00     0.040 C 
ATOM     11  O   UNL     1     -11.196   4.036  -2.872  1.00  0.00    -0.272 OA
BRANCH   6  12
ATOM     12  O   UNL     1      -9.444   1.799  -5.986  1.00  0.00    -0.373 OA
ATOM     13  H   UNL     1     -10.379   2.096  -5.975  1.00  0.00     0.213 HD
ENDBRANCH   6  12
BRANCH   7  14
ATOM     14  C   UNL     1      -9.461   1.842  -2.887  1.00  0.00     0.177 C 
BRANCH  14  15
ATOM     15  C   UNL     1     -10.667   0.886  -2.814  1.00  0.00     0.038 C 
BRANCH  15  16
ATOM     16  C   UNL     1     -10.851  -0.192  -3.906  1.00  0.00    -0.015 C 
ATOM     17  C   UNL     1     -12.224  -0.113  -4.579  1.00  0.00     0.007 C 
ATOM     18  C   UNL     1     -10.697  -1.587  -3.288  1.00  0.00     0.007 C 
ENDBRANCH  15  16
ENDBRANCH  14  15
BRANCH  14  19
ATOM     19  C   UNL     1      -7.969   1.442  -2.622  1.00  0.00     0.245 C 
ATOM     20  O   UNL     1      -7.668   0.251  -2.810  1.00  0.00    -0.272 OA
BRANCH  19  21
ATOM     21  N   UNL     1      -7.022   2.301  -2.094  1.00  0.00    -0.332 N 
ATOM     22  C   UNL     1      -7.306   3.474  -1.286  1.00  0.00     0.147 C 
BRANCH  21  23
ATOM     23  C   UNL     1      -5.588   2.017  -2.379  1.00  0.00     0.178 C 
BRANCH  23  24
ATOM     24  C   UNL     1      -4.910   3.017  -3.337  1.00  0.00     0.070 C 
BRANCH  24  25
ATOM     25  C   UNL     1      -4.693   2.565  -4.763  1.00  0.00    -0.045 A 
ATOM     26  C   UNL     1      -3.796   3.240  -5.601  1.00  0.00     0.004 A 
ATOM     27  C   UNL     1      -5.395   1.460  -5.269  1.00  0.00     0.004 A 
ATOM     28  C   UNL     1      -3.614   2.826  -6.922  1.00  0.00     0.000 A 
ATOM     29  C   UNL     1      -5.211   1.047  -6.590  1.00  0.00     0.000 A 
ATOM     30  C   UNL     1      -4.322   1.733  -7.416  1.00  0.00     0.000 A 
ENDBRANCH  24  25
ENDBRANCH  23  24
BRANCH  23  31
ATOM     31  C   UNL     1      -4.775   1.680  -1.106  1.00  0.00     0.243 C 
ATOM     32  O   UNL     1      -5.168   0.928  -0.218  1.00  0.00    -0.273 OA
ATOM     33  N   UNL     1      -3.632   2.449  -0.961  1.00  0.00    -0.341 N 
ATOM     34  H   UNL     1      -3.359   3.062  -1.732  1.00  0.00     0.164 HD
BRANCH  33  35
ATOM     35  C   UNL     1      -2.773   2.387   0.225  1.00  0.00     0.194 C 
BRANCH  35  36
ATOM     36  C   UNL     1      -2.728   3.706   1.047  1.00  0.00     0.017 C 
ATOM     37  C   UNL     1      -4.119   4.356   1.137  1.00  0.00     0.010 C 
ATOM     38  C   UNL     1      -1.770   4.750   0.461  1.00  0.00     0.010 C 
ENDBRANCH  35  36
BRANCH  35  39
ATOM     39  C   UNL     1      -1.349   1.854  -0.097  1.00  0.00     0.329 C 
ATOM     40  O   UNL     1      -0.902   1.731  -1.231  1.00  0.00    -0.250 OA
BRANCH  39  41
ATOM     41  O   UNL     1      -0.614   1.619   1.032  1.00  0.00    -0.458 OA
BRANCH  41  42
ATOM     42  C   UNL     1       0.791   1.334   0.835  1.00  0.00     0.205 CG0
ATOM     43  C   UNL     1       1.089   0.010   1.536  1.00  0.00     0.056 C 
ATOM     44  G   UNL     1       1.615   2.503   1.410  1.00  0.00     0.000 G0
ENDBRANCH  41  42
ENDBRANCH  39  41
ENDBRANCH  35  39
ENDBRANCH  33  35
ENDBRANCH  23  31
ENDBRANCH  21  23
ENDBRANCH  19  21
ENDBRANCH  14  19
ENDBRANCH   7  14
ENDBRANCH   2   5
BRANCH   3  45
ATOM     45  C   UNL     1     -13.934   4.598  -6.719  1.00  0.00     0.171 C 
BRANCH  45  46
ATOM     46  N   UNL     1     -14.107   4.000  -8.036  1.00  0.00    -0.342 N 
ATOM     47  C   UNL     1     -15.132   3.134  -8.322  1.00  0.00     0.247 C 
ATOM     48  O   UNL     1     -16.018   2.856  -7.513  1.00  0.00    -0.273 OA
ATOM     49  H   UNL     1     -13.428   4.247  -8.753  1.00  0.00     0.164 HD
BRANCH  47  50
ATOM     50  C   UNL     1     -15.082   2.508  -9.723  1.00  0.00     0.212 CG0
ATOM     51  G   UNL     1     -16.054   3.297 -10.623  1.00  0.00     0.000 G0
BRANCH  50  52
ATOM     52  N   UNL     1     -13.689   2.612 -10.147  1.00  0.00    -0.339 N 
ATOM     53  C   UNL     1     -13.310   2.989 -11.413  1.00  0.00     0.243 C 
ATOM     54  O   UNL     1     -14.122   3.216 -12.307  1.00  0.00    -0.273 OA
ATOM     55  H   UNL     1     -12.970   2.329  -9.484  1.00  0.00     0.164 HD
BRANCH  53  56
ATOM     56  C   UNL     1     -11.788   2.943 -11.652  1.00  0.00     0.182 C 
BRANCH  56  57
ATOM     57  N   UNL     1     -11.135   2.023 -10.716  1.00  0.00    -0.344 N 
ATOM     58  C   UNL     1     -10.809   0.733 -11.058  1.00  0.00     0.220 C 
ATOM     59  O   UNL     1     -11.106   0.239 -12.140  1.00  0.00    -0.275 OA
ATOM     60  H   UNL     1     -10.782   2.421  -9.849  1.00  0.00     0.164 HD
BRANCH  58  61
ATOM     61  C   UNL     1     -10.088  -0.018  -9.954  1.00  0.00     0.100 C 
BRANCH  61  62
ATOM     62  C   UNL     1      -9.151   0.858  -9.123  1.00  0.00     0.010 C 
BRANCH  62  63
ATOM     63  C   UNL     1      -7.676   0.765  -9.534  1.00  0.00     0.000 C 
BRANCH  63  64
ATOM     64  C   UNL     1      -7.053   2.101  -9.938  1.00  0.00    -0.003 C 
ATOM     65  C   UNL     1      -7.096   2.301 -11.446  1.00  0.00     0.004 C 
ENDBRANCH  63  64
ENDBRANCH  62  63
ENDBRANCH  61  62
ENDBRANCH  58  61
ENDBRANCH  56  57
BRANCH  56  66
ATOM     66  C   UNL     1     -11.172   4.341 -11.611  1.00  0.00     0.157 C 
BRANCH  66  67
ATOM     67  C   UNL     1     -10.535   4.615 -10.279  1.00  0.00     0.305 C 
ATOM     68  O   UNL     1      -9.340   4.694 -10.041  1.00  0.00    -0.252 OA
BRANCH  67  69
ATOM     69  O   UNL     1     -11.446   4.831  -9.311  1.00  0.00    -0.481 OA
ATOM     70  H   UNL     1     -10.925   4.870  -8.481  1.00  0.00     0.296 HD
ENDBRANCH  67  69
ENDBRANCH  66  67
ENDBRANCH  56  66
ENDBRANCH  53  56
ENDBRANCH  50  52
ENDBRANCH  47  50
ENDBRANCH  45  46
BRANCH  45  71
ATOM     71  C   UNL     1     -14.097   6.122  -6.764  1.00  0.00     0.037 C 
BRANCH  71  72
ATOM     72  C   UNL     1     -14.536   6.613  -8.146  1.00  0.00     0.026 C 
BRANCH  72  73
ATOM     73  C   UNL     1     -13.544   7.621  -8.723  1.00  0.00     0.146 C 
BRANCH  73  74
ATOM     74  N   UNL     1     -14.310   8.733  -9.279  1.00  0.00    -0.254 NA
ATOM     75  C   UNL     1     -13.835   9.915  -9.141  1.00  0.00     0.185 C 
ATOM     76  N   UNL     1     -14.516  10.958  -9.644  1.00  0.00    -0.370 N 
ATOM     77  N   UNL     1     -12.699  10.305  -8.538  1.00  0.00    -0.370 N 
ATOM     78  H   UNL     1     -15.389  10.753 -10.108  1.00  0.00     0.159 HD
ATOM     79  H   UNL     1     -14.284  11.916  -9.450  1.00  0.00     0.159 HD
ATOM     80  H   UNL     1     -12.082   9.626  -8.117  1.00  0.00     0.159 HD
ATOM     81  H   UNL     1     -12.370  11.255  -8.592  1.00  0.00     0.159 HD
ENDBRANCH  73  74
ENDBRANCH  72  73
ENDBRANCH  71  72
ENDBRANCH  45  71
ENDBRANCH   3  45
TORSDOF 20
ENDMDL
MODEL 32
REMARK VINA RESULT:    -5.726      2.441      5.959
REMARK INTER + INTRA:         -24.404
REMARK INTER:                 -18.256
REMARK INTRA:                  -6.149
REMARK UNBOUND:                -7.967
REMARK SMILES CCCCCC(=O)N[C@H](CC(=O)O)C(=O)N[C@H]1C(=O)N[C@H](CCCN=C(N)N)C(=O)N[C@@H]2CC[C@H](O)N(C2=O)[C@@H](CC(C)C)C(=O)N(C)[C@@H](Cc2ccccc2)C(=O)N[C@H](C(C)C)C(=O)O[C@@H]1C
REMARK SMILES IDX 30 1 31 2 29 3 32 5 35 6 37 7 34 8 38 9 33 10 39 11 36 12
REMARK SMILES IDX 40 14 41 15 42 16 43 17 44 18 45 19 46 20 47 21 48 22 49 23
REMARK SMILES IDX 50 24 51 25 52 26 56 27 53 28 55 29 54 30 57 31 58 32 59 33
REMARK SMILES IDX 60 35 61 36 62 37 63 38 64 39 65 40 66 41 67 42 68 43 21 45
REMARK SMILES IDX 20 46 18 47 19 48 17 50 16 52 14 53 15 54 9 56 8 57 6 58
REMARK SMILES IDX 7 59 5 61 4 62 3 63 2 64 1 65 10 66 11 67 12 68 13 69 22 71
REMARK SMILES IDX 23 72 24 73 25 74 26 75 27 76 28 77
REMARK H PARENT 31 4 36 13 59 34 20 49 16 55 8 60 13 70 27 78 27 79 28 80
REMARK H PARENT 28 81
REMARK Flexibility Score:  259.900
ROOT
ATOM      1  O   UNL     1      -6.633   2.444   1.752  1.00  0.00    -0.273 OA
ATOM      2  N   UNL     1      -6.531   1.178  -0.150  1.00  0.00    -0.343 N 
ATOM      3  C   UNL     1      -5.995   1.697   1.009  1.00  0.00     0.243 C 
ATOM      4  H   UNL     1      -5.983   0.555  -0.730  1.00  0.00     0.164 HD
ENDROOT
BRANCH   2   5
ATOM      5  C   UNL     1      -7.852   1.595  -0.609  1.00  0.00     0.171 C 
ATOM      6  C   UNL     1      -9.519   0.751  -2.826  1.00  0.00     0.214 C 
ATOM      7  N   UNL     1      -8.597   1.849  -3.007  1.00  0.00    -0.303 N 
ATOM      8  C   UNL     1     -10.034   0.627  -1.401  1.00  0.00     0.057 C 
ATOM      9  C   UNL     1      -7.737   2.269  -2.006  1.00  0.00     0.247 C 
ATOM     10  C   UNL     1      -8.870   0.467  -0.447  1.00  0.00     0.040 C 
ATOM     11  O   UNL     1      -6.891   3.153  -2.196  1.00  0.00    -0.272 OA
BRANCH   6  12
ATOM     12  O   UNL     1      -8.861  -0.432  -3.216  1.00  0.00    -0.373 OA
ATOM     13  H   UNL     1      -8.847  -0.443  -4.197  1.00  0.00     0.213 HD
ENDBRANCH   6  12
BRANCH   7  14
ATOM     14  C   UNL     1      -8.499   2.423  -4.365  1.00  0.00     0.177 C 
BRANCH  14  15
ATOM     15  C   UNL     1      -7.358   1.859  -5.235  1.00  0.00     0.038 C 
BRANCH  15  16
ATOM     16  C   UNL     1      -6.657   2.778  -6.260  1.00  0.00    -0.015 C 
ATOM     17  C   UNL     1      -5.547   2.055  -7.029  1.00  0.00     0.007 C 
ATOM     18  C   UNL     1      -6.035   3.980  -5.538  1.00  0.00     0.007 C 
ENDBRANCH  15  16
ENDBRANCH  14  15
BRANCH  14  19
ATOM     19  C   UNL     1      -9.919   2.834  -4.887  1.00  0.00     0.245 C 
ATOM     20  O   UNL     1     -10.496   3.749  -4.276  1.00  0.00    -0.272 OA
BRANCH  19  21
ATOM     21  N   UNL     1     -10.592   2.169  -5.896  1.00  0.00    -0.332 N 
ATOM     22  C   UNL     1     -11.674   1.219  -5.704  1.00  0.00     0.147 C 
BRANCH  21  23
ATOM     23  C   UNL     1     -10.175   2.431  -7.301  1.00  0.00     0.178 C 
BRANCH  23  24
ATOM     24  C   UNL     1     -10.405   1.255  -8.273  1.00  0.00     0.070 C 
BRANCH  24  25
ATOM     25  C   UNL     1      -9.184   0.667  -8.942  1.00  0.00    -0.045 A 
ATOM     26  C   UNL     1      -8.263   1.488  -9.604  1.00  0.00     0.004 A 
ATOM     27  C   UNL     1      -8.960  -0.718  -8.913  1.00  0.00     0.004 A 
ATOM     28  C   UNL     1      -7.147   0.935 -10.235  1.00  0.00     0.000 A 
ATOM     29  C   UNL     1      -7.843  -1.269  -9.543  1.00  0.00     0.000 A 
ATOM     30  C   UNL     1      -6.939  -0.442 -10.206  1.00  0.00     0.000 A 
ENDBRANCH  24  25
ENDBRANCH  23  24
BRANCH  23  31
ATOM     31  C   UNL     1     -10.645   3.809  -7.823  1.00  0.00     0.243 C 
ATOM     32  O   UNL     1      -9.885   4.734  -8.102  1.00  0.00    -0.273 OA
ATOM     33  N   UNL     1     -12.018   3.980  -7.775  1.00  0.00    -0.341 N 
ATOM     34  H   UNL     1     -12.599   3.175  -7.529  1.00  0.00     0.164 HD
BRANCH  33  35
ATOM     35  C   UNL     1     -12.678   5.246  -8.107  1.00  0.00     0.194 C 
BRANCH  35  36
ATOM     36  C   UNL     1     -13.507   5.855  -6.942  1.00  0.00     0.017 C 
ATOM     37  C   UNL     1     -14.244   4.762  -6.149  1.00  0.00     0.010 C 
ATOM     38  C   UNL     1     -14.558   6.868  -7.413  1.00  0.00     0.010 C 
ENDBRANCH  35  36
BRANCH  35  39
ATOM     39  C   UNL     1     -13.500   5.163  -9.424  1.00  0.00     0.329 C 
ATOM     40  O   UNL     1     -14.566   4.568  -9.530  1.00  0.00    -0.250 OA
BRANCH  39  41
ATOM     41  O   UNL     1     -12.945   5.903 -10.431  1.00  0.00    -0.458 OA
BRANCH  41  42
ATOM     42  C   UNL     1     -13.732   7.017 -10.917  1.00  0.00     0.205 CG0
ATOM     43  C   UNL     1     -13.010   8.298 -10.503  1.00  0.00     0.056 C 
ATOM     44  G   UNL     1     -15.148   6.918 -10.315  1.00  0.00     0.000 G0
ENDBRANCH  41  42
ENDBRANCH  39  41
ENDBRANCH  35  39
ENDBRANCH  33  35
ENDBRANCH  23  31
ENDBRANCH  21  23
ENDBRANCH  19  21
ENDBRANCH  14  19
ENDBRANCH   7  14
ENDBRANCH   2   5
BRANCH   3  45
ATOM     45  C   UNL     1      -4.557   1.261   1.320  1.00  0.00     0.171 C 
BRANCH  45  46
ATOM     46  N   UNL     1      -4.567   0.837   2.714  1.00  0.00    -0.342 N 
ATOM     47  C   UNL     1      -3.704  -0.112   3.201  1.00  0.00     0.247 C 
ATOM     48  O   UNL     1      -2.813  -0.619   2.517  1.00  0.00    -0.273 OA
ATOM     49  H   UNL     1      -5.252   1.273   3.329  1.00  0.00     0.164 HD
BRANCH  47  50
ATOM     50  C   UNL     1      -3.943  -0.521   4.661  1.00  0.00     0.212 CG0
ATOM     51  G   UNL     1      -3.616  -2.023   4.785  1.00  0.00     0.000 G0
BRANCH  50  52
ATOM     52  N   UNL     1      -3.060   0.330   5.454  1.00  0.00    -0.339 N 
ATOM     53  C   UNL     1      -1.967  -0.145   6.137  1.00  0.00     0.243 C 
ATOM     54  O   UNL     1      -1.678  -1.338   6.176  1.00  0.00    -0.273 OA
ATOM     55  H   UNL     1      -3.312   1.311   5.551  1.00  0.00     0.164 HD
BRANCH  53  56
ATOM     56  C   UNL     1      -1.237   0.925   6.974  1.00  0.00     0.182 C 
BRANCH  56  57
ATOM     57  N   UNL     1      -1.594   2.276   6.528  1.00  0.00    -0.344 N 
ATOM     58  C   UNL     1      -2.397   3.108   7.271  1.00  0.00     0.220 C 
ATOM     59  O   UNL     1      -2.928   2.755   8.318  1.00  0.00    -0.275 OA
ATOM     60  H   UNL     1      -1.096   2.641   5.721  1.00  0.00     0.164 HD
BRANCH  58  61
ATOM     61  C   UNL     1      -2.585   4.477   6.645  1.00  0.00     0.100 C 
BRANCH  61  62
ATOM     62  C   UNL     1      -3.884   4.619   5.852  1.00  0.00     0.010 C 
BRANCH  62  63
ATOM     63  C   UNL     1      -3.710   4.483   4.334  1.00  0.00     0.000 C 
BRANCH  63  64
ATOM     64  C   UNL     1      -4.972   4.789   3.528  1.00  0.00    -0.003 C 
ATOM     65  C   UNL     1      -6.130   5.176   4.437  1.00  0.00     0.004 C 
ENDBRANCH  63  64
ENDBRANCH  62  63
ENDBRANCH  61  62
ENDBRANCH  58  61
ENDBRANCH  56  57
BRANCH  56  66
ATOM     66  C   UNL     1       0.274   0.699   6.977  1.00  0.00     0.157 C 
BRANCH  66  67
ATOM     67  C   UNL     1       0.872   1.004   5.633  1.00  0.00     0.305 C 
ATOM     68  O   UNL     1       1.160   2.106   5.193  1.00  0.00    -0.252 OA
BRANCH  67  69
ATOM     69  O   UNL     1       1.128  -0.111   4.923  1.00  0.00    -0.481 OA
ATOM     70  H   UNL     1       2.072  -0.034   4.668  1.00  0.00     0.296 HD
ENDBRANCH  67  69
ENDBRANCH  66  67
ENDBRANCH  56  66
ENDBRANCH  53  56
ENDBRANCH  50  52
ENDBRANCH  47  50
ENDBRANCH  45  46
BRANCH  45  71
ATOM     71  C   UNL     1      -3.586   2.424   1.090  1.00  0.00     0.037 C 
BRANCH  71  72
ATOM     72  C   UNL     1      -2.554   2.106   0.004  1.00  0.00     0.026 C 
BRANCH  72  73
ATOM     73  C   UNL     1      -1.174   2.652   0.365  1.00  0.00     0.146 C 
BRANCH  73  74
ATOM     74  N   UNL     1      -0.257   1.521   0.458  1.00  0.00    -0.254 NA
ATOM     75  C   UNL     1      -0.040   1.019   1.618  1.00  0.00     0.185 C 
ATOM     76  N   UNL     1       0.798  -0.023   1.736  1.00  0.00    -0.370 N 
ATOM     77  N   UNL     1      -0.548   1.389   2.807  1.00  0.00    -0.370 N 
ATOM     78  H   UNL     1       1.231  -0.361   0.888  1.00  0.00     0.159 HD
ATOM     79  H   UNL     1       1.126  -0.373   2.619  1.00  0.00     0.159 HD
ATOM     80  H   UNL     1      -1.198   2.158   2.871  1.00  0.00     0.159 HD
ATOM     81  H   UNL     1      -0.394   0.844   3.639  1.00  0.00     0.159 HD
ENDBRANCH  73  74
ENDBRANCH  72  73
ENDBRANCH  71  72
ENDBRANCH  45  71
ENDBRANCH   3  45
TORSDOF 20
ENDMDL
MODEL 33
REMARK VINA RESULT:    -5.724      3.902     14.325
REMARK INTER + INTRA:         -24.397
REMARK INTER:                 -19.334
REMARK INTRA:                  -5.064
REMARK UNBOUND:                -7.967
REMARK SMILES CCCCCC(=O)N[C@H](CC(=O)O)C(=O)N[C@H]1C(=O)N[C@H](CCCN=C(N)N)C(=O)N[C@@H]2CC[C@H](O)N(C2=O)[C@@H](CC(C)C)C(=O)N(C)[C@@H](Cc2ccccc2)C(=O)N[C@H](C(C)C)C(=O)O[C@@H]1C
REMARK SMILES IDX 30 1 31 2 29 3 32 5 35 6 37 7 34 8 38 9 33 10 39 11 36 12
REMARK SMILES IDX 40 14 41 15 42 16 43 17 44 18 45 19 46 20 47 21 48 22 49 23
REMARK SMILES IDX 50 24 51 25 52 26 56 27 53 28 55 29 54 30 57 31 58 32 59 33
REMARK SMILES IDX 60 35 61 36 62 37 63 38 64 39 65 40 66 41 67 42 68 43 21 45
REMARK SMILES IDX 20 46 18 47 19 48 17 50 16 52 14 53 15 54 9 56 8 57 6 58
REMARK SMILES IDX 7 59 5 61 4 62 3 63 2 64 1 65 10 66 11 67 12 68 13 69 22 71
REMARK SMILES IDX 23 72 24 73 25 74 26 75 27 76 28 77
REMARK H PARENT 31 4 36 13 59 34 20 49 16 55 8 60 13 70 27 78 27 79 28 80
REMARK H PARENT 28 81
REMARK Flexibility Score:  259.900
ROOT
ATOM      1  O   UNL     1      -7.900   5.761  -5.964  1.00  0.00    -0.273 OA
ATOM      2  N   UNL     1      -7.471   3.596  -5.366  1.00  0.00    -0.343 N 
ATOM      3  C   UNL     1      -8.304   4.612  -5.784  1.00  0.00     0.243 C 
ATOM      4  H   UNL     1      -7.835   2.659  -5.242  1.00  0.00     0.164 HD
ENDROOT
BRANCH   2   5
ATOM      5  C   UNL     1      -6.086   3.873  -5.002  1.00  0.00     0.171 C 
ATOM      6  C   UNL     1      -3.995   2.235  -3.841  1.00  0.00     0.214 C 
ATOM      7  N   UNL     1      -4.863   2.998  -2.975  1.00  0.00    -0.303 N 
ATOM      8  C   UNL     1      -3.784   2.880  -5.202  1.00  0.00     0.057 C 
ATOM      9  C   UNL     1      -5.913   3.761  -3.460  1.00  0.00     0.247 C 
ATOM     10  C   UNL     1      -5.119   3.084  -5.884  1.00  0.00     0.040 C 
ATOM     11  O   UNL     1      -6.705   4.342  -2.707  1.00  0.00    -0.272 OA
BRANCH   6  12
ATOM     12  O   UNL     1      -4.553   0.950  -3.986  1.00  0.00    -0.373 OA
ATOM     13  H   UNL     1      -5.408   1.060  -4.456  1.00  0.00     0.213 HD
ENDBRANCH   6  12
BRANCH   7  14
ATOM     14  C   UNL     1      -4.681   2.821  -1.518  1.00  0.00     0.177 C 
BRANCH  14  15
ATOM     15  C   UNL     1      -5.165   1.470  -0.957  1.00  0.00     0.038 C 
BRANCH  15  16
ATOM     16  C   UNL     1      -6.650   1.295  -0.569  1.00  0.00    -0.015 C 
ATOM     17  C   UNL     1      -6.823   0.576   0.772  1.00  0.00     0.007 C 
ATOM     18  C   UNL     1      -7.375   0.480  -1.648  1.00  0.00     0.007 C 
ENDBRANCH  15  16
ENDBRANCH  14  15
BRANCH  14  19
ATOM     19  C   UNL     1      -3.416   3.605  -1.029  1.00  0.00     0.245 C 
ATOM     20  O   UNL     1      -3.288   4.772  -1.438  1.00  0.00    -0.272 OA
BRANCH  19  21
ATOM     21  N   UNL     1      -2.402   3.041  -0.275  1.00  0.00    -0.332 N 
ATOM     22  C   UNL     1      -1.412   2.098  -0.765  1.00  0.00     0.147 C 
BRANCH  21  23
ATOM     23  C   UNL     1      -2.314   3.414   1.164  1.00  0.00     0.178 C 
BRANCH  23  24
ATOM     24  C   UNL     1      -2.961   4.769   1.520  1.00  0.00     0.070 C 
BRANCH  24  25
ATOM     25  C   UNL     1      -4.203   4.734   2.379  1.00  0.00    -0.045 A 
ATOM     26  C   UNL     1      -4.156   5.113   3.726  1.00  0.00     0.004 A 
ATOM     27  C   UNL     1      -5.427   4.314   1.835  1.00  0.00     0.004 A 
ATOM     28  C   UNL     1      -5.305   5.062   4.517  1.00  0.00     0.000 A 
ATOM     29  C   UNL     1      -6.575   4.264   2.627  1.00  0.00     0.000 A 
ATOM     30  C   UNL     1      -6.513   4.636   3.969  1.00  0.00     0.000 A 
ENDBRANCH  24  25
ENDBRANCH  23  24
BRANCH  23  31
ATOM     31  C   UNL     1      -2.680   2.249   2.114  1.00  0.00     0.243 C 
ATOM     32  O   UNL     1      -3.564   1.427   1.885  1.00  0.00    -0.273 OA
ATOM     33  N   UNL     1      -2.045   2.317   3.342  1.00  0.00    -0.341 N 
ATOM     34  H   UNL     1      -1.321   3.027   3.476  1.00  0.00     0.164 HD
BRANCH  33  35
ATOM     35  C   UNL     1      -2.328   1.388   4.440  1.00  0.00     0.194 C 
BRANCH  35  36
ATOM     36  C   UNL     1      -3.656   1.680   5.193  1.00  0.00     0.017 C 
ATOM     37  C   UNL     1      -3.424   2.612   6.395  1.00  0.00     0.010 C 
ATOM     38  C   UNL     1      -4.343   0.414   5.720  1.00  0.00     0.010 C 
ENDBRANCH  35  36
BRANCH  35  39
ATOM     39  C   UNL     1      -1.128   1.234   5.417  1.00  0.00     0.329 C 
ATOM     40  O   UNL     1      -0.285   2.102   5.610  1.00  0.00    -0.250 OA
BRANCH  39  41
ATOM     41  O   UNL     1      -1.166   0.052   6.105  1.00  0.00    -0.458 OA
BRANCH  41  42
ATOM     42  C   UNL     1      -0.989   0.140   7.539  1.00  0.00     0.205 CG0
ATOM     43  C   UNL     1       0.041  -0.916   7.934  1.00  0.00     0.056 C 
ATOM     44  G   UNL     1      -2.355  -0.086   8.217  1.00  0.00     0.000 G0
ENDBRANCH  41  42
ENDBRANCH  39  41
ENDBRANCH  35  39
ENDBRANCH  33  35
ENDBRANCH  23  31
ENDBRANCH  21  23
ENDBRANCH  19  21
ENDBRANCH  14  19
ENDBRANCH   7  14
ENDBRANCH   2   5
BRANCH   3  45
ATOM     45  C   UNL     1      -9.763   4.207  -6.029  1.00  0.00     0.171 C 
BRANCH  45  46
ATOM     46  N   UNL     1     -10.096   4.715  -7.353  1.00  0.00    -0.342 N 
ATOM     47  C   UNL     1     -10.226   3.894  -8.445  1.00  0.00     0.247 C 
ATOM     48  O   UNL     1     -10.144   2.667  -8.373  1.00  0.00    -0.273 OA
ATOM     49  H   UNL     1     -10.228   5.720  -7.447  1.00  0.00     0.164 HD
BRANCH  47  50
ATOM     50  C   UNL     1     -10.455   4.618  -9.779  1.00  0.00     0.212 CG0
ATOM     51  G   UNL     1     -10.737   3.546 -10.851  1.00  0.00     0.000 G0
BRANCH  50  52
ATOM     52  N   UNL     1     -11.585   5.513  -9.548  1.00  0.00    -0.339 N 
ATOM     53  C   UNL     1     -12.136   6.304 -10.527  1.00  0.00     0.243 C 
ATOM     54  O   UNL     1     -11.683   6.358 -11.666  1.00  0.00    -0.273 OA
ATOM     55  H   UNL     1     -11.935   5.596  -8.595  1.00  0.00     0.164 HD
BRANCH  53  56
ATOM     56  C   UNL     1     -13.264   7.229 -10.025  1.00  0.00     0.182 C 
BRANCH  56  57
ATOM     57  N   UNL     1     -12.716   8.458  -9.442  1.00  0.00    -0.344 N 
ATOM     58  C   UNL     1     -12.728   9.658 -10.109  1.00  0.00     0.220 C 
ATOM     59  O   UNL     1     -13.129   9.772 -11.263  1.00  0.00    -0.275 OA
ATOM     60  H   UNL     1     -12.470   8.429  -8.456  1.00  0.00     0.164 HD
BRANCH  58  61
ATOM     61  C   UNL     1     -12.164  10.806  -9.293  1.00  0.00     0.100 C 
BRANCH  61  62
ATOM     62  C   UNL     1     -12.691  12.179  -9.713  1.00  0.00     0.010 C 
BRANCH  62  63
ATOM     63  C   UNL     1     -13.459  12.920  -8.611  1.00  0.00     0.000 C 
BRANCH  63  64
ATOM     64  C   UNL     1     -14.514  13.895  -9.131  1.00  0.00    -0.003 C 
ATOM     65  C   UNL     1     -15.149  13.392 -10.419  1.00  0.00     0.004 C 
ENDBRANCH  63  64
ENDBRANCH  62  63
ENDBRANCH  61  62
ENDBRANCH  58  61
ENDBRANCH  56  57
BRANCH  56  66
ATOM     66  C   UNL     1     -14.199   6.500  -9.062  1.00  0.00     0.157 C 
BRANCH  66  67
ATOM     67  C   UNL     1     -15.547   7.159  -9.011  1.00  0.00     0.305 C 
ATOM     68  O   UNL     1     -15.910   8.137  -9.647  1.00  0.00    -0.252 OA
BRANCH  67  69
ATOM     69  O   UNL     1     -16.400   6.517  -8.189  1.00  0.00    -0.481 OA
ATOM     70  H   UNL     1     -15.999   6.601  -7.298  1.00  0.00     0.296 HD
ENDBRANCH  67  69
ENDBRANCH  66  67
ENDBRANCH  56  66
ENDBRANCH  53  56
ENDBRANCH  50  52
ENDBRANCH  47  50
ENDBRANCH  45  46
BRANCH  45  71
ATOM     71  C   UNL     1     -10.672   4.805  -4.949  1.00  0.00     0.037 C 
BRANCH  71  72
ATOM     72  C   UNL     1     -11.772   3.832  -4.518  1.00  0.00     0.026 C 
BRANCH  72  73
ATOM     73  C   UNL     1     -11.728   2.541  -5.333  1.00  0.00     0.146 C 
BRANCH  73  74
ATOM     74  N   UNL     1     -11.339   1.458  -4.434  1.00  0.00    -0.254 NA
ATOM     75  C   UNL     1     -10.460   0.622  -4.848  1.00  0.00     0.185 C 
ATOM     76  N   UNL     1     -10.081  -0.383  -4.043  1.00  0.00    -0.370 N 
ATOM     77  N   UNL     1      -9.817   0.587  -6.028  1.00  0.00    -0.370 N 
ATOM     78  H   UNL     1     -10.523  -0.435  -3.136  1.00  0.00     0.159 HD
ATOM     79  H   UNL     1      -9.512  -1.153  -4.348  1.00  0.00     0.159 HD
ATOM     80  H   UNL     1      -9.999   1.286  -6.732  1.00  0.00     0.159 HD
ATOM     81  H   UNL     1      -9.059  -0.053  -6.197  1.00  0.00     0.159 HD
ENDBRANCH  73  74
ENDBRANCH  72  73
ENDBRANCH  71  72
ENDBRANCH  45  71
ENDBRANCH   3  45
TORSDOF 20
ENDMDL
MODEL 34
REMARK VINA RESULT:    -5.717      3.593      7.257
REMARK INTER + INTRA:         -24.378
REMARK INTER:                 -17.984
REMARK INTRA:                  -6.395
REMARK UNBOUND:                -7.967
REMARK SMILES CCCCCC(=O)N[C@H](CC(=O)O)C(=O)N[C@H]1C(=O)N[C@H](CCCN=C(N)N)C(=O)N[C@@H]2CC[C@H](O)N(C2=O)[C@@H](CC(C)C)C(=O)N(C)[C@@H](Cc2ccccc2)C(=O)N[C@H](C(C)C)C(=O)O[C@@H]1C
REMARK SMILES IDX 30 1 31 2 29 3 32 5 35 6 37 7 34 8 38 9 33 10 39 11 36 12
REMARK SMILES IDX 40 14 41 15 42 16 43 17 44 18 45 19 46 20 47 21 48 22 49 23
REMARK SMILES IDX 50 24 51 25 52 26 56 27 53 28 55 29 54 30 57 31 58 32 59 33
REMARK SMILES IDX 60 35 61 36 62 37 63 38 64 39 65 40 66 41 67 42 68 43 21 45
REMARK SMILES IDX 20 46 18 47 19 48 17 50 16 52 14 53 15 54 9 56 8 57 6 58
REMARK SMILES IDX 7 59 5 61 4 62 3 63 2 64 1 65 10 66 11 67 12 68 13 69 22 71
REMARK SMILES IDX 23 72 24 73 25 74 26 75 27 76 28 77
REMARK H PARENT 31 4 36 13 59 34 20 49 16 55 8 60 13 70 27 78 27 79 28 80
REMARK H PARENT 28 81
REMARK Flexibility Score:  259.900
ROOT
ATOM      1  O   UNL     1      -1.735   4.389   1.190  1.00  0.00    -0.273 OA
ATOM      2  N   UNL     1      -2.967   2.489   0.869  1.00  0.00    -0.343 N 
ATOM      3  C   UNL     1      -1.835   3.259   0.711  1.00  0.00     0.243 C 
ATOM      4  H   UNL     1      -3.008   1.558   0.473  1.00  0.00     0.164 HD
ENDROOT
BRANCH   2   5
ATOM      5  C   UNL     1      -4.153   3.038   1.518  1.00  0.00     0.171 C 
ATOM      6  C   UNL     1      -6.569   1.813   2.552  1.00  0.00     0.214 C 
ATOM      7  N   UNL     1      -6.536   2.273   1.183  1.00  0.00    -0.303 N 
ATOM      8  C   UNL     1      -5.671   2.617   3.478  1.00  0.00     0.057 C 
ATOM      9  C   UNL     1      -5.398   2.820   0.611  1.00  0.00     0.247 C 
ATOM     10  C   UNL     1      -4.245   2.577   2.971  1.00  0.00     0.040 C 
ATOM     11  O   UNL     1      -5.351   3.132  -0.586  1.00  0.00    -0.272 OA
BRANCH   6  12
ATOM     12  O   UNL     1      -6.196   0.455   2.559  1.00  0.00    -0.373 OA
ATOM     13  H   UNL     1      -5.359   0.384   2.052  1.00  0.00     0.213 HD
ENDBRANCH   6  12
BRANCH   7  14
ATOM     14  C   UNL     1      -7.730   2.003   0.355  1.00  0.00     0.177 C 
BRANCH  14  15
ATOM     15  C   UNL     1      -7.831   0.570  -0.202  1.00  0.00     0.038 C 
BRANCH  15  16
ATOM     16  C   UNL     1      -7.790   0.343  -1.730  1.00  0.00    -0.015 C 
ATOM     17  C   UNL     1      -8.609  -0.877  -2.162  1.00  0.00     0.007 C 
ATOM     18  C   UNL     1      -6.340   0.132  -2.184  1.00  0.00     0.007 C 
ENDBRANCH  15  16
ENDBRANCH  14  15
BRANCH  14  19
ATOM     19  C   UNL     1      -8.939   2.873   0.845  1.00  0.00     0.245 C 
ATOM     20  O   UNL     1      -8.716   4.078   1.044  1.00  0.00    -0.272 OA
BRANCH  19  21
ATOM     21  N   UNL     1     -10.181   2.356   1.166  1.00  0.00    -0.332 N 
ATOM     22  C   UNL     1     -10.531   1.724   2.425  1.00  0.00     0.147 C 
BRANCH  21  23
ATOM     23  C   UNL     1     -11.256   2.438   0.139  1.00  0.00     0.178 C 
BRANCH  23  24
ATOM     24  C   UNL     1     -11.855   1.079  -0.279  1.00  0.00     0.070 C 
BRANCH  24  25
ATOM     25  C   UNL     1     -11.843   0.746  -1.753  1.00  0.00    -0.045 A 
ATOM     26  C   UNL     1     -11.405   1.684  -2.697  1.00  0.00     0.004 A 
ATOM     27  C   UNL     1     -12.278  -0.512  -2.198  1.00  0.00     0.004 A 
ATOM     28  C   UNL     1     -11.413   1.374  -4.059  1.00  0.00     0.000 A 
ATOM     29  C   UNL     1     -12.284  -0.820  -3.559  1.00  0.00     0.000 A 
ATOM     30  C   UNL     1     -11.855   0.125  -4.489  1.00  0.00     0.000 A 
ENDBRANCH  24  25
ENDBRANCH  23  24
BRANCH  23  31
ATOM     31  C   UNL     1     -12.296   3.543   0.440  1.00  0.00     0.243 C 
ATOM     32  O   UNL     1     -12.017   4.732   0.571  1.00  0.00    -0.273 OA
ATOM     33  N   UNL     1     -13.556   3.051   0.736  1.00  0.00    -0.341 N 
ATOM     34  H   UNL     1     -13.727   2.050   0.615  1.00  0.00     0.164 HD
BRANCH  33  35
ATOM     35  C   UNL     1     -14.666   3.905   1.167  1.00  0.00     0.194 C 
BRANCH  35  36
ATOM     36  C   UNL     1     -15.196   3.587   2.594  1.00  0.00     0.017 C 
ATOM     37  C   UNL     1     -16.491   4.360   2.895  1.00  0.00     0.010 C 
ATOM     38  C   UNL     1     -14.191   3.926   3.701  1.00  0.00     0.010 C 
ENDBRANCH  35  36
BRANCH  35  39
ATOM     39  C   UNL     1     -15.815   3.964   0.122  1.00  0.00     0.329 C 
ATOM     40  O   UNL     1     -16.473   2.993  -0.231  1.00  0.00    -0.250 OA
BRANCH  39  41
ATOM     41  O   UNL     1     -16.070   5.240  -0.298  1.00  0.00    -0.458 OA
BRANCH  41  42
ATOM     42  C   UNL     1     -17.220   5.414  -1.161  1.00  0.00     0.205 CG0
ATOM     43  C   UNL     1     -18.384   5.866  -0.282  1.00  0.00     0.056 C 
ATOM     44  G   UNL     1     -17.504   4.077  -1.875  1.00  0.00     0.000 G0
ENDBRANCH  41  42
ENDBRANCH  39  41
ENDBRANCH  35  39
ENDBRANCH  33  35
ENDBRANCH  23  31
ENDBRANCH  21  23
ENDBRANCH  19  21
ENDBRANCH  14  19
ENDBRANCH   7  14
ENDBRANCH   2   5
BRANCH   3  45
ATOM     45  C   UNL     1      -0.699   2.602  -0.084  1.00  0.00     0.171 C 
BRANCH  45  46
ATOM     46  N   UNL     1       0.463   2.627   0.795  1.00  0.00    -0.342 N 
ATOM     47  C   UNL     1       1.330   1.568   0.898  1.00  0.00     0.247 C 
ATOM     48  O   UNL     1       1.233   0.555   0.206  1.00  0.00    -0.273 OA
ATOM     49  H   UNL     1       0.612   3.470   1.345  1.00  0.00     0.164 HD
BRANCH  47  50
ATOM     50  C   UNL     1       2.423   1.726   1.965  1.00  0.00     0.212 CG0
ATOM     51  G   UNL     1       3.056   3.119   1.783  1.00  0.00     0.000 G0
BRANCH  50  52
ATOM     52  N   UNL     1       1.742   1.564   3.247  1.00  0.00    -0.339 N 
ATOM     53  C   UNL     1       1.523   0.343   3.837  1.00  0.00     0.243 C 
ATOM     54  O   UNL     1       1.838  -0.717   3.302  1.00  0.00    -0.273 OA
ATOM     55  H   UNL     1       1.358   2.397   3.687  1.00  0.00     0.164 HD
BRANCH  53  56
ATOM     56  C   UNL     1       0.708   0.415   5.145  1.00  0.00     0.182 C 
BRANCH  56  57
ATOM     57  N   UNL     1      -0.633  -0.148   4.961  1.00  0.00    -0.344 N 
ATOM     58  C   UNL     1      -1.475   0.268   3.958  1.00  0.00     0.220 C 
ATOM     59  O   UNL     1      -1.194   1.185   3.194  1.00  0.00    -0.275 OA
ATOM     60  H   UNL     1      -0.864  -0.975   5.505  1.00  0.00     0.164 HD
BRANCH  58  61
ATOM     61  C   UNL     1      -2.788  -0.492   3.921  1.00  0.00     0.100 C 
BRANCH  61  62
ATOM     62  C   UNL     1      -3.325  -0.862   5.304  1.00  0.00     0.010 C 
BRANCH  62  63
ATOM     63  C   UNL     1      -4.601  -0.111   5.703  1.00  0.00     0.000 C 
BRANCH  63  64
ATOM     64  C   UNL     1      -4.457   0.748   6.958  1.00  0.00    -0.003 C 
ATOM     65  C   UNL     1      -3.339   1.769   6.807  1.00  0.00     0.004 C 
ENDBRANCH  63  64
ENDBRANCH  62  63
ENDBRANCH  61  62
ENDBRANCH  58  61
ENDBRANCH  56  57
BRANCH  56  66
ATOM     66  C   UNL     1       0.666   1.838   5.700  1.00  0.00     0.157 C 
BRANCH  66  67
ATOM     67  C   UNL     1       1.795   2.080   6.660  1.00  0.00     0.305 C 
ATOM     68  O   UNL     1       1.783   1.895   7.867  1.00  0.00    -0.252 OA
BRANCH  67  69
ATOM     69  O   UNL     1       2.913   2.502   6.039  1.00  0.00    -0.481 OA
ATOM     70  H   UNL     1       2.593   2.978   5.244  1.00  0.00     0.296 HD
ENDBRANCH  67  69
ENDBRANCH  66  67
ENDBRANCH  56  66
ENDBRANCH  53  56
ENDBRANCH  50  52
ENDBRANCH  47  50
ENDBRANCH  45  46
BRANCH  45  71
ATOM     71  C   UNL     1      -0.441   3.373  -1.383  1.00  0.00     0.037 C 
BRANCH  71  72
ATOM     72  C   UNL     1      -1.451   3.013  -2.477  1.00  0.00     0.026 C 
BRANCH  72  73
ATOM     73  C   UNL     1      -2.044   4.262  -3.125  1.00  0.00     0.146 C 
BRANCH  73  74
ATOM     74  N   UNL     1      -1.498   4.367  -4.475  1.00  0.00    -0.254 NA
ATOM     75  C   UNL     1      -2.314   4.273  -5.460  1.00  0.00     0.185 C 
ATOM     76  N   UNL     1      -1.842   4.367  -6.713  1.00  0.00    -0.370 N 
ATOM     77  N   UNL     1      -3.645   4.086  -5.439  1.00  0.00    -0.370 N 
ATOM     78  H   UNL     1      -0.847   4.501  -6.819  1.00  0.00     0.159 HD
ATOM     79  H   UNL     1      -2.392   4.160  -7.529  1.00  0.00     0.159 HD
ATOM     80  H   UNL     1      -4.139   4.001  -4.564  1.00  0.00     0.159 HD
ATOM     81  H   UNL     1      -4.199   4.144  -6.278  1.00  0.00     0.159 HD
ENDBRANCH  73  74
ENDBRANCH  72  73
ENDBRANCH  71  72
ENDBRANCH  45  71
ENDBRANCH   3  45
TORSDOF 20
ENDMDL
MODEL 35
REMARK VINA RESULT:    -5.695      2.809      6.189
REMARK INTER + INTRA:         -24.315
REMARK INTER:                 -17.583
REMARK INTRA:                  -6.732
REMARK UNBOUND:                -7.967
REMARK SMILES CCCCCC(=O)N[C@H](CC(=O)O)C(=O)N[C@H]1C(=O)N[C@H](CCCN=C(N)N)C(=O)N[C@@H]2CC[C@H](O)N(C2=O)[C@@H](CC(C)C)C(=O)N(C)[C@@H](Cc2ccccc2)C(=O)N[C@H](C(C)C)C(=O)O[C@@H]1C
REMARK SMILES IDX 30 1 31 2 29 3 32 5 35 6 37 7 34 8 38 9 33 10 39 11 36 12
REMARK SMILES IDX 40 14 41 15 42 16 43 17 44 18 45 19 46 20 47 21 48 22 49 23
REMARK SMILES IDX 50 24 51 25 52 26 56 27 53 28 55 29 54 30 57 31 58 32 59 33
REMARK SMILES IDX 60 35 61 36 62 37 63 38 64 39 65 40 66 41 67 42 68 43 21 45
REMARK SMILES IDX 20 46 18 47 19 48 17 50 16 52 14 53 15 54 9 56 8 57 6 58
REMARK SMILES IDX 7 59 5 61 4 62 3 63 2 64 1 65 10 66 11 67 12 68 13 69 22 71
REMARK SMILES IDX 23 72 24 73 25 74 26 75 27 76 28 77
REMARK H PARENT 31 4 36 13 59 34 20 49 16 55 8 60 13 70 27 78 27 79 28 80
REMARK H PARENT 28 81
REMARK Flexibility Score:  259.900
ROOT
ATOM      1  O   UNL     1      -6.713   3.739   1.786  1.00  0.00    -0.273 OA
ATOM      2  N   UNL     1      -6.081   2.109   0.311  1.00  0.00    -0.343 N 
ATOM      3  C   UNL     1      -5.849   2.970   1.362  1.00  0.00     0.243 C 
ATOM      4  H   UNL     1      -5.351   1.480  -0.001  1.00  0.00     0.164 HD
ENDROOT
BRANCH   2   5
ATOM      5  C   UNL     1      -7.338   2.160  -0.427  1.00  0.00     0.171 C 
ATOM      6  C   UNL     1      -8.374   0.615  -2.650  1.00  0.00     0.214 C 
ATOM      7  N   UNL     1      -7.635   1.828  -2.911  1.00  0.00    -0.303 N 
ATOM      8  C   UNL     1      -9.128   0.642  -1.330  1.00  0.00     0.057 C 
ATOM      9  C   UNL     1      -7.069   2.585  -1.898  1.00  0.00     0.247 C 
ATOM     10  C   UNL     1      -8.162   0.894  -0.193  1.00  0.00     0.040 C 
ATOM     11  O   UNL     1      -6.364   3.575  -2.135  1.00  0.00    -0.272 OA
BRANCH   6  12
ATOM     12  O   UNL     1      -7.462  -0.459  -2.674  1.00  0.00    -0.373 OA
ATOM     13  H   UNL     1      -7.965  -1.268  -2.440  1.00  0.00     0.213 HD
ENDBRANCH   6  12
BRANCH   7  14
ATOM     14  C   UNL     1      -7.372   2.161  -4.327  1.00  0.00     0.177 C 
BRANCH  14  15
ATOM     15  C   UNL     1      -6.204   1.394  -4.977  1.00  0.00     0.038 C 
BRANCH  15  16
ATOM     16  C   UNL     1      -4.859   2.115  -5.216  1.00  0.00    -0.015 C 
ATOM     17  C   UNL     1      -3.917   2.009  -4.013  1.00  0.00     0.007 C 
ATOM     18  C   UNL     1      -5.111   3.601  -5.500  1.00  0.00     0.007 C 
ENDBRANCH  15  16
ENDBRANCH  14  15
BRANCH  14  19
ATOM     19  C   UNL     1      -8.706   2.562  -5.048  1.00  0.00     0.245 C 
ATOM     20  O   UNL     1      -9.274   3.589  -4.641  1.00  0.00    -0.272 OA
BRANCH  19  21
ATOM     21  N   UNL     1      -9.325   1.787  -6.012  1.00  0.00    -0.332 N 
ATOM     22  C   UNL     1     -10.292   0.735  -5.754  1.00  0.00     0.147 C 
BRANCH  21  23
ATOM     23  C   UNL     1      -8.970   2.034  -7.437  1.00  0.00     0.178 C 
BRANCH  23  24
ATOM     24  C   UNL     1      -8.298   0.843  -8.151  1.00  0.00     0.070 C 
BRANCH  24  25
ATOM     25  C   UNL     1      -6.831   0.981  -8.487  1.00  0.00    -0.045 A 
ATOM     26  C   UNL     1      -6.002  -0.146  -8.556  1.00  0.00     0.004 A 
ATOM     27  C   UNL     1      -6.277   2.247  -8.730  1.00  0.00     0.004 A 
ATOM     28  C   UNL     1      -4.644  -0.008  -8.851  1.00  0.00     0.000 A 
ATOM     29  C   UNL     1      -4.919   2.382  -9.025  1.00  0.00     0.000 A 
ATOM     30  C   UNL     1      -4.103   1.255  -9.082  1.00  0.00     0.000 A 
ENDBRANCH  24  25
ENDBRANCH  23  24
BRANCH  23  31
ATOM     31  C   UNL     1     -10.110   2.712  -8.234  1.00  0.00     0.243 C 
ATOM     32  O   UNL     1     -10.635   3.775  -7.912  1.00  0.00    -0.273 OA
ATOM     33  N   UNL     1     -10.620   1.922  -9.249  1.00  0.00    -0.341 N 
ATOM     34  H   UNL     1     -10.144   1.044  -9.467  1.00  0.00     0.164 HD
BRANCH  33  35
ATOM     35  C   UNL     1     -11.780   2.310 -10.057  1.00  0.00     0.194 C 
BRANCH  35  36
ATOM     36  C   UNL     1     -13.029   1.407  -9.851  1.00  0.00     0.017 C 
ATOM     37  C   UNL     1     -14.108   2.125  -9.022  1.00  0.00     0.010 C 
ATOM     38  C   UNL     1     -12.708   0.086  -9.140  1.00  0.00     0.010 C 
ENDBRANCH  35  36
BRANCH  35  39
ATOM     39  C   UNL     1     -11.430   2.482 -11.562  1.00  0.00     0.329 C 
ATOM     40  O   UNL     1     -11.081   1.564 -12.294  1.00  0.00    -0.250 OA
BRANCH  39  41
ATOM     41  O   UNL     1     -11.639   3.760 -12.002  1.00  0.00    -0.458 OA
BRANCH  41  42
ATOM     42  C   UNL     1     -12.511   3.909 -13.148  1.00  0.00     0.205 CG0
ATOM     43  C   UNL     1     -13.947   3.920 -12.627  1.00  0.00     0.056 C 
ATOM     44  G   UNL     1     -12.246   2.744 -14.122  1.00  0.00     0.000 G0
ENDBRANCH  41  42
ENDBRANCH  39  41
ENDBRANCH  35  39
ENDBRANCH  33  35
ENDBRANCH  23  31
ENDBRANCH  21  23
ENDBRANCH  19  21
ENDBRANCH  14  19
ENDBRANCH   7  14
ENDBRANCH   2   5
BRANCH   3  45
ATOM     45  C   UNL     1      -4.447   2.889   1.981  1.00  0.00     0.171 C 
BRANCH  45  46
ATOM     46  N   UNL     1      -4.632   3.131   3.406  1.00  0.00    -0.342 N 
ATOM     47  C   UNL     1      -4.625   2.117   4.331  1.00  0.00     0.247 C 
ATOM     48  O   UNL     1      -4.391   0.944   4.036  1.00  0.00    -0.273 OA
ATOM     49  H   UNL     1      -4.772   4.095   3.701  1.00  0.00     0.164 HD
BRANCH  47  50
ATOM     50  C   UNL     1      -4.959   2.545   5.767  1.00  0.00     0.212 CG0
ATOM     51  G   UNL     1      -5.939   1.507   6.349  1.00  0.00     0.000 G0
BRANCH  50  52
ATOM     52  N   UNL     1      -3.679   2.587   6.469  1.00  0.00    -0.339 N 
ATOM     53  C   UNL     1      -2.950   3.738   6.644  1.00  0.00     0.243 C 
ATOM     54  O   UNL     1      -3.296   4.819   6.174  1.00  0.00    -0.273 OA
ATOM     55  H   UNL     1      -3.284   1.704   6.786  1.00  0.00     0.164 HD
BRANCH  53  56
ATOM     56  C   UNL     1      -1.591   3.521   7.339  1.00  0.00     0.182 C 
BRANCH  56  57
ATOM     57  N   UNL     1      -1.542   2.215   8.004  1.00  0.00    -0.344 N 
ATOM     58  C   UNL     1      -0.547   1.301   7.759  1.00  0.00     0.220 C 
ATOM     59  O   UNL     1       0.326   1.480   6.917  1.00  0.00    -0.275 OA
ATOM     60  H   UNL     1      -2.185   2.069   8.778  1.00  0.00     0.164 HD
BRANCH  58  61
ATOM     61  C   UNL     1      -0.664   0.044   8.601  1.00  0.00     0.100 C 
BRANCH  61  62
ATOM     62  C   UNL     1       0.040  -1.171   7.997  1.00  0.00     0.010 C 
BRANCH  62  63
ATOM     63  C   UNL     1      -0.733  -1.841   6.854  1.00  0.00     0.000 C 
BRANCH  63  64
ATOM     64  C   UNL     1      -2.204  -2.109   7.166  1.00  0.00    -0.003 C 
ATOM     65  C   UNL     1      -3.120  -1.269   6.287  1.00  0.00     0.004 C 
ENDBRANCH  63  64
ENDBRANCH  62  63
ENDBRANCH  61  62
ENDBRANCH  58  61
ENDBRANCH  56  57
BRANCH  56  66
ATOM     66  C   UNL     1      -1.260   4.667   8.294  1.00  0.00     0.157 C 
BRANCH  66  67
ATOM     67  C   UNL     1       0.181   5.073   8.179  1.00  0.00     0.305 C 
ATOM     68  O   UNL     1       0.717   6.032   8.712  1.00  0.00    -0.252 OA
BRANCH  67  69
ATOM     69  O   UNL     1       0.896   4.212   7.430  1.00  0.00    -0.481 OA
ATOM     70  H   UNL     1       0.560   3.325   7.678  1.00  0.00     0.296 HD
ENDBRANCH  67  69
ENDBRANCH  66  67
ENDBRANCH  56  66
ENDBRANCH  53  56
ENDBRANCH  50  52
ENDBRANCH  47  50
ENDBRANCH  45  46
BRANCH  45  71
ATOM     71  C   UNL     1      -3.522   3.933   1.346  1.00  0.00     0.037 C 
BRANCH  71  72
ATOM     72  C   UNL     1      -2.640   3.330   0.250  1.00  0.00     0.026 C 
BRANCH  72  73
ATOM     73  C   UNL     1      -1.353   2.744   0.827  1.00  0.00     0.146 C 
BRANCH  73  74
ATOM     74  N   UNL     1      -1.605   1.344   1.151  1.00  0.00    -0.254 NA
ATOM     75  C   UNL     1      -1.506   0.986   2.378  1.00  0.00     0.185 C 
ATOM     76  N   UNL     1      -1.734  -0.296   2.708  1.00  0.00    -0.370 N 
ATOM     77  N   UNL     1      -1.194   1.731   3.453  1.00  0.00    -0.370 N 
ATOM     78  H   UNL     1      -1.969  -0.927   1.956  1.00  0.00     0.159 HD
ATOM     79  H   UNL     1      -1.536  -0.677   3.617  1.00  0.00     0.159 HD
ATOM     80  H   UNL     1      -1.000   2.716   3.356  1.00  0.00     0.159 HD
ATOM     81  H   UNL     1      -1.260   1.363   4.388  1.00  0.00     0.159 HD
ENDBRANCH  73  74
ENDBRANCH  72  73
ENDBRANCH  71  72
ENDBRANCH  45  71
ENDBRANCH   3  45
TORSDOF 20
ENDMDL
MODEL 36
REMARK VINA RESULT:    -5.690      3.691      8.123
REMARK INTER + INTRA:         -24.301
REMARK INTER:                 -17.528
REMARK INTRA:                  -6.772
REMARK UNBOUND:                -7.967
REMARK SMILES CCCCCC(=O)N[C@H](CC(=O)O)C(=O)N[C@H]1C(=O)N[C@H](CCCN=C(N)N)C(=O)N[C@@H]2CC[C@H](O)N(C2=O)[C@@H](CC(C)C)C(=O)N(C)[C@@H](Cc2ccccc2)C(=O)N[C@H](C(C)C)C(=O)O[C@@H]1C
REMARK SMILES IDX 30 1 31 2 29 3 32 5 35 6 37 7 34 8 38 9 33 10 39 11 36 12
REMARK SMILES IDX 40 14 41 15 42 16 43 17 44 18 45 19 46 20 47 21 48 22 49 23
REMARK SMILES IDX 50 24 51 25 52 26 56 27 53 28 55 29 54 30 57 31 58 32 59 33
REMARK SMILES IDX 60 35 61 36 62 37 63 38 64 39 65 40 66 41 67 42 68 43 21 45
REMARK SMILES IDX 20 46 18 47 19 48 17 50 16 52 14 53 15 54 9 56 8 57 6 58
REMARK SMILES IDX 7 59 5 61 4 62 3 63 2 64 1 65 10 66 11 67 12 68 13 69 22 71
REMARK SMILES IDX 23 72 24 73 25 74 26 75 27 76 28 77
REMARK H PARENT 31 4 36 13 59 34 20 49 16 55 8 60 13 70 27 78 27 79 28 80
REMARK H PARENT 28 81
REMARK Flexibility Score:  259.900
ROOT
ATOM      1  O   UNL     1      -5.693   2.163  -2.383  1.00  0.00    -0.273 OA
ATOM      2  N   UNL     1      -5.395   4.396  -2.780  1.00  0.00    -0.343 N 
ATOM      3  C   UNL     1      -4.976   3.163  -2.329  1.00  0.00     0.243 C 
ATOM      4  H   UNL     1      -4.773   5.193  -2.733  1.00  0.00     0.164 HD
ENDROOT
BRANCH   2   5
ATOM      5  C   UNL     1      -6.767   4.592  -3.236  1.00  0.00     0.171 C 
ATOM      6  C   UNL     1      -8.776   2.771  -4.262  1.00  0.00     0.214 C 
ATOM      7  N   UNL     1      -7.882   3.435  -5.182  1.00  0.00    -0.303 N 
ATOM      8  C   UNL     1      -9.059   3.583  -3.008  1.00  0.00     0.057 C 
ATOM      9  C   UNL     1      -6.868   4.277  -4.756  1.00  0.00     0.247 C 
ATOM     10  C   UNL     1      -7.759   3.903  -2.301  1.00  0.00     0.040 C 
ATOM     11  O   UNL     1      -6.052   4.773  -5.544  1.00  0.00    -0.272 OA
BRANCH   6  12
ATOM     12  O   UNL     1      -8.203   1.529  -3.926  1.00  0.00    -0.373 OA
ATOM     13  H   UNL     1      -8.495   0.885  -4.606  1.00  0.00     0.213 HD
ENDBRANCH   6  12
BRANCH   7  14
ATOM     14  C   UNL     1      -7.994   3.065  -6.609  1.00  0.00     0.177 C 
BRANCH  14  15
ATOM     15  C   UNL     1      -7.225   1.794  -7.021  1.00  0.00     0.038 C 
BRANCH  15  16
ATOM     16  C   UNL     1      -6.134   1.884  -8.110  1.00  0.00    -0.015 C 
ATOM     17  C   UNL     1      -6.720   2.103  -9.508  1.00  0.00     0.007 C 
ATOM     18  C   UNL     1      -5.314   0.588  -8.130  1.00  0.00     0.007 C 
ENDBRANCH  15  16
ENDBRANCH  14  15
BRANCH  14  19
ATOM     19  C   UNL     1      -9.387   3.506  -7.177  1.00  0.00     0.245 C 
ATOM     20  O   UNL     1      -9.591   4.728  -7.272  1.00  0.00    -0.272 OA
BRANCH  19  21
ATOM     21  N   UNL     1     -10.416   2.627  -7.464  1.00  0.00    -0.332 N 
ATOM     22  C   UNL     1     -11.098   1.784  -6.498  1.00  0.00     0.147 C 
BRANCH  21  23
ATOM     23  C   UNL     1     -10.865   2.519  -8.880  1.00  0.00     0.178 C 
BRANCH  23  24
ATOM     24  C   UNL     1     -11.168   1.083  -9.353  1.00  0.00     0.070 C 
BRANCH  24  25
ATOM     25  C   UNL     1      -9.995   0.245  -9.806  1.00  0.00    -0.045 A 
ATOM     26  C   UNL     1      -9.595   0.236 -11.148  1.00  0.00     0.004 A 
ATOM     27  C   UNL     1      -9.290  -0.542  -8.883  1.00  0.00     0.004 A 
ATOM     28  C   UNL     1      -8.520  -0.554 -11.561  1.00  0.00     0.000 A 
ATOM     29  C   UNL     1      -8.215  -1.330  -9.297  1.00  0.00     0.000 A 
ATOM     30  C   UNL     1      -7.833  -1.337 -10.637  1.00  0.00     0.000 A 
ENDBRANCH  24  25
ENDBRANCH  23  24
BRANCH  23  31
ATOM     31  C   UNL     1     -11.938   3.569  -9.255  1.00  0.00     0.243 C 
ATOM     32  O   UNL     1     -11.693   4.627  -9.828  1.00  0.00    -0.273 OA
ATOM     33  N   UNL     1     -13.187   3.298  -8.721  1.00  0.00    -0.341 N 
ATOM     34  H   UNL     1     -13.328   2.402  -8.248  1.00  0.00     0.164 HD
BRANCH  33  35
ATOM     35  C   UNL     1     -14.324   4.214  -8.846  1.00  0.00     0.194 C 
BRANCH  35  36
ATOM     36  C   UNL     1     -14.713   4.928  -7.520  1.00  0.00     0.017 C 
ATOM     37  C   UNL     1     -14.507   6.449  -7.624  1.00  0.00     0.010 C 
ATOM     38  C   UNL     1     -13.909   4.437  -6.311  1.00  0.00     0.010 C 
ENDBRANCH  35  36
BRANCH  35  39
ATOM     39  C   UNL     1     -15.553   3.551  -9.529  1.00  0.00     0.329 C 
ATOM     40  O   UNL     1     -16.374   2.857  -8.941  1.00  0.00    -0.250 OA
BRANCH  39  41
ATOM     41  O   UNL     1     -15.665   3.899 -10.847  1.00  0.00    -0.458 OA
BRANCH  41  42
ATOM     42  C   UNL     1     -16.927   3.589 -11.486  1.00  0.00     0.205 CG0
ATOM     43  C   UNL     1     -16.670   2.449 -12.469  1.00  0.00     0.056 C 
ATOM     44  G   UNL     1     -17.451   4.861 -12.182  1.00  0.00     0.000 G0
ENDBRANCH  41  42
ENDBRANCH  39  41
ENDBRANCH  35  39
ENDBRANCH  33  35
ENDBRANCH  23  31
ENDBRANCH  21  23
ENDBRANCH  19  21
ENDBRANCH  14  19
ENDBRANCH   7  14
ENDBRANCH   2   5
BRANCH   3  45
ATOM     45  C   UNL     1      -3.545   3.117  -1.776  1.00  0.00     0.171 C 
BRANCH  45  46
ATOM     46  N   UNL     1      -3.678   3.249  -0.331  1.00  0.00    -0.342 N 
ATOM     47  C   UNL     1      -2.929   2.507   0.548  1.00  0.00     0.247 C 
ATOM     48  O   UNL     1      -2.043   1.733   0.183  1.00  0.00    -0.273 OA
ATOM     49  H   UNL     1      -4.361   3.920   0.015  1.00  0.00     0.164 HD
BRANCH  47  50
ATOM     50  C   UNL     1      -3.294   2.689   2.028  1.00  0.00     0.212 CG0
ATOM     51  G   UNL     1      -2.646   4.003   2.510  1.00  0.00     0.000 G0
BRANCH  50  52
ATOM     52  N   UNL     1      -4.753   2.716   2.069  1.00  0.00    -0.339 N 
ATOM     53  C   UNL     1      -5.528   1.585   2.152  1.00  0.00     0.243 C 
ATOM     54  O   UNL     1      -5.051   0.454   2.145  1.00  0.00    -0.273 OA
ATOM     55  H   UNL     1      -5.213   3.619   1.967  1.00  0.00     0.164 HD
BRANCH  53  56
ATOM     56  C   UNL     1      -7.045   1.857   2.094  1.00  0.00     0.182 C 
BRANCH  56  57
ATOM     57  N   UNL     1      -7.586   1.538   0.769  1.00  0.00    -0.344 N 
ATOM     58  C   UNL     1      -8.711   0.768   0.599  1.00  0.00     0.220 C 
ATOM     59  O   UNL     1      -9.298   0.236   1.535  1.00  0.00    -0.275 OA
ATOM     60  H   UNL     1      -7.193   2.040  -0.023  1.00  0.00     0.164 HD
BRANCH  58  61
ATOM     61  C   UNL     1      -9.123   0.617  -0.853  1.00  0.00     0.100 C 
BRANCH  61  62
ATOM     62  C   UNL     1     -10.637   0.603  -1.066  1.00  0.00     0.010 C 
BRANCH  62  63
ATOM     63  C   UNL     1     -11.069   0.162  -2.470  1.00  0.00     0.000 C 
BRANCH  63  64
ATOM     64  C   UNL     1     -12.560   0.340  -2.752  1.00  0.00    -0.003 C 
ATOM     65  C   UNL     1     -13.410  -0.426  -1.748  1.00  0.00     0.004 C 
ENDBRANCH  63  64
ENDBRANCH  62  63
ENDBRANCH  61  62
ENDBRANCH  58  61
ENDBRANCH  56  57
BRANCH  56  66
ATOM     66  C   UNL     1      -7.374   3.286   2.522  1.00  0.00     0.157 C 
BRANCH  66  67
ATOM     67  C   UNL     1      -7.423   4.211   1.340  1.00  0.00     0.305 C 
ATOM     68  O   UNL     1      -6.475   4.607   0.680  1.00  0.00    -0.252 OA
BRANCH  67  69
ATOM     69  O   UNL     1      -8.683   4.554   1.011  1.00  0.00    -0.481 OA
ATOM     70  H   UNL     1      -8.699   4.535   0.030  1.00  0.00     0.296 HD
ENDBRANCH  67  69
ENDBRANCH  66  67
ENDBRANCH  56  66
ENDBRANCH  53  56
ENDBRANCH  50  52
ENDBRANCH  47  50
ENDBRANCH  45  46
BRANCH  45  71
ATOM     71  C   UNL     1      -2.706   4.253  -2.372  1.00  0.00     0.037 C 
BRANCH  71  72
ATOM     72  C   UNL     1      -1.414   3.738  -3.012  1.00  0.00     0.026 C 
BRANCH  72  73
ATOM     73  C   UNL     1      -0.180   4.351  -2.353  1.00  0.00     0.146 C 
BRANCH  73  74
ATOM     74  N   UNL     1       0.494   3.298  -1.600  1.00  0.00    -0.254 NA
ATOM     75  C   UNL     1       0.534   3.408  -0.323  1.00  0.00     0.185 C 
ATOM     76  N   UNL     1       1.146   2.454   0.398  1.00  0.00    -0.370 N 
ATOM     77  N   UNL     1       0.032   4.380   0.458  1.00  0.00    -0.370 N 
ATOM     78  H   UNL     1       1.559   1.688  -0.114  1.00  0.00     0.159 HD
ATOM     79  H   UNL     1       1.342   2.543   1.379  1.00  0.00     0.159 HD
ATOM     80  H   UNL     1      -0.460   5.162   0.053  1.00  0.00     0.159 HD
ATOM     81  H   UNL     1       0.023   4.300   1.461  1.00  0.00     0.159 HD
ENDBRANCH  73  74
ENDBRANCH  72  73
ENDBRANCH  71  72
ENDBRANCH  45  71
ENDBRANCH   3  45
TORSDOF 20
ENDMDL
MODEL 37
REMARK VINA RESULT:    -5.677      2.580     12.353
REMARK INTER + INTRA:         -24.263
REMARK INTER:                 -15.816
REMARK INTRA:                  -8.447
REMARK UNBOUND:                -7.967
REMARK SMILES CCCCCC(=O)N[C@H](CC(=O)O)C(=O)N[C@H]1C(=O)N[C@H](CCCN=C(N)N)C(=O)N[C@@H]2CC[C@H](O)N(C2=O)[C@@H](CC(C)C)C(=O)N(C)[C@@H](Cc2ccccc2)C(=O)N[C@H](C(C)C)C(=O)O[C@@H]1C
REMARK SMILES IDX 30 1 31 2 29 3 32 5 35 6 37 7 34 8 38 9 33 10 39 11 36 12
REMARK SMILES IDX 40 14 41 15 42 16 43 17 44 18 45 19 46 20 47 21 48 22 49 23
REMARK SMILES IDX 50 24 51 25 52 26 56 27 53 28 55 29 54 30 57 31 58 32 59 33
REMARK SMILES IDX 60 35 61 36 62 37 63 38 64 39 65 40 66 41 67 42 68 43 21 45
REMARK SMILES IDX 20 46 18 47 19 48 17 50 16 52 14 53 15 54 9 56 8 57 6 58
REMARK SMILES IDX 7 59 5 61 4 62 3 63 2 64 1 65 10 66 11 67 12 68 13 69 22 71
REMARK SMILES IDX 23 72 24 73 25 74 26 75 27 76 28 77
REMARK H PARENT 31 4 36 13 59 34 20 49 16 55 8 60 13 70 27 78 27 79 28 80
REMARK H PARENT 28 81
REMARK Flexibility Score:  259.900
ROOT
ATOM      1  O   UNL     1     -11.239   0.946  -5.237  1.00  0.00    -0.273 OA
ATOM      2  N   UNL     1     -10.705   1.054  -3.016  1.00  0.00    -0.343 N 
ATOM      3  C   UNL     1     -11.561   1.226  -4.083  1.00  0.00     0.243 C 
ATOM      4  H   UNL     1     -11.010   1.282  -2.078  1.00  0.00     0.164 HD
ENDROOT
BRANCH   2   5
ATOM      5  C   UNL     1      -9.324   0.637  -3.232  1.00  0.00     0.171 C 
ATOM      6  C   UNL     1      -7.011   0.523  -1.488  1.00  0.00     0.214 C 
ATOM      7  N   UNL     1      -7.261   1.718  -2.260  1.00  0.00    -0.303 N 
ATOM      8  C   UNL     1      -7.516  -0.744  -2.161  1.00  0.00     0.057 C 
ATOM      9  C   UNL     1      -8.374   1.858  -3.073  1.00  0.00     0.247 C 
ATOM     10  C   UNL     1      -9.000  -0.623  -2.432  1.00  0.00     0.040 C 
ATOM     11  O   UNL     1      -8.626   2.917  -3.663  1.00  0.00    -0.272 OA
BRANCH   6  12
ATOM     12  O   UNL     1      -7.621   0.688  -0.229  1.00  0.00    -0.373 OA
ATOM     13  H   UNL     1      -8.404   0.099  -0.209  1.00  0.00     0.213 HD
ENDBRANCH   6  12
BRANCH   7  14
ATOM     14  C   UNL     1      -6.351   2.862  -2.037  1.00  0.00     0.177 C 
BRANCH  14  15
ATOM     15  C   UNL     1      -5.822   3.538  -3.317  1.00  0.00     0.038 C 
BRANCH  15  16
ATOM     16  C   UNL     1      -5.096   2.688  -4.383  1.00  0.00    -0.015 C 
ATOM     17  C   UNL     1      -4.085   1.717  -3.766  1.00  0.00     0.007 C 
ATOM     18  C   UNL     1      -4.347   3.606  -5.357  1.00  0.00     0.007 C 
ENDBRANCH  15  16
ENDBRANCH  14  15
BRANCH  14  19
ATOM     19  C   UNL     1      -6.726   3.604  -0.708  1.00  0.00     0.245 C 
ATOM     20  O   UNL     1      -7.711   4.358  -0.747  1.00  0.00    -0.272 OA
BRANCH  19  21
ATOM     21  N   UNL     1      -5.965   3.548   0.447  1.00  0.00    -0.332 N 
ATOM     22  C   UNL     1      -6.445   3.833   1.787  1.00  0.00     0.147 C 
BRANCH  21  23
ATOM     23  C   UNL     1      -4.528   3.178   0.317  1.00  0.00     0.178 C 
BRANCH  23  24
ATOM     24  C   UNL     1      -3.543   4.356   0.458  1.00  0.00     0.070 C 
BRANCH  24  25
ATOM     25  C   UNL     1      -2.345   4.366  -0.463  1.00  0.00    -0.045 A 
ATOM     26  C   UNL     1      -2.511   4.371  -1.854  1.00  0.00     0.004 A 
ATOM     27  C   UNL     1      -1.046   4.365   0.065  1.00  0.00     0.004 A 
ATOM     28  C   UNL     1      -1.399   4.363  -2.700  1.00  0.00     0.000 A 
ATOM     29  C   UNL     1       0.064   4.359  -0.781  1.00  0.00     0.000 A 
ATOM     30  C   UNL     1      -0.113   4.354  -2.163  1.00  0.00     0.000 A 
ENDBRANCH  24  25
ENDBRANCH  23  24
BRANCH  23  31
ATOM     31  C   UNL     1      -4.155   1.915   1.128  1.00  0.00     0.243 C 
ATOM     32  O   UNL     1      -4.759   0.848   1.055  1.00  0.00    -0.273 OA
ATOM     33  N   UNL     1      -3.186   2.142   2.091  1.00  0.00    -0.341 N 
ATOM     34  H   UNL     1      -2.722   3.053   2.107  1.00  0.00     0.164 HD
BRANCH  33  35
ATOM     35  C   UNL     1      -2.762   1.122   3.054  1.00  0.00     0.194 C 
BRANCH  35  36
ATOM     36  C   UNL     1      -3.285   1.357   4.499  1.00  0.00     0.017 C 
ATOM     37  C   UNL     1      -4.734   0.864   4.657  1.00  0.00     0.010 C 
ATOM     38  C   UNL     1      -3.252   2.830   4.922  1.00  0.00     0.010 C 
ENDBRANCH  35  36
BRANCH  35  39
ATOM     39  C   UNL     1      -1.228   0.873   3.025  1.00  0.00     0.329 C 
ATOM     40  O   UNL     1      -0.433   1.566   2.401  1.00  0.00    -0.250 OA
BRANCH  39  41
ATOM     41  O   UNL     1      -0.852  -0.155   3.844  1.00  0.00    -0.458 OA
BRANCH  41  42
ATOM     42  C   UNL     1       0.549  -0.207   4.206  1.00  0.00     0.205 CG0
ATOM     43  C   UNL     1       1.166  -1.390   3.462  1.00  0.00     0.056 C 
ATOM     44  G   UNL     1       0.656  -0.352   5.737  1.00  0.00     0.000 G0
ENDBRANCH  41  42
ENDBRANCH  39  41
ENDBRANCH  35  39
ENDBRANCH  33  35
ENDBRANCH  23  31
ENDBRANCH  21  23
ENDBRANCH  19  21
ENDBRANCH  14  19
ENDBRANCH   7  14
ENDBRANCH   2   5
BRANCH   3  45
ATOM     45  C   UNL     1     -12.951   1.772  -3.729  1.00  0.00     0.171 C 
BRANCH  45  46
ATOM     46  N   UNL     1     -13.433   2.434  -4.934  1.00  0.00    -0.342 N 
ATOM     47  C   UNL     1     -14.757   2.437  -5.293  1.00  0.00     0.247 C 
ATOM     48  O   UNL     1     -15.641   1.946  -4.590  1.00  0.00    -0.273 OA
ATOM     49  H   UNL     1     -12.741   2.902  -5.516  1.00  0.00     0.164 HD
BRANCH  47  50
ATOM     50  C   UNL     1     -15.060   3.075  -6.656  1.00  0.00     0.212 CG0
ATOM     51  G   UNL     1     -15.873   4.359  -6.400  1.00  0.00     0.000 G0
BRANCH  50  52
ATOM     52  N   UNL     1     -13.757   3.328  -7.265  1.00  0.00    -0.339 N 
ATOM     53  C   UNL     1     -13.061   2.385  -7.981  1.00  0.00     0.243 C 
ATOM     54  O   UNL     1     -13.460   1.231  -8.119  1.00  0.00    -0.273 OA
ATOM     55  H   UNL     1     -13.322   4.232  -7.092  1.00  0.00     0.164 HD
BRANCH  53  56
ATOM     56  C   UNL     1     -11.671   2.855  -8.454  1.00  0.00     0.182 C 
BRANCH  56  57
ATOM     57  N   UNL     1     -10.622   1.935  -8.003  1.00  0.00    -0.344 N 
ATOM     58  C   UNL     1      -9.929   1.127  -8.871  1.00  0.00     0.220 C 
ATOM     59  O   UNL     1     -10.186   1.064 -10.068  1.00  0.00    -0.275 OA
ATOM     60  H   UNL     1     -10.309   2.030  -7.040  1.00  0.00     0.164 HD
BRANCH  58  61
ATOM     61  C   UNL     1      -8.851   0.302  -8.193  1.00  0.00     0.100 C 
BRANCH  61  62
ATOM     62  C   UNL     1      -8.012  -0.532  -9.162  1.00  0.00     0.010 C 
BRANCH  62  63
ATOM     63  C   UNL     1      -6.548  -0.087  -9.268  1.00  0.00     0.000 C 
BRANCH  63  64
ATOM     64  C   UNL     1      -5.946   0.408  -7.954  1.00  0.00    -0.003 C 
ATOM     65  C   UNL     1      -4.553   0.984  -8.163  1.00  0.00     0.004 C 
ENDBRANCH  63  64
ENDBRANCH  62  63
ENDBRANCH  61  62
ENDBRANCH  58  61
ENDBRANCH  56  57
BRANCH  56  66
ATOM     66  C   UNL     1     -11.394   4.297  -8.032  1.00  0.00     0.157 C 
BRANCH  66  67
ATOM     67  C   UNL     1     -10.366   4.356  -6.939  1.00  0.00     0.305 C 
ATOM     68  O   UNL     1      -9.213   4.747  -7.038  1.00  0.00    -0.252 OA
BRANCH  67  69
ATOM     69  O   UNL     1     -10.860   3.963  -5.749  1.00  0.00    -0.481 OA
ATOM     70  H   UNL     1     -10.211   3.310  -5.412  1.00  0.00     0.296 HD
ENDBRANCH  67  69
ENDBRANCH  66  67
ENDBRANCH  56  66
ENDBRANCH  53  56
ENDBRANCH  50  52
ENDBRANCH  47  50
ENDBRANCH  45  46
BRANCH  45  71
ATOM     71  C   UNL     1     -12.857   2.746  -2.548  1.00  0.00     0.037 C 
BRANCH  71  72
ATOM     72  C   UNL     1     -13.607   2.231  -1.317  1.00  0.00     0.026 C 
BRANCH  72  73
ATOM     73  C   UNL     1     -12.945   2.698  -0.022  1.00  0.00     0.146 C 
BRANCH  73  74
ATOM     74  N   UNL     1     -12.206   1.570   0.535  1.00  0.00    -0.254 NA
ATOM     75  C   UNL     1     -10.925   1.628   0.524  1.00  0.00     0.185 C 
ATOM     76  N   UNL     1     -10.217   0.605   1.030  1.00  0.00    -0.370 N 
ATOM     77  N   UNL     1     -10.128   2.606   0.060  1.00  0.00    -0.370 N 
ATOM     78  H   UNL     1     -10.741  -0.177   1.395  1.00  0.00     0.159 HD
ATOM     79  H   UNL     1      -9.222   0.515   0.926  1.00  0.00     0.159 HD
ATOM     80  H   UNL     1     -10.523   3.441  -0.347  1.00  0.00     0.159 HD
ATOM     81  H   UNL     1      -9.133   2.592   0.210  1.00  0.00     0.159 HD
ENDBRANCH  73  74
ENDBRANCH  72  73
ENDBRANCH  71  72
ENDBRANCH  45  71
ENDBRANCH   3  45
TORSDOF 20
ENDMDL
MODEL 38
REMARK VINA RESULT:    -5.660      4.212      7.181
REMARK INTER + INTRA:         -24.216
REMARK INTER:                 -17.806
REMARK INTRA:                  -6.410
REMARK UNBOUND:                -7.967
REMARK SMILES CCCCCC(=O)N[C@H](CC(=O)O)C(=O)N[C@H]1C(=O)N[C@H](CCCN=C(N)N)C(=O)N[C@@H]2CC[C@H](O)N(C2=O)[C@@H](CC(C)C)C(=O)N(C)[C@@H](Cc2ccccc2)C(=O)N[C@H](C(C)C)C(=O)O[C@@H]1C
REMARK SMILES IDX 30 1 31 2 29 3 32 5 35 6 37 7 34 8 38 9 33 10 39 11 36 12
REMARK SMILES IDX 40 14 41 15 42 16 43 17 44 18 45 19 46 20 47 21 48 22 49 23
REMARK SMILES IDX 50 24 51 25 52 26 56 27 53 28 55 29 54 30 57 31 58 32 59 33
REMARK SMILES IDX 60 35 61 36 62 37 63 38 64 39 65 40 66 41 67 42 68 43 21 45
REMARK SMILES IDX 20 46 18 47 19 48 17 50 16 52 14 53 15 54 9 56 8 57 6 58
REMARK SMILES IDX 7 59 5 61 4 62 3 63 2 64 1 65 10 66 11 67 12 68 13 69 22 71
REMARK SMILES IDX 23 72 24 73 25 74 26 75 27 76 28 77
REMARK H PARENT 31 4 36 13 59 34 20 49 16 55 8 60 13 70 27 78 27 79 28 80
REMARK H PARENT 28 81
REMARK Flexibility Score:  259.900
ROOT
ATOM      1  O   UNL     1      -3.809   1.736  -0.733  1.00  0.00    -0.273 OA
ATOM      2  N   UNL     1      -5.297   3.105   0.337  1.00  0.00    -0.343 N 
ATOM      3  C   UNL     1      -4.076   2.477   0.214  1.00  0.00     0.243 C 
ATOM      4  H   UNL     1      -5.476   3.719   1.122  1.00  0.00     0.164 HD
ENDROOT
BRANCH   2   5
ATOM      5  C   UNL     1      -6.377   2.818  -0.601  1.00  0.00     0.171 C 
ATOM      6  C   UNL     1      -9.145   3.670  -0.728  1.00  0.00     0.214 C 
ATOM      7  N   UNL     1      -8.808   2.454  -0.025  1.00  0.00    -0.303 N 
ATOM      8  C   UNL     1      -8.204   3.980  -1.881  1.00  0.00     0.057 C 
ATOM      9  C   UNL     1      -7.501   2.017   0.117  1.00  0.00     0.247 C 
ATOM     10  C   UNL     1      -6.782   4.075  -1.370  1.00  0.00     0.040 C 
ATOM     11  O   UNL     1      -7.212   1.022   0.794  1.00  0.00    -0.272 OA
BRANCH   6  12
ATOM     12  O   UNL     1      -9.142   4.724   0.207  1.00  0.00    -0.373 OA
ATOM     13  H   UNL     1     -10.027   4.736   0.629  1.00  0.00     0.213 HD
ENDBRANCH   6  12
BRANCH   7  14
ATOM     14  C   UNL     1      -9.908   1.757   0.674  1.00  0.00     0.177 C 
BRANCH  14  15
ATOM     15  C   UNL     1     -10.210   2.269   2.096  1.00  0.00     0.038 C 
BRANCH  15  16
ATOM     16  C   UNL     1     -10.331   1.258   3.259  1.00  0.00    -0.015 C 
ATOM     17  C   UNL     1      -9.860  -0.145   2.865  1.00  0.00     0.007 C 
ATOM     18  C   UNL     1     -11.793   1.164   3.714  1.00  0.00     0.007 C 
ENDBRANCH  15  16
ENDBRANCH  14  15
BRANCH  14  19
ATOM     19  C   UNL     1     -10.978   1.259  -0.357  1.00  0.00     0.245 C 
ATOM     20  O   UNL     1     -10.644   0.323  -1.102  1.00  0.00    -0.272 OA
BRANCH  19  21
ATOM     21  N   UNL     1     -12.204   1.870  -0.551  1.00  0.00    -0.332 N 
ATOM     22  C   UNL     1     -12.563   2.696  -1.690  1.00  0.00     0.147 C 
BRANCH  21  23
ATOM     23  C   UNL     1     -13.249   1.681   0.493  1.00  0.00     0.178 C 
BRANCH  23  24
ATOM     24  C   UNL     1     -14.223   2.866   0.654  1.00  0.00     0.070 C 
BRANCH  24  25
ATOM     25  C   UNL     1     -13.831   3.951   1.630  1.00  0.00    -0.045 A 
ATOM     26  C   UNL     1     -13.080   5.057   1.211  1.00  0.00     0.004 A 
ATOM     27  C   UNL     1     -14.212   3.862   2.977  1.00  0.00     0.004 A 
ATOM     28  C   UNL     1     -12.707   6.046   2.123  1.00  0.00     0.000 A 
ATOM     29  C   UNL     1     -13.840   4.853   3.887  1.00  0.00     0.000 A 
ATOM     30  C   UNL     1     -13.085   5.943   3.459  1.00  0.00     0.000 A 
ENDBRANCH  24  25
ENDBRANCH  23  24
BRANCH  23  31
ATOM     31  C   UNL     1     -13.922   0.289   0.429  1.00  0.00     0.243 C 
ATOM     32  O   UNL     1     -14.020  -0.472   1.388  1.00  0.00    -0.273 OA
ATOM     33  N   UNL     1     -14.245  -0.110  -0.857  1.00  0.00    -0.341 N 
ATOM     34  H   UNL     1     -14.137   0.566  -1.617  1.00  0.00     0.164 HD
BRANCH  33  35
ATOM     35  C   UNL     1     -14.782  -1.437  -1.170  1.00  0.00     0.194 C 
BRANCH  35  36
ATOM     36  C   UNL     1     -14.291  -2.018  -2.526  1.00  0.00     0.017 C 
ATOM     37  C   UNL     1     -12.763  -2.201  -2.535  1.00  0.00     0.010 C 
ATOM     38  C   UNL     1     -14.654  -1.136  -3.728  1.00  0.00     0.010 C 
ENDBRANCH  35  36
BRANCH  35  39
ATOM     39  C   UNL     1     -16.330  -1.503  -1.038  1.00  0.00     0.329 C 
ATOM     40  O   UNL     1     -17.082  -0.575  -1.312  1.00  0.00    -0.250 OA
BRANCH  39  41
ATOM     41  O   UNL     1     -16.767  -2.743  -0.663  1.00  0.00    -0.458 OA
BRANCH  41  42
ATOM     42  C   UNL     1     -17.845  -2.778   0.303  1.00  0.00     0.205 CG0
ATOM     43  C   UNL     1     -17.216  -2.655   1.689  1.00  0.00     0.056 C 
ATOM     44  G   UNL     1     -18.624  -4.096   0.123  1.00  0.00     0.000 G0
ENDBRANCH  41  42
ENDBRANCH  39  41
ENDBRANCH  35  39
ENDBRANCH  33  35
ENDBRANCH  23  31
ENDBRANCH  21  23
ENDBRANCH  19  21
ENDBRANCH  14  19
ENDBRANCH   7  14
ENDBRANCH   2   5
BRANCH   3  45
ATOM     45  C   UNL     1      -3.065   2.782   1.327  1.00  0.00     0.171 C 
BRANCH  45  46
ATOM     46  N   UNL     1      -1.798   2.227   0.871  1.00  0.00    -0.342 N 
ATOM     47  C   UNL     1      -0.737   3.017   0.506  1.00  0.00     0.247 C 
ATOM     48  O   UNL     1      -0.752   4.245   0.606  1.00  0.00    -0.273 OA
ATOM     49  H   UNL     1      -1.722   1.212   0.826  1.00  0.00     0.164 HD
BRANCH  47  50
ATOM     50  C   UNL     1       0.471   2.261  -0.066  1.00  0.00     0.212 CG0
ATOM     51  G   UNL     1       1.651   3.250  -0.135  1.00  0.00     0.000 G0
BRANCH  50  52
ATOM     52  N   UNL     1       0.703   1.148   0.850  1.00  0.00    -0.339 N 
ATOM     53  C   UNL     1       1.665   1.165   1.831  1.00  0.00     0.243 C 
ATOM     54  O   UNL     1       2.443   2.103   1.979  1.00  0.00    -0.273 OA
ATOM     55  H   UNL     1       0.164   0.297   0.706  1.00  0.00     0.164 HD
BRANCH  53  56
ATOM     56  C   UNL     1       1.782  -0.156   2.617  1.00  0.00     0.182 C 
BRANCH  56  57
ATOM     57  N   UNL     1       1.539   0.059   4.047  1.00  0.00    -0.344 N 
ATOM     58  C   UNL     1       0.399   0.663   4.517  1.00  0.00     0.220 C 
ATOM     59  O   UNL     1      -0.459   1.130   3.775  1.00  0.00    -0.275 OA
ATOM     60  H   UNL     1       2.172  -0.401   4.696  1.00  0.00     0.164 HD
BRANCH  58  61
ATOM     61  C   UNL     1       0.333   0.728   6.032  1.00  0.00     0.100 C 
BRANCH  61  62
ATOM     62  C   UNL     1      -0.989   1.276   6.569  1.00  0.00     0.010 C 
BRANCH  62  63
ATOM     63  C   UNL     1      -0.830   2.406   7.594  1.00  0.00     0.000 C 
BRANCH  63  64
ATOM     64  C   UNL     1       0.618   2.696   7.987  1.00  0.00    -0.003 C 
ATOM     65  C   UNL     1       1.030   4.105   7.588  1.00  0.00     0.004 C 
ENDBRANCH  63  64
ENDBRANCH  62  63
ENDBRANCH  61  62
ENDBRANCH  58  61
ENDBRANCH  56  57
BRANCH  56  66
ATOM     66  C   UNL     1       3.120  -0.846   2.357  1.00  0.00     0.157 C 
BRANCH  66  67
ATOM     67  C   UNL     1       3.040  -1.755   1.164  1.00  0.00     0.305 C 
ATOM     68  O   UNL     1       2.290  -1.643   0.207  1.00  0.00    -0.252 OA
BRANCH  67  69
ATOM     69  O   UNL     1       3.956  -2.742   1.211  1.00  0.00    -0.481 OA
ATOM     70  H   UNL     1       3.824  -3.164   2.086  1.00  0.00     0.296 HD
ENDBRANCH  67  69
ENDBRANCH  66  67
ENDBRANCH  56  66
ENDBRANCH  53  56
ENDBRANCH  50  52
ENDBRANCH  47  50
ENDBRANCH  45  46
BRANCH  45  71
ATOM     71  C   UNL     1      -3.517   2.148   2.647  1.00  0.00     0.037 C 
BRANCH  71  72
ATOM     72  C   UNL     1      -3.283   3.076   3.842  1.00  0.00     0.026 C 
BRANCH  72  73
ATOM     73  C   UNL     1      -4.549   3.242   4.680  1.00  0.00     0.146 C 
BRANCH  73  74
ATOM     74  N   UNL     1      -5.464   4.106   3.941  1.00  0.00    -0.254 NA
ATOM     75  C   UNL     1      -6.557   3.593   3.512  1.00  0.00     0.185 C 
ATOM     76  N   UNL     1      -7.420   4.363   2.830  1.00  0.00    -0.370 N 
ATOM     77  N   UNL     1      -7.008   2.333   3.643  1.00  0.00    -0.370 N 
ATOM     78  H   UNL     1      -7.154   5.326   2.680  1.00  0.00     0.159 HD
ATOM     79  H   UNL     1      -8.221   4.001   2.343  1.00  0.00     0.159 HD
ATOM     80  H   UNL     1      -6.465   1.642   4.138  1.00  0.00     0.159 HD
ATOM     81  H   UNL     1      -7.940   2.074   3.363  1.00  0.00     0.159 HD
ENDBRANCH  73  74
ENDBRANCH  72  73
ENDBRANCH  71  72
ENDBRANCH  45  71
ENDBRANCH   3  45
TORSDOF 20
ENDMDL
MODEL 39
REMARK VINA RESULT:    -5.646      3.727     14.643
REMARK INTER + INTRA:         -24.176
REMARK INTER:                 -18.719
REMARK INTRA:                  -5.457
REMARK UNBOUND:                -7.967
REMARK SMILES CCCCCC(=O)N[C@H](CC(=O)O)C(=O)N[C@H]1C(=O)N[C@H](CCCN=C(N)N)C(=O)N[C@@H]2CC[C@H](O)N(C2=O)[C@@H](CC(C)C)C(=O)N(C)[C@@H](Cc2ccccc2)C(=O)N[C@H](C(C)C)C(=O)O[C@@H]1C
REMARK SMILES IDX 30 1 31 2 29 3 32 5 35 6 37 7 34 8 38 9 33 10 39 11 36 12
REMARK SMILES IDX 40 14 41 15 42 16 43 17 44 18 45 19 46 20 47 21 48 22 49 23
REMARK SMILES IDX 50 24 51 25 52 26 56 27 53 28 55 29 54 30 57 31 58 32 59 33
REMARK SMILES IDX 60 35 61 36 62 37 63 38 64 39 65 40 66 41 67 42 68 43 21 45
REMARK SMILES IDX 20 46 18 47 19 48 17 50 16 52 14 53 15 54 9 56 8 57 6 58
REMARK SMILES IDX 7 59 5 61 4 62 3 63 2 64 1 65 10 66 11 67 12 68 13 69 22 71
REMARK SMILES IDX 23 72 24 73 25 74 26 75 27 76 28 77
REMARK H PARENT 31 4 36 13 59 34 20 49 16 55 8 60 13 70 27 78 27 79 28 80
REMARK H PARENT 28 81
REMARK Flexibility Score:  259.900
ROOT
ATOM      1  O   UNL     1      -9.166   5.105  -7.060  1.00  0.00    -0.273 OA
ATOM      2  N   UNL     1      -8.956   3.117  -5.948  1.00  0.00    -0.343 N 
ATOM      3  C   UNL     1      -9.692   4.115  -6.550  1.00  0.00     0.243 C 
ATOM      4  H   UNL     1      -9.422   2.310  -5.552  1.00  0.00     0.164 HD
ENDROOT
BRANCH   2   5
ATOM      5  C   UNL     1      -7.513   3.254  -5.786  1.00  0.00     0.171 C 
ATOM      6  C   UNL     1      -5.552   1.733  -4.288  1.00  0.00     0.214 C 
ATOM      7  N   UNL     1      -6.197   2.866  -3.667  1.00  0.00    -0.303 N 
ATOM      8  C   UNL     1      -5.412   1.871  -5.796  1.00  0.00     0.057 C 
ATOM      9  C   UNL     1      -7.179   3.604  -4.308  1.00  0.00     0.247 C 
ATOM     10  C   UNL     1      -6.776   2.075  -6.420  1.00  0.00     0.040 C 
ATOM     11  O   UNL     1      -7.788   4.519  -3.738  1.00  0.00    -0.272 OA
BRANCH   6  12
ATOM     12  O   UNL     1      -6.298   0.582  -3.966  1.00  0.00    -0.373 OA
ATOM     13  H   UNL     1      -5.771   0.070  -3.316  1.00  0.00     0.213 HD
ENDBRANCH   6  12
BRANCH   7  14
ATOM     14  C   UNL     1      -5.874   3.127  -2.248  1.00  0.00     0.177 C 
BRANCH  14  15
ATOM     15  C   UNL     1      -6.389   2.070  -1.253  1.00  0.00     0.038 C 
BRANCH  15  16
ATOM     16  C   UNL     1      -7.751   2.281  -0.554  1.00  0.00    -0.015 C 
ATOM     17  C   UNL     1      -8.927   1.800  -1.409  1.00  0.00     0.007 C 
ATOM     18  C   UNL     1      -7.953   3.772  -0.254  1.00  0.00     0.007 C 
ENDBRANCH  15  16
ENDBRANCH  14  15
BRANCH  14  19
ATOM     19  C   UNL     1      -4.512   3.894  -2.133  1.00  0.00     0.245 C 
ATOM     20  O   UNL     1      -4.450   5.010  -2.675  1.00  0.00    -0.272 OA
BRANCH  19  21
ATOM     21  N   UNL     1      -3.368   3.354  -1.571  1.00  0.00    -0.332 N 
ATOM     22  C   UNL     1      -2.319   2.661  -2.297  1.00  0.00     0.147 C 
BRANCH  21  23
ATOM     23  C   UNL     1      -3.192   3.478  -0.098  1.00  0.00     0.178 C 
BRANCH  23  24
ATOM     24  C   UNL     1      -4.243   4.361   0.606  1.00  0.00     0.070 C 
BRANCH  24  25
ATOM     25  C   UNL     1      -4.490   4.099   2.074  1.00  0.00    -0.045 A 
ATOM     26  C   UNL     1      -5.517   3.241   2.487  1.00  0.00     0.004 A 
ATOM     27  C   UNL     1      -3.692   4.719   3.047  1.00  0.00     0.004 A 
ATOM     28  C   UNL     1      -5.750   3.018   3.846  1.00  0.00     0.000 A 
ATOM     29  C   UNL     1      -3.925   4.494   4.405  1.00  0.00     0.000 A 
ATOM     30  C   UNL     1      -4.956   3.646   4.803  1.00  0.00     0.000 A 
ENDBRANCH  24  25
ENDBRANCH  23  24
BRANCH  23  31
ATOM     31  C   UNL     1      -2.912   2.122   0.593  1.00  0.00     0.243 C 
ATOM     32  O   UNL     1      -3.660   1.149   0.525  1.00  0.00    -0.273 OA
ATOM     33  N   UNL     1      -1.830   2.154   1.456  1.00  0.00    -0.341 N 
ATOM     34  H   UNL     1      -1.248   2.995   1.474  1.00  0.00     0.164 HD
BRANCH  33  35
ATOM     35  C   UNL     1      -1.452   1.021   2.306  1.00  0.00     0.194 C 
BRANCH  35  36
ATOM     36  C   UNL     1      -2.036   1.084   3.745  1.00  0.00     0.017 C 
ATOM     37  C   UNL     1      -0.977   0.706   4.795  1.00  0.00     0.010 C 
ATOM     38  C   UNL     1      -3.239   0.155   3.951  1.00  0.00     0.010 C 
ENDBRANCH  35  36
BRANCH  35  39
ATOM     39  C   UNL     1       0.081   0.763   2.312  1.00  0.00     0.329 C 
ATOM     40  O   UNL     1       0.921   1.630   2.521  1.00  0.00    -0.250 OA
BRANCH  39  41
ATOM     41  O   UNL     1       0.386  -0.559   2.144  1.00  0.00    -0.458 OA
BRANCH  41  42
ATOM     42  C   UNL     1       1.769  -0.864   1.843  1.00  0.00     0.205 CG0
ATOM     43  C   UNL     1       1.913  -0.865   0.323  1.00  0.00     0.056 C 
ATOM     44  G   UNL     1       2.119  -2.229   2.469  1.00  0.00     0.000 G0
ENDBRANCH  41  42
ENDBRANCH  39  41
ENDBRANCH  35  39
ENDBRANCH  33  35
ENDBRANCH  23  31
ENDBRANCH  21  23
ENDBRANCH  19  21
ENDBRANCH  14  19
ENDBRANCH   7  14
ENDBRANCH   2   5
BRANCH   3  45
ATOM     45  C   UNL     1     -11.211   3.897  -6.558  1.00  0.00     0.171 C 
BRANCH  45  46
ATOM     46  N   UNL     1     -11.661   4.311  -7.880  1.00  0.00    -0.342 N 
ATOM     47  C   UNL     1     -11.666   3.460  -8.957  1.00  0.00     0.247 C 
ATOM     48  O   UNL     1     -11.361   2.270  -8.869  1.00  0.00    -0.273 OA
ATOM     49  H   UNL     1     -11.976   5.274  -7.985  1.00  0.00     0.164 HD
BRANCH  47  50
ATOM     50  C   UNL     1     -12.054   4.106 -10.294  1.00  0.00     0.212 CG0
ATOM     51  G   UNL     1     -13.016   3.142 -11.017  1.00  0.00     0.000 G0
BRANCH  50  52
ATOM     52  N   UNL     1     -12.670   5.383  -9.946  1.00  0.00    -0.339 N 
ATOM     53  C   UNL     1     -12.369   6.565 -10.579  1.00  0.00     0.243 C 
ATOM     54  O   UNL     1     -11.514   6.647 -11.456  1.00  0.00    -0.273 OA
ATOM     55  H   UNL     1     -13.306   5.401  -9.151  1.00  0.00     0.164 HD
BRANCH  53  56
ATOM     56  C   UNL     1     -13.081   7.796  -9.981  1.00  0.00     0.182 C 
BRANCH  56  57
ATOM     57  N   UNL     1     -14.443   7.461  -9.555  1.00  0.00    -0.344 N 
ATOM     58  C   UNL     1     -14.727   7.004  -8.291  1.00  0.00     0.220 C 
ATOM     59  O   UNL     1     -13.857   6.775  -7.457  1.00  0.00    -0.275 OA
ATOM     60  H   UNL     1     -15.200   7.731 -10.177  1.00  0.00     0.164 HD
BRANCH  58  61
ATOM     61  C   UNL     1     -16.208   6.777  -8.052  1.00  0.00     0.100 C 
BRANCH  61  62
ATOM     62  C   UNL     1     -16.511   5.576  -7.156  1.00  0.00     0.010 C 
BRANCH  62  63
ATOM     63  C   UNL     1     -17.995   5.189  -7.106  1.00  0.00     0.000 C 
BRANCH  63  64
ATOM     64  C   UNL     1     -18.690   5.537  -5.791  1.00  0.00    -0.003 C 
ATOM     65  C   UNL     1     -19.928   4.680  -5.573  1.00  0.00     0.004 C 
ENDBRANCH  63  64
ENDBRANCH  62  63
ENDBRANCH  61  62
ENDBRANCH  58  61
ENDBRANCH  56  57
BRANCH  56  66
ATOM     66  C   UNL     1     -13.054   8.981 -10.945  1.00  0.00     0.157 C 
BRANCH  66  67
ATOM     67  C   UNL     1     -11.966   9.951 -10.583  1.00  0.00     0.305 C 
ATOM     68  O   UNL     1     -10.843   9.678 -10.186  1.00  0.00    -0.252 OA
BRANCH  67  69
ATOM     69  O   UNL     1     -12.330  11.230 -10.791  1.00  0.00    -0.481 OA
ATOM     70  H   UNL     1     -13.113  11.175 -11.379  1.00  0.00     0.296 HD
ENDBRANCH  67  69
ENDBRANCH  66  67
ENDBRANCH  56  66
ENDBRANCH  53  56
ENDBRANCH  50  52
ENDBRANCH  47  50
ENDBRANCH  45  46
BRANCH  45  71
ATOM     71  C   UNL     1     -11.875   4.723  -5.450  1.00  0.00     0.037 C 
BRANCH  71  72
ATOM     72  C   UNL     1     -12.152   3.888  -4.197  1.00  0.00     0.026 C 
BRANCH  72  73
ATOM     73  C   UNL     1     -12.652   2.490  -4.555  1.00  0.00     0.146 C 
BRANCH  73  74
ATOM     74  N   UNL     1     -14.105   2.485  -4.417  1.00  0.00    -0.254 NA
ATOM     75  C   UNL     1     -14.806   2.301  -5.474  1.00  0.00     0.185 C 
ATOM     76  N   UNL     1     -16.146   2.290  -5.379  1.00  0.00    -0.370 N 
ATOM     77  N   UNL     1     -14.394   2.103  -6.738  1.00  0.00    -0.370 N 
ATOM     78  H   UNL     1     -16.540   2.439  -4.461  1.00  0.00     0.159 HD
ATOM     79  H   UNL     1     -16.757   2.296  -6.176  1.00  0.00     0.159 HD
ATOM     80  H   UNL     1     -13.410   2.082  -6.960  1.00  0.00     0.159 HD
ATOM     81  H   UNL     1     -15.037   1.853  -7.471  1.00  0.00     0.159 HD
ENDBRANCH  73  74
ENDBRANCH  72  73
ENDBRANCH  71  72
ENDBRANCH  45  71
ENDBRANCH   3  45
TORSDOF 20
ENDMDL
MODEL 40
REMARK VINA RESULT:    -5.627      4.527     14.624
REMARK INTER + INTRA:         -24.120
REMARK INTER:                 -18.068
REMARK INTRA:                  -6.051
REMARK UNBOUND:                -7.967
REMARK SMILES CCCCCC(=O)N[C@H](CC(=O)O)C(=O)N[C@H]1C(=O)N[C@H](CCCN=C(N)N)C(=O)N[C@@H]2CC[C@H](O)N(C2=O)[C@@H](CC(C)C)C(=O)N(C)[C@@H](Cc2ccccc2)C(=O)N[C@H](C(C)C)C(=O)O[C@@H]1C
REMARK SMILES IDX 30 1 31 2 29 3 32 5 35 6 37 7 34 8 38 9 33 10 39 11 36 12
REMARK SMILES IDX 40 14 41 15 42 16 43 17 44 18 45 19 46 20 47 21 48 22 49 23
REMARK SMILES IDX 50 24 51 25 52 26 56 27 53 28 55 29 54 30 57 31 58 32 59 33
REMARK SMILES IDX 60 35 61 36 62 37 63 38 64 39 65 40 66 41 67 42 68 43 21 45
REMARK SMILES IDX 20 46 18 47 19 48 17 50 16 52 14 53 15 54 9 56 8 57 6 58
REMARK SMILES IDX 7 59 5 61 4 62 3 63 2 64 1 65 10 66 11 67 12 68 13 69 22 71
REMARK SMILES IDX 23 72 24 73 25 74 26 75 27 76 28 77
REMARK H PARENT 31 4 36 13 59 34 20 49 16 55 8 60 13 70 27 78 27 79 28 80
REMARK H PARENT 28 81
REMARK Flexibility Score:  259.900
ROOT
ATOM      1  O   UNL     1     -12.164   2.811  -7.382  1.00  0.00    -0.273 OA
ATOM      2  N   UNL     1     -11.072   4.682  -8.116  1.00  0.00    -0.343 N 
ATOM      3  C   UNL     1     -12.202   3.916  -7.924  1.00  0.00     0.243 C 
ATOM      4  H   UNL     1     -11.144   5.593  -8.552  1.00  0.00     0.164 HD
ENDROOT
BRANCH   2   5
ATOM      5  C   UNL     1      -9.753   4.155  -7.786  1.00  0.00     0.171 C 
ATOM      6  C   UNL     1      -8.858   1.583  -6.793  1.00  0.00     0.214 C 
ATOM      7  N   UNL     1      -9.185   2.631  -5.855  1.00  0.00    -0.303 N 
ATOM      8  C   UNL     1      -8.335   2.105  -8.122  1.00  0.00     0.057 C 
ATOM      9  C   UNL     1      -9.667   3.866  -6.260  1.00  0.00     0.247 C 
ATOM     10  C   UNL     1      -9.356   3.033  -8.744  1.00  0.00     0.040 C 
ATOM     11  O   UNL     1     -10.027   4.728  -5.448  1.00  0.00    -0.272 OA
BRANCH   6  12
ATOM     12  O   UNL     1     -10.016   0.805  -6.991  1.00  0.00    -0.373 OA
ATOM     13  H   UNL     1      -9.731  -0.030  -7.421  1.00  0.00     0.213 HD
ENDBRANCH   6  12
BRANCH   7  14
ATOM     14  C   UNL     1      -9.127   2.288  -4.419  1.00  0.00     0.177 C 
BRANCH  14  15
ATOM     15  C   UNL     1     -10.438   1.742  -3.821  1.00  0.00     0.038 C 
BRANCH  15  16
ATOM     16  C   UNL     1     -10.857   0.284  -4.110  1.00  0.00    -0.015 C 
ATOM     17  C   UNL     1     -12.326   0.170  -4.530  1.00  0.00     0.007 C 
ATOM     18  C   UNL     1     -10.648  -0.575  -2.856  1.00  0.00     0.007 C 
ENDBRANCH  15  16
ENDBRANCH  14  15
BRANCH  14  19
ATOM     19  C   UNL     1      -7.685   1.809  -4.032  1.00  0.00     0.245 C 
ATOM     20  O   UNL     1      -7.550   0.603  -3.763  1.00  0.00    -0.272 OA
BRANCH  19  21
ATOM     21  N   UNL     1      -6.607   2.660  -3.870  1.00  0.00    -0.332 N 
ATOM     22  C   UNL     1      -6.689   4.098  -3.681  1.00  0.00     0.147 C 
BRANCH  21  23
ATOM     23  C   UNL     1      -5.241   2.068  -3.902  1.00  0.00     0.178 C 
BRANCH  23  24
ATOM     24  C   UNL     1      -4.303   2.665  -4.971  1.00  0.00     0.070 C 
BRANCH  24  25
ATOM     25  C   UNL     1      -4.343   2.043  -6.348  1.00  0.00    -0.045 A 
ATOM     26  C   UNL     1      -5.214   0.982  -6.630  1.00  0.00     0.004 A 
ATOM     27  C   UNL     1      -3.501   2.517  -7.364  1.00  0.00     0.004 A 
ATOM     28  C   UNL     1      -5.233   0.401  -7.900  1.00  0.00     0.000 A 
ATOM     29  C   UNL     1      -3.522   1.936  -8.633  1.00  0.00     0.000 A 
ATOM     30  C   UNL     1      -4.386   0.876  -8.899  1.00  0.00     0.000 A 
ENDBRANCH  24  25
ENDBRANCH  23  24
BRANCH  23  31
ATOM     31  C   UNL     1      -4.614   1.919  -2.496  1.00  0.00     0.243 C 
ATOM     32  O   UNL     1      -5.235   1.547  -1.503  1.00  0.00    -0.273 OA
ATOM     33  N   UNL     1      -3.328   2.423  -2.407  1.00  0.00    -0.341 N 
ATOM     34  H   UNL     1      -2.864   2.724  -3.268  1.00  0.00     0.164 HD
BRANCH  33  35
ATOM     35  C   UNL     1      -2.583   2.496  -1.147  1.00  0.00     0.194 C 
BRANCH  35  36
ATOM     36  C   UNL     1      -2.467   3.932  -0.561  1.00  0.00     0.017 C 
ATOM     37  C   UNL     1      -3.811   4.411   0.014  1.00  0.00     0.010 C 
ATOM     38  C   UNL     1      -2.013   4.971  -1.593  1.00  0.00     0.010 C 
ENDBRANCH  35  36
BRANCH  35  39
ATOM     39  C   UNL     1      -1.202   1.789  -1.226  1.00  0.00     0.329 C 
ATOM     40  O   UNL     1      -0.596   1.582  -2.271  1.00  0.00    -0.250 OA
BRANCH  39  41
ATOM     41  O   UNL     1      -0.694   1.499   0.010  1.00  0.00    -0.458 OA
BRANCH  41  42
ATOM     42  C   UNL     1       0.679   1.890   0.247  1.00  0.00     0.205 CG0
ATOM     43  C   UNL     1       1.495   0.609   0.410  1.00  0.00     0.056 C 
ATOM     44  G   UNL     1       0.727   2.784   1.502  1.00  0.00     0.000 G0
ENDBRANCH  41  42
ENDBRANCH  39  41
ENDBRANCH  35  39
ENDBRANCH  33  35
ENDBRANCH  23  31
ENDBRANCH  21  23
ENDBRANCH  19  21
ENDBRANCH  14  19
ENDBRANCH   7  14
ENDBRANCH   2   5
BRANCH   3  45
ATOM     45  C   UNL     1     -13.513   4.545  -8.413  1.00  0.00     0.171 C 
BRANCH  45  46
ATOM     46  N   UNL     1     -13.935   3.741  -9.552  1.00  0.00    -0.342 N 
ATOM     47  C   UNL     1     -15.008   2.887  -9.494  1.00  0.00     0.247 C 
ATOM     48  O   UNL     1     -15.734   2.793  -8.503  1.00  0.00    -0.273 OA
ATOM     49  H   UNL     1     -13.395   3.830 -10.411  1.00  0.00     0.164 HD
BRANCH  47  50
ATOM     50  C   UNL     1     -15.226   2.030 -10.749  1.00  0.00     0.212 CG0
ATOM     51  G   UNL     1     -16.528   2.509 -11.421  1.00  0.00     0.000 G0
BRANCH  50  52
ATOM     52  N   UNL     1     -14.040   2.239 -11.574  1.00  0.00    -0.339 N 
ATOM     53  C   UNL     1     -12.838   1.617 -11.341  1.00  0.00     0.243 C 
ATOM     54  O   UNL     1     -12.653   0.872 -10.382  1.00  0.00    -0.273 OA
ATOM     55  H   UNL     1     -14.098   2.931 -12.319  1.00  0.00     0.164 HD
BRANCH  53  56
ATOM     56  C   UNL     1     -11.707   2.060 -12.291  1.00  0.00     0.182 C 
BRANCH  56  57
ATOM     57  N   UNL     1     -10.595   1.104 -12.268  1.00  0.00    -0.344 N 
ATOM     58  C   UNL     1      -9.837   0.830 -13.381  1.00  0.00     0.220 C 
ATOM     59  O   UNL     1     -10.081   1.307 -14.484  1.00  0.00    -0.275 OA
ATOM     60  H   UNL     1     -10.297   0.766 -11.357  1.00  0.00     0.164 HD
BRANCH  58  61
ATOM     61  C   UNL     1      -8.705  -0.144 -13.112  1.00  0.00     0.100 C 
BRANCH  61  62
ATOM     62  C   UNL     1      -7.531   0.470 -12.349  1.00  0.00     0.010 C 
BRANCH  62  63
ATOM     63  C   UNL     1      -7.341  -0.089 -10.933  1.00  0.00     0.000 C 
BRANCH  63  64
ATOM     64  C   UNL     1      -8.433  -1.063 -10.492  1.00  0.00    -0.003 C 
ATOM     65  C   UNL     1      -8.204  -1.545  -9.067  1.00  0.00     0.004 C 
ENDBRANCH  63  64
ENDBRANCH  62  63
ENDBRANCH  61  62
ENDBRANCH  58  61
ENDBRANCH  56  57
BRANCH  56  66
ATOM     66  C   UNL     1     -11.248   3.485 -11.990  1.00  0.00     0.157 C 
BRANCH  66  67
ATOM     67  C   UNL     1     -11.567   4.412 -13.128  1.00  0.00     0.305 C 
ATOM     68  O   UNL     1     -10.943   5.409 -13.458  1.00  0.00    -0.252 OA
BRANCH  67  69
ATOM     69  O   UNL     1     -12.639   4.004 -13.834  1.00  0.00    -0.481 OA
ATOM     70  H   UNL     1     -12.437   3.078 -14.084  1.00  0.00     0.296 HD
ENDBRANCH  67  69
ENDBRANCH  66  67
ENDBRANCH  56  66
ENDBRANCH  53  56
ENDBRANCH  50  52
ENDBRANCH  47  50
ENDBRANCH  45  46
BRANCH  45  71
ATOM     71  C   UNL     1     -13.289   6.009  -8.807  1.00  0.00     0.037 C 
BRANCH  71  72
ATOM     72  C   UNL     1     -14.227   6.958  -8.057  1.00  0.00     0.026 C 
BRANCH  72  73
ATOM     73  C   UNL     1     -14.468   8.245  -8.843  1.00  0.00     0.146 C 
BRANCH  73  74
ATOM     74  N   UNL     1     -13.236   8.571  -9.555  1.00  0.00    -0.254 NA
ATOM     75  C   UNL     1     -12.709   9.720  -9.345  1.00  0.00     0.185 C 
ATOM     76  N   UNL     1     -11.575  10.049  -9.985  1.00  0.00    -0.370 N 
ATOM     77  N   UNL     1     -13.131  10.709  -8.538  1.00  0.00    -0.370 N 
ATOM     78  H   UNL     1     -11.192   9.362 -10.619  1.00  0.00     0.159 HD
ATOM     79  H   UNL     1     -11.186  10.975  -9.982  1.00  0.00     0.159 HD
ATOM     80  H   UNL     1     -13.971  10.601  -7.989  1.00  0.00     0.159 HD
ATOM     81  H   UNL     1     -12.570  11.526  -8.365  1.00  0.00     0.159 HD
ENDBRANCH  73  74
ENDBRANCH  72  73
ENDBRANCH  71  72
ENDBRANCH  45  71
ENDBRANCH   3  45
TORSDOF 20
ENDMDL
MODEL 41
REMARK VINA RESULT:    -5.627      3.044     13.441
REMARK INTER + INTRA:         -24.119
REMARK INTER:                 -18.182
REMARK INTRA:                  -5.937
REMARK UNBOUND:                -7.967
REMARK SMILES CCCCCC(=O)N[C@H](CC(=O)O)C(=O)N[C@H]1C(=O)N[C@H](CCCN=C(N)N)C(=O)N[C@@H]2CC[C@H](O)N(C2=O)[C@@H](CC(C)C)C(=O)N(C)[C@@H](Cc2ccccc2)C(=O)N[C@H](C(C)C)C(=O)O[C@@H]1C
REMARK SMILES IDX 30 1 31 2 29 3 32 5 35 6 37 7 34 8 38 9 33 10 39 11 36 12
REMARK SMILES IDX 40 14 41 15 42 16 43 17 44 18 45 19 46 20 47 21 48 22 49 23
REMARK SMILES IDX 50 24 51 25 52 26 56 27 53 28 55 29 54 30 57 31 58 32 59 33
REMARK SMILES IDX 60 35 61 36 62 37 63 38 64 39 65 40 66 41 67 42 68 43 21 45
REMARK SMILES IDX 20 46 18 47 19 48 17 50 16 52 14 53 15 54 9 56 8 57 6 58
REMARK SMILES IDX 7 59 5 61 4 62 3 63 2 64 1 65 10 66 11 67 12 68 13 69 22 71
REMARK SMILES IDX 23 72 24 73 25 74 26 75 27 76 28 77
REMARK H PARENT 31 4 36 13 59 34 20 49 16 55 8 60 13 70 27 78 27 79 28 80
REMARK H PARENT 28 81
REMARK Flexibility Score:  259.900
ROOT
ATOM      1  O   UNL     1      -8.688   3.105  -7.904  1.00  0.00    -0.273 OA
ATOM      2  N   UNL     1      -7.835   1.699  -6.315  1.00  0.00    -0.343 N 
ATOM      3  C   UNL     1      -8.798   2.086  -7.222  1.00  0.00     0.243 C 
ATOM      4  H   UNL     1      -7.952   0.846  -5.782  1.00  0.00     0.164 HD
ENDROOT
BRANCH   2   5
ATOM      5  C   UNL     1      -6.688   2.557  -6.038  1.00  0.00     0.171 C 
ATOM      6  C   UNL     1      -4.396   2.268  -4.288  1.00  0.00     0.214 C 
ATOM      7  N   UNL     1      -5.589   2.915  -3.795  1.00  0.00    -0.303 N 
ATOM      8  C   UNL     1      -4.189   2.446  -5.784  1.00  0.00     0.057 C 
ATOM      9  C   UNL     1      -6.736   3.041  -4.561  1.00  0.00     0.247 C 
ATOM     10  C   UNL     1      -5.393   1.917  -6.534  1.00  0.00     0.040 C 
ATOM     11  O   UNL     1      -7.782   3.519  -4.102  1.00  0.00    -0.272 OA
BRANCH   6  12
ATOM     12  O   UNL     1      -4.482   0.900  -3.962  1.00  0.00    -0.373 OA
ATOM     13  H   UNL     1      -5.164   0.507  -4.548  1.00  0.00     0.213 HD
ENDBRANCH   6  12
BRANCH   7  14
ATOM     14  C   UNL     1      -5.594   3.316  -2.372  1.00  0.00     0.177 C 
BRANCH  14  15
ATOM     15  C   UNL     1      -6.420   2.411  -1.438  1.00  0.00     0.038 C 
BRANCH  15  16
ATOM     16  C   UNL     1      -6.491   0.893  -1.716  1.00  0.00    -0.015 C 
ATOM     17  C   UNL     1      -7.812   0.479  -2.370  1.00  0.00     0.007 C 
ATOM     18  C   UNL     1      -6.342   0.117  -0.401  1.00  0.00     0.007 C 
ENDBRANCH  15  16
ENDBRANCH  14  15
BRANCH  14  19
ATOM     19  C   UNL     1      -4.239   4.009  -1.997  1.00  0.00     0.245 C 
ATOM     20  O   UNL     1      -4.006   5.107  -2.530  1.00  0.00    -0.272 OA
BRANCH  19  21
ATOM     21  N   UNL     1      -3.263   3.421  -1.212  1.00  0.00    -0.332 N 
ATOM     22  C   UNL     1      -2.178   2.587  -1.699  1.00  0.00     0.147 C 
BRANCH  21  23
ATOM     23  C   UNL     1      -3.325   3.644   0.259  1.00  0.00     0.178 C 
BRANCH  23  24
ATOM     24  C   UNL     1      -4.520   4.498   0.732  1.00  0.00     0.070 C 
BRANCH  24  25
ATOM     25  C   UNL     1      -4.785   4.546   2.219  1.00  0.00    -0.045 A 
ATOM     26  C   UNL     1      -3.836   5.080   3.100  1.00  0.00     0.004 A 
ATOM     27  C   UNL     1      -5.990   4.050   2.739  1.00  0.00     0.004 A 
ATOM     28  C   UNL     1      -4.081   5.105   4.475  1.00  0.00     0.000 A 
ATOM     29  C   UNL     1      -6.234   4.077   4.113  1.00  0.00     0.000 A 
ATOM     30  C   UNL     1      -5.278   4.602   4.980  1.00  0.00     0.000 A 
ENDBRANCH  24  25
ENDBRANCH  23  24
BRANCH  23  31
ATOM     31  C   UNL     1      -3.083   2.353   1.077  1.00  0.00     0.243 C 
ATOM     32  O   UNL     1      -3.899   1.440   1.177  1.00  0.00    -0.273 OA
ATOM     33  N   UNL     1      -1.932   2.393   1.845  1.00  0.00    -0.341 N 
ATOM     34  H   UNL     1      -1.293   3.183   1.722  1.00  0.00     0.164 HD
BRANCH  33  35
ATOM     35  C   UNL     1      -1.563   1.332   2.787  1.00  0.00     0.194 C 
BRANCH  35  36
ATOM     36  C   UNL     1      -1.821   1.689   4.278  1.00  0.00     0.017 C 
ATOM     37  C   UNL     1      -0.936   0.850   5.215  1.00  0.00     0.010 C 
ATOM     38  C   UNL     1      -3.278   1.474   4.707  1.00  0.00     0.010 C 
ENDBRANCH  35  36
BRANCH  35  39
ATOM     39  C   UNL     1      -0.119   0.805   2.558  1.00  0.00     0.329 C 
ATOM     40  O   UNL     1       0.870   1.525   2.484  1.00  0.00    -0.250 OA
BRANCH  39  41
ATOM     41  O   UNL     1      -0.061  -0.561   2.536  1.00  0.00    -0.458 OA
BRANCH  41  42
ATOM     42  C   UNL     1       1.167  -1.159   3.015  1.00  0.00     0.205 CG0
ATOM     43  C   UNL     1       0.784  -2.392   3.830  1.00  0.00     0.056 C 
ATOM     44  G   UNL     1       1.930  -0.112   3.851  1.00  0.00     0.000 G0
ENDBRANCH  41  42
ENDBRANCH  39  41
ENDBRANCH  35  39
ENDBRANCH  33  35
ENDBRANCH  23  31
ENDBRANCH  21  23
ENDBRANCH  19  21
ENDBRANCH  14  19
ENDBRANCH   7  14
ENDBRANCH   2   5
BRANCH   3  45
ATOM     45  C   UNL     1     -10.006   1.147  -7.339  1.00  0.00     0.171 C 
BRANCH  45  46
ATOM     46  N   UNL     1     -11.090   1.964  -7.868  1.00  0.00    -0.342 N 
ATOM     47  C   UNL     1     -11.696   1.695  -9.070  1.00  0.00     0.247 C 
ATOM     48  O   UNL     1     -11.419   0.708  -9.752  1.00  0.00    -0.273 OA
ATOM     49  H   UNL     1     -11.390   2.760  -7.307  1.00  0.00     0.164 HD
BRANCH  47  50
ATOM     50  C   UNL     1     -12.731   2.734  -9.522  1.00  0.00     0.212 CG0
ATOM     51  G   UNL     1     -14.109   2.043  -9.544  1.00  0.00     0.000 G0
BRANCH  50  52
ATOM     52  N   UNL     1     -12.645   3.820  -8.549  1.00  0.00    -0.339 N 
ATOM     53  C   UNL     1     -13.737   4.335  -7.893  1.00  0.00     0.243 C 
ATOM     54  O   UNL     1     -14.883   3.955  -8.116  1.00  0.00    -0.273 OA
ATOM     55  H   UNL     1     -11.736   4.252  -8.402  1.00  0.00     0.164 HD
BRANCH  53  56
ATOM     56  C   UNL     1     -13.412   5.532  -6.978  1.00  0.00     0.182 C 
BRANCH  56  57
ATOM     57  N   UNL     1     -13.154   5.090  -5.603  1.00  0.00    -0.344 N 
ATOM     58  C   UNL     1     -11.925   4.630  -5.197  1.00  0.00     0.220 C 
ATOM     59  O   UNL     1     -10.982   4.488  -5.967  1.00  0.00    -0.275 OA
ATOM     60  H   UNL     1     -13.874   5.286  -4.914  1.00  0.00     0.164 HD
BRANCH  58  61
ATOM     61  C   UNL     1     -11.871   4.284  -3.720  1.00  0.00     0.100 C 
BRANCH  61  62
ATOM     62  C   UNL     1     -10.828   5.082  -2.937  1.00  0.00     0.010 C 
BRANCH  62  63
ATOM     63  C   UNL     1     -10.316   4.376  -1.675  1.00  0.00     0.000 C 
BRANCH  63  64
ATOM     64  C   UNL     1     -10.782   2.928  -1.534  1.00  0.00    -0.003 C 
ATOM     65  C   UNL     1     -10.235   2.290  -0.265  1.00  0.00     0.004 C 
ENDBRANCH  63  64
ENDBRANCH  62  63
ENDBRANCH  61  62
ENDBRANCH  58  61
ENDBRANCH  56  57
BRANCH  56  66
ATOM     66  C   UNL     1     -14.502   6.601  -7.045  1.00  0.00     0.157 C 
BRANCH  66  67
ATOM     67  C   UNL     1     -14.427   7.375  -8.329  1.00  0.00     0.305 C 
ATOM     68  O   UNL     1     -15.131   7.225  -9.317  1.00  0.00    -0.252 OA
BRANCH  67  69
ATOM     69  O   UNL     1     -13.493   8.344  -8.289  1.00  0.00    -0.481 OA
ATOM     70  H   UNL     1     -12.729   7.976  -8.782  1.00  0.00     0.296 HD
ENDBRANCH  67  69
ENDBRANCH  66  67
ENDBRANCH  56  66
ENDBRANCH  53  56
ENDBRANCH  50  52
ENDBRANCH  47  50
ENDBRANCH  45  46
BRANCH  45  71
ATOM     71  C   UNL     1     -10.358   0.557  -5.969  1.00  0.00     0.037 C 
BRANCH  71  72
ATOM     72  C   UNL     1     -11.846   0.711  -5.641  1.00  0.00     0.026 C 
BRANCH  72  73
ATOM     73  C   UNL     1     -12.112   0.531  -4.148  1.00  0.00     0.146 C 
BRANCH  73  74
ATOM     74  N   UNL     1     -12.651  -0.810  -3.948  1.00  0.00    -0.254 NA
ATOM     75  C   UNL     1     -13.009  -1.141  -2.762  1.00  0.00     0.185 C 
ATOM     76  N   UNL     1     -13.509  -2.369  -2.547  1.00  0.00    -0.370 N 
ATOM     77  N   UNL     1     -12.962  -0.415  -1.632  1.00  0.00    -0.370 N 
ATOM     78  H   UNL     1     -13.572  -2.984  -3.345  1.00  0.00     0.159 HD
ATOM     79  H   UNL     1     -13.674  -2.746  -1.630  1.00  0.00     0.159 HD
ATOM     80  H   UNL     1     -12.612   0.531  -1.643  1.00  0.00     0.159 HD
ATOM     81  H   UNL     1     -13.381  -0.742  -0.777  1.00  0.00     0.159 HD
ENDBRANCH  73  74
ENDBRANCH  72  73
ENDBRANCH  71  72
ENDBRANCH  45  71
ENDBRANCH   3  45
TORSDOF 20
ENDMDL
MODEL 42
REMARK VINA RESULT:    -5.611      3.946      7.917
REMARK INTER + INTRA:         -24.075
REMARK INTER:                 -18.568
REMARK INTRA:                  -5.508
REMARK UNBOUND:                -7.967
REMARK SMILES CCCCCC(=O)N[C@H](CC(=O)O)C(=O)N[C@H]1C(=O)N[C@H](CCCN=C(N)N)C(=O)N[C@@H]2CC[C@H](O)N(C2=O)[C@@H](CC(C)C)C(=O)N(C)[C@@H](Cc2ccccc2)C(=O)N[C@H](C(C)C)C(=O)O[C@@H]1C
REMARK SMILES IDX 30 1 31 2 29 3 32 5 35 6 37 7 34 8 38 9 33 10 39 11 36 12
REMARK SMILES IDX 40 14 41 15 42 16 43 17 44 18 45 19 46 20 47 21 48 22 49 23
REMARK SMILES IDX 50 24 51 25 52 26 56 27 53 28 55 29 54 30 57 31 58 32 59 33
REMARK SMILES IDX 60 35 61 36 62 37 63 38 64 39 65 40 66 41 67 42 68 43 21 45
REMARK SMILES IDX 20 46 18 47 19 48 17 50 16 52 14 53 15 54 9 56 8 57 6 58
REMARK SMILES IDX 7 59 5 61 4 62 3 63 2 64 1 65 10 66 11 67 12 68 13 69 22 71
REMARK SMILES IDX 23 72 24 73 25 74 26 75 27 76 28 77
REMARK H PARENT 31 4 36 13 59 34 20 49 16 55 8 60 13 70 27 78 27 79 28 80
REMARK H PARENT 28 81
REMARK Flexibility Score:  259.900
ROOT
ATOM      1  O   UNL     1      -6.443   3.390  -1.134  1.00  0.00    -0.273 OA
ATOM      2  N   UNL     1      -8.273   2.805   0.107  1.00  0.00    -0.343 N 
ATOM      3  C   UNL     1      -6.932   2.743  -0.208  1.00  0.00     0.243 C 
ATOM      4  H   UNL     1      -8.638   2.270   0.886  1.00  0.00     0.164 HD
ENDROOT
BRANCH   2   5
ATOM      5  C   UNL     1      -9.198   3.560  -0.730  1.00  0.00     0.171 C 
ATOM      6  C   UNL     1     -12.063   3.388  -1.142  1.00  0.00     0.214 C 
ATOM      7  N   UNL     1     -11.176   2.632  -1.995  1.00  0.00    -0.303 N 
ATOM      8  C   UNL     1     -11.447   4.680  -0.628  1.00  0.00     0.057 C 
ATOM      9  C   UNL     1      -9.801   2.629  -1.821  1.00  0.00     0.247 C 
ATOM     10  C   UNL     1     -10.169   4.376   0.122  1.00  0.00     0.040 C 
ATOM     11  O   UNL     1      -9.056   1.911  -2.501  1.00  0.00    -0.272 OA
BRANCH   6  12
ATOM     12  O   UNL     1     -12.435   2.558  -0.066  1.00  0.00    -0.373 OA
ATOM     13  H   UNL     1     -13.401   2.671   0.063  1.00  0.00     0.213 HD
ENDBRANCH   6  12
BRANCH   7  14
ATOM     14  C   UNL     1     -11.804   1.732  -2.985  1.00  0.00     0.177 C 
BRANCH  14  15
ATOM     15  C   UNL     1     -12.426   0.447  -2.403  1.00  0.00     0.038 C 
BRANCH  15  16
ATOM     16  C   UNL     1     -12.319  -0.876  -3.193  1.00  0.00    -0.015 C 
ATOM     17  C   UNL     1     -13.105  -2.014  -2.536  1.00  0.00     0.007 C 
ATOM     18  C   UNL     1     -10.849  -1.303  -3.293  1.00  0.00     0.007 C 
ENDBRANCH  15  16
ENDBRANCH  14  15
BRANCH  14  19
ATOM     19  C   UNL     1     -12.389   2.561  -4.180  1.00  0.00     0.245 C 
ATOM     20  O   UNL     1     -12.020   3.744  -4.273  1.00  0.00    -0.272 OA
BRANCH  19  21
ATOM     21  N   UNL     1     -13.358   2.087  -5.047  1.00  0.00    -0.332 N 
ATOM     22  C   UNL     1     -13.115   1.239  -6.200  1.00  0.00     0.147 C 
BRANCH  21  23
ATOM     23  C   UNL     1     -14.771   2.482  -4.794  1.00  0.00     0.178 C 
BRANCH  23  24
ATOM     24  C   UNL     1     -15.053   2.993  -3.366  1.00  0.00     0.070 C 
BRANCH  24  25
ATOM     25  C   UNL     1     -15.614   1.997  -2.377  1.00  0.00    -0.045 A 
ATOM     26  C   UNL     1     -15.780   2.339  -1.029  1.00  0.00     0.004 A 
ATOM     27  C   UNL     1     -15.973   0.708  -2.798  1.00  0.00     0.004 A 
ATOM     28  C   UNL     1     -16.283   1.408  -0.119  1.00  0.00     0.000 A 
ATOM     29  C   UNL     1     -16.477  -0.222  -1.887  1.00  0.00     0.000 A 
ATOM     30  C   UNL     1     -16.628   0.128  -0.547  1.00  0.00     0.000 A 
ENDBRANCH  24  25
ENDBRANCH  23  24
BRANCH  23  31
ATOM     31  C   UNL     1     -15.366   3.353  -5.926  1.00  0.00     0.243 C 
ATOM     32  O   UNL     1     -14.726   4.187  -6.561  1.00  0.00    -0.273 OA
ATOM     33  N   UNL     1     -16.742   3.244  -6.042  1.00  0.00    -0.341 N 
ATOM     34  H   UNL     1     -17.222   2.535  -5.482  1.00  0.00     0.164 HD
BRANCH  33  35
ATOM     35  C   UNL     1     -17.533   4.063  -6.965  1.00  0.00     0.194 C 
BRANCH  35  36
ATOM     36  C   UNL     1     -18.087   5.373  -6.336  1.00  0.00     0.017 C 
ATOM     37  C   UNL     1     -17.182   6.574  -6.660  1.00  0.00     0.010 C 
ATOM     38  C   UNL     1     -18.225   5.300  -4.811  1.00  0.00     0.010 C 
ENDBRANCH  35  36
BRANCH  35  39
ATOM     39  C   UNL     1     -18.645   3.249  -7.683  1.00  0.00     0.329 C 
ATOM     40  O   UNL     1     -18.810   3.236  -8.897  1.00  0.00    -0.250 OA
BRANCH  39  41
ATOM     41  O   UNL     1     -19.367   2.476  -6.816  1.00  0.00    -0.458 OA
BRANCH  41  42
ATOM     42  C   UNL     1     -20.741   2.873  -6.595  1.00  0.00     0.205 CG0
ATOM     43  C   UNL     1     -21.081   2.544  -5.143  1.00  0.00     0.056 C 
ATOM     44  G   UNL     1     -21.638   2.119  -7.596  1.00  0.00     0.000 G0
ENDBRANCH  41  42
ENDBRANCH  39  41
ENDBRANCH  35  39
ENDBRANCH  33  35
ENDBRANCH  23  31
ENDBRANCH  21  23
ENDBRANCH  19  21
ENDBRANCH  14  19
ENDBRANCH   7  14
ENDBRANCH   2   5
BRANCH   3  45
ATOM     45  C   UNL     1      -6.088   1.827   0.689  1.00  0.00     0.171 C 
BRANCH  45  46
ATOM     46  N   UNL     1      -4.806   2.502   0.845  1.00  0.00    -0.342 N 
ATOM     47  C   UNL     1      -4.221   2.696   2.071  1.00  0.00     0.247 C 
ATOM     48  O   UNL     1      -4.697   2.253   3.117  1.00  0.00    -0.273 OA
ATOM     49  H   UNL     1      -4.350   2.835  -0.002  1.00  0.00     0.164 HD
BRANCH  47  50
ATOM     50  C   UNL     1      -2.935   3.535   2.051  1.00  0.00     0.212 CG0
ATOM     51  G   UNL     1      -3.098   4.666   3.086  1.00  0.00     0.000 G0
BRANCH  50  52
ATOM     52  N   UNL     1      -1.858   2.604   2.379  1.00  0.00    -0.339 N 
ATOM     53  C   UNL     1      -1.260   1.784   1.453  1.00  0.00     0.243 C 
ATOM     54  O   UNL     1      -1.624   1.732   0.282  1.00  0.00    -0.273 OA
ATOM     55  H   UNL     1      -1.587   2.520   3.357  1.00  0.00     0.164 HD
BRANCH  53  56
ATOM     56  C   UNL     1      -0.208   0.827   2.050  1.00  0.00     0.182 C 
BRANCH  56  57
ATOM     57  N   UNL     1       0.267   1.311   3.350  1.00  0.00    -0.344 N 
ATOM     58  C   UNL     1       0.376   0.489   4.446  1.00  0.00     0.220 C 
ATOM     59  O   UNL     1       0.018  -0.683   4.435  1.00  0.00    -0.275 OA
ATOM     60  H   UNL     1       0.668   2.244   3.375  1.00  0.00     0.164 HD
BRANCH  58  61
ATOM     61  C   UNL     1       0.944   1.189   5.667  1.00  0.00     0.100 C 
BRANCH  61  62
ATOM     62  C   UNL     1       0.081   1.039   6.920  1.00  0.00     0.010 C 
BRANCH  62  63
ATOM     63  C   UNL     1       0.175   2.222   7.892  1.00  0.00     0.000 C 
BRANCH  63  64
ATOM     64  C   UNL     1       1.158   3.310   7.462  1.00  0.00    -0.003 C 
ATOM     65  C   UNL     1       0.719   4.681   7.956  1.00  0.00     0.004 C 
ENDBRANCH  63  64
ENDBRANCH  62  63
ENDBRANCH  61  62
ENDBRANCH  58  61
ENDBRANCH  56  57
BRANCH  56  66
ATOM     66  C   UNL     1       0.940   0.577   1.073  1.00  0.00     0.157 C 
BRANCH  66  67
ATOM     67  C   UNL     1       1.172  -0.893   0.871  1.00  0.00     0.305 C 
ATOM     68  O   UNL     1       1.973  -1.410   0.107  1.00  0.00    -0.252 OA
BRANCH  67  69
ATOM     69  O   UNL     1       0.413  -1.648   1.688  1.00  0.00    -0.481 OA
ATOM     70  H   UNL     1       0.756  -2.560   1.576  1.00  0.00     0.296 HD
ENDBRANCH  67  69
ENDBRANCH  66  67
ENDBRANCH  56  66
ENDBRANCH  53  56
ENDBRANCH  50  52
ENDBRANCH  47  50
ENDBRANCH  45  46
BRANCH  45  71
ATOM     71  C   UNL     1      -5.927   0.448   0.042  1.00  0.00     0.037 C 
BRANCH  71  72
ATOM     72  C   UNL     1      -7.267  -0.136  -0.412  1.00  0.00     0.026 C 
BRANCH  72  73
ATOM     73  C   UNL     1      -7.224  -0.561  -1.879  1.00  0.00     0.146 C 
BRANCH  73  74
ATOM     74  N   UNL     1      -5.954  -0.109  -2.438  1.00  0.00    -0.254 NA
ATOM     75  C   UNL     1      -5.988   0.590  -3.512  1.00  0.00     0.185 C 
ATOM     76  N   UNL     1      -4.836   1.022  -4.051  1.00  0.00    -0.370 N 
ATOM     77  N   UNL     1      -7.054   0.985  -4.230  1.00  0.00    -0.370 N 
ATOM     78  H   UNL     1      -3.983   0.762  -3.576  1.00  0.00     0.159 HD
ATOM     79  H   UNL     1      -4.774   1.446  -4.959  1.00  0.00     0.159 HD
ATOM     80  H   UNL     1      -7.988   0.737  -3.942  1.00  0.00     0.159 HD
ATOM     81  H   UNL     1      -6.964   1.632  -4.996  1.00  0.00     0.159 HD
ENDBRANCH  73  74
ENDBRANCH  72  73
ENDBRANCH  71  72
ENDBRANCH  45  71
ENDBRANCH   3  45
TORSDOF 20
ENDMDL
MODEL 43
REMARK VINA RESULT:    -5.566      3.052     11.645
REMARK INTER + INTRA:         -23.944
REMARK INTER:                 -16.985
REMARK INTRA:                  -6.959
REMARK UNBOUND:                -7.967
REMARK SMILES CCCCCC(=O)N[C@H](CC(=O)O)C(=O)N[C@H]1C(=O)N[C@H](CCCN=C(N)N)C(=O)N[C@@H]2CC[C@H](O)N(C2=O)[C@@H](CC(C)C)C(=O)N(C)[C@@H](Cc2ccccc2)C(=O)N[C@H](C(C)C)C(=O)O[C@@H]1C
REMARK SMILES IDX 30 1 31 2 29 3 32 5 35 6 37 7 34 8 38 9 33 10 39 11 36 12
REMARK SMILES IDX 40 14 41 15 42 16 43 17 44 18 45 19 46 20 47 21 48 22 49 23
REMARK SMILES IDX 50 24 51 25 52 26 56 27 53 28 55 29 54 30 57 31 58 32 59 33
REMARK SMILES IDX 60 35 61 36 62 37 63 38 64 39 65 40 66 41 67 42 68 43 21 45
REMARK SMILES IDX 20 46 18 47 19 48 17 50 16 52 14 53 15 54 9 56 8 57 6 58
REMARK SMILES IDX 7 59 5 61 4 62 3 63 2 64 1 65 10 66 11 67 12 68 13 69 22 71
REMARK SMILES IDX 23 72 24 73 25 74 26 75 27 76 28 77
REMARK H PARENT 31 4 36 13 59 34 20 49 16 55 8 60 13 70 27 78 27 79 28 80
REMARK H PARENT 28 81
REMARK Flexibility Score:  259.900
ROOT
ATOM      1  O   UNL     1      -9.987   1.802  -0.010  1.00  0.00    -0.273 OA
ATOM      2  N   UNL     1      -8.867   3.515  -1.032  1.00  0.00    -0.343 N 
ATOM      3  C   UNL     1     -10.015   2.865  -0.632  1.00  0.00     0.243 C 
ATOM      4  H   UNL     1      -8.928   4.395  -1.529  1.00  0.00     0.164 HD
ENDROOT
BRANCH   2   5
ATOM      5  C   UNL     1      -7.559   2.901  -0.834  1.00  0.00     0.171 C 
ATOM      6  C   UNL     1      -6.669   0.640   0.747  1.00  0.00     0.214 C 
ATOM      7  N   UNL     1      -6.652   1.963   1.327  1.00  0.00    -0.303 N 
ATOM      8  C   UNL     1      -6.460   0.640  -0.759  1.00  0.00     0.057 C 
ATOM      9  C   UNL     1      -7.111   3.078   0.645  1.00  0.00     0.247 C 
ATOM     10  C   UNL     1      -7.520   1.491  -1.423  1.00  0.00     0.040 C 
ATOM     11  O   UNL     1      -7.174   4.193   1.179  1.00  0.00    -0.272 OA
BRANCH   6  12
ATOM     12  O   UNL     1      -7.902   0.043   1.073  1.00  0.00    -0.373 OA
ATOM     13  H   UNL     1      -8.047  -0.686   0.432  1.00  0.00     0.213 HD
ENDBRANCH   6  12
BRANCH   7  14
ATOM     14  C   UNL     1      -6.258   2.067   2.748  1.00  0.00     0.177 C 
BRANCH  14  15
ATOM     15  C   UNL     1      -7.424   2.032   3.756  1.00  0.00     0.038 C 
BRANCH  15  16
ATOM     16  C   UNL     1      -7.405   2.981   4.974  1.00  0.00    -0.015 C 
ATOM     17  C   UNL     1      -6.574   2.425   6.135  1.00  0.00     0.007 C 
ATOM     18  C   UNL     1      -8.836   3.211   5.475  1.00  0.00     0.007 C 
ENDBRANCH  15  16
ENDBRANCH  14  15
BRANCH  14  19
ATOM     19  C   UNL     1      -4.848   1.421   2.970  1.00  0.00     0.245 C 
ATOM     20  O   UNL     1      -4.827   0.227   3.313  1.00  0.00    -0.272 OA
BRANCH  19  21
ATOM     21  N   UNL     1      -3.659   2.127   2.916  1.00  0.00    -0.332 N 
ATOM     22  C   UNL     1      -3.265   3.185   3.829  1.00  0.00     0.147 C 
BRANCH  21  23
ATOM     23  C   UNL     1      -2.699   1.790   1.829  1.00  0.00     0.178 C 
BRANCH  23  24
ATOM     24  C   UNL     1      -2.157   3.005   1.047  1.00  0.00     0.070 C 
BRANCH  24  25
ATOM     25  C   UNL     1      -2.793   3.300  -0.292  1.00  0.00    -0.045 A 
ATOM     26  C   UNL     1      -3.718   4.342  -0.433  1.00  0.00     0.004 A 
ATOM     27  C   UNL     1      -2.466   2.527  -1.416  1.00  0.00     0.004 A 
ATOM     28  C   UNL     1      -4.314   4.597  -1.670  1.00  0.00     0.000 A 
ATOM     29  C   UNL     1      -3.061   2.784  -2.652  1.00  0.00     0.000 A 
ATOM     30  C   UNL     1      -3.987   3.818  -2.777  1.00  0.00     0.000 A 
ENDBRANCH  24  25
ENDBRANCH  23  24
BRANCH  23  31
ATOM     31  C   UNL     1      -1.624   0.767   2.268  1.00  0.00     0.243 C 
ATOM     32  O   UNL     1      -1.816  -0.445   2.331  1.00  0.00    -0.273 OA
ATOM     33  N   UNL     1      -0.473   1.353   2.765  1.00  0.00    -0.341 N 
ATOM     34  H   UNL     1      -0.373   2.368   2.690  1.00  0.00     0.164 HD
BRANCH  33  35
ATOM     35  C   UNL     1       0.629   0.581   3.347  1.00  0.00     0.194 C 
BRANCH  35  36
ATOM     36  C   UNL     1       0.613   0.524   4.901  1.00  0.00     0.017 C 
ATOM     37  C   UNL     1      -0.100  -0.741   5.407  1.00  0.00     0.010 C 
ATOM     38  C   UNL     1      -0.083   1.731   5.543  1.00  0.00     0.010 C 
ENDBRANCH  35  36
BRANCH  35  39
ATOM     39  C   UNL     1       2.017   1.012   2.797  1.00  0.00     0.329 C 
ATOM     40  O   UNL     1       2.239   2.094   2.267  1.00  0.00    -0.250 OA
BRANCH  39  41
ATOM     41  O   UNL     1       2.987   0.081   3.047  1.00  0.00    -0.458 OA
BRANCH  41  42
ATOM     42  C   UNL     1       4.234   0.246   2.330  1.00  0.00     0.205 CG0
ATOM     43  C   UNL     1       4.199  -0.705   1.135  1.00  0.00     0.056 C 
ATOM     44  G   UNL     1       5.399  -0.059   3.293  1.00  0.00     0.000 G0
ENDBRANCH  41  42
ENDBRANCH  39  41
ENDBRANCH  35  39
ENDBRANCH  33  35
ENDBRANCH  23  31
ENDBRANCH  21  23
ENDBRANCH  19  21
ENDBRANCH  14  19
ENDBRANCH   7  14
ENDBRANCH   2   5
BRANCH   3  45
ATOM     45  C   UNL     1     -11.329   3.567  -0.997  1.00  0.00     0.171 C 
BRANCH  45  46
ATOM     46  N   UNL     1     -11.543   3.292  -2.411  1.00  0.00    -0.342 N 
ATOM     47  C   UNL     1     -12.797   3.192  -2.960  1.00  0.00     0.247 C 
ATOM     48  O   UNL     1     -13.826   3.398  -2.317  1.00  0.00    -0.273 OA
ATOM     49  H   UNL     1     -10.716   3.171  -2.993  1.00  0.00     0.164 HD
BRANCH  47  50
ATOM     50  C   UNL     1     -12.828   2.774  -4.437  1.00  0.00     0.212 CG0
ATOM     51  G   UNL     1     -14.082   3.405  -5.075  1.00  0.00     0.000 G0
BRANCH  50  52
ATOM     52  N   UNL     1     -11.579   3.270  -5.009  1.00  0.00    -0.339 N 
ATOM     53  C   UNL     1     -10.651   2.458  -5.617  1.00  0.00     0.243 C 
ATOM     54  O   UNL     1     -10.779   1.239  -5.679  1.00  0.00    -0.273 OA
ATOM     55  H   UNL     1     -11.363   4.257  -4.890  1.00  0.00     0.164 HD
BRANCH  53  56
ATOM     56  C   UNL     1      -9.372   3.193  -6.066  1.00  0.00     0.182 C 
BRANCH  56  57
ATOM     57  N   UNL     1      -8.207   2.737  -5.302  1.00  0.00    -0.344 N 
ATOM     58  C   UNL     1      -7.335   1.792  -5.784  1.00  0.00     0.220 C 
ATOM     59  O   UNL     1      -7.509   1.212  -6.850  1.00  0.00    -0.275 OA
ATOM     60  H   UNL     1      -7.971   3.262  -4.464  1.00  0.00     0.164 HD
BRANCH  58  61
ATOM     61  C   UNL     1      -6.171   1.516  -4.851  1.00  0.00     0.100 C 
BRANCH  61  62
ATOM     62  C   UNL     1      -4.831   1.352  -5.569  1.00  0.00     0.010 C 
BRANCH  62  63
ATOM     63  C   UNL     1      -4.411   2.572  -6.399  1.00  0.00     0.000 C 
BRANCH  63  64
ATOM     64  C   UNL     1      -3.843   2.229  -7.775  1.00  0.00    -0.003 C 
ATOM     65  C   UNL     1      -2.485   2.881  -7.994  1.00  0.00     0.004 C 
ENDBRANCH  63  64
ENDBRANCH  62  63
ENDBRANCH  61  62
ENDBRANCH  58  61
ENDBRANCH  56  57
BRANCH  56  66
ATOM     66  C   UNL     1      -9.546   4.710  -6.001  1.00  0.00     0.157 C 
BRANCH  66  67
ATOM     67  C   UNL     1      -8.806   5.293  -4.832  1.00  0.00     0.305 C 
ATOM     68  O   UNL     1      -7.884   6.093  -4.874  1.00  0.00    -0.252 OA
BRANCH  67  69
ATOM     69  O   UNL     1      -9.302   4.875  -3.652  1.00  0.00    -0.481 OA
ATOM     70  H   UNL     1     -10.063   5.468  -3.476  1.00  0.00     0.296 HD
ENDBRANCH  67  69
ENDBRANCH  66  67
ENDBRANCH  56  66
ENDBRANCH  53  56
ENDBRANCH  50  52
ENDBRANCH  47  50
ENDBRANCH  45  46
BRANCH  45  71
ATOM     71  C   UNL     1     -11.224   5.072  -0.723  1.00  0.00     0.037 C 
BRANCH  71  72
ATOM     72  C   UNL     1     -11.130   5.379   0.774  1.00  0.00     0.026 C 
BRANCH  72  73
ATOM     73  C   UNL     1     -12.426   5.992   1.302  1.00  0.00     0.146 C 
BRANCH  73  74
ATOM     74  N   UNL     1     -13.524   5.492   0.481  1.00  0.00    -0.254 NA
ATOM     75  C   UNL     1     -14.332   4.650   1.011  1.00  0.00     0.185 C 
ATOM     76  N   UNL     1     -15.353   4.172   0.282  1.00  0.00    -0.370 N 
ATOM     77  N   UNL     1     -14.323   4.137   2.254  1.00  0.00    -0.370 N 
ATOM     78  H   UNL     1     -15.430   4.502  -0.670  1.00  0.00     0.159 HD
ATOM     79  H   UNL     1     -15.936   3.408   0.578  1.00  0.00     0.159 HD
ATOM     80  H   UNL     1     -13.613   4.409   2.917  1.00  0.00     0.159 HD
ATOM     81  H   UNL     1     -15.080   3.568   2.597  1.00  0.00     0.159 HD
ENDBRANCH  73  74
ENDBRANCH  72  73
ENDBRANCH  71  72
ENDBRANCH  45  71
ENDBRANCH   3  45
TORSDOF 20
ENDMDL
MODEL 44
REMARK VINA RESULT:    -5.557      3.971      7.429
REMARK INTER + INTRA:         -23.920
REMARK INTER:                 -15.786
REMARK INTRA:                  -8.134
REMARK UNBOUND:                -7.967
REMARK SMILES CCCCCC(=O)N[C@H](CC(=O)O)C(=O)N[C@H]1C(=O)N[C@H](CCCN=C(N)N)C(=O)N[C@@H]2CC[C@H](O)N(C2=O)[C@@H](CC(C)C)C(=O)N(C)[C@@H](Cc2ccccc2)C(=O)N[C@H](C(C)C)C(=O)O[C@@H]1C
REMARK SMILES IDX 30 1 31 2 29 3 32 5 35 6 37 7 34 8 38 9 33 10 39 11 36 12
REMARK SMILES IDX 40 14 41 15 42 16 43 17 44 18 45 19 46 20 47 21 48 22 49 23
REMARK SMILES IDX 50 24 51 25 52 26 56 27 53 28 55 29 54 30 57 31 58 32 59 33
REMARK SMILES IDX 60 35 61 36 62 37 63 38 64 39 65 40 66 41 67 42 68 43 21 45
REMARK SMILES IDX 20 46 18 47 19 48 17 50 16 52 14 53 15 54 9 56 8 57 6 58
REMARK SMILES IDX 7 59 5 61 4 62 3 63 2 64 1 65 10 66 11 67 12 68 13 69 22 71
REMARK SMILES IDX 23 72 24 73 25 74 26 75 27 76 28 77
REMARK H PARENT 31 4 36 13 59 34 20 49 16 55 8 60 13 70 27 78 27 79 28 80
REMARK H PARENT 28 81
REMARK Flexibility Score:  259.900
ROOT
ATOM      1  O   UNL     1      -7.484   1.496   4.382  1.00  0.00    -0.273 OA
ATOM      2  N   UNL     1      -6.134   1.962   2.595  1.00  0.00    -0.343 N 
ATOM      3  C   UNL     1      -6.493   2.065   3.922  1.00  0.00     0.243 C 
ATOM      4  H   UNL     1      -5.304   2.433   2.256  1.00  0.00     0.164 HD
ENDROOT
BRANCH   2   5
ATOM      5  C   UNL     1      -6.992   1.262   1.646  1.00  0.00     0.171 C 
ATOM      6  C   UNL     1      -6.634   0.488  -1.125  1.00  0.00     0.214 C 
ATOM      7  N   UNL     1      -7.231   1.767  -0.816  1.00  0.00    -0.303 N 
ATOM      8  C   UNL     1      -6.905  -0.573  -0.071  1.00  0.00     0.057 C 
ATOM      9  C   UNL     1      -7.384   2.220   0.484  1.00  0.00     0.247 C 
ATOM     10  C   UNL     1      -6.404  -0.099   1.276  1.00  0.00     0.040 C 
ATOM     11  O   UNL     1      -7.817   3.351   0.738  1.00  0.00    -0.272 OA
BRANCH   6  12
ATOM     12  O   UNL     1      -5.247   0.687  -1.278  1.00  0.00    -0.373 OA
ATOM     13  H   UNL     1      -4.919  -0.023  -1.871  1.00  0.00     0.213 HD
ENDBRANCH   6  12
BRANCH   7  14
ATOM     14  C   UNL     1      -7.545   2.653  -1.957  1.00  0.00     0.177 C 
BRANCH  14  15
ATOM     15  C   UNL     1      -8.999   3.159  -2.014  1.00  0.00     0.038 C 
BRANCH  15  16
ATOM     16  C   UNL     1     -10.097   2.253  -2.616  1.00  0.00    -0.015 C 
ATOM     17  C   UNL     1     -10.718   1.317  -1.575  1.00  0.00     0.007 C 
ATOM     18  C   UNL     1      -9.502   1.395  -3.740  1.00  0.00     0.007 C 
ENDBRANCH  15  16
ENDBRANCH  14  15
BRANCH  14  19
ATOM     19  C   UNL     1      -6.279   3.484  -2.364  1.00  0.00     0.245 C 
ATOM     20  O   UNL     1      -5.901   4.356  -1.564  1.00  0.00    -0.272 OA
BRANCH  19  21
ATOM     21  N   UNL     1      -5.647   3.374  -3.590  1.00  0.00    -0.332 N 
ATOM     22  C   UNL     1      -4.214   3.462  -3.809  1.00  0.00     0.147 C 
BRANCH  21  23
ATOM     23  C   UNL     1      -6.495   3.159  -4.794  1.00  0.00     0.178 C 
BRANCH  23  24
ATOM     24  C   UNL     1      -7.076   4.447  -5.413  1.00  0.00     0.070 C 
BRANCH  24  25
ATOM     25  C   UNL     1      -8.581   4.576  -5.446  1.00  0.00    -0.045 A 
ATOM     26  C   UNL     1      -9.258   5.335  -4.483  1.00  0.00     0.004 A 
ATOM     27  C   UNL     1      -9.325   3.929  -6.445  1.00  0.00     0.004 A 
ATOM     28  C   UNL     1     -10.651   5.435  -4.511  1.00  0.00     0.000 A 
ATOM     29  C   UNL     1     -10.717   4.031  -6.473  1.00  0.00     0.000 A 
ATOM     30  C   UNL     1     -11.379   4.782  -5.504  1.00  0.00     0.000 A 
ENDBRANCH  24  25
ENDBRANCH  23  24
BRANCH  23  31
ATOM     31  C   UNL     1      -5.865   2.176  -5.809  1.00  0.00     0.243 C 
ATOM     32  O   UNL     1      -5.627   0.996  -5.565  1.00  0.00    -0.273 OA
ATOM     33  N   UNL     1      -5.417   2.788  -6.967  1.00  0.00    -0.341 N 
ATOM     34  H   UNL     1      -5.641   3.776  -7.112  1.00  0.00     0.164 HD
BRANCH  33  35
ATOM     35  C   UNL     1      -4.682   2.074  -8.015  1.00  0.00     0.194 C 
BRANCH  35  36
ATOM     36  C   UNL     1      -3.337   2.743  -8.415  1.00  0.00     0.017 C 
ATOM     37  C   UNL     1      -2.418   1.753  -9.154  1.00  0.00     0.010 C 
ATOM     38  C   UNL     1      -2.553   3.288  -7.215  1.00  0.00     0.010 C 
ENDBRANCH  35  36
BRANCH  35  39
ATOM     39  C   UNL     1      -5.565   1.759  -9.256  1.00  0.00     0.329 C 
ATOM     40  O   UNL     1      -6.226   0.736  -9.385  1.00  0.00    -0.250 OA
BRANCH  39  41
ATOM     41  O   UNL     1      -5.592   2.793 -10.151  1.00  0.00    -0.458 OA
BRANCH  41  42
ATOM     42  C   UNL     1      -5.687   2.428 -11.548  1.00  0.00     0.205 CG0
ATOM     43  C   UNL     1      -7.054   2.892 -12.046  1.00  0.00     0.056 C 
ATOM     44  G   UNL     1      -5.500   0.903 -11.672  1.00  0.00     0.000 G0
ENDBRANCH  41  42
ENDBRANCH  39  41
ENDBRANCH  35  39
ENDBRANCH  33  35
ENDBRANCH  23  31
ENDBRANCH  21  23
ENDBRANCH  19  21
ENDBRANCH  14  19
ENDBRANCH   7  14
ENDBRANCH   2   5
BRANCH   3  45
ATOM     45  C   UNL     1      -5.561   2.919   4.791  1.00  0.00     0.171 C 
BRANCH  45  46
ATOM     46  N   UNL     1      -5.910   2.605   6.170  1.00  0.00    -0.342 N 
ATOM     47  C   UNL     1      -5.140   1.786   6.956  1.00  0.00     0.247 C 
ATOM     48  O   UNL     1      -4.064   1.317   6.581  1.00  0.00    -0.273 OA
ATOM     49  H   UNL     1      -6.765   3.018   6.540  1.00  0.00     0.164 HD
BRANCH  47  50
ATOM     50  C   UNL     1      -5.729   1.469   8.338  1.00  0.00     0.212 CG0
ATOM     51  G   UNL     1      -5.342   2.622   9.287  1.00  0.00     0.000 G0
BRANCH  50  52
ATOM     52  N   UNL     1      -7.170   1.352   8.130  1.00  0.00    -0.339 N 
ATOM     53  C   UNL     1      -7.782   0.194   7.717  1.00  0.00     0.243 C 
ATOM     54  O   UNL     1      -7.153  -0.824   7.438  1.00  0.00    -0.273 OA
ATOM     55  H   UNL     1      -7.733   2.193   8.237  1.00  0.00     0.164 HD
BRANCH  53  56
ATOM     56  C   UNL     1      -9.299   0.335   7.482  1.00  0.00     0.182 C 
BRANCH  56  57
ATOM     57  N   UNL     1      -9.629   0.185   6.061  1.00  0.00    -0.344 N 
ATOM     58  C   UNL     1     -10.080  -0.998   5.531  1.00  0.00     0.220 C 
ATOM     59  O   UNL     1     -10.170  -2.029   6.189  1.00  0.00    -0.275 OA
ATOM     60  H   UNL     1      -9.666   1.036   5.505  1.00  0.00     0.164 HD
BRANCH  58  61
ATOM     61  C   UNL     1     -10.415  -0.907   4.053  1.00  0.00     0.100 C 
BRANCH  61  62
ATOM     62  C   UNL     1     -11.118   0.393   3.660  1.00  0.00     0.010 C 
BRANCH  62  63
ATOM     63  C   UNL     1     -10.439   1.150   2.511  1.00  0.00     0.000 C 
BRANCH  63  64
ATOM     64  C   UNL     1     -11.298   2.253   1.895  1.00  0.00    -0.003 C 
ATOM     65  C   UNL     1     -12.776   1.890   1.928  1.00  0.00     0.004 C 
ENDBRANCH  63  64
ENDBRANCH  62  63
ENDBRANCH  61  62
ENDBRANCH  58  61
ENDBRANCH  56  57
BRANCH  56  66
ATOM     66  C   UNL     1      -9.837   1.641   8.065  1.00  0.00     0.157 C 
BRANCH  66  67
ATOM     67  C   UNL     1     -10.144   2.634   6.981  1.00  0.00     0.305 C 
ATOM     68  O   UNL     1     -11.250   2.984   6.599  1.00  0.00    -0.252 OA
BRANCH  67  69
ATOM     69  O   UNL     1      -9.030   3.183   6.459  1.00  0.00    -0.481 OA
ATOM     70  H   UNL     1      -8.659   2.488   5.875  1.00  0.00     0.296 HD
ENDBRANCH  67  69
ENDBRANCH  66  67
ENDBRANCH  56  66
ENDBRANCH  53  56
ENDBRANCH  50  52
ENDBRANCH  47  50
ENDBRANCH  45  46
BRANCH  45  71
ATOM     71  C   UNL     1      -5.759   4.408   4.483  1.00  0.00     0.037 C 
BRANCH  71  72
ATOM     72  C   UNL     1      -4.445   5.098   4.109  1.00  0.00     0.026 C 
BRANCH  72  73
ATOM     73  C   UNL     1      -4.123   4.925   2.626  1.00  0.00     0.146 C 
BRANCH  73  74
ATOM     74  N   UNL     1      -2.992   4.009   2.519  1.00  0.00    -0.254 NA
ATOM     75  C   UNL     1      -2.878   3.321   1.443  1.00  0.00     0.185 C 
ATOM     76  N   UNL     1      -1.847   2.471   1.314  1.00  0.00    -0.370 N 
ATOM     77  N   UNL     1      -3.671   3.314   0.357  1.00  0.00    -0.370 N 
ATOM     78  H   UNL     1      -1.205   2.409   2.091  1.00  0.00     0.159 HD
ATOM     79  H   UNL     1      -1.773   1.799   0.570  1.00  0.00     0.159 HD
ATOM     80  H   UNL     1      -4.485   3.908   0.311  1.00  0.00     0.159 HD
ATOM     81  H   UNL     1      -3.416   2.815  -0.480  1.00  0.00     0.159 HD
ENDBRANCH  73  74
ENDBRANCH  72  73
ENDBRANCH  71  72
ENDBRANCH  45  71
ENDBRANCH   3  45
TORSDOF 20
ENDMDL
MODEL 45
REMARK VINA RESULT:    -5.538      2.911     12.746
REMARK INTER + INTRA:         -23.865
REMARK INTER:                 -16.016
REMARK INTRA:                  -7.849
REMARK UNBOUND:                -7.967
REMARK SMILES CCCCCC(=O)N[C@H](CC(=O)O)C(=O)N[C@H]1C(=O)N[C@H](CCCN=C(N)N)C(=O)N[C@@H]2CC[C@H](O)N(C2=O)[C@@H](CC(C)C)C(=O)N(C)[C@@H](Cc2ccccc2)C(=O)N[C@H](C(C)C)C(=O)O[C@@H]1C
REMARK SMILES IDX 30 1 31 2 29 3 32 5 35 6 37 7 34 8 38 9 33 10 39 11 36 12
REMARK SMILES IDX 40 14 41 15 42 16 43 17 44 18 45 19 46 20 47 21 48 22 49 23
REMARK SMILES IDX 50 24 51 25 52 26 56 27 53 28 55 29 54 30 57 31 58 32 59 33
REMARK SMILES IDX 60 35 61 36 62 37 63 38 64 39 65 40 66 41 67 42 68 43 21 45
REMARK SMILES IDX 20 46 18 47 19 48 17 50 16 52 14 53 15 54 9 56 8 57 6 58
REMARK SMILES IDX 7 59 5 61 4 62 3 63 2 64 1 65 10 66 11 67 12 68 13 69 22 71
REMARK SMILES IDX 23 72 24 73 25 74 26 75 27 76 28 77
REMARK H PARENT 31 4 36 13 59 34 20 49 16 55 8 60 13 70 27 78 27 79 28 80
REMARK H PARENT 28 81
REMARK Flexibility Score:  259.900
ROOT
ATOM      1  O   UNL     1      -9.938   0.402  -1.617  1.00  0.00    -0.273 OA
ATOM      2  N   UNL     1      -9.253   2.346  -2.608  1.00  0.00    -0.343 N 
ATOM      3  C   UNL     1     -10.209   1.415  -2.263  1.00  0.00     0.243 C 
ATOM      4  H   UNL     1      -9.515   3.174  -3.128  1.00  0.00     0.164 HD
ENDROOT
BRANCH   2   5
ATOM      5  C   UNL     1      -7.844   2.105  -2.320  1.00  0.00     0.171 C 
ATOM      6  C   UNL     1      -6.478   0.095  -0.738  1.00  0.00     0.214 C 
ATOM      7  N   UNL     1      -6.872   1.339  -0.119  1.00  0.00    -0.303 N 
ATOM      8  C   UNL     1      -6.169   0.232  -2.220  1.00  0.00     0.057 C 
ATOM      9  C   UNL     1      -7.572   2.320  -0.803  1.00  0.00     0.247 C 
ATOM     10  C   UNL     1      -7.372   0.793  -2.946  1.00  0.00     0.040 C 
ATOM     11  O   UNL     1      -7.981   3.346  -0.243  1.00  0.00    -0.272 OA
BRANCH   6  12
ATOM     12  O   UNL     1      -7.518  -0.834  -0.536  1.00  0.00    -0.373 OA
ATOM     13  H   UNL     1      -7.097  -1.701  -0.352  1.00  0.00     0.213 HD
ENDBRANCH   6  12
BRANCH   7  14
ATOM     14  C   UNL     1      -6.627   1.473   1.333  1.00  0.00     0.177 C 
BRANCH  14  15
ATOM     15  C   UNL     1      -7.529   0.606   2.232  1.00  0.00     0.038 C 
BRANCH  15  16
ATOM     16  C   UNL     1      -9.060   0.812   2.200  1.00  0.00    -0.015 C 
ATOM     17  C   UNL     1      -9.465   2.244   2.561  1.00  0.00     0.007 C 
ATOM     18  C   UNL     1      -9.733  -0.143   3.194  1.00  0.00     0.007 C 
ENDBRANCH  15  16
ENDBRANCH  14  15
BRANCH  14  19
ATOM     19  C   UNL     1      -5.117   1.793   1.602  1.00  0.00     0.245 C 
ATOM     20  O   UNL     1      -4.578   2.622   0.850  1.00  0.00    -0.272 OA
BRANCH  19  21
ATOM     21  N   UNL     1      -4.344   1.131   2.540  1.00  0.00    -0.332 N 
ATOM     22  C   UNL     1      -3.682  -0.145   2.337  1.00  0.00     0.147 C 
BRANCH  21  23
ATOM     23  C   UNL     1      -4.177   1.765   3.877  1.00  0.00     0.178 C 
BRANCH  23  24
ATOM     24  C   UNL     1      -5.076   1.180   4.985  1.00  0.00     0.070 C 
BRANCH  24  25
ATOM     25  C   UNL     1      -6.350   1.927   5.304  1.00  0.00    -0.045 A 
ATOM     26  C   UNL     1      -6.470   3.294   5.023  1.00  0.00     0.004 A 
ATOM     27  C   UNL     1      -7.433   1.259   5.895  1.00  0.00     0.004 A 
ATOM     28  C   UNL     1      -7.644   3.981   5.337  1.00  0.00     0.000 A 
ATOM     29  C   UNL     1      -8.607   1.947   6.207  1.00  0.00     0.000 A 
ATOM     30  C   UNL     1      -8.710   3.309   5.930  1.00  0.00     0.000 A 
ENDBRANCH  24  25
ENDBRANCH  23  24
BRANCH  23  31
ATOM     31  C   UNL     1      -2.694   1.956   4.274  1.00  0.00     0.243 C 
ATOM     32  O   UNL     1      -1.780   2.106   3.467  1.00  0.00    -0.273 OA
ATOM     33  N   UNL     1      -2.452   1.756   5.623  1.00  0.00    -0.341 N 
ATOM     34  H   UNL     1      -3.254   1.630   6.246  1.00  0.00     0.164 HD
BRANCH  33  35
ATOM     35  C   UNL     1      -1.107   1.768   6.204  1.00  0.00     0.194 C 
BRANCH  35  36
ATOM     36  C   UNL     1      -0.666   0.408   6.814  1.00  0.00     0.017 C 
ATOM     37  C   UNL     1      -1.818  -0.257   7.587  1.00  0.00     0.010 C 
ATOM     38  C   UNL     1       0.521   0.533   7.776  1.00  0.00     0.010 C 
ENDBRANCH  35  36
BRANCH  35  39
ATOM     39  C   UNL     1      -0.895   2.945   7.197  1.00  0.00     0.329 C 
ATOM     40  O   UNL     1       0.143   3.591   7.285  1.00  0.00    -0.250 OA
BRANCH  39  41
ATOM     41  O   UNL     1      -2.028   3.239   7.904  1.00  0.00    -0.458 OA
BRANCH  41  42
ATOM     42  C   UNL     1      -1.834   3.717   9.257  1.00  0.00     0.205 CG0
ATOM     43  C   UNL     1      -2.210   5.197   9.274  1.00  0.00     0.056 C 
ATOM     44  G   UNL     1      -0.364   3.478   9.656  1.00  0.00     0.000 G0
ENDBRANCH  41  42
ENDBRANCH  39  41
ENDBRANCH  35  39
ENDBRANCH  33  35
ENDBRANCH  23  31
ENDBRANCH  21  23
ENDBRANCH  19  21
ENDBRANCH  14  19
ENDBRANCH   7  14
ENDBRANCH   2   5
BRANCH   3  45
ATOM     45  C   UNL     1     -11.637   1.739  -2.721  1.00  0.00     0.171 C 
BRANCH  45  46
ATOM     46  N   UNL     1     -11.617   1.637  -4.174  1.00  0.00    -0.342 N 
ATOM     47  C   UNL     1     -12.241   0.618  -4.850  1.00  0.00     0.247 C 
ATOM     48  O   UNL     1     -12.920  -0.240  -4.286  1.00  0.00    -0.273 OA
ATOM     49  H   UNL     1     -11.113   2.360  -4.685  1.00  0.00     0.164 HD
BRANCH  47  50
ATOM     50  C   UNL     1     -12.007   0.606  -6.367  1.00  0.00     0.212 CG0
ATOM     51  G   UNL     1     -13.348   0.945  -7.049  1.00  0.00     0.000 G0
BRANCH  50  52
ATOM     52  N   UNL     1     -10.968   1.603  -6.610  1.00  0.00    -0.339 N 
ATOM     53  C   UNL     1      -9.959   1.436  -7.527  1.00  0.00     0.243 C 
ATOM     54  O   UNL     1      -9.823   0.405  -8.180  1.00  0.00    -0.273 OA
ATOM     55  H   UNL     1     -10.963   2.433  -6.020  1.00  0.00     0.164 HD
BRANCH  53  56
ATOM     56  C   UNL     1      -8.931   2.585  -7.545  1.00  0.00     0.182 C 
BRANCH  56  57
ATOM     57  N   UNL     1      -7.820   2.311  -6.628  1.00  0.00    -0.344 N 
ATOM     58  C   UNL     1      -6.509   2.319  -7.037  1.00  0.00     0.220 C 
ATOM     59  O   UNL     1      -6.180   2.481  -8.207  1.00  0.00    -0.275 OA
ATOM     60  H   UNL     1      -8.040   2.273  -5.636  1.00  0.00     0.164 HD
BRANCH  58  61
ATOM     61  C   UNL     1      -5.525   2.068  -5.909  1.00  0.00     0.100 C 
BRANCH  61  62
ATOM     62  C   UNL     1      -4.827   3.332  -5.408  1.00  0.00     0.010 C 
BRANCH  62  63
ATOM     63  C   UNL     1      -5.334   3.833  -4.050  1.00  0.00     0.000 C 
BRANCH  63  64
ATOM     64  C   UNL     1      -4.425   3.482  -2.873  1.00  0.00    -0.003 C 
ATOM     65  C   UNL     1      -3.972   4.731  -2.130  1.00  0.00     0.004 C 
ENDBRANCH  63  64
ENDBRANCH  62  63
ENDBRANCH  61  62
ENDBRANCH  58  61
ENDBRANCH  56  57
BRANCH  56  66
ATOM     66  C   UNL     1      -9.592   3.933  -7.264  1.00  0.00     0.157 C 
BRANCH  66  67
ATOM     67  C   UNL     1      -9.078   4.536  -5.988  1.00  0.00     0.305 C 
ATOM     68  O   UNL     1      -8.198   5.375  -5.877  1.00  0.00    -0.252 OA
BRANCH  67  69
ATOM     69  O   UNL     1      -9.740   4.084  -4.906  1.00  0.00    -0.481 OA
ATOM     70  H   UNL     1      -9.040   3.891  -4.247  1.00  0.00     0.296 HD
ENDBRANCH  67  69
ENDBRANCH  66  67
ENDBRANCH  56  66
ENDBRANCH  53  56
ENDBRANCH  50  52
ENDBRANCH  47  50
ENDBRANCH  45  46
BRANCH  45  71
ATOM     71  C   UNL     1     -12.041   3.143  -2.258  1.00  0.00     0.037 C 
BRANCH  71  72
ATOM     72  C   UNL     1     -13.092   3.772  -3.176  1.00  0.00     0.026 C 
BRANCH  72  73
ATOM     73  C   UNL     1     -14.456   3.108  -3.004  1.00  0.00     0.146 C 
BRANCH  73  74
ATOM     74  N   UNL     1     -15.218   3.328  -4.229  1.00  0.00    -0.254 NA
ATOM     75  C   UNL     1     -15.765   2.310  -4.785  1.00  0.00     0.185 C 
ATOM     76  N   UNL     1     -16.473   2.481  -5.913  1.00  0.00    -0.370 N 
ATOM     77  N   UNL     1     -15.742   1.023  -4.399  1.00  0.00    -0.370 N 
ATOM     78  H   UNL     1     -16.534   3.421  -6.277  1.00  0.00     0.159 HD
ATOM     79  H   UNL     1     -16.804   1.720  -6.479  1.00  0.00     0.159 HD
ATOM     80  H   UNL     1     -15.249   0.746  -3.564  1.00  0.00     0.159 HD
ATOM     81  H   UNL     1     -16.307   0.325  -4.855  1.00  0.00     0.159 HD
ENDBRANCH  73  74
ENDBRANCH  72  73
ENDBRANCH  71  72
ENDBRANCH  45  71
ENDBRANCH   3  45
TORSDOF 20
ENDMDL
MODEL 46
REMARK VINA RESULT:    -5.502      2.899      7.261
REMARK INTER + INTRA:         -23.761
REMARK INTER:                 -17.123
REMARK INTRA:                  -6.638
REMARK UNBOUND:                -7.967
REMARK SMILES CCCCCC(=O)N[C@H](CC(=O)O)C(=O)N[C@H]1C(=O)N[C@H](CCCN=C(N)N)C(=O)N[C@@H]2CC[C@H](O)N(C2=O)[C@@H](CC(C)C)C(=O)N(C)[C@@H](Cc2ccccc2)C(=O)N[C@H](C(C)C)C(=O)O[C@@H]1C
REMARK SMILES IDX 30 1 31 2 29 3 32 5 35 6 37 7 34 8 38 9 33 10 39 11 36 12
REMARK SMILES IDX 40 14 41 15 42 16 43 17 44 18 45 19 46 20 47 21 48 22 49 23
REMARK SMILES IDX 50 24 51 25 52 26 56 27 53 28 55 29 54 30 57 31 58 32 59 33
REMARK SMILES IDX 60 35 61 36 62 37 63 38 64 39 65 40 66 41 67 42 68 43 21 45
REMARK SMILES IDX 20 46 18 47 19 48 17 50 16 52 14 53 15 54 9 56 8 57 6 58
REMARK SMILES IDX 7 59 5 61 4 62 3 63 2 64 1 65 10 66 11 67 12 68 13 69 22 71
REMARK SMILES IDX 23 72 24 73 25 74 26 75 27 76 28 77
REMARK H PARENT 31 4 36 13 59 34 20 49 16 55 8 60 13 70 27 78 27 79 28 80
REMARK H PARENT 28 81
REMARK Flexibility Score:  259.900
ROOT
ATOM      1  O   UNL     1      -5.593   3.997   1.195  1.00  0.00    -0.273 OA
ATOM      2  N   UNL     1      -5.385   2.047   0.018  1.00  0.00    -0.343 N 
ATOM      3  C   UNL     1      -4.883   3.081   0.779  1.00  0.00     0.243 C 
ATOM      4  H   UNL     1      -4.775   1.302  -0.295  1.00  0.00     0.164 HD
ENDROOT
BRANCH   2   5
ATOM      5  C   UNL     1      -6.774   2.061  -0.430  1.00  0.00     0.171 C 
ATOM      6  C   UNL     1      -8.246   0.426  -2.317  1.00  0.00     0.214 C 
ATOM      7  N   UNL     1      -7.598   1.632  -2.776  1.00  0.00    -0.303 N 
ATOM      8  C   UNL     1      -8.695   0.499  -0.866  1.00  0.00     0.057 C 
ATOM      9  C   UNL     1      -6.837   2.432  -1.939  1.00  0.00     0.247 C 
ATOM     10  C   UNL     1      -7.509   0.801   0.023  1.00  0.00     0.040 C 
ATOM     11  O   UNL     1      -6.215   3.416  -2.359  1.00  0.00    -0.272 OA
BRANCH   6  12
ATOM     12  O   UNL     1      -7.346  -0.643  -2.500  1.00  0.00    -0.373 OA
ATOM     13  H   UNL     1      -7.855  -1.384  -2.891  1.00  0.00     0.213 HD
ENDBRANCH   6  12
BRANCH   7  14
ATOM     14  C   UNL     1      -7.655   1.913  -4.227  1.00  0.00     0.177 C 
BRANCH  14  15
ATOM     15  C   UNL     1      -6.368   1.585  -5.009  1.00  0.00     0.038 C 
BRANCH  15  16
ATOM     16  C   UNL     1      -5.633   2.711  -5.770  1.00  0.00    -0.015 C 
ATOM     17  C   UNL     1      -4.175   2.862  -5.324  1.00  0.00     0.007 C 
ATOM     18  C   UNL     1      -6.348   4.048  -5.536  1.00  0.00     0.007 C 
ENDBRANCH  15  16
ENDBRANCH  14  15
BRANCH  14  19
ATOM     19  C   UNL     1      -9.116   1.718  -4.762  1.00  0.00     0.245 C 
ATOM     20  O   UNL     1      -9.336   0.692  -5.426  1.00  0.00    -0.272 OA
BRANCH  19  21
ATOM     21  N   UNL     1     -10.117   2.664  -4.630  1.00  0.00    -0.332 N 
ATOM     22  C   UNL     1      -9.927   4.040  -4.207  1.00  0.00     0.147 C 
BRANCH  21  23
ATOM     23  C   UNL     1     -11.513   2.245  -4.935  1.00  0.00     0.178 C 
BRANCH  23  24
ATOM     24  C   UNL     1     -12.407   2.028  -3.696  1.00  0.00     0.070 C 
BRANCH  24  25
ATOM     25  C   UNL     1     -12.855   0.614  -3.410  1.00  0.00    -0.045 A 
ATOM     26  C   UNL     1     -11.966  -0.326  -2.872  1.00  0.00     0.004 A 
ATOM     27  C   UNL     1     -14.173   0.220  -3.686  1.00  0.00     0.004 A 
ATOM     28  C   UNL     1     -12.384  -1.636  -2.627  1.00  0.00     0.000 A 
ATOM     29  C   UNL     1     -14.589  -1.089  -3.440  1.00  0.00     0.000 A 
ATOM     30  C   UNL     1     -13.693  -2.017  -2.913  1.00  0.00     0.000 A 
ENDBRANCH  24  25
ENDBRANCH  23  24
BRANCH  23  31
ATOM     31  C   UNL     1     -12.160   3.079  -6.066  1.00  0.00     0.243 C 
ATOM     32  O   UNL     1     -11.542   3.527  -7.028  1.00  0.00    -0.273 OA
ATOM     33  N   UNL     1     -13.472   3.438  -5.808  1.00  0.00    -0.341 N 
ATOM     34  H   UNL     1     -13.933   3.037  -4.987  1.00  0.00     0.164 HD
BRANCH  33  35
ATOM     35  C   UNL     1     -14.245   4.325  -6.683  1.00  0.00     0.194 C 
BRANCH  35  36
ATOM     36  C   UNL     1     -14.990   5.465  -5.933  1.00  0.00     0.017 C 
ATOM     37  C   UNL     1     -15.778   4.921  -4.729  1.00  0.00     0.010 C 
ATOM     38  C   UNL     1     -15.979   6.228  -6.823  1.00  0.00     0.010 C 
ENDBRANCH  35  36
BRANCH  35  39
ATOM     39  C   UNL     1     -15.190   3.545  -7.639  1.00  0.00     0.329 C 
ATOM     40  O   UNL     1     -16.131   2.856  -7.263  1.00  0.00    -0.250 OA
BRANCH  39  41
ATOM     41  O   UNL     1     -14.909   3.783  -8.956  1.00  0.00    -0.458 OA
BRANCH  41  42
ATOM     42  C   UNL     1     -15.801   3.178  -9.922  1.00  0.00     0.205 CG0
ATOM     43  C   UNL     1     -15.030   2.052 -10.609  1.00  0.00     0.056 C 
ATOM     44  G   UNL     1     -16.264   4.265 -10.912  1.00  0.00     0.000 G0
ENDBRANCH  41  42
ENDBRANCH  39  41
ENDBRANCH  35  39
ENDBRANCH  33  35
ENDBRANCH  23  31
ENDBRANCH  21  23
ENDBRANCH  19  21
ENDBRANCH  14  19
ENDBRANCH   7  14
ENDBRANCH   2   5
BRANCH   3  45
ATOM     45  C   UNL     1      -3.383   2.999   1.090  1.00  0.00     0.171 C 
BRANCH  45  46
ATOM     46  N   UNL     1      -3.287   2.400   2.415  1.00  0.00    -0.342 N 
ATOM     47  C   UNL     1      -2.625   1.221   2.644  1.00  0.00     0.247 C 
ATOM     48  O   UNL     1      -2.004   0.621   1.765  1.00  0.00    -0.273 OA
ATOM     49  H   UNL     1      -3.740   2.894   3.182  1.00  0.00     0.164 HD
BRANCH  47  50
ATOM     50  C   UNL     1      -2.735   0.680   4.077  1.00  0.00     0.212 CG0
ATOM     51  G   UNL     1      -1.432   1.044   4.815  1.00  0.00     0.000 G0
BRANCH  50  52
ATOM     52  N   UNL     1      -3.918   1.322   4.644  1.00  0.00    -0.339 N 
ATOM     53  C   UNL     1      -5.197   1.070   4.209  1.00  0.00     0.243 C 
ATOM     54  O   UNL     1      -5.439   0.322   3.266  1.00  0.00    -0.273 OA
ATOM     55  H   UNL     1      -3.774   2.036   5.355  1.00  0.00     0.164 HD
BRANCH  53  56
ATOM     56  C   UNL     1      -6.275   1.929   4.899  1.00  0.00     0.182 C 
BRANCH  56  57
ATOM     57  N   UNL     1      -7.078   2.659   3.913  1.00  0.00    -0.344 N 
ATOM     58  C   UNL     1      -8.298   2.203   3.474  1.00  0.00     0.220 C 
ATOM     59  O   UNL     1      -8.766   1.124   3.819  1.00  0.00    -0.275 OA
ATOM     60  H   UNL     1      -6.777   3.601   3.680  1.00  0.00     0.164 HD
BRANCH  58  61
ATOM     61  C   UNL     1      -8.977   3.147   2.500  1.00  0.00     0.100 C 
BRANCH  61  62
ATOM     62  C   UNL     1     -10.499   3.194   2.646  1.00  0.00     0.010 C 
BRANCH  62  63
ATOM     63  C   UNL     1     -11.224   3.835   1.456  1.00  0.00     0.000 C 
BRANCH  63  64
ATOM     64  C   UNL     1     -10.519   3.642   0.114  1.00  0.00    -0.003 C 
ATOM     65  C   UNL     1     -10.898   4.735  -0.874  1.00  0.00     0.004 C 
ENDBRANCH  63  64
ENDBRANCH  62  63
ENDBRANCH  61  62
ENDBRANCH  58  61
ENDBRANCH  56  57
BRANCH  56  66
ATOM     66  C   UNL     1      -5.665   2.858   5.947  1.00  0.00     0.157 C 
BRANCH  66  67
ATOM     67  C   UNL     1      -5.348   4.204   5.362  1.00  0.00     0.305 C 
ATOM     68  O   UNL     1      -4.430   4.476   4.604  1.00  0.00    -0.252 OA
BRANCH  67  69
ATOM     69  O   UNL     1      -6.245   5.143   5.722  1.00  0.00    -0.481 OA
ATOM     70  H   UNL     1      -5.830   5.606   6.480  1.00  0.00     0.296 HD
ENDBRANCH  67  69
ENDBRANCH  66  67
ENDBRANCH  56  66
ENDBRANCH  53  56
ENDBRANCH  50  52
ENDBRANCH  47  50
ENDBRANCH  45  46
BRANCH  45  71
ATOM     71  C   UNL     1      -2.753   4.396   1.054  1.00  0.00     0.037 C 
BRANCH  71  72
ATOM     72  C   UNL     1      -2.020   4.663  -0.264  1.00  0.00     0.026 C 
BRANCH  72  73
ATOM     73  C   UNL     1      -0.508   4.729  -0.060  1.00  0.00     0.146 C 
BRANCH  73  74
ATOM     74  N   UNL     1       0.091   3.622  -0.798  1.00  0.00    -0.254 NA
ATOM     75  C   UNL     1       0.457   2.588  -0.134  1.00  0.00     0.185 C 
ATOM     76  N   UNL     1       1.011   1.552  -0.784  1.00  0.00    -0.370 N 
ATOM     77  N   UNL     1       0.371   2.359   1.188  1.00  0.00    -0.370 N 
ATOM     78  H   UNL     1       1.120   1.645  -1.784  1.00  0.00     0.159 HD
ATOM     79  H   UNL     1       1.450   0.777  -0.320  1.00  0.00     0.159 HD
ATOM     80  H   UNL     1      -0.029   3.051   1.804  1.00  0.00     0.159 HD
ATOM     81  H   UNL     1       0.586   1.459   1.584  1.00  0.00     0.159 HD
ENDBRANCH  73  74
ENDBRANCH  72  73
ENDBRANCH  71  72
ENDBRANCH  45  71
ENDBRANCH   3  45
TORSDOF 20
ENDMDL
MODEL 47
REMARK VINA RESULT:    -5.500      5.269     15.285
REMARK INTER + INTRA:         -23.756
REMARK INTER:                 -18.144
REMARK INTRA:                  -5.613
REMARK UNBOUND:                -7.967
REMARK SMILES CCCCCC(=O)N[C@H](CC(=O)O)C(=O)N[C@H]1C(=O)N[C@H](CCCN=C(N)N)C(=O)N[C@@H]2CC[C@H](O)N(C2=O)[C@@H](CC(C)C)C(=O)N(C)[C@@H](Cc2ccccc2)C(=O)N[C@H](C(C)C)C(=O)O[C@@H]1C
REMARK SMILES IDX 30 1 31 2 29 3 32 5 35 6 37 7 34 8 38 9 33 10 39 11 36 12
REMARK SMILES IDX 40 14 41 15 42 16 43 17 44 18 45 19 46 20 47 21 48 22 49 23
REMARK SMILES IDX 50 24 51 25 52 26 56 27 53 28 55 29 54 30 57 31 58 32 59 33
REMARK SMILES IDX 60 35 61 36 62 37 63 38 64 39 65 40 66 41 67 42 68 43 21 45
REMARK SMILES IDX 20 46 18 47 19 48 17 50 16 52 14 53 15 54 9 56 8 57 6 58
REMARK SMILES IDX 7 59 5 61 4 62 3 63 2 64 1 65 10 66 11 67 12 68 13 69 22 71
REMARK SMILES IDX 23 72 24 73 25 74 26 75 27 76 28 77
REMARK H PARENT 31 4 36 13 59 34 20 49 16 55 8 60 13 70 27 78 27 79 28 80
REMARK H PARENT 28 81
REMARK Flexibility Score:  259.900
ROOT
ATOM      1  O   UNL     1     -11.586   5.739  -9.661  1.00  0.00    -0.273 OA
ATOM      2  N   UNL     1     -11.752   3.532  -9.082  1.00  0.00    -0.343 N 
ATOM      3  C   UNL     1     -12.286   4.745  -9.460  1.00  0.00     0.243 C 
ATOM      4  H   UNL     1     -12.357   2.733  -8.940  1.00  0.00     0.164 HD
ENDROOT
BRANCH   2   5
ATOM      5  C   UNL     1     -10.329   3.407  -8.787  1.00  0.00     0.171 C 
ATOM      6  C   UNL     1      -8.784   1.399  -7.377  1.00  0.00     0.214 C 
ATOM      7  N   UNL     1      -9.310   2.530  -6.650  1.00  0.00    -0.303 N 
ATOM      8  C   UNL     1      -8.473   1.711  -8.833  1.00  0.00     0.057 C 
ATOM      9  C   UNL     1     -10.098   3.498  -7.252  1.00  0.00     0.247 C 
ATOM     10  C   UNL     1      -9.718   2.217  -9.526  1.00  0.00     0.040 C 
ATOM     11  O   UNL     1     -10.617   4.418  -6.605  1.00  0.00    -0.272 OA
BRANCH   6  12
ATOM     12  O   UNL     1      -9.726   0.355  -7.288  1.00  0.00    -0.373 OA
ATOM     13  H   UNL     1     -10.536   0.658  -7.752  1.00  0.00     0.213 HD
ENDBRANCH   6  12
BRANCH   7  14
ATOM     14  C   UNL     1      -9.098   2.545  -5.187  1.00  0.00     0.177 C 
BRANCH  14  15
ATOM     15  C   UNL     1     -10.325   2.150  -4.342  1.00  0.00     0.038 C 
BRANCH  15  16
ATOM     16  C   UNL     1     -10.892   3.151  -3.311  1.00  0.00    -0.015 C 
ATOM     17  C   UNL     1     -12.340   3.546  -3.615  1.00  0.00     0.007 C 
ATOM     18  C   UNL     1     -10.038   4.425  -3.301  1.00  0.00     0.007 C 
ENDBRANCH  15  16
ENDBRANCH  14  15
BRANCH  14  19
ATOM     19  C   UNL     1      -7.611   2.183  -4.850  1.00  0.00     0.245 C 
ATOM     20  O   UNL     1      -7.408   1.071  -4.335  1.00  0.00    -0.272 OA
BRANCH  19  21
ATOM     21  N   UNL     1      -6.552   3.063  -4.990  1.00  0.00    -0.332 N 
ATOM     22  C   UNL     1      -6.667   4.503  -5.135  1.00  0.00     0.147 C 
BRANCH  21  23
ATOM     23  C   UNL     1      -5.175   2.498  -5.006  1.00  0.00     0.178 C 
BRANCH  23  24
ATOM     24  C   UNL     1      -4.281   3.007  -6.155  1.00  0.00     0.070 C 
BRANCH  24  25
ATOM     25  C   UNL     1      -4.125   2.103  -7.356  1.00  0.00    -0.045 A 
ATOM     26  C   UNL     1      -5.041   1.073  -7.604  1.00  0.00     0.004 A 
ATOM     27  C   UNL     1      -3.051   2.283  -8.242  1.00  0.00     0.004 A 
ATOM     28  C   UNL     1      -4.879   0.232  -8.707  1.00  0.00     0.000 A 
ATOM     29  C   UNL     1      -2.892   1.442  -9.344  1.00  0.00     0.000 A 
ATOM     30  C   UNL     1      -3.805   0.415  -9.574  1.00  0.00     0.000 A 
ENDBRANCH  24  25
ENDBRANCH  23  24
BRANCH  23  31
ATOM     31  C   UNL     1      -4.505   2.500  -3.610  1.00  0.00     0.243 C 
ATOM     32  O   UNL     1      -4.732   1.666  -2.738  1.00  0.00    -0.273 OA
ATOM     33  N   UNL     1      -3.759   3.639  -3.357  1.00  0.00    -0.341 N 
ATOM     34  H   UNL     1      -3.609   4.301  -4.122  1.00  0.00     0.164 HD
BRANCH  33  35
ATOM     35  C   UNL     1      -3.133   3.911  -2.060  1.00  0.00     0.194 C 
BRANCH  35  36
ATOM     36  C   UNL     1      -4.023   4.736  -1.087  1.00  0.00     0.017 C 
ATOM     37  C   UNL     1      -4.598   3.851   0.032  1.00  0.00     0.010 C 
ATOM     38  C   UNL     1      -5.204   5.422  -1.783  1.00  0.00     0.010 C 
ENDBRANCH  35  36
BRANCH  35  39
ATOM     39  C   UNL     1      -1.709   4.517  -2.199  1.00  0.00     0.329 C 
ATOM     40  O   UNL     1      -1.092   4.585  -3.256  1.00  0.00    -0.250 OA
BRANCH  39  41
ATOM     41  O   UNL     1      -1.252   5.047  -1.024  1.00  0.00    -0.458 OA
BRANCH  41  42
ATOM     42  C   UNL     1      -0.009   4.504  -0.517  1.00  0.00     0.205 CG0
ATOM     43  C   UNL     1      -0.314   3.115   0.040  1.00  0.00     0.056 C 
ATOM     44  G   UNL     1       0.543   5.462   0.558  1.00  0.00     0.000 G0
ENDBRANCH  41  42
ENDBRANCH  39  41
ENDBRANCH  35  39
ENDBRANCH  33  35
ENDBRANCH  23  31
ENDBRANCH  21  23
ENDBRANCH  19  21
ENDBRANCH  14  19
ENDBRANCH   7  14
ENDBRANCH   2   5
BRANCH   3  45
ATOM     45  C   UNL     1     -13.810   4.767  -9.633  1.00  0.00     0.171 C 
BRANCH  45  46
ATOM     46  N   UNL     1     -14.050   5.354 -10.945  1.00  0.00    -0.342 N 
ATOM     47  C   UNL     1     -14.203   4.591 -12.075  1.00  0.00     0.247 C 
ATOM     48  O   UNL     1     -14.222   3.360 -12.053  1.00  0.00    -0.273 OA
ATOM     49  H   UNL     1     -14.097   6.369 -10.999  1.00  0.00     0.164 HD
BRANCH  47  50
ATOM     50  C   UNL     1     -14.321   5.385 -13.384  1.00  0.00     0.212 CG0
ATOM     51  G   UNL     1     -15.812   5.716 -13.596  1.00  0.00     0.000 G0
BRANCH  50  52
ATOM     52  N   UNL     1     -13.488   6.570 -13.198  1.00  0.00    -0.339 N 
ATOM     53  C   UNL     1     -12.196   6.665 -13.656  1.00  0.00     0.243 C 
ATOM     54  O   UNL     1     -11.622   5.734 -14.214  1.00  0.00    -0.273 OA
ATOM     55  H   UNL     1     -13.870   7.334 -12.644  1.00  0.00     0.164 HD
BRANCH  53  56
ATOM     56  C   UNL     1     -11.487   7.977 -13.265  1.00  0.00     0.182 C 
BRANCH  56  57
ATOM     57  N   UNL     1     -12.203   8.661 -12.184  1.00  0.00    -0.344 N 
ATOM     58  C   UNL     1     -11.565   9.144 -11.068  1.00  0.00     0.220 C 
ATOM     59  O   UNL     1     -10.368   8.973 -10.862  1.00  0.00    -0.275 OA
ATOM     60  H   UNL     1     -13.173   8.912 -12.361  1.00  0.00     0.164 HD
BRANCH  58  61
ATOM     61  C   UNL     1     -12.493   9.867 -10.109  1.00  0.00     0.100 C 
BRANCH  61  62
ATOM     62  C   UNL     1     -13.685  10.536 -10.793  1.00  0.00     0.010 C 
BRANCH  62  63
ATOM     63  C   UNL     1     -14.016  11.933 -10.252  1.00  0.00     0.000 C 
BRANCH  63  64
ATOM     64  C   UNL     1     -13.102  12.400  -9.121  1.00  0.00    -0.003 C 
ATOM     65  C   UNL     1     -13.837  13.318  -8.155  1.00  0.00     0.004 C 
ENDBRANCH  63  64
ENDBRANCH  62  63
ENDBRANCH  61  62
ENDBRANCH  58  61
ENDBRANCH  56  57
BRANCH  56  66
ATOM     66  C   UNL     1     -11.273   8.881 -14.478  1.00  0.00     0.157 C 
BRANCH  66  67
ATOM     67  C   UNL     1      -9.969   9.619 -14.383  1.00  0.00     0.305 C 
ATOM     68  O   UNL     1      -9.669  10.653 -14.961  1.00  0.00    -0.252 OA
BRANCH  67  69
ATOM     69  O   UNL     1      -9.116   9.042 -13.516  1.00  0.00    -0.481 OA
ATOM     70  H   UNL     1      -9.095   9.649 -12.745  1.00  0.00     0.296 HD
ENDBRANCH  67  69
ENDBRANCH  66  67
ENDBRANCH  56  66
ENDBRANCH  53  56
ENDBRANCH  50  52
ENDBRANCH  47  50
ENDBRANCH  45  46
BRANCH  45  71
ATOM     71  C   UNL     1     -14.463   5.592  -8.517  1.00  0.00     0.037 C 
BRANCH  71  72
ATOM     72  C   UNL     1     -15.910   5.166  -8.258  1.00  0.00     0.026 C 
BRANCH  72  73
ATOM     73  C   UNL     1     -16.074   3.651  -8.356  1.00  0.00     0.146 C 
BRANCH  73  74
ATOM     74  N   UNL     1     -16.345   3.142  -7.015  1.00  0.00    -0.254 NA
ATOM     75  C   UNL     1     -15.384   2.575  -6.384  1.00  0.00     0.185 C 
ATOM     76  N   UNL     1     -15.601   2.098  -5.148  1.00  0.00    -0.370 N 
ATOM     77  N   UNL     1     -14.117   2.367  -6.784  1.00  0.00    -0.370 N 
ATOM     78  H   UNL     1     -16.533   2.206  -4.773  1.00  0.00     0.159 HD
ATOM     79  H   UNL     1     -14.945   1.518  -4.655  1.00  0.00     0.159 HD
ATOM     80  H   UNL     1     -13.808   2.677  -7.693  1.00  0.00     0.159 HD
ATOM     81  H   UNL     1     -13.416   2.012  -6.155  1.00  0.00     0.159 HD
ENDBRANCH  73  74
ENDBRANCH  72  73
ENDBRANCH  71  72
ENDBRANCH  45  71
ENDBRANCH   3  45
TORSDOF 20
ENDMDL
MODEL 48
REMARK VINA RESULT:    -5.499      3.438     12.539
REMARK INTER + INTRA:         -23.753
REMARK INTER:                 -17.277
REMARK INTRA:                  -6.476
REMARK UNBOUND:                -7.967
REMARK SMILES CCCCCC(=O)N[C@H](CC(=O)O)C(=O)N[C@H]1C(=O)N[C@H](CCCN=C(N)N)C(=O)N[C@@H]2CC[C@H](O)N(C2=O)[C@@H](CC(C)C)C(=O)N(C)[C@@H](Cc2ccccc2)C(=O)N[C@H](C(C)C)C(=O)O[C@@H]1C
REMARK SMILES IDX 30 1 31 2 29 3 32 5 35 6 37 7 34 8 38 9 33 10 39 11 36 12
REMARK SMILES IDX 40 14 41 15 42 16 43 17 44 18 45 19 46 20 47 21 48 22 49 23
REMARK SMILES IDX 50 24 51 25 52 26 56 27 53 28 55 29 54 30 57 31 58 32 59 33
REMARK SMILES IDX 60 35 61 36 62 37 63 38 64 39 65 40 66 41 67 42 68 43 21 45
REMARK SMILES IDX 20 46 18 47 19 48 17 50 16 52 14 53 15 54 9 56 8 57 6 58
REMARK SMILES IDX 7 59 5 61 4 62 3 63 2 64 1 65 10 66 11 67 12 68 13 69 22 71
REMARK SMILES IDX 23 72 24 73 25 74 26 75 27 76 28 77
REMARK H PARENT 31 4 36 13 59 34 20 49 16 55 8 60 13 70 27 78 27 79 28 80
REMARK H PARENT 28 81
REMARK Flexibility Score:  259.900
ROOT
ATOM      1  O   UNL     1      -8.620   0.981  -5.537  1.00  0.00    -0.273 OA
ATOM      2  N   UNL     1      -8.933   3.207  -5.958  1.00  0.00    -0.343 N 
ATOM      3  C   UNL     1      -9.285   1.878  -6.056  1.00  0.00     0.243 C 
ATOM      4  H   UNL     1      -9.512   3.920  -6.385  1.00  0.00     0.164 HD
ENDROOT
BRANCH   2   5
ATOM      5  C   UNL     1      -7.677   3.598  -5.327  1.00  0.00     0.171 C 
ATOM      6  C   UNL     1      -5.715   2.127  -3.780  1.00  0.00     0.214 C 
ATOM      7  N   UNL     1      -6.802   2.793  -3.100  1.00  0.00    -0.303 N 
ATOM      8  C   UNL     1      -5.301   2.816  -5.070  1.00  0.00     0.057 C 
ATOM      9  C   UNL     1      -7.801   3.469  -3.781  1.00  0.00     0.247 C 
ATOM     10  C   UNL     1      -6.488   2.916  -6.002  1.00  0.00     0.040 C 
ATOM     11  O   UNL     1      -8.775   3.963  -3.198  1.00  0.00    -0.272 OA
BRANCH   6  12
ATOM     12  O   UNL     1      -6.116   0.801  -4.036  1.00  0.00    -0.373 OA
ATOM     13  H   UNL     1      -6.899   0.624  -3.474  1.00  0.00     0.213 HD
ENDBRANCH   6  12
BRANCH   7  14
ATOM     14  C   UNL     1      -6.895   2.602  -1.637  1.00  0.00     0.177 C 
BRANCH  14  15
ATOM     15  C   UNL     1      -7.802   1.441  -1.183  1.00  0.00     0.038 C 
BRANCH  15  16
ATOM     16  C   UNL     1      -7.186   0.047  -0.934  1.00  0.00    -0.015 C 
ATOM     17  C   UNL     1      -7.750  -1.018  -1.880  1.00  0.00     0.007 C 
ATOM     18  C   UNL     1      -7.467  -0.394   0.508  1.00  0.00     0.007 C 
ENDBRANCH  15  16
ENDBRANCH  14  15
BRANCH  14  19
ATOM     19  C   UNL     1      -5.553   3.028  -0.947  1.00  0.00     0.245 C 
ATOM     20  O   UNL     1      -4.809   3.786  -1.591  1.00  0.00    -0.272 OA
BRANCH  19  21
ATOM     21  N   UNL     1      -5.115   2.523   0.265  1.00  0.00    -0.332 N 
ATOM     22  C   UNL     1      -4.267   1.357   0.436  1.00  0.00     0.147 C 
BRANCH  21  23
ATOM     23  C   UNL     1      -5.552   3.219   1.507  1.00  0.00     0.178 C 
BRANCH  23  24
ATOM     24  C   UNL     1      -6.815   2.629   2.167  1.00  0.00     0.070 C 
BRANCH  24  25
ATOM     25  C   UNL     1      -8.140   3.260   1.805  1.00  0.00    -0.045 A 
ATOM     26  C   UNL     1      -9.346   2.601   2.074  1.00  0.00     0.004 A 
ATOM     27  C   UNL     1      -8.178   4.519   1.188  1.00  0.00     0.004 A 
ATOM     28  C   UNL     1     -10.565   3.183   1.721  1.00  0.00     0.000 A 
ATOM     29  C   UNL     1      -9.398   5.101   0.837  1.00  0.00     0.000 A 
ATOM     30  C   UNL     1     -10.590   4.430   1.101  1.00  0.00     0.000 A 
ENDBRANCH  24  25
ENDBRANCH  23  24
BRANCH  23  31
ATOM     31  C   UNL     1      -4.384   3.510   2.479  1.00  0.00     0.243 C 
ATOM     32  O   UNL     1      -3.418   4.216   2.200  1.00  0.00    -0.273 OA
ATOM     33  N   UNL     1      -4.426   2.752   3.637  1.00  0.00    -0.341 N 
ATOM     34  H   UNL     1      -5.255   2.178   3.811  1.00  0.00     0.164 HD
BRANCH  33  35
ATOM     35  C   UNL     1      -3.363   2.773   4.645  1.00  0.00     0.194 C 
BRANCH  35  36
ATOM     36  C   UNL     1      -2.741   1.380   4.942  1.00  0.00     0.017 C 
ATOM     37  C   UNL     1      -1.241   1.353   4.604  1.00  0.00     0.010 C 
ATOM     38  C   UNL     1      -3.408   0.241   4.160  1.00  0.00     0.010 C 
ENDBRANCH  35  36
BRANCH  35  39
ATOM     39  C   UNL     1      -3.788   3.508   5.947  1.00  0.00     0.329 C 
ATOM     40  O   UNL     1      -4.788   3.228   6.597  1.00  0.00    -0.250 OA
BRANCH  39  41
ATOM     41  O   UNL     1      -2.874   4.448   6.336  1.00  0.00    -0.458 OA
BRANCH  41  42
ATOM     42  C   UNL     1      -2.378   4.337   7.691  1.00  0.00     0.205 CG0
ATOM     43  C   UNL     1      -1.042   3.601   7.627  1.00  0.00     0.056 C 
ATOM     44  G   UNL     1      -3.425   3.587   8.538  1.00  0.00     0.000 G0
ENDBRANCH  41  42
ENDBRANCH  39  41
ENDBRANCH  35  39
ENDBRANCH  33  35
ENDBRANCH  23  31
ENDBRANCH  21  23
ENDBRANCH  19  21
ENDBRANCH  14  19
ENDBRANCH   7  14
ENDBRANCH   2   5
BRANCH   3  45
ATOM     45  C   UNL     1     -10.575   1.596  -6.838  1.00  0.00     0.171 C 
BRANCH  45  46
ATOM     46  N   UNL     1     -10.265   1.896  -8.230  1.00  0.00    -0.342 N 
ATOM     47  C   UNL     1     -10.787   1.174  -9.273  1.00  0.00     0.247 C 
ATOM     48  O   UNL     1     -11.609   0.270  -9.114  1.00  0.00    -0.273 OA
ATOM     49  H   UNL     1      -9.631   2.673  -8.409  1.00  0.00     0.164 HD
BRANCH  47  50
ATOM     50  C   UNL     1     -10.251   1.554 -10.660  1.00  0.00     0.212 CG0
ATOM     51  G   UNL     1     -11.015   2.808 -11.129  1.00  0.00     0.000 G0
BRANCH  50  52
ATOM     52  N   UNL     1      -8.821   1.785 -10.475  1.00  0.00    -0.339 N 
ATOM     53  C   UNL     1      -7.851   1.144 -11.207  1.00  0.00     0.243 C 
ATOM     54  O   UNL     1      -8.112   0.282 -12.042  1.00  0.00    -0.273 OA
ATOM     55  H   UNL     1      -8.536   2.406  -9.721  1.00  0.00     0.164 HD
BRANCH  53  56
ATOM     56  C   UNL     1      -6.410   1.485 -10.775  1.00  0.00     0.182 C 
BRANCH  56  57
ATOM     57  N   UNL     1      -5.444   0.576 -11.398  1.00  0.00    -0.344 N 
ATOM     58  C   UNL     1      -4.377   1.028 -12.136  1.00  0.00     0.220 C 
ATOM     59  O   UNL     1      -4.199   2.216 -12.385  1.00  0.00    -0.275 OA
ATOM     60  H   UNL     1      -5.496  -0.404 -11.133  1.00  0.00     0.164 HD
BRANCH  58  61
ATOM     61  C   UNL     1      -3.476  -0.085 -12.636  1.00  0.00     0.100 C 
BRANCH  61  62
ATOM     62  C   UNL     1      -2.123  -0.149 -11.927  1.00  0.00     0.010 C 
BRANCH  62  63
ATOM     63  C   UNL     1      -2.217  -0.138 -10.395  1.00  0.00     0.000 C 
BRANCH  63  64
ATOM     64  C   UNL     1      -1.566   1.077  -9.737  1.00  0.00    -0.003 C 
ATOM     65  C   UNL     1      -2.586   1.906  -8.970  1.00  0.00     0.004 C 
ENDBRANCH  63  64
ENDBRANCH  62  63
ENDBRANCH  61  62
ENDBRANCH  58  61
ENDBRANCH  56  57
BRANCH  56  66
ATOM     66  C   UNL     1      -6.275   1.515  -9.253  1.00  0.00     0.157 C 
BRANCH  66  67
ATOM     67  C   UNL     1      -6.466   0.148  -8.663  1.00  0.00     0.305 C 
ATOM     68  O   UNL     1      -7.527  -0.379  -8.364  1.00  0.00    -0.252 OA
BRANCH  67  69
ATOM     69  O   UNL     1      -5.303  -0.516  -8.523  1.00  0.00    -0.481 OA
ATOM     70  H   UNL     1      -5.510  -1.440  -8.779  1.00  0.00     0.296 HD
ENDBRANCH  67  69
ENDBRANCH  66  67
ENDBRANCH  56  66
ENDBRANCH  53  56
ENDBRANCH  50  52
ENDBRANCH  47  50
ENDBRANCH  45  46
BRANCH  45  71
ATOM     71  C   UNL     1     -11.719   2.470  -6.313  1.00  0.00     0.037 C 
BRANCH  71  72
ATOM     72  C   UNL     1     -12.994   1.660  -6.063  1.00  0.00     0.026 C 
BRANCH  72  73
ATOM     73  C   UNL     1     -12.677   0.279  -5.492  1.00  0.00     0.146 C 
BRANCH  73  74
ATOM     74  N   UNL     1     -12.549   0.413  -4.044  1.00  0.00    -0.254 NA
ATOM     75  C   UNL     1     -11.524  -0.114  -3.482  1.00  0.00     0.185 C 
ATOM     76  N   UNL     1     -11.377  -0.006  -2.151  1.00  0.00    -0.370 N 
ATOM     77  N   UNL     1     -10.510  -0.796  -4.043  1.00  0.00    -0.370 N 
ATOM     78  H   UNL     1     -12.102   0.488  -1.650  1.00  0.00     0.159 HD
ATOM     79  H   UNL     1     -10.684  -0.511  -1.628  1.00  0.00     0.159 HD
ATOM     80  H   UNL     1     -10.485  -0.952  -5.039  1.00  0.00     0.159 HD
ATOM     81  H   UNL     1      -9.697  -1.064  -3.513  1.00  0.00     0.159 HD
ENDBRANCH  73  74
ENDBRANCH  72  73
ENDBRANCH  71  72
ENDBRANCH  45  71
ENDBRANCH   3  45
TORSDOF 20
ENDMDL
MODEL 49
REMARK VINA RESULT:    -5.484      4.960      9.916
REMARK INTER + INTRA:         -23.710
REMARK INTER:                 -18.156
REMARK INTRA:                  -5.554
REMARK UNBOUND:                -7.967
REMARK SMILES CCCCCC(=O)N[C@H](CC(=O)O)C(=O)N[C@H]1C(=O)N[C@H](CCCN=C(N)N)C(=O)N[C@@H]2CC[C@H](O)N(C2=O)[C@@H](CC(C)C)C(=O)N(C)[C@@H](Cc2ccccc2)C(=O)N[C@H](C(C)C)C(=O)O[C@@H]1C
REMARK SMILES IDX 30 1 31 2 29 3 32 5 35 6 37 7 34 8 38 9 33 10 39 11 36 12
REMARK SMILES IDX 40 14 41 15 42 16 43 17 44 18 45 19 46 20 47 21 48 22 49 23
REMARK SMILES IDX 50 24 51 25 52 26 56 27 53 28 55 29 54 30 57 31 58 32 59 33
REMARK SMILES IDX 60 35 61 36 62 37 63 38 64 39 65 40 66 41 67 42 68 43 21 45
REMARK SMILES IDX 20 46 18 47 19 48 17 50 16 52 14 53 15 54 9 56 8 57 6 58
REMARK SMILES IDX 7 59 5 61 4 62 3 63 2 64 1 65 10 66 11 67 12 68 13 69 22 71
REMARK SMILES IDX 23 72 24 73 25 74 26 75 27 76 28 77
REMARK H PARENT 31 4 36 13 59 34 20 49 16 55 8 60 13 70 27 78 27 79 28 80
REMARK H PARENT 28 81
REMARK Flexibility Score:  259.900
ROOT
ATOM      1  O   UNL     1     -10.165   0.890  -0.648  1.00  0.00    -0.273 OA
ATOM      2  N   UNL     1     -10.736   1.154  -2.847  1.00  0.00    -0.343 N 
ATOM      3  C   UNL     1      -9.848   1.210  -1.794  1.00  0.00     0.243 C 
ATOM      4  H   UNL     1     -10.435   1.411  -3.779  1.00  0.00     0.164 HD
ENDROOT
BRANCH   2   5
ATOM      5  C   UNL     1     -12.138   0.823  -2.619  1.00  0.00     0.171 C 
ATOM      6  C   UNL     1     -14.225  -0.190  -4.358  1.00  0.00     0.214 C 
ATOM      7  N   UNL     1     -14.055   1.237  -4.208  1.00  0.00    -0.303 N 
ATOM      8  C   UNL     1     -13.821  -0.977  -3.121  1.00  0.00     0.057 C 
ATOM      9  C   UNL     1     -13.047   1.788  -3.434  1.00  0.00     0.247 C 
ATOM     10  C   UNL     1     -12.379  -0.678  -2.772  1.00  0.00     0.040 C 
ATOM     11  O   UNL     1     -12.854   3.009  -3.380  1.00  0.00    -0.272 OA
BRANCH   6  12
ATOM     12  O   UNL     1     -13.466  -0.599  -5.472  1.00  0.00    -0.373 OA
ATOM     13  H   UNL     1     -13.860  -0.171  -6.261  1.00  0.00     0.213 HD
ENDBRANCH   6  12
BRANCH   7  14
ATOM     14  C   UNL     1     -14.917   2.105  -5.039  1.00  0.00     0.177 C 
BRANCH  14  15
ATOM     15  C   UNL     1     -15.915   2.979  -4.256  1.00  0.00     0.038 C 
BRANCH  15  16
ATOM     16  C   UNL     1     -17.086   2.309  -3.502  1.00  0.00    -0.015 C 
ATOM     17  C   UNL     1     -17.983   1.486  -4.431  1.00  0.00     0.007 C 
ATOM     18  C   UNL     1     -17.949   3.382  -2.827  1.00  0.00     0.007 C 
ENDBRANCH  15  16
ENDBRANCH  14  15
BRANCH  14  19
ATOM     19  C   UNL     1     -14.158   2.538  -6.341  1.00  0.00     0.245 C 
ATOM     20  O   UNL     1     -13.107   1.931  -6.603  1.00  0.00    -0.272 OA
BRANCH  19  21
ATOM     21  N   UNL     1     -14.532   3.611  -7.130  1.00  0.00    -0.332 N 
ATOM     22  C   UNL     1     -13.807   4.863  -7.248  1.00  0.00     0.147 C 
BRANCH  21  23
ATOM     23  C   UNL     1     -15.788   3.489  -7.921  1.00  0.00     0.178 C 
BRANCH  23  24
ATOM     24  C   UNL     1     -16.686   4.743  -7.904  1.00  0.00     0.070 C 
BRANCH  24  25
ATOM     25  C   UNL     1     -17.957   4.668  -7.091  1.00  0.00    -0.045 A 
ATOM     26  C   UNL     1     -18.191   5.564  -6.040  1.00  0.00     0.004 A 
ATOM     27  C   UNL     1     -18.923   3.691  -7.376  1.00  0.00     0.004 A 
ATOM     28  C   UNL     1     -19.361   5.477  -5.283  1.00  0.00     0.000 A 
ATOM     29  C   UNL     1     -20.092   3.606  -6.618  1.00  0.00     0.000 A 
ATOM     30  C   UNL     1     -20.309   4.498  -5.570  1.00  0.00     0.000 A 
ENDBRANCH  24  25
ENDBRANCH  23  24
BRANCH  23  31
ATOM     31  C   UNL     1     -15.562   2.869  -9.320  1.00  0.00     0.243 C 
ATOM     32  O   UNL     1     -14.475   2.460  -9.723  1.00  0.00    -0.273 OA
ATOM     33  N   UNL     1     -16.657   2.982 -10.159  1.00  0.00    -0.341 N 
ATOM     34  H   UNL     1     -17.534   3.336  -9.768  1.00  0.00     0.164 HD
BRANCH  33  35
ATOM     35  C   UNL     1     -16.632   2.572 -11.566  1.00  0.00     0.194 C 
BRANCH  35  36
ATOM     36  C   UNL     1     -16.483   3.751 -12.569  1.00  0.00     0.017 C 
ATOM     37  C   UNL     1     -15.010   3.980 -12.948  1.00  0.00     0.010 C 
ATOM     38  C   UNL     1     -17.029   5.078 -12.027  1.00  0.00     0.010 C 
ENDBRANCH  35  36
BRANCH  35  39
ATOM     39  C   UNL     1     -17.819   1.640 -11.938  1.00  0.00     0.329 C 
ATOM     40  O   UNL     1     -18.336   0.845 -11.163  1.00  0.00    -0.250 OA
BRANCH  39  41
ATOM     41  O   UNL     1     -18.281   1.868 -13.205  1.00  0.00    -0.458 OA
BRANCH  41  42
ATOM     42  C   UNL     1     -19.711   2.046 -13.344  1.00  0.00     0.205 CG0
ATOM     43  C   UNL     1     -20.211   0.974 -14.310  1.00  0.00     0.056 C 
ATOM     44  G   UNL     1     -19.982   3.474 -13.856  1.00  0.00     0.000 G0
ENDBRANCH  41  42
ENDBRANCH  39  41
ENDBRANCH  35  39
ENDBRANCH  33  35
ENDBRANCH  23  31
ENDBRANCH  21  23
ENDBRANCH  19  21
ENDBRANCH  14  19
ENDBRANCH   7  14
ENDBRANCH   2   5
BRANCH   3  45
ATOM     45  C   UNL     1      -8.431   1.676  -2.153  1.00  0.00     0.171 C 
BRANCH  45  46
ATOM     46  N   UNL     1      -7.623   1.433  -0.965  1.00  0.00    -0.342 N 
ATOM     47  C   UNL     1      -6.361   0.899  -1.030  1.00  0.00     0.247 C 
ATOM     48  O   UNL     1      -5.792   0.656  -2.094  1.00  0.00    -0.273 OA
ATOM     49  H   UNL     1      -8.035   1.674  -0.065  1.00  0.00     0.164 HD
BRANCH  47  50
ATOM     50  C   UNL     1      -5.712   0.599   0.329  1.00  0.00     0.212 CG0
ATOM     51  G   UNL     1      -5.200  -0.855   0.291  1.00  0.00     0.000 G0
BRANCH  50  52
ATOM     52  N   UNL     1      -4.643   1.583   0.476  1.00  0.00    -0.339 N 
ATOM     53  C   UNL     1      -3.453   1.317   1.109  1.00  0.00     0.243 C 
ATOM     54  O   UNL     1      -3.216   0.240   1.648  1.00  0.00    -0.273 OA
ATOM     55  H   UNL     1      -4.823   2.529   0.147  1.00  0.00     0.164 HD
BRANCH  53  56
ATOM     56  C   UNL     1      -2.514   2.536   1.218  1.00  0.00     0.182 C 
BRANCH  56  57
ATOM     57  N   UNL     1      -3.224   3.700   1.756  1.00  0.00    -0.344 N 
ATOM     58  C   UNL     1      -3.368   3.917   3.105  1.00  0.00     0.220 C 
ATOM     59  O   UNL     1      -2.978   3.118   3.950  1.00  0.00    -0.275 OA
ATOM     60  H   UNL     1      -3.472   4.434   1.097  1.00  0.00     0.164 HD
BRANCH  58  61
ATOM     61  C   UNL     1      -4.085   5.213   3.433  1.00  0.00     0.100 C 
BRANCH  61  62
ATOM     62  C   UNL     1      -5.174   5.062   4.495  1.00  0.00     0.010 C 
BRANCH  62  63
ATOM     63  C   UNL     1      -6.428   4.325   4.008  1.00  0.00     0.000 C 
BRANCH  63  64
ATOM     64  C   UNL     1      -6.656   2.968   4.672  1.00  0.00    -0.003 C 
ATOM     65  C   UNL     1      -5.913   2.867   5.996  1.00  0.00     0.004 C 
ENDBRANCH  63  64
ENDBRANCH  62  63
ENDBRANCH  61  62
ENDBRANCH  58  61
ENDBRANCH  56  57
BRANCH  56  66
ATOM     66  C   UNL     1      -1.834   2.840  -0.116  1.00  0.00     0.157 C 
BRANCH  66  67
ATOM     67  C   UNL     1      -0.403   2.387  -0.113  1.00  0.00     0.305 C 
ATOM     68  O   UNL     1       0.041   1.358  -0.600  1.00  0.00    -0.252 OA
BRANCH  67  69
ATOM     69  O   UNL     1       0.417   3.286   0.465  1.00  0.00    -0.481 OA
ATOM     70  H   UNL     1       0.529   2.967   1.385  1.00  0.00     0.296 HD
ENDBRANCH  67  69
ENDBRANCH  66  67
ENDBRANCH  56  66
ENDBRANCH  53  56
ENDBRANCH  50  52
ENDBRANCH  47  50
ENDBRANCH  45  46
BRANCH  45  71
ATOM     71  C   UNL     1      -8.439   3.160  -2.538  1.00  0.00     0.037 C 
BRANCH  71  72
ATOM     72  C   UNL     1      -7.474   3.462  -3.687  1.00  0.00     0.026 C 
BRANCH  72  73
ATOM     73  C   UNL     1      -6.257   4.248  -3.205  1.00  0.00     0.146 C 
BRANCH  73  74
ATOM     74  N   UNL     1      -5.062   3.527  -3.632  1.00  0.00    -0.254 NA
ATOM     75  C   UNL     1      -3.923   3.981  -3.258  1.00  0.00     0.185 C 
ATOM     76  N   UNL     1      -2.805   3.339  -3.634  1.00  0.00    -0.370 N 
ATOM     77  N   UNL     1      -3.649   5.060  -2.504  1.00  0.00    -0.370 N 
ATOM     78  H   UNL     1      -2.921   2.518  -4.211  1.00  0.00     0.159 HD
ATOM     79  H   UNL     1      -1.881   3.712  -3.503  1.00  0.00     0.159 HD
ATOM     80  H   UNL     1      -4.394   5.638  -2.146  1.00  0.00     0.159 HD
ATOM     81  H   UNL     1      -2.717   5.254  -2.177  1.00  0.00     0.159 HD
ENDBRANCH  73  74
ENDBRANCH  72  73
ENDBRANCH  71  72
ENDBRANCH  45  71
ENDBRANCH   3  45
TORSDOF 20
ENDMDL
MODEL 50
REMARK VINA RESULT:    -5.381      3.437     14.258
REMARK INTER + INTRA:         -23.415
REMARK INTER:                 -16.545
REMARK INTRA:                  -6.869
REMARK UNBOUND:                -7.967
REMARK SMILES CCCCCC(=O)N[C@H](CC(=O)O)C(=O)N[C@H]1C(=O)N[C@H](CCCN=C(N)N)C(=O)N[C@@H]2CC[C@H](O)N(C2=O)[C@@H](CC(C)C)C(=O)N(C)[C@@H](Cc2ccccc2)C(=O)N[C@H](C(C)C)C(=O)O[C@@H]1C
REMARK SMILES IDX 30 1 31 2 29 3 32 5 35 6 37 7 34 8 38 9 33 10 39 11 36 12
REMARK SMILES IDX 40 14 41 15 42 16 43 17 44 18 45 19 46 20 47 21 48 22 49 23
REMARK SMILES IDX 50 24 51 25 52 26 56 27 53 28 55 29 54 30 57 31 58 32 59 33
REMARK SMILES IDX 60 35 61 36 62 37 63 38 64 39 65 40 66 41 67 42 68 43 21 45
REMARK SMILES IDX 20 46 18 47 19 48 17 50 16 52 14 53 15 54 9 56 8 57 6 58
REMARK SMILES IDX 7 59 5 61 4 62 3 63 2 64 1 65 10 66 11 67 12 68 13 69 22 71
REMARK SMILES IDX 23 72 24 73 25 74 26 75 27 76 28 77
REMARK H PARENT 31 4 36 13 59 34 20 49 16 55 8 60 13 70 27 78 27 79 28 80
REMARK H PARENT 28 81
REMARK Flexibility Score:  259.900
ROOT
ATOM      1  O   UNL     1     -12.422   1.599  -6.424  1.00  0.00    -0.273 OA
ATOM      2  N   UNL     1     -10.770   3.125  -6.843  1.00  0.00    -0.343 N 
ATOM      3  C   UNL     1     -11.666   2.149  -7.226  1.00  0.00     0.243 C 
ATOM      4  H   UNL     1     -10.174   3.566  -7.533  1.00  0.00     0.164 HD
ENDROOT
BRANCH   2   5
ATOM      5  C   UNL     1     -10.598   3.464  -5.435  1.00  0.00     0.171 C 
ATOM      6  C   UNL     1      -8.600   5.016  -4.019  1.00  0.00     0.214 C 
ATOM      7  N   UNL     1      -8.412   3.593  -4.179  1.00  0.00    -0.303 N 
ATOM      8  C   UNL     1     -10.063   5.426  -3.956  1.00  0.00     0.057 C 
ATOM      9  C   UNL     1      -9.301   2.801  -4.888  1.00  0.00     0.247 C 
ATOM     10  C   UNL     1     -10.779   4.963  -5.206  1.00  0.00     0.040 C 
ATOM     11  O   UNL     1      -9.088   1.599  -5.095  1.00  0.00    -0.272 OA
BRANCH   6  12
ATOM     12  O   UNL     1      -7.954   5.659  -5.093  1.00  0.00    -0.373 OA
ATOM     13  H   UNL     1      -6.994   5.656  -4.894  1.00  0.00     0.213 HD
ENDBRANCH   6  12
BRANCH   7  14
ATOM     14  C   UNL     1      -7.143   3.024  -3.678  1.00  0.00     0.177 C 
BRANCH  14  15
ATOM     15  C   UNL     1      -5.865   3.633  -4.287  1.00  0.00     0.038 C 
BRANCH  15  16
ATOM     16  C   UNL     1      -5.025   2.801  -5.282  1.00  0.00    -0.015 C 
ATOM     17  C   UNL     1      -4.971   1.318  -4.904  1.00  0.00     0.007 C 
ATOM     18  C   UNL     1      -3.588   3.339  -5.324  1.00  0.00     0.007 C 
ENDBRANCH  15  16
ENDBRANCH  14  15
BRANCH  14  19
ATOM     19  C   UNL     1      -7.306   2.558  -2.190  1.00  0.00     0.245 C 
ATOM     20  O   UNL     1      -8.188   3.122  -1.521  1.00  0.00    -0.272 OA
BRANCH  19  21
ATOM     21  N   UNL     1      -6.462   1.655  -1.568  1.00  0.00    -0.332 N 
ATOM     22  C   UNL     1      -6.444   0.222  -1.800  1.00  0.00     0.147 C 
BRANCH  21  23
ATOM     23  C   UNL     1      -5.495   2.182  -0.566  1.00  0.00     0.178 C 
BRANCH  23  24
ATOM     24  C   UNL     1      -4.872   3.547  -0.926  1.00  0.00     0.070 C 
BRANCH  24  25
ATOM     25  C   UNL     1      -3.475   3.535  -1.500  1.00  0.00    -0.045 A 
ATOM     26  C   UNL     1      -2.767   2.335  -1.643  1.00  0.00     0.004 A 
ATOM     27  C   UNL     1      -2.863   4.734  -1.897  1.00  0.00     0.004 A 
ATOM     28  C   UNL     1      -1.469   2.335  -2.159  1.00  0.00     0.000 A 
ATOM     29  C   UNL     1      -1.567   4.732  -2.413  1.00  0.00     0.000 A 
ATOM     30  C   UNL     1      -0.870   3.533  -2.541  1.00  0.00     0.000 A 
ENDBRANCH  24  25
ENDBRANCH  23  24
BRANCH  23  31
ATOM     31  C   UNL     1      -6.008   2.063   0.889  1.00  0.00     0.243 C 
ATOM     32  O   UNL     1      -7.083   1.558   1.199  1.00  0.00    -0.273 OA
ATOM     33  N   UNL     1      -5.229   2.747   1.807  1.00  0.00    -0.341 N 
ATOM     34  H   UNL     1      -4.346   3.152   1.488  1.00  0.00     0.164 HD
BRANCH  33  35
ATOM     35  C   UNL     1      -5.587   2.871   3.223  1.00  0.00     0.194 C 
BRANCH  35  36
ATOM     36  C   UNL     1      -5.192   4.233   3.860  1.00  0.00     0.017 C 
ATOM     37  C   UNL     1      -3.845   4.737   3.313  1.00  0.00     0.010 C 
ATOM     38  C   UNL     1      -5.074   4.174   5.388  1.00  0.00     0.010 C 
ENDBRANCH  35  36
BRANCH  35  39
ATOM     39  C   UNL     1      -5.093   1.668   4.073  1.00  0.00     0.329 C 
ATOM     40  O   UNL     1      -5.826   0.967   4.762  1.00  0.00    -0.250 OA
BRANCH  39  41
ATOM     41  O   UNL     1      -3.759   1.421   3.899  1.00  0.00    -0.458 OA
BRANCH  41  42
ATOM     42  C   UNL     1      -3.024   1.014   5.078  1.00  0.00     0.205 CG0
ATOM     43  C   UNL     1      -1.631   1.633   4.981  1.00  0.00     0.056 C 
ATOM     44  G   UNL     1      -2.982  -0.527   5.123  1.00  0.00     0.000 G0
ENDBRANCH  41  42
ENDBRANCH  39  41
ENDBRANCH  35  39
ENDBRANCH  33  35
ENDBRANCH  23  31
ENDBRANCH  21  23
ENDBRANCH  19  21
ENDBRANCH  14  19
ENDBRANCH   7  14
ENDBRANCH   2   5
BRANCH   3  45
ATOM     45  C   UNL     1     -11.671   1.812  -8.722  1.00  0.00     0.171 C 
BRANCH  45  46
ATOM     46  N   UNL     1     -13.017   2.115  -9.190  1.00  0.00    -0.342 N 
ATOM     47  C   UNL     1     -13.258   2.737 -10.389  1.00  0.00     0.247 C 
ATOM     48  O   UNL     1     -12.363   3.018 -11.188  1.00  0.00    -0.273 OA
ATOM     49  H   UNL     1     -13.792   1.849  -8.584  1.00  0.00     0.164 HD
BRANCH  47  50
ATOM     50  C   UNL     1     -14.729   3.087 -10.657  1.00  0.00     0.212 CG0
ATOM     51  G   UNL     1     -15.498   1.763 -10.840  1.00  0.00     0.000 G0
BRANCH  50  52
ATOM     52  N   UNL     1     -15.165   3.851  -9.491  1.00  0.00    -0.339 N 
ATOM     53  C   UNL     1     -16.375   3.656  -8.870  1.00  0.00     0.243 C 
ATOM     54  O   UNL     1     -17.209   2.855  -9.282  1.00  0.00    -0.273 OA
ATOM     55  H   UNL     1     -14.565   4.607  -9.170  1.00  0.00     0.164 HD
BRANCH  53  56
ATOM     56  C   UNL     1     -16.652   4.640  -7.715  1.00  0.00     0.182 C 
BRANCH  56  57
ATOM     57  N   UNL     1     -15.926   4.247  -6.503  1.00  0.00    -0.344 N 
ATOM     58  C   UNL     1     -14.795   4.901  -6.079  1.00  0.00     0.220 C 
ATOM     59  O   UNL     1     -14.273   5.808  -6.719  1.00  0.00    -0.275 OA
ATOM     60  H   UNL     1     -16.379   3.572  -5.893  1.00  0.00     0.164 HD
BRANCH  58  61
ATOM     61  C   UNL     1     -14.244   4.363  -4.771  1.00  0.00     0.100 C 
BRANCH  61  62
ATOM     62  C   UNL     1     -15.290   3.662  -3.904  1.00  0.00     0.010 C 
BRANCH  62  63
ATOM     63  C   UNL     1     -14.703   2.666  -2.895  1.00  0.00     0.000 C 
BRANCH  63  64
ATOM     64  C   UNL     1     -13.266   2.971  -2.477  1.00  0.00    -0.003 C 
ATOM     65  C   UNL     1     -12.343   1.795  -2.762  1.00  0.00     0.004 C 
ENDBRANCH  63  64
ENDBRANCH  62  63
ENDBRANCH  61  62
ENDBRANCH  58  61
ENDBRANCH  56  57
BRANCH  56  66
ATOM     66  C   UNL     1     -18.151   4.799  -7.463  1.00  0.00     0.157 C 
BRANCH  66  67
ATOM     67  C   UNL     1     -18.418   5.304  -6.074  1.00  0.00     0.305 C 
ATOM     68  O   UNL     1     -18.878   4.667  -5.139  1.00  0.00    -0.252 OA
BRANCH  67  69
ATOM     69  O   UNL     1     -18.040   6.586  -5.914  1.00  0.00    -0.481 OA
ATOM     70  H   UNL     1     -18.789   7.012  -5.447  1.00  0.00     0.296 HD
ENDBRANCH  67  69
ENDBRANCH  66  67
ENDBRANCH  56  66
ENDBRANCH  53  56
ENDBRANCH  50  52
ENDBRANCH  47  50
ENDBRANCH  45  46
BRANCH  45  71
ATOM     71  C   UNL     1     -11.316   0.337  -8.938  1.00  0.00     0.037 C 
BRANCH  71  72
ATOM     72  C   UNL     1     -10.460   0.128 -10.190  1.00  0.00     0.026 C 
BRANCH  72  73
ATOM     73  C   UNL     1      -9.232   1.036 -10.187  1.00  0.00     0.146 C 
BRANCH  73  74
ATOM     74  N   UNL     1      -8.059   0.200  -9.950  1.00  0.00    -0.254 NA
ATOM     75  C   UNL     1      -7.520   0.239  -8.788  1.00  0.00     0.185 C 
ATOM     76  N   UNL     1      -6.440  -0.520  -8.539  1.00  0.00    -0.370 N 
ATOM     77  N   UNL     1      -7.884   0.958  -7.711  1.00  0.00    -0.370 N 
ATOM     78  H   UNL     1      -6.096  -1.088  -9.300  1.00  0.00     0.159 HD
ATOM     79  H   UNL     1      -5.883  -0.435  -7.707  1.00  0.00     0.159 HD
ATOM     80  H   UNL     1      -8.683   1.572  -7.750  1.00  0.00     0.159 HD
ATOM     81  H   UNL     1      -7.452   0.819  -6.813  1.00  0.00     0.159 HD
ENDBRANCH  73  74
ENDBRANCH  72  73
ENDBRANCH  71  72
ENDBRANCH  45  71
ENDBRANCH   3  45
TORSDOF 20
ENDMDL
