MODEL 1
REMARK VINA RESULT:    -3.258      0.000      0.000
REMARK INTER + INTRA:          -6.420
REMARK INTER:                  -5.544
REMARK INTRA:                  -0.876
REMARK UNBOUND:                -0.876
REMARK SMILES CC[C@H](C)[C@@H]1NC(=O)[C@H]2CSC(=N2)[C@@H]([C@@H](C)CC)NC(=O)c2csc(n2)CNC(=O)[C@H]2N=C1O[C@@H]2C
REMARK SMILES IDX 27 1 25 2 22 3 26 4 23 5 24 6 20 7 19 8 21 9 14 11 12 12
REMARK SMILES IDX 11 13 10 14 13 15 9 16 15 18 16 19 17 20 18 21 28 22 29 23
REMARK SMILES IDX 30 24 31 26 32 27 35 28 33 29 34 30 36 31 5 32 6 33 7 34
REMARK SMILES IDX 8 35 3 38 4 39 2 40 1 41
REMARK H PARENT 19 10 28 25 6 36
REMARK Flexibility Score:   91.900
ROOT
ATOM      1  C   UNL     1       8.850  12.302 -10.348  1.00  0.00     0.183 C 
ENDROOT
BRANCH   1   2
ATOM      2  C   UNL     1       7.874  11.514 -11.173  1.00  0.00     0.113 A 
ATOM      3  C   UNL     1       6.901   9.756 -12.138  1.00  0.00     0.139 A 
ATOM      4  N   UNL     1       7.832  10.194 -11.194  1.00  0.00    -0.234 NA
ATOM      5  C   UNL     1       6.211  10.769 -12.774  1.00  0.00     0.101 A 
ATOM      6  S   UNL     1       6.749  12.297 -12.206  1.00  0.00    -0.125 S 
BRANCH   3   7
ATOM      7  C   UNL     1       6.751   8.324 -12.409  1.00  0.00     0.271 C 
ATOM      8  N   UNL     1       5.487   7.881 -12.105  1.00  0.00    -0.341 N 
ATOM      9  O   UNL     1       7.657   7.612 -12.824  1.00  0.00    -0.267 OA
ATOM     10  H   UNL     1       4.833   8.597 -11.791  1.00  0.00     0.164 HD
BRANCH   8  11
ATOM     11  C   UNL     1       5.093   6.482 -12.092  1.00  0.00     0.140 C 
BRANCH  11  12
ATOM     12  C   UNL     1       5.421   5.915 -10.707  1.00  0.00     0.091 C 
ATOM     13  S   UNL     1       4.140   5.460  -9.609  1.00  0.00    -0.106 SA
ATOM     14  C   UNL     1       5.335   4.634  -8.537  1.00  0.00     0.113 C 
ATOM     15  N   UNL     1       6.639   5.821 -10.274  1.00  0.00    -0.267 NA
ATOM     16  C   UNL     1       6.645   5.337  -8.858  1.00  0.00     0.205 CG0
ATOM     17  G   UNL     1       6.893   6.498  -7.882  1.00  0.00     0.000 G0
ENDBRANCH  11  12
BRANCH  11  18
ATOM     18  C   UNL     1       3.658   6.227 -12.619  1.00  0.00     0.015 C 
ATOM     19  C   UNL     1       2.949   7.557 -12.906  1.00  0.00     0.010 C 
BRANCH  18  20
ATOM     20  C   UNL     1       3.575   5.272 -13.827  1.00  0.00     0.002 C 
ATOM     21  C   UNL     1       4.030   3.854 -13.498  1.00  0.00     0.004 C 
ENDBRANCH  18  20
ENDBRANCH  11  18
ENDBRANCH   8  11
ENDBRANCH   3   7
ENDBRANCH   1   2
BRANCH   1  22
ATOM     22  N   UNL     1       9.559  11.366  -9.505  1.00  0.00    -0.348 N 
ATOM     23  C   UNL     1      10.920  11.300  -9.386  1.00  0.00     0.249 C 
ATOM     24  O   UNL     1      11.681  12.095  -9.927  1.00  0.00    -0.272 OA
ATOM     25  H   UNL     1       9.023  10.643  -9.025  1.00  0.00     0.163 HD
BRANCH  23  26
ATOM     26  C   UNL     1      11.383  10.166  -8.459  1.00  0.00     0.238 C 
ATOM     27  N   UNL     1      10.343   9.926  -7.420  1.00  0.00    -0.236 NA
ATOM     28  C   UNL     1      11.529   8.848  -9.201  1.00  0.00     0.206 C 
ATOM     29  C   UNL     1       9.866   8.761  -7.740  1.00  0.00     0.208 C 
ATOM     30  O   UNL     1      10.378   8.101  -8.808  1.00  0.00    -0.474 OA
ATOM     31  C   UNL     1      12.774   8.078  -8.784  1.00  0.00     0.056 C 
BRANCH  29  32
ATOM     32  C   UNL     1       8.710   8.037  -7.055  1.00  0.00     0.171 C 
BRANCH  32  33
ATOM     33  N   UNL     1       8.251   6.915  -7.858  1.00  0.00    -0.342 N 
ATOM     34  C   UNL     1       6.936   6.516  -7.890  1.00  0.00     0.246 CG0
ATOM     35  O   UNL     1       6.055   7.057  -7.226  1.00  0.00    -0.273 OA
ATOM     36  H   UNL     1       8.901   6.358  -8.400  1.00  0.00     0.164 HD
ATOM     37  G   UNL     1       6.648   5.347  -8.846  1.00  0.00     0.000 G0
ENDBRANCH  32  33
BRANCH  32  38
ATOM     38  C   UNL     1       9.110   7.615  -5.617  1.00  0.00     0.017 C 
ATOM     39  C   UNL     1       9.997   6.364  -5.662  1.00  0.00     0.010 C 
BRANCH  38  40
ATOM     40  C   UNL     1       9.779   8.757  -4.817  1.00  0.00     0.002 C 
ATOM     41  C   UNL     1      11.194   8.433  -4.357  1.00  0.00     0.004 C 
ENDBRANCH  38  40
ENDBRANCH  32  38
ENDBRANCH  29  32
ENDBRANCH  23  26
ENDBRANCH   1  22
TORSDOF 4
ENDMDL
MODEL 2
REMARK VINA RESULT:    -2.468      3.941      8.142
REMARK INTER + INTRA:          -5.075
REMARK INTER:                  -6.657
REMARK INTRA:                   1.582
REMARK UNBOUND:                -0.876
REMARK SMILES CC[C@H](C)[C@@H]1NC(=O)[C@H]2CSC(=N2)[C@@H]([C@@H](C)CC)NC(=O)c2csc(n2)CNC(=O)[C@H]2N=C1O[C@@H]2C
REMARK SMILES IDX 27 1 25 2 22 3 26 4 23 5 24 6 20 7 19 8 21 9 14 11 12 12
REMARK SMILES IDX 11 13 10 14 13 15 9 16 15 18 16 19 17 20 18 21 28 22 29 23
REMARK SMILES IDX 30 24 31 26 32 27 35 28 33 29 34 30 36 31 5 32 6 33 7 34
REMARK SMILES IDX 8 35 3 38 4 39 2 40 1 41
REMARK H PARENT 19 10 28 25 6 36
REMARK Flexibility Score:   91.900
ROOT
ATOM      1  C   UNL     1       7.787   7.567 -11.072  1.00  0.00     0.183 C 
ENDROOT
BRANCH   1   2
ATOM      2  C   UNL     1       7.426   7.209  -9.658  1.00  0.00     0.113 A 
ATOM      3  C   UNL     1       6.196   6.530  -7.928  1.00  0.00     0.139 A 
ATOM      4  N   UNL     1       6.289   6.630  -9.318  1.00  0.00    -0.234 NA
ATOM      5  C   UNL     1       7.305   6.989  -7.246  1.00  0.00     0.101 A 
ATOM      6  S   UNL     1       8.477   7.580  -8.353  1.00  0.00    -0.125 S 
BRANCH   3   7
ATOM      7  C   UNL     1       4.973   6.010  -7.311  1.00  0.00     0.271 C 
ATOM      8  N   UNL     1       4.761   4.694  -7.641  1.00  0.00    -0.341 N 
ATOM      9  O   UNL     1       4.222   6.683  -6.617  1.00  0.00    -0.267 OA
ATOM     10  H   UNL     1       5.487   4.259  -8.209  1.00  0.00     0.164 HD
BRANCH   8  11
ATOM     11  C   UNL     1       3.543   3.962  -7.335  1.00  0.00     0.140 C 
BRANCH  11  12
ATOM     12  C   UNL     1       3.233   3.048  -8.524  1.00  0.00     0.091 C 
ATOM     13  S   UNL     1       4.391   1.846  -9.044  1.00  0.00    -0.106 SA
ATOM     14  C   UNL     1       3.145   1.088 -10.108  1.00  0.00     0.113 C 
ATOM     15  N   UNL     1       2.152   3.176  -9.226  1.00  0.00    -0.267 NA
ATOM     16  C   UNL     1       2.172   2.223 -10.380  1.00  0.00     0.205 CG0
ATOM     17  G   UNL     1       2.535   2.951 -11.685  1.00  0.00     0.000 G0
ENDBRANCH  11  12
BRANCH  11  18
ATOM     18  C   UNL     1       3.543   3.296  -5.935  1.00  0.00     0.015 C 
ATOM     19  C   UNL     1       2.386   3.838  -5.085  1.00  0.00     0.010 C 
BRANCH  18  20
ATOM     20  C   UNL     1       3.553   1.754  -5.955  1.00  0.00     0.002 C 
ATOM     21  C   UNL     1       3.598   1.141  -4.560  1.00  0.00     0.004 C 
ENDBRANCH  18  20
ENDBRANCH  11  18
ENDBRANCH   8  11
ENDBRANCH   3   7
ENDBRANCH   1   2
BRANCH   1  22
ATOM     22  N   UNL     1       6.552   7.713 -11.809  1.00  0.00    -0.348 N 
ATOM     23  C   UNL     1       5.634   6.716 -12.000  1.00  0.00     0.249 C 
ATOM     24  O   UNL     1       5.730   5.608 -11.485  1.00  0.00    -0.272 OA
ATOM     25  H   UNL     1       6.381   8.591 -12.299  1.00  0.00     0.163 HD
BRANCH  23  26
ATOM     26  C   UNL     1       4.450   7.156 -12.873  1.00  0.00     0.238 C 
ATOM     27  N   UNL     1       3.906   5.973 -13.596  1.00  0.00    -0.236 NA
ATOM     28  C   UNL     1       3.296   7.689 -12.040  1.00  0.00     0.206 C 
ATOM     29  C   UNL     1       2.748   5.788 -13.037  1.00  0.00     0.208 C 
ATOM     30  O   UNL     1       2.340   6.629 -12.054  1.00  0.00    -0.474 OA
ATOM     31  C   UNL     1       2.657   8.928 -12.652  1.00  0.00     0.056 C 
BRANCH  29  32
ATOM     32  C   UNL     1       1.769   4.655 -13.334  1.00  0.00     0.171 C 
BRANCH  32  33
ATOM     33  N   UNL     1       1.572   3.818 -12.162  1.00  0.00    -0.342 N 
ATOM     34  C   UNL     1       2.542   2.968 -11.687  1.00  0.00     0.246 CG0
ATOM     35  O   UNL     1       3.636   2.831 -12.228  1.00  0.00    -0.273 OA
ATOM     36  H   UNL     1       0.685   3.806 -11.670  1.00  0.00     0.164 HD
ATOM     37  G   UNL     1       2.156   2.216 -10.403  1.00  0.00     0.000 G0
ENDBRANCH  32  33
BRANCH  32  38
ATOM     38  C   UNL     1       0.437   5.221 -13.892  1.00  0.00     0.017 C 
ATOM     39  C   UNL     1      -0.674   4.170 -13.771  1.00  0.00     0.010 C 
BRANCH  38  40
ATOM     40  C   UNL     1       0.028   6.559 -13.234  1.00  0.00     0.002 C 
ATOM     41  C   UNL     1      -1.322   7.083 -13.706  1.00  0.00     0.004 C 
ENDBRANCH  38  40
ENDBRANCH  32  38
ENDBRANCH  29  32
ENDBRANCH  23  26
ENDBRANCH   1  22
TORSDOF 4
ENDMDL
MODEL 3
REMARK VINA RESULT:    -2.239      2.192      6.640
REMARK INTER + INTRA:          -4.686
REMARK INTER:                  -5.309
REMARK INTRA:                   0.623
REMARK UNBOUND:                -0.876
REMARK SMILES CC[C@H](C)[C@@H]1NC(=O)[C@H]2CSC(=N2)[C@@H]([C@@H](C)CC)NC(=O)c2csc(n2)CNC(=O)[C@H]2N=C1O[C@@H]2C
REMARK SMILES IDX 27 1 25 2 22 3 26 4 23 5 24 6 20 7 19 8 21 9 14 11 12 12
REMARK SMILES IDX 11 13 10 14 13 15 9 16 15 18 16 19 17 20 18 21 28 22 29 23
REMARK SMILES IDX 30 24 31 26 32 27 35 28 33 29 34 30 36 31 5 32 6 33 7 34
REMARK SMILES IDX 8 35 3 38 4 39 2 40 1 41
REMARK H PARENT 19 10 28 25 6 36
REMARK Flexibility Score:   91.900
ROOT
ATOM      1  C   UNL     1       4.947   9.425 -13.031  1.00  0.00     0.183 C 
ENDROOT
BRANCH   1   2
ATOM      2  C   UNL     1       6.206  10.158 -12.666  1.00  0.00     0.113 A 
ATOM      3  C   UNL     1       7.923  10.869 -11.436  1.00  0.00     0.139 A 
ATOM      4  N   UNL     1       6.864   9.965 -11.538  1.00  0.00    -0.234 NA
ATOM      5  C   UNL     1       8.076  11.697 -12.531  1.00  0.00     0.101 A 
ATOM      6  S   UNL     1       6.865  11.360 -13.700  1.00  0.00    -0.125 S 
BRANCH   3   7
ATOM      7  C   UNL     1       8.738  10.911 -10.220  1.00  0.00     0.271 C 
ATOM      8  N   UNL     1       9.153   9.656  -9.846  1.00  0.00    -0.341 N 
ATOM      9  O   UNL     1       8.984  11.938  -9.600  1.00  0.00    -0.267 OA
ATOM     10  H   UNL     1       8.889   8.899 -10.476  1.00  0.00     0.164 HD
BRANCH   8  11
ATOM     11  C   UNL     1       9.814   9.356  -8.587  1.00  0.00     0.140 C 
BRANCH  11  12
ATOM     12  C   UNL     1       8.909   8.407  -7.795  1.00  0.00     0.091 C 
ATOM     13  S   UNL     1       9.585   7.335  -6.591  1.00  0.00    -0.106 SA
ATOM     14  C   UNL     1       7.927   6.948  -5.988  1.00  0.00     0.113 C 
ATOM     15  N   UNL     1       7.639   8.310  -8.035  1.00  0.00    -0.267 NA
ATOM     16  C   UNL     1       7.037   7.234  -7.187  1.00  0.00     0.205 CG0
ATOM     17  G   UNL     1       6.805   5.955  -8.008  1.00  0.00     0.000 G0
ENDBRANCH  11  12
BRANCH  11  18
ATOM     18  C   UNL     1      11.296   8.926  -8.740  1.00  0.00     0.015 C 
ATOM     19  C   UNL     1      12.186  10.153  -8.981  1.00  0.00     0.010 C 
BRANCH  18  20
ATOM     20  C   UNL     1      11.837   8.054  -7.589  1.00  0.00     0.002 C 
ATOM     21  C   UNL     1      12.812   6.982  -8.062  1.00  0.00     0.004 C 
ENDBRANCH  18  20
ENDBRANCH  11  18
ENDBRANCH   8  11
ENDBRANCH   3   7
ENDBRANCH   1   2
BRANCH   1  22
ATOM     22  N   UNL     1       5.201   8.013 -12.850  1.00  0.00    -0.348 N 
ATOM     23  C   UNL     1       4.266   7.099 -12.447  1.00  0.00     0.249 C 
ATOM     24  O   UNL     1       3.084   7.376 -12.277  1.00  0.00    -0.272 OA
ATOM     25  H   UNL     1       6.158   7.677 -12.944  1.00  0.00     0.163 HD
BRANCH  23  26
ATOM     26  C   UNL     1       4.845   5.685 -12.291  1.00  0.00     0.238 C 
ATOM     27  N   UNL     1       5.569   5.591 -10.992  1.00  0.00    -0.236 NA
ATOM     28  C   UNL     1       3.756   4.628 -12.226  1.00  0.00     0.206 C 
ATOM     29  C   UNL     1       4.821   4.793 -10.291  1.00  0.00     0.208 C 
ATOM     30  O   UNL     1       3.697   4.276 -10.845  1.00  0.00    -0.474 OA
ATOM     31  C   UNL     1       4.102   3.382 -13.031  1.00  0.00     0.056 C 
BRANCH  29  32
ATOM     32  C   UNL     1       5.041   4.393  -8.835  1.00  0.00     0.171 C 
BRANCH  32  33
ATOM     33  N   UNL     1       5.475   5.534  -8.043  1.00  0.00    -0.342 N 
ATOM     34  C   UNL     1       6.777   5.973  -8.028  1.00  0.00     0.246 CG0
ATOM     35  O   UNL     1       7.677   5.424  -8.660  1.00  0.00    -0.273 OA
ATOM     36  H   UNL     1       4.829   6.028  -7.437  1.00  0.00     0.164 HD
ATOM     37  G   UNL     1       7.016   7.228  -7.174  1.00  0.00     0.000 G0
ENDBRANCH  32  33
BRANCH  32  38
ATOM     38  C   UNL     1       3.768   3.719  -8.258  1.00  0.00     0.017 C 
ATOM     39  C   UNL     1       3.831   2.202  -8.475  1.00  0.00     0.010 C 
BRANCH  38  40
ATOM     40  C   UNL     1       3.519   4.072  -6.774  1.00  0.00     0.002 C 
ATOM     41  C   UNL     1       3.237   2.858  -5.898  1.00  0.00     0.004 C 
ENDBRANCH  38  40
ENDBRANCH  32  38
ENDBRANCH  29  32
ENDBRANCH  23  26
ENDBRANCH   1  22
TORSDOF 4
ENDMDL
