MODEL 1
REMARK VINA RESULT:    12.990      0.000      0.000
REMARK INTER + INTRA:          26.755
REMARK INTER:                  23.241
REMARK INTRA:                   3.514
REMARK UNBOUND:                 3.514
REMARK SMILES CC[C@H](C)[C@H]1NC(=O)c2coc(n2)[C@H](C(C)C)NC(=O)[C@H]([C@@H](C)O)NC(=O)[C@H](C)NC(=O)c2csc1n2
REMARK SMILES IDX 11 1 13 2 12 3 9 4 10 5 7 6 6 7 8 8 5 10 36 11 35 12 34 13
REMARK SMILES IDX 37 14 33 15 31 16 32 17 30 18 28 20 29 21 3 23 4 24 2 25
REMARK SMILES IDX 1 26 14 27 18 28 19 29 20 30 21 32 25 33 26 34 27 35 22 38
REMARK SMILES IDX 23 39 24 40 15 42 16 43 17 44
REMARK H PARENT 6 9 30 19 18 31 25 36 24 41
REMARK Flexibility Score:   94.900
ROOT
ATOM      1  O   UNL     1       4.906  -3.975  -8.051  1.00  0.00    -0.446 OA
ATOM      2  N   UNL     1       6.649  -5.398  -8.184  1.00  0.00    -0.207 NA
ATOM      3  C   UNL     1       5.943  -4.596  -7.407  1.00  0.00     0.217 A 
ATOM      4  C   UNL     1       6.020  -5.320  -9.414  1.00  0.00     0.167 A 
ATOM      5  C   UNL     1       4.959  -4.452  -9.327  1.00  0.00     0.231 A 
ENDROOT
BRANCH   4   6
ATOM      6  C   UNL     1       6.478  -6.043 -10.588  1.00  0.00     0.273 C 
ATOM      7  N   UNL     1       6.793  -7.345 -10.293  1.00  0.00    -0.341 N 
ATOM      8  O   UNL     1       6.591  -5.534 -11.696  1.00  0.00    -0.267 OA
ATOM      9  H   UNL     1       6.737  -7.601  -9.311  1.00  0.00     0.164 HD
BRANCH   7  10
ATOM     10  C   UNL     1       7.502  -8.215 -11.210  1.00  0.00     0.145 C 
BRANCH  10  11
ATOM     11  C   UNL     1       8.934  -7.709 -11.310  1.00  0.00     0.116 A 
ATOM     12  S   UNL     1       9.828  -7.957 -12.763  1.00  0.00    -0.124 S 
ATOM     13  C   UNL     1      11.156  -7.126 -12.078  1.00  0.00     0.101 A 
ATOM     14  N   UNL     1       9.577  -7.059 -10.354  1.00  0.00    -0.234 NA
ATOM     15  C   UNL     1      10.854  -6.705 -10.797  1.00  0.00     0.139 A 
BRANCH  15  16
ATOM     16  C   UNL     1      11.776  -5.941  -9.955  1.00  0.00     0.271 C 
ATOM     17  O   UNL     1      12.693  -6.463  -9.330  1.00  0.00    -0.267 OA
ATOM     18  N   UNL     1      11.513  -4.588  -9.936  1.00  0.00    -0.339 N 
ATOM     19  H   UNL     1      10.660  -4.295 -10.405  1.00  0.00     0.164 HD
BRANCH  18  20
ATOM     20  C   UNL     1      12.286  -3.680  -9.099  1.00  0.00     0.168 CG0
ATOM     21  C   UNL     1      11.992  -2.218  -9.445  1.00  0.00     0.041 C 
ATOM     22  G   UNL     1      12.009  -3.873  -7.600  1.00  0.00     0.000 G0
ENDBRANCH  18  20
ENDBRANCH  15  16
ENDBRANCH  10  11
BRANCH  10  23
ATOM     23  C   UNL     1       7.430  -9.704 -10.780  1.00  0.00     0.015 C 
ATOM     24  C   UNL     1       8.530 -10.574 -11.410  1.00  0.00     0.010 C 
BRANCH  23  25
ATOM     25  C   UNL     1       7.474  -9.886  -9.245  1.00  0.00     0.002 C 
ATOM     26  C   UNL     1       7.530 -11.340  -8.796  1.00  0.00     0.004 C 
ENDBRANCH  23  25
ENDBRANCH  10  23
ENDBRANCH   7  10
ENDBRANCH   4   6
BRANCH   3  27
ATOM     27  C   UNL     1       6.199  -4.278  -5.960  1.00  0.00     0.171 C 
BRANCH  27  28
ATOM     28  N   UNL     1       7.619  -3.978  -5.813  1.00  0.00    -0.342 N 
ATOM     29  C   UNL     1       8.611  -4.855  -6.190  1.00  0.00     0.245 C 
ATOM     30  O   UNL     1       8.374  -5.952  -6.693  1.00  0.00    -0.273 OA
ATOM     31  H   UNL     1       7.894  -3.044  -5.511  1.00  0.00     0.164 HD
BRANCH  29  32
ATOM     32  C   UNL     1      10.051  -4.310  -6.079  1.00  0.00     0.200 C 
BRANCH  32  33
ATOM     33  N   UNL     1      10.608  -4.200  -7.432  1.00  0.00    -0.340 N 
ATOM     34  C   UNL     1      11.932  -3.871  -7.637  1.00  0.00     0.243 CG0
ATOM     35  O   UNL     1      12.684  -3.595  -6.705  1.00  0.00    -0.273 OA
ATOM     36  H   UNL     1      10.004  -4.392  -8.223  1.00  0.00     0.164 HD
ATOM     37  G   UNL     1      12.347  -3.656  -9.102  1.00  0.00     0.000 G0
ENDBRANCH  32  33
BRANCH  32  38
ATOM     38  C   UNL     1      10.091  -2.974  -5.300  1.00  0.00     0.143 C 
ATOM     39  C   UNL     1       8.879  -2.738  -4.406  1.00  0.00     0.041 C 
BRANCH  38  40
ATOM     40  O   UNL     1      11.284  -2.909  -4.495  1.00  0.00    -0.391 OA
ATOM     41  H   UNL     1      11.461  -3.817  -4.184  1.00  0.00     0.211 HD
ENDBRANCH  38  40
ENDBRANCH  32  38
ENDBRANCH  29  32
ENDBRANCH  27  28
BRANCH  27  42
ATOM     42  C   UNL     1       5.316  -3.191  -5.301  1.00  0.00     0.015 C 
ATOM     43  C   UNL     1       5.574  -1.755  -5.772  1.00  0.00     0.010 C 
ATOM     44  C   UNL     1       3.824  -3.524  -5.405  1.00  0.00     0.010 C 
ENDBRANCH  27  42
ENDBRANCH   3  27
TORSDOF 5
ENDMDL
MODEL 2
REMARK VINA RESULT:    13.840      2.958      6.827
REMARK INTER + INTRA:          28.276
REMARK INTER:                  23.492
REMARK INTRA:                   4.784
REMARK UNBOUND:                 3.514
REMARK SMILES CC[C@H](C)[C@H]1NC(=O)c2coc(n2)[C@H](C(C)C)NC(=O)[C@H]([C@@H](C)O)NC(=O)[C@H](C)NC(=O)c2csc1n2
REMARK SMILES IDX 11 1 13 2 12 3 9 4 10 5 7 6 6 7 8 8 5 10 36 11 35 12 34 13
REMARK SMILES IDX 37 14 33 15 31 16 32 17 30 18 28 20 29 21 3 23 4 24 2 25
REMARK SMILES IDX 1 26 14 27 18 28 19 29 20 30 21 32 25 33 26 34 27 35 22 38
REMARK SMILES IDX 23 39 24 40 15 42 16 43 17 44
REMARK H PARENT 6 9 30 19 18 31 25 36 24 41
REMARK Flexibility Score:   94.900
ROOT
ATOM      1  O   UNL     1       6.263  -5.656 -11.646  1.00  0.00    -0.446 OA
ATOM      2  N   UNL     1       7.118  -6.202  -9.633  1.00  0.00    -0.207 NA
ATOM      3  C   UNL     1       7.223  -6.334 -10.943  1.00  0.00     0.217 A 
ATOM      4  C   UNL     1       6.033  -5.360  -9.463  1.00  0.00     0.167 A 
ATOM      5  C   UNL     1       5.517  -5.030 -10.692  1.00  0.00     0.231 A 
ENDROOT
BRANCH   4   6
ATOM      6  C   UNL     1       5.543  -4.950  -8.158  1.00  0.00     0.273 C 
ATOM      7  N   UNL     1       6.414  -4.093  -7.533  1.00  0.00    -0.341 N 
ATOM      8  O   UNL     1       4.491  -5.348  -7.674  1.00  0.00    -0.267 OA
ATOM      9  H   UNL     1       7.291  -3.926  -8.017  1.00  0.00     0.164 HD
BRANCH   7  10
ATOM     10  C   UNL     1       6.298  -3.728  -6.135  1.00  0.00     0.145 C 
BRANCH  10  11
ATOM     11  C   UNL     1       7.688  -3.807  -5.521  1.00  0.00     0.116 A 
ATOM     12  S   UNL     1       8.152  -2.676  -4.307  1.00  0.00    -0.124 S 
ATOM     13  C   UNL     1       9.672  -3.448  -4.178  1.00  0.00     0.101 A 
ATOM     14  N   UNL     1       8.605  -4.707  -5.835  1.00  0.00    -0.234 NA
ATOM     15  C   UNL     1       9.746  -4.516  -5.052  1.00  0.00     0.139 A 
BRANCH  15  16
ATOM     16  C   UNL     1      10.911  -5.396  -5.161  1.00  0.00     0.271 C 
ATOM     17  O   UNL     1      11.953  -5.201  -4.544  1.00  0.00    -0.267 OA
ATOM     18  N   UNL     1      10.720  -6.459  -6.019  1.00  0.00    -0.339 N 
ATOM     19  H   UNL     1       9.856  -6.448  -6.554  1.00  0.00     0.164 HD
BRANCH  18  20
ATOM     20  C   UNL     1      11.794  -7.401  -6.304  1.00  0.00     0.168 CG0
ATOM     21  C   UNL     1      12.461  -7.890  -5.017  1.00  0.00     0.041 C 
ATOM     22  G   UNL     1      11.310  -8.636  -7.081  1.00  0.00     0.000 G0
ENDBRANCH  18  20
ENDBRANCH  15  16
ENDBRANCH  10  11
BRANCH  10  23
ATOM     23  C   UNL     1       5.647  -2.332  -5.946  1.00  0.00     0.015 C 
ATOM     24  C   UNL     1       4.307  -2.181  -6.685  1.00  0.00     0.010 C 
BRANCH  23  25
ATOM     25  C   UNL     1       5.436  -1.966  -4.459  1.00  0.00     0.002 C 
ATOM     26  C   UNL     1       5.121  -0.496  -4.223  1.00  0.00     0.004 C 
ENDBRANCH  23  25
ENDBRANCH  10  23
ENDBRANCH   7  10
ENDBRANCH   4   6
BRANCH   3  27
ATOM     27  C   UNL     1       8.224  -7.169 -11.693  1.00  0.00     0.171 C 
BRANCH  27  28
ATOM     28  N   UNL     1       9.104  -7.798 -10.713  1.00  0.00    -0.342 N 
ATOM     29  C   UNL     1       8.642  -8.641  -9.727  1.00  0.00     0.245 C 
ATOM     30  O   UNL     1       7.454  -8.938  -9.609  1.00  0.00    -0.273 OA
ATOM     31  H   UNL     1      10.112  -7.690 -10.819  1.00  0.00     0.164 HD
BRANCH  29  32
ATOM     32  C   UNL     1       9.734  -9.312  -8.868  1.00  0.00     0.200 C 
BRANCH  32  33
ATOM     33  N   UNL     1      10.409  -8.269  -8.085  1.00  0.00    -0.340 N 
ATOM     34  C   UNL     1      11.273  -8.591  -7.059  1.00  0.00     0.243 CG0
ATOM     35  O   UNL     1      11.465  -9.754  -6.712  1.00  0.00    -0.273 OA
ATOM     36  H   UNL     1      10.247  -7.299  -8.328  1.00  0.00     0.164 HD
ATOM     37  G   UNL     1      11.801  -7.404  -6.236  1.00  0.00     0.000 G0
ENDBRANCH  32  33
BRANCH  32  38
ATOM     38  C   UNL     1       9.148 -10.440  -7.988  1.00  0.00     0.143 C 
ATOM     39  C   UNL     1       7.957 -11.160  -8.611  1.00  0.00     0.041 C 
BRANCH  38  40
ATOM     40  O   UNL     1      10.170 -11.408  -7.682  1.00  0.00    -0.391 OA
ATOM     41  H   UNL     1       9.775 -12.288  -7.830  1.00  0.00     0.211 HD
ENDBRANCH  38  40
ENDBRANCH  32  38
ENDBRANCH  29  32
ENDBRANCH  27  28
BRANCH  27  42
ATOM     42  C   UNL     1       7.675  -8.199 -12.710  1.00  0.00     0.015 C 
ATOM     43  C   UNL     1       8.734  -8.962 -13.515  1.00  0.00     0.010 C 
ATOM     44  C   UNL     1       6.694  -9.179 -12.060  1.00  0.00     0.010 C 
ENDBRANCH  27  42
ENDBRANCH   3  27
TORSDOF 5
ENDMDL
