MODEL 1
REMARK VINA RESULT:    -6.800      0.000      0.000
REMARK INTER + INTRA:         -25.313
REMARK INTER:                 -19.522
REMARK INTRA:                  -5.791
REMARK UNBOUND:                -5.791
REMARK SMILES CCCCCC(=O)N[C@H](CC(=O)O)C(=O)N[C@H]1C(=O)N[C@H](CCCN=C(N)N)C(=O)N[C@@H]2CC[C@H](O)N(C2=O)[C@@H](CC(C)C)C(=O)N(C)[C@@H](Cc2ccccc2)C(=O)N[C@H](C(C)C)C(=O)O[C@@H]1C
REMARK SMILES IDX 30 1 31 2 29 3 32 5 35 6 37 7 34 8 38 9 33 10 39 11 36 12
REMARK SMILES IDX 40 14 41 15 42 16 43 17 44 18 45 19 46 20 47 21 48 22 49 23
REMARK SMILES IDX 50 24 51 25 52 26 56 27 53 28 55 29 54 30 57 31 58 32 59 33
REMARK SMILES IDX 60 35 61 36 62 37 63 38 64 39 65 40 66 41 67 42 68 43 21 45
REMARK SMILES IDX 20 46 18 47 19 48 17 50 16 52 14 53 15 54 9 56 8 57 6 58
REMARK SMILES IDX 7 59 5 61 4 62 3 63 2 64 1 65 10 66 11 67 12 68 13 69 22 71
REMARK SMILES IDX 23 72 24 73 25 74 26 75 27 76 28 77
REMARK H PARENT 31 4 36 13 59 34 20 49 16 55 8 60 13 70 27 78 27 79 28 80
REMARK H PARENT 28 81
REMARK Flexibility Score:  259.900
ROOT
ATOM      1  O   UNL     1       4.425  -4.254  -4.529  1.00  0.00    -0.273 OA
ATOM      2  N   UNL     1       6.517  -4.238  -3.605  1.00  0.00    -0.343 N 
ATOM      3  C   UNL     1       5.141  -4.215  -3.528  1.00  0.00     0.243 C 
ATOM      4  H   UNL     1       7.074  -4.219  -2.760  1.00  0.00     0.164 HD
ENDROOT
BRANCH   2   5
ATOM      5  C   UNL     1       7.189  -4.188  -4.899  1.00  0.00     0.171 C 
ATOM      6  C   UNL     1       6.202  -4.008  -7.619  1.00  0.00     0.214 C 
ATOM      7  N   UNL     1       6.427  -5.307  -7.030  1.00  0.00    -0.303 N 
ATOM      8  C   UNL     1       7.131  -2.932  -7.077  1.00  0.00     0.057 C 
ATOM      9  C   UNL     1       6.848  -5.465  -5.720  1.00  0.00     0.247 C 
ATOM     10  C   UNL     1       6.979  -2.834  -5.575  1.00  0.00     0.040 C 
ATOM     11  O   UNL     1       6.955  -6.582  -5.195  1.00  0.00    -0.272 OA
BRANCH   6  12
ATOM     12  O   UNL     1       4.857  -3.658  -7.390  1.00  0.00    -0.373 OA
ATOM     13  H   UNL     1       4.849  -3.023  -6.642  1.00  0.00     0.213 HD
ENDBRANCH   6  12
BRANCH   7  14
ATOM     14  C   UNL     1       6.046  -6.485  -7.838  1.00  0.00     0.177 C 
BRANCH  14  15
ATOM     15  C   UNL     1       7.220  -7.367  -8.306  1.00  0.00     0.038 C 
BRANCH  15  16
ATOM     16  C   UNL     1       7.649  -7.339  -9.789  1.00  0.00    -0.015 C 
ATOM     17  C   UNL     1       8.043  -5.935 -10.257  1.00  0.00     0.007 C 
ATOM     18  C   UNL     1       6.496  -7.834 -10.672  1.00  0.00     0.007 C 
ENDBRANCH  15  16
ENDBRANCH  14  15
BRANCH  14  19
ATOM     19  C   UNL     1       4.634  -7.009  -7.403  1.00  0.00     0.245 C 
ATOM     20  O   UNL     1       3.763  -6.151  -7.180  1.00  0.00    -0.272 OA
BRANCH  19  21
ATOM     21  N   UNL     1       4.350  -8.339  -7.151  1.00  0.00    -0.332 N 
ATOM     22  C   UNL     1       5.111  -9.213  -6.276  1.00  0.00     0.147 C 
BRANCH  21  23
ATOM     23  C   UNL     1       3.173  -8.941  -7.837  1.00  0.00     0.178 C 
BRANCH  23  24
ATOM     24  C   UNL     1       3.498 -10.154  -8.733  1.00  0.00     0.070 C 
BRANCH  24  25
ATOM     25  C   UNL     1       3.026 -10.095 -10.167  1.00  0.00    -0.045 A 
ATOM     26  C   UNL     1       3.065  -8.894 -10.887  1.00  0.00     0.004 A 
ATOM     27  C   UNL     1       2.537 -11.249 -10.798  1.00  0.00     0.004 A 
ATOM     28  C   UNL     1       2.612  -8.845 -12.207  1.00  0.00     0.000 A 
ATOM     29  C   UNL     1       2.085 -11.198 -12.118  1.00  0.00     0.000 A 
ATOM     30  C   UNL     1       2.120  -9.995 -12.820  1.00  0.00     0.000 A 
ENDBRANCH  24  25
ENDBRANCH  23  24
BRANCH  23  31
ATOM     31  C   UNL     1       1.959  -9.133  -6.896  1.00  0.00     0.243 C 
ATOM     32  O   UNL     1       1.310 -10.173  -6.815  1.00  0.00    -0.273 OA
ATOM     33  N   UNL     1       1.546  -7.964  -6.280  1.00  0.00    -0.341 N 
ATOM     34  H   UNL     1       2.125  -7.127  -6.389  1.00  0.00     0.164 HD
BRANCH  33  35
ATOM     35  C   UNL     1       0.348  -7.883  -5.441  1.00  0.00     0.194 C 
BRANCH  35  36
ATOM     36  C   UNL     1      -0.723  -6.881  -5.957  1.00  0.00     0.017 C 
ATOM     37  C   UNL     1      -2.105  -7.548  -6.069  1.00  0.00     0.010 C 
ATOM     38  C   UNL     1      -0.386  -6.291  -7.332  1.00  0.00     0.010 C 
ENDBRANCH  35  36
BRANCH  35  39
ATOM     39  C   UNL     1       0.683  -7.652  -3.941  1.00  0.00     0.329 C 
ATOM     40  O   UNL     1       0.925  -8.552  -3.145  1.00  0.00    -0.250 OA
BRANCH  39  41
ATOM     41  O   UNL     1       0.765  -6.324  -3.625  1.00  0.00    -0.458 OA
BRANCH  41  42
ATOM     42  C   UNL     1       0.157  -5.924  -2.373  1.00  0.00     0.205 CG0
ATOM     43  C   UNL     1      -1.353  -5.870  -2.598  1.00  0.00     0.056 C 
ATOM     44  G   UNL     1       0.740  -4.559  -1.957  1.00  0.00     0.000 G0
ENDBRANCH  41  42
ENDBRANCH  39  41
ENDBRANCH  35  39
ENDBRANCH  33  35
ENDBRANCH  23  31
ENDBRANCH  21  23
ENDBRANCH  19  21
ENDBRANCH  14  19
ENDBRANCH   7  14
ENDBRANCH   2   5
BRANCH   3  45
ATOM     45  C   UNL     1       4.564  -4.160  -2.107  1.00  0.00     0.171 C 
BRANCH  45  46
ATOM     46  N   UNL     1       3.125  -4.003  -2.273  1.00  0.00    -0.342 N 
ATOM     47  C   UNL     1       2.216  -4.744  -1.560  1.00  0.00     0.247 C 
ATOM     48  O   UNL     1       2.547  -5.539  -0.679  1.00  0.00    -0.273 OA
ATOM     49  H   UNL     1       2.807  -3.314  -2.952  1.00  0.00     0.164 HD
BRANCH  47  50
ATOM     50  C   UNL     1       0.749  -4.531  -1.957  1.00  0.00     0.212 CG0
ATOM     51  G   UNL     1       0.162  -5.906  -2.332  1.00  0.00     0.000 G0
BRANCH  50  52
ATOM     52  N   UNL     1       0.112  -3.931  -0.788  1.00  0.00    -0.339 N 
ATOM     53  C   UNL     1       0.355  -2.645  -0.371  1.00  0.00     0.243 C 
ATOM     54  O   UNL     1       1.173  -1.914  -0.922  1.00  0.00    -0.273 OA
ATOM     55  H   UNL     1      -0.493  -4.524  -0.223  1.00  0.00     0.164 HD
BRANCH  53  56
ATOM     56  C   UNL     1      -0.366  -2.262   0.938  1.00  0.00     0.182 C 
BRANCH  56  57
ATOM     57  N   UNL     1      -1.108  -3.404   1.483  1.00  0.00    -0.344 N 
ATOM     58  C   UNL     1      -1.364  -3.542   2.825  1.00  0.00     0.220 C 
ATOM     59  O   UNL     1      -0.928  -2.764   3.667  1.00  0.00    -0.275 OA
ATOM     60  H   UNL     1      -1.571  -4.014   0.814  1.00  0.00     0.164 HD
BRANCH  58  61
ATOM     61  C   UNL     1      -2.197  -4.767   3.156  1.00  0.00     0.100 C 
BRANCH  61  62
ATOM     62  C   UNL     1      -1.400  -6.071   3.160  1.00  0.00     0.010 C 
BRANCH  62  63
ATOM     63  C   UNL     1      -1.718  -7.004   1.984  1.00  0.00     0.000 C 
BRANCH  63  64
ATOM     64  C   UNL     1      -0.536  -7.262   1.051  1.00  0.00    -0.003 C 
ATOM     65  C   UNL     1       0.765  -6.744   1.647  1.00  0.00     0.004 C 
ENDBRANCH  63  64
ENDBRANCH  62  63
ENDBRANCH  61  62
ENDBRANCH  58  61
ENDBRANCH  56  57
BRANCH  56  66
ATOM     66  C   UNL     1      -1.255  -1.034   0.748  1.00  0.00     0.157 C 
BRANCH  66  67
ATOM     67  C   UNL     1      -2.361  -1.309  -0.229  1.00  0.00     0.305 C 
ATOM     68  O   UNL     1      -3.056  -2.312  -0.287  1.00  0.00    -0.252 OA
BRANCH  67  69
ATOM     69  O   UNL     1      -2.576  -0.273  -1.063  1.00  0.00    -0.481 OA
ATOM     70  H   UNL     1      -3.193  -0.622  -1.741  1.00  0.00     0.296 HD
ENDBRANCH  67  69
ENDBRANCH  66  67
ENDBRANCH  56  66
ENDBRANCH  53  56
ENDBRANCH  50  52
ENDBRANCH  47  50
ENDBRANCH  45  46
BRANCH  45  71
ATOM     71  C   UNL     1       5.174  -2.990  -1.328  1.00  0.00     0.037 C 
BRANCH  71  72
ATOM     72  C   UNL     1       4.685  -1.635  -1.846  1.00  0.00     0.026 C 
BRANCH  72  73
ATOM     73  C   UNL     1       5.793  -0.882  -2.578  1.00  0.00     0.146 C 
BRANCH  73  74
ATOM     74  N   UNL     1       5.164   0.138  -3.412  1.00  0.00    -0.254 NA
ATOM     75  C   UNL     1       5.926   0.988  -3.996  1.00  0.00     0.185 C 
ATOM     76  N   UNL     1       5.377   1.937  -4.771  1.00  0.00    -0.370 N 
ATOM     77  N   UNL     1       7.266   1.089  -3.956  1.00  0.00    -0.370 N 
ATOM     78  H   UNL     1       4.370   1.938  -4.850  1.00  0.00     0.159 HD
ATOM     79  H   UNL     1       5.892   2.717  -5.139  1.00  0.00     0.159 HD
ATOM     80  H   UNL     1       7.814   0.437  -3.415  1.00  0.00     0.159 HD
ATOM     81  H   UNL     1       7.765   1.729  -4.550  1.00  0.00     0.159 HD
ENDBRANCH  73  74
ENDBRANCH  72  73
ENDBRANCH  71  72
ENDBRANCH  45  71
ENDBRANCH   3  45
TORSDOF 20
ENDMDL
MODEL 2
REMARK VINA RESULT:    -6.478      2.977      5.350
REMARK INTER + INTRA:         -24.387
REMARK INTER:                 -19.989
REMARK INTRA:                  -4.398
REMARK UNBOUND:                -5.791
REMARK SMILES CCCCCC(=O)N[C@H](CC(=O)O)C(=O)N[C@H]1C(=O)N[C@H](CCCN=C(N)N)C(=O)N[C@@H]2CC[C@H](O)N(C2=O)[C@@H](CC(C)C)C(=O)N(C)[C@@H](Cc2ccccc2)C(=O)N[C@H](C(C)C)C(=O)O[C@@H]1C
REMARK SMILES IDX 30 1 31 2 29 3 32 5 35 6 37 7 34 8 38 9 33 10 39 11 36 12
REMARK SMILES IDX 40 14 41 15 42 16 43 17 44 18 45 19 46 20 47 21 48 22 49 23
REMARK SMILES IDX 50 24 51 25 52 26 56 27 53 28 55 29 54 30 57 31 58 32 59 33
REMARK SMILES IDX 60 35 61 36 62 37 63 38 64 39 65 40 66 41 67 42 68 43 21 45
REMARK SMILES IDX 20 46 18 47 19 48 17 50 16 52 14 53 15 54 9 56 8 57 6 58
REMARK SMILES IDX 7 59 5 61 4 62 3 63 2 64 1 65 10 66 11 67 12 68 13 69 22 71
REMARK SMILES IDX 23 72 24 73 25 74 26 75 27 76 28 77
REMARK H PARENT 31 4 36 13 59 34 20 49 16 55 8 60 13 70 27 78 27 79 28 80
REMARK H PARENT 28 81
REMARK Flexibility Score:  259.900
ROOT
ATOM      1  O   UNL     1       4.352  -3.237  -0.770  1.00  0.00    -0.273 OA
ATOM      2  N   UNL     1       3.560  -3.018  -2.904  1.00  0.00    -0.343 N 
ATOM      3  C   UNL     1       3.516  -2.776  -1.548  1.00  0.00     0.243 C 
ATOM      4  H   UNL     1       2.864  -2.610  -3.516  1.00  0.00     0.164 HD
ENDROOT
BRANCH   2   5
ATOM      5  C   UNL     1       4.543  -3.939  -3.463  1.00  0.00     0.171 C 
ATOM      6  C   UNL     1       4.585  -5.538  -5.881  1.00  0.00     0.214 C 
ATOM      7  N   UNL     1       4.057  -6.106  -4.662  1.00  0.00    -0.303 N 
ATOM      8  C   UNL     1       5.670  -4.500  -5.640  1.00  0.00     0.057 C 
ATOM      9  C   UNL     1       3.961  -5.382  -3.486  1.00  0.00     0.247 C 
ATOM     10  C   UNL     1       5.132  -3.391  -4.762  1.00  0.00     0.040 C 
ATOM     11  O   UNL     1       3.428  -5.847  -2.470  1.00  0.00    -0.272 OA
BRANCH   6  12
ATOM     12  O   UNL     1       3.510  -4.971  -6.592  1.00  0.00    -0.373 OA
ATOM     13  H   UNL     1       2.891  -4.599  -5.929  1.00  0.00     0.213 HD
ENDBRANCH   6  12
BRANCH   7  14
ATOM     14  C   UNL     1       3.479  -7.464  -4.752  1.00  0.00     0.177 C 
BRANCH  14  15
ATOM     15  C   UNL     1       3.939  -8.447  -3.657  1.00  0.00     0.038 C 
BRANCH  15  16
ATOM     16  C   UNL     1       4.680  -9.741  -4.060  1.00  0.00    -0.015 C 
ATOM     17  C   UNL     1       5.506 -10.323  -2.909  1.00  0.00     0.007 C 
ATOM     18  C   UNL     1       5.625  -9.454  -5.233  1.00  0.00     0.007 C 
ENDBRANCH  15  16
ENDBRANCH  14  15
BRANCH  14  19
ATOM     19  C   UNL     1       2.038  -7.401  -5.367  1.00  0.00     0.245 C 
ATOM     20  O   UNL     1       1.445  -6.313  -5.292  1.00  0.00    -0.272 OA
BRANCH  19  21
ATOM     21  N   UNL     1       1.368  -8.500  -5.875  1.00  0.00    -0.332 N 
ATOM     22  C   UNL     1       1.963  -9.552  -6.681  1.00  0.00     0.147 C 
BRANCH  21  23
ATOM     23  C   UNL     1      -0.088  -8.622  -5.588  1.00  0.00     0.178 C 
BRANCH  23  24
ATOM     24  C   UNL     1      -0.824  -9.687  -6.425  1.00  0.00     0.070 C 
BRANCH  24  25
ATOM     25  C   UNL     1      -2.307  -9.491  -6.638  1.00  0.00    -0.045 A 
ATOM     26  C   UNL     1      -2.825  -8.230  -6.960  1.00  0.00     0.004 A 
ATOM     27  C   UNL     1      -3.190 -10.574  -6.510  1.00  0.00     0.004 A 
ATOM     28  C   UNL     1      -4.199  -8.053  -7.139  1.00  0.00     0.000 A 
ATOM     29  C   UNL     1      -4.563 -10.396  -6.690  1.00  0.00     0.000 A 
ATOM     30  C   UNL     1      -5.066  -9.135  -7.002  1.00  0.00     0.000 A 
ENDBRANCH  24  25
ENDBRANCH  23  24
BRANCH  23  31
ATOM     31  C   UNL     1      -0.404  -8.649  -4.073  1.00  0.00     0.243 C 
ATOM     32  O   UNL     1       0.048  -9.483  -3.292  1.00  0.00    -0.273 OA
ATOM     33  N   UNL     1      -1.396  -7.759  -3.699  1.00  0.00    -0.341 N 
ATOM     34  H   UNL     1      -1.738  -7.092  -4.396  1.00  0.00     0.164 HD
BRANCH  33  35
ATOM     35  C   UNL     1      -1.940  -7.695  -2.340  1.00  0.00     0.194 C 
BRANCH  35  36
ATOM     36  C   UNL     1      -3.373  -8.282  -2.201  1.00  0.00     0.017 C 
ATOM     37  C   UNL     1      -3.874  -8.198  -0.749  1.00  0.00     0.010 C 
ATOM     38  C   UNL     1      -3.469  -9.750  -2.635  1.00  0.00     0.010 C 
ENDBRANCH  35  36
BRANCH  35  39
ATOM     39  C   UNL     1      -1.833  -6.273  -1.719  1.00  0.00     0.329 C 
ATOM     40  O   UNL     1      -2.424  -5.290  -2.151  1.00  0.00    -0.250 OA
BRANCH  39  41
ATOM     41  O   UNL     1      -1.073  -6.258  -0.583  1.00  0.00    -0.458 OA
BRANCH  41  42
ATOM     42  C   UNL     1       0.025  -5.315  -0.558  1.00  0.00     0.205 CG0
ATOM     43  C   UNL     1       1.268  -6.078  -0.104  1.00  0.00     0.056 C 
ATOM     44  G   UNL     1      -0.339  -4.160   0.396  1.00  0.00     0.000 G0
ENDBRANCH  41  42
ENDBRANCH  39  41
ENDBRANCH  35  39
ENDBRANCH  33  35
ENDBRANCH  23  31
ENDBRANCH  21  23
ENDBRANCH  19  21
ENDBRANCH  14  19
ENDBRANCH   7  14
ENDBRANCH   2   5
BRANCH   3  45
ATOM     45  C   UNL     1       2.366  -1.875  -1.078  1.00  0.00     0.171 C 
BRANCH  45  46
ATOM     46  N   UNL     1       1.229  -2.762  -0.873  1.00  0.00    -0.342 N 
ATOM     47  C   UNL     1       0.779  -3.104   0.378  1.00  0.00     0.247 C 
ATOM     48  O   UNL     1       1.253  -2.631   1.411  1.00  0.00    -0.273 OA
ATOM     49  H   UNL     1       0.771  -3.131  -1.703  1.00  0.00     0.164 HD
BRANCH  47  50
ATOM     50  C   UNL     1      -0.348  -4.146   0.400  1.00  0.00     0.212 CG0
ATOM     51  G   UNL     1       0.055  -5.291  -0.550  1.00  0.00     0.000 G0
BRANCH  50  52
ATOM     52  N   UNL     1      -0.463  -4.566   1.794  1.00  0.00    -0.339 N 
ATOM     53  C   UNL     1      -1.623  -5.057   2.342  1.00  0.00     0.243 C 
ATOM     54  O   UNL     1      -2.674  -5.131   1.711  1.00  0.00    -0.273 OA
ATOM     55  H   UNL     1       0.344  -4.425   2.398  1.00  0.00     0.164 HD
BRANCH  53  56
ATOM     56  C   UNL     1      -1.527  -5.353   3.853  1.00  0.00     0.182 C 
BRANCH  56  57
ATOM     57  N   UNL     1      -2.792  -5.051   4.530  1.00  0.00    -0.344 N 
ATOM     58  C   UNL     1      -3.202  -5.722   5.656  1.00  0.00     0.220 C 
ATOM     59  O   UNL     1      -2.578  -6.665   6.131  1.00  0.00    -0.275 OA
ATOM     60  H   UNL     1      -3.286  -4.215   4.231  1.00  0.00     0.164 HD
BRANCH  58  61
ATOM     61  C   UNL     1      -4.512  -5.204   6.221  1.00  0.00     0.100 C 
BRANCH  61  62
ATOM     62  C   UNL     1      -4.862  -5.780   7.593  1.00  0.00     0.010 C 
BRANCH  62  63
ATOM     63  C   UNL     1      -5.912  -6.898   7.555  1.00  0.00     0.000 C 
BRANCH  63  64
ATOM     64  C   UNL     1      -7.103  -6.671   8.485  1.00  0.00    -0.003 C 
ATOM     65  C   UNL     1      -6.660  -6.114   9.830  1.00  0.00     0.004 C 
ENDBRANCH  63  64
ENDBRANCH  62  63
ENDBRANCH  61  62
ENDBRANCH  58  61
ENDBRANCH  56  57
BRANCH  56  66
ATOM     66  C   UNL     1      -0.344  -4.628   4.491  1.00  0.00     0.157 C 
BRANCH  66  67
ATOM     67  C   UNL     1      -0.670  -3.187   4.759  1.00  0.00     0.305 C 
ATOM     68  O   UNL     1      -1.114  -2.375   3.962  1.00  0.00    -0.252 OA
BRANCH  67  69
ATOM     69  O   UNL     1      -0.467  -2.847   6.047  1.00  0.00    -0.481 OA
ATOM     70  H   UNL     1       0.417  -3.211   6.265  1.00  0.00     0.296 HD
ENDBRANCH  67  69
ENDBRANCH  66  67
ENDBRANCH  56  66
ENDBRANCH  53  56
ENDBRANCH  50  52
ENDBRANCH  47  50
ENDBRANCH  45  46
BRANCH  45  71
ATOM     71  C   UNL     1       2.064  -0.802  -2.131  1.00  0.00     0.037 C 
BRANCH  71  72
ATOM     72  C   UNL     1       1.915   0.589  -1.510  1.00  0.00     0.026 C 
BRANCH  72  73
ATOM     73  C   UNL     1       0.449   0.939  -1.264  1.00  0.00     0.146 C 
BRANCH  73  74
ATOM     74  N   UNL     1       0.125   0.567   0.109  1.00  0.00    -0.254 NA
ATOM     75  C   UNL     1      -0.914  -0.160   0.304  1.00  0.00     0.185 C 
ATOM     76  N   UNL     1      -1.237  -0.519   1.557  1.00  0.00    -0.370 N 
ATOM     77  N   UNL     1      -1.783  -0.650  -0.597  1.00  0.00    -0.370 N 
ATOM     78  H   UNL     1      -0.638  -0.185   2.298  1.00  0.00     0.159 HD
ATOM     79  H   UNL     1      -2.107  -0.960   1.799  1.00  0.00     0.159 HD
ATOM     80  H   UNL     1      -1.662  -0.464  -1.581  1.00  0.00     0.159 HD
ATOM     81  H   UNL     1      -2.499  -1.308  -0.336  1.00  0.00     0.159 HD
ENDBRANCH  73  74
ENDBRANCH  72  73
ENDBRANCH  71  72
ENDBRANCH  45  71
ENDBRANCH   3  45
TORSDOF 20
ENDMDL
MODEL 3
REMARK VINA RESULT:    -6.251      2.825      4.920
REMARK INTER + INTRA:         -23.735
REMARK INTER:                 -19.706
REMARK INTRA:                  -4.029
REMARK UNBOUND:                -5.791
REMARK SMILES CCCCCC(=O)N[C@H](CC(=O)O)C(=O)N[C@H]1C(=O)N[C@H](CCCN=C(N)N)C(=O)N[C@@H]2CC[C@H](O)N(C2=O)[C@@H](CC(C)C)C(=O)N(C)[C@@H](Cc2ccccc2)C(=O)N[C@H](C(C)C)C(=O)O[C@@H]1C
REMARK SMILES IDX 30 1 31 2 29 3 32 5 35 6 37 7 34 8 38 9 33 10 39 11 36 12
REMARK SMILES IDX 40 14 41 15 42 16 43 17 44 18 45 19 46 20 47 21 48 22 49 23
REMARK SMILES IDX 50 24 51 25 52 26 56 27 53 28 55 29 54 30 57 31 58 32 59 33
REMARK SMILES IDX 60 35 61 36 62 37 63 38 64 39 65 40 66 41 67 42 68 43 21 45
REMARK SMILES IDX 20 46 18 47 19 48 17 50 16 52 14 53 15 54 9 56 8 57 6 58
REMARK SMILES IDX 7 59 5 61 4 62 3 63 2 64 1 65 10 66 11 67 12 68 13 69 22 71
REMARK SMILES IDX 23 72 24 73 25 74 26 75 27 76 28 77
REMARK H PARENT 31 4 36 13 59 34 20 49 16 55 8 60 13 70 27 78 27 79 28 80
REMARK H PARENT 28 81
REMARK Flexibility Score:  259.900
ROOT
ATOM      1  O   UNL     1       4.440  -3.291  -0.744  1.00  0.00    -0.273 OA
ATOM      2  N   UNL     1       3.577  -3.094  -2.853  1.00  0.00    -0.343 N 
ATOM      3  C   UNL     1       3.607  -2.801  -1.507  1.00  0.00     0.243 C 
ATOM      4  H   UNL     1       2.886  -2.661  -3.453  1.00  0.00     0.164 HD
ENDROOT
BRANCH   2   5
ATOM      5  C   UNL     1       4.472  -4.101  -3.413  1.00  0.00     0.171 C 
ATOM      6  C   UNL     1       4.362  -5.700  -5.829  1.00  0.00     0.214 C 
ATOM      7  N   UNL     1       3.789  -6.217  -4.608  1.00  0.00    -0.303 N 
ATOM      8  C   UNL     1       5.536  -4.764  -5.593  1.00  0.00     0.057 C 
ATOM      9  C   UNL     1       3.762  -5.485  -3.432  1.00  0.00     0.247 C 
ATOM     10  C   UNL     1       5.104  -3.610  -4.715  1.00  0.00     0.040 C 
ATOM     11  O   UNL     1       3.193  -5.900  -2.414  1.00  0.00    -0.272 OA
BRANCH   6  12
ATOM     12  O   UNL     1       3.340  -5.039  -6.538  1.00  0.00    -0.373 OA
ATOM     13  H   UNL     1       3.752  -4.644  -7.335  1.00  0.00     0.213 HD
ENDBRANCH   6  12
BRANCH   7  14
ATOM     14  C   UNL     1       3.090  -7.517  -4.693  1.00  0.00     0.177 C 
BRANCH  14  15
ATOM     15  C   UNL     1       3.521  -8.564  -3.647  1.00  0.00     0.038 C 
BRANCH  15  16
ATOM     16  C   UNL     1       4.656  -9.555  -3.986  1.00  0.00    -0.015 C 
ATOM     17  C   UNL     1       5.041  -9.519  -5.468  1.00  0.00     0.007 C 
ATOM     18  C   UNL     1       4.218 -10.983  -3.637  1.00  0.00     0.007 C 
ENDBRANCH  15  16
ENDBRANCH  14  15
BRANCH  14  19
ATOM     19  C   UNL     1       1.629  -7.315  -5.225  1.00  0.00     0.245 C 
ATOM     20  O   UNL     1       1.106  -6.208  -5.017  1.00  0.00    -0.272 OA
BRANCH  19  21
ATOM     21  N   UNL     1       0.872  -8.320  -5.800  1.00  0.00    -0.332 N 
ATOM     22  C   UNL     1       1.386  -9.383  -6.647  1.00  0.00     0.147 C 
BRANCH  21  23
ATOM     23  C   UNL     1      -0.595  -8.318  -5.547  1.00  0.00     0.178 C 
BRANCH  23  24
ATOM     24  C   UNL     1      -1.399  -9.319  -6.402  1.00  0.00     0.070 C 
BRANCH  24  25
ATOM     25  C   UNL     1      -2.789  -8.902  -6.824  1.00  0.00    -0.045 A 
ATOM     26  C   UNL     1      -3.854  -9.811  -6.784  1.00  0.00     0.004 A 
ATOM     27  C   UNL     1      -3.031  -7.594  -7.269  1.00  0.00     0.004 A 
ATOM     28  C   UNL     1      -5.132  -9.423  -7.192  1.00  0.00     0.000 A 
ATOM     29  C   UNL     1      -4.309  -7.207  -7.676  1.00  0.00     0.000 A 
ATOM     30  C   UNL     1      -5.358  -8.123  -7.639  1.00  0.00     0.000 A 
ENDBRANCH  24  25
ENDBRANCH  23  24
BRANCH  23  31
ATOM     31  C   UNL     1      -0.948  -8.317  -4.041  1.00  0.00     0.243 C 
ATOM     32  O   UNL     1      -0.781  -9.280  -3.296  1.00  0.00    -0.273 OA
ATOM     33  N   UNL     1      -1.645  -7.192  -3.636  1.00  0.00    -0.341 N 
ATOM     34  H   UNL     1      -1.758  -6.425  -4.304  1.00  0.00     0.164 HD
BRANCH  33  35
ATOM     35  C   UNL     1      -2.185  -7.029  -2.284  1.00  0.00     0.194 C 
BRANCH  35  36
ATOM     36  C   UNL     1      -3.676  -7.444  -2.141  1.00  0.00     0.017 C 
ATOM     37  C   UNL     1      -3.844  -8.585  -1.123  1.00  0.00     0.010 C 
ATOM     38  C   UNL     1      -4.303  -7.911  -3.460  1.00  0.00     0.010 C 
ENDBRANCH  35  36
BRANCH  35  39
ATOM     39  C   UNL     1      -1.918  -5.614  -1.699  1.00  0.00     0.329 C 
ATOM     40  O   UNL     1      -2.264  -4.571  -2.242  1.00  0.00    -0.250 OA
BRANCH  39  41
ATOM     41  O   UNL     1      -1.328  -5.663  -0.466  1.00  0.00    -0.458 OA
BRANCH  41  42
ATOM     42  C   UNL     1      -0.077  -4.948  -0.325  1.00  0.00     0.205 CG0
ATOM     43  C   UNL     1       0.959  -5.945   0.189  1.00  0.00     0.056 C 
ATOM     44  G   UNL     1      -0.292  -3.768   0.643  1.00  0.00     0.000 G0
ENDBRANCH  41  42
ENDBRANCH  39  41
ENDBRANCH  35  39
ENDBRANCH  33  35
ENDBRANCH  23  31
ENDBRANCH  21  23
ENDBRANCH  19  21
ENDBRANCH  14  19
ENDBRANCH   7  14
ENDBRANCH   2   5
BRANCH   3  45
ATOM     45  C   UNL     1       2.541  -1.806  -1.028  1.00  0.00     0.171 C 
BRANCH  45  46
ATOM     46  N   UNL     1       1.357  -2.604  -0.742  1.00  0.00    -0.342 N 
ATOM     47  C   UNL     1       0.888  -2.795   0.534  1.00  0.00     0.247 C 
ATOM     48  O   UNL     1       1.387  -2.249   1.518  1.00  0.00    -0.273 OA
ATOM     49  H   UNL     1       0.879  -3.029  -1.534  1.00  0.00     0.164 HD
BRANCH  47  50
ATOM     50  C   UNL     1      -0.296  -3.766   0.653  1.00  0.00     0.212 CG0
ATOM     51  G   UNL     1      -0.050  -4.925  -0.334  1.00  0.00     0.000 G0
BRANCH  50  52
ATOM     52  N   UNL     1      -0.312  -4.191   2.050  1.00  0.00    -0.339 N 
ATOM     53  C   UNL     1      -1.422  -4.103   2.854  1.00  0.00     0.243 C 
ATOM     54  O   UNL     1      -2.478  -3.606   2.472  1.00  0.00    -0.273 OA
ATOM     55  H   UNL     1       0.565  -4.508   2.458  1.00  0.00     0.164 HD
BRANCH  53  56
ATOM     56  C   UNL     1      -1.175  -4.531   4.315  1.00  0.00     0.182 C 
BRANCH  56  57
ATOM     57  N   UNL     1      -2.408  -4.447   5.104  1.00  0.00    -0.344 N 
ATOM     58  C   UNL     1      -3.311  -5.479   5.170  1.00  0.00     0.220 C 
ATOM     59  O   UNL     1      -3.188  -6.511   4.520  1.00  0.00    -0.275 OA
ATOM     60  H   UNL     1      -2.497  -3.655   5.735  1.00  0.00     0.164 HD
BRANCH  58  61
ATOM     61  C   UNL     1      -4.483  -5.195   6.092  1.00  0.00     0.100 C 
BRANCH  61  62
ATOM     62  C   UNL     1      -5.492  -6.340   6.177  1.00  0.00     0.010 C 
BRANCH  62  63
ATOM     63  C   UNL     1      -6.234  -6.424   7.517  1.00  0.00     0.000 C 
BRANCH  63  64
ATOM     64  C   UNL     1      -6.474  -7.849   8.013  1.00  0.00    -0.003 C 
ATOM     65  C   UNL     1      -5.614  -8.852   7.257  1.00  0.00     0.004 C 
ENDBRANCH  63  64
ENDBRANCH  62  63
ENDBRANCH  61  62
ENDBRANCH  58  61
ENDBRANCH  56  57
BRANCH  56  66
ATOM     66  C   UNL     1      -0.031  -3.738   4.945  1.00  0.00     0.157 C 
BRANCH  66  67
ATOM     67  C   UNL     1      -0.369  -2.278   5.039  1.00  0.00     0.305 C 
ATOM     68  O   UNL     1      -0.027  -1.502   5.919  1.00  0.00    -0.252 OA
BRANCH  67  69
ATOM     69  O   UNL     1      -1.086  -1.849   3.983  1.00  0.00    -0.481 OA
ATOM     70  H   UNL     1      -0.446  -1.352   3.432  1.00  0.00     0.296 HD
ENDBRANCH  67  69
ENDBRANCH  66  67
ENDBRANCH  56  66
ENDBRANCH  53  56
ENDBRANCH  50  52
ENDBRANCH  47  50
ENDBRANCH  45  46
BRANCH  45  71
ATOM     71  C   UNL     1       2.268  -0.755  -2.109  1.00  0.00     0.037 C 
BRANCH  71  72
ATOM     72  C   UNL     1       3.000   0.561  -1.833  1.00  0.00     0.026 C 
BRANCH  72  73
ATOM     73  C   UNL     1       4.511   0.403  -1.984  1.00  0.00     0.146 C 
BRANCH  73  74
ATOM     74  N   UNL     1       4.783  -0.004  -3.359  1.00  0.00    -0.254 NA
ATOM     75  C   UNL     1       5.987   0.093  -3.786  1.00  0.00     0.185 C 
ATOM     76  N   UNL     1       6.269  -0.275  -5.046  1.00  0.00    -0.370 N 
ATOM     77  N   UNL     1       7.081   0.530  -3.137  1.00  0.00    -0.370 N 
ATOM     78  H   UNL     1       5.499  -0.609  -5.608  1.00  0.00     0.159 HD
ATOM     79  H   UNL     1       7.150  -0.093  -5.493  1.00  0.00     0.159 HD
ATOM     80  H   UNL     1       7.021   0.836  -2.178  1.00  0.00     0.159 HD
ATOM     81  H   UNL     1       8.000   0.452  -3.540  1.00  0.00     0.159 HD
ENDBRANCH  73  74
ENDBRANCH  72  73
ENDBRANCH  71  72
ENDBRANCH  45  71
ENDBRANCH   3  45
TORSDOF 20
ENDMDL
MODEL 4
REMARK VINA RESULT:    -6.196      1.870      2.991
REMARK INTER + INTRA:         -23.579
REMARK INTER:                 -18.342
REMARK INTRA:                  -5.237
REMARK UNBOUND:                -5.791
REMARK SMILES CCCCCC(=O)N[C@H](CC(=O)O)C(=O)N[C@H]1C(=O)N[C@H](CCCN=C(N)N)C(=O)N[C@@H]2CC[C@H](O)N(C2=O)[C@@H](CC(C)C)C(=O)N(C)[C@@H](Cc2ccccc2)C(=O)N[C@H](C(C)C)C(=O)O[C@@H]1C
REMARK SMILES IDX 30 1 31 2 29 3 32 5 35 6 37 7 34 8 38 9 33 10 39 11 36 12
REMARK SMILES IDX 40 14 41 15 42 16 43 17 44 18 45 19 46 20 47 21 48 22 49 23
REMARK SMILES IDX 50 24 51 25 52 26 56 27 53 28 55 29 54 30 57 31 58 32 59 33
REMARK SMILES IDX 60 35 61 36 62 37 63 38 64 39 65 40 66 41 67 42 68 43 21 45
REMARK SMILES IDX 20 46 18 47 19 48 17 50 16 52 14 53 15 54 9 56 8 57 6 58
REMARK SMILES IDX 7 59 5 61 4 62 3 63 2 64 1 65 10 66 11 67 12 68 13 69 22 71
REMARK SMILES IDX 23 72 24 73 25 74 26 75 27 76 28 77
REMARK H PARENT 31 4 36 13 59 34 20 49 16 55 8 60 13 70 27 78 27 79 28 80
REMARK H PARENT 28 81
REMARK Flexibility Score:  259.900
ROOT
ATOM      1  O   UNL     1       3.847  -3.474  -4.007  1.00  0.00    -0.273 OA
ATOM      2  N   UNL     1       5.985  -3.288  -3.217  1.00  0.00    -0.343 N 
ATOM      3  C   UNL     1       4.616  -3.200  -3.085  1.00  0.00     0.243 C 
ATOM      4  H   UNL     1       6.586  -3.069  -2.432  1.00  0.00     0.164 HD
ENDROOT
BRANCH   2   5
ATOM      5  C   UNL     1       6.588  -3.599  -4.508  1.00  0.00     0.171 C 
ATOM      6  C   UNL     1       5.475  -3.962  -7.160  1.00  0.00     0.214 C 
ATOM      7  N   UNL     1       5.626  -5.106  -6.290  1.00  0.00    -0.303 N 
ATOM      8  C   UNL     1       6.515  -2.880  -6.916  1.00  0.00     0.057 C 
ATOM      9  C   UNL     1       6.102  -4.995  -4.994  1.00  0.00     0.247 C 
ATOM     10  C   UNL     1       6.452  -2.424  -5.474  1.00  0.00     0.040 C 
ATOM     11  O   UNL     1       6.147  -5.965  -4.226  1.00  0.00    -0.272 OA
BRANCH   6  12
ATOM     12  O   UNL     1       4.177  -3.448  -6.975  1.00  0.00    -0.373 OA
ATOM     13  H   UNL     1       3.646  -4.155  -6.550  1.00  0.00     0.213 HD
ENDBRANCH   6  12
BRANCH   7  14
ATOM     14  C   UNL     1       5.108  -6.398  -6.787  1.00  0.00     0.177 C 
BRANCH  14  15
ATOM     15  C   UNL     1       6.140  -7.542  -6.838  1.00  0.00     0.038 C 
BRANCH  15  16
ATOM     16  C   UNL     1       7.141  -7.611  -8.013  1.00  0.00    -0.015 C 
ATOM     17  C   UNL     1       6.444  -7.595  -9.376  1.00  0.00     0.007 C 
ATOM     18  C   UNL     1       7.970  -8.898  -7.912  1.00  0.00     0.007 C 
ENDBRANCH  15  16
ENDBRANCH  14  15
BRANCH  14  19
ATOM     19  C   UNL     1       3.595  -6.559  -6.411  1.00  0.00     0.245 C 
ATOM     20  O   UNL     1       2.808  -5.726  -6.892  1.00  0.00    -0.272 OA
BRANCH  19  21
ATOM     21  N   UNL     1       3.120  -7.488  -5.503  1.00  0.00    -0.332 N 
ATOM     22  C   UNL     1       3.515  -7.583  -4.109  1.00  0.00     0.147 C 
BRANCH  21  23
ATOM     23  C   UNL     1       2.128  -8.489  -5.986  1.00  0.00     0.178 C 
BRANCH  23  24
ATOM     24  C   UNL     1       2.736  -9.830  -6.445  1.00  0.00     0.070 C 
BRANCH  24  25
ATOM     25  C   UNL     1       2.792 -10.086  -7.933  1.00  0.00    -0.045 A 
ATOM     26  C   UNL     1       2.592 -11.374  -8.448  1.00  0.00     0.004 A 
ATOM     27  C   UNL     1       3.053  -9.033  -8.823  1.00  0.00     0.004 A 
ATOM     28  C   UNL     1       2.663 -11.605  -9.823  1.00  0.00     0.000 A 
ATOM     29  C   UNL     1       3.122  -9.266 -10.197  1.00  0.00     0.000 A 
ATOM     30  C   UNL     1       2.930 -10.553 -10.696  1.00  0.00     0.000 A 
ENDBRANCH  24  25
ENDBRANCH  23  24
BRANCH  23  31
ATOM     31  C   UNL     1       0.897  -8.615  -5.057  1.00  0.00     0.243 C 
ATOM     32  O   UNL     1       0.653  -9.604  -4.370  1.00  0.00    -0.273 OA
ATOM     33  N   UNL     1      -0.015  -7.584  -5.205  1.00  0.00    -0.341 N 
ATOM     34  H   UNL     1       0.242  -6.790  -5.796  1.00  0.00     0.164 HD
BRANCH  33  35
ATOM     35  C   UNL     1      -1.308  -7.557  -4.515  1.00  0.00     0.194 C 
BRANCH  35  36
ATOM     36  C   UNL     1      -2.536  -7.629  -5.466  1.00  0.00     0.017 C 
ATOM     37  C   UNL     1      -3.132  -9.047  -5.504  1.00  0.00     0.010 C 
ATOM     38  C   UNL     1      -2.207  -7.230  -6.910  1.00  0.00     0.010 C 
ENDBRANCH  35  36
BRANCH  35  39
ATOM     39  C   UNL     1      -1.423  -6.379  -3.507  1.00  0.00     0.329 C 
ATOM     40  O   UNL     1      -2.416  -6.154  -2.825  1.00  0.00    -0.250 OA
BRANCH  39  41
ATOM     41  O   UNL     1      -0.258  -5.671  -3.400  1.00  0.00    -0.458 OA
BRANCH  41  42
ATOM     42  C   UNL     1       0.576  -5.978  -2.257  1.00  0.00     0.205 CG0
ATOM     43  C   UNL     1      -0.141  -7.057  -1.448  1.00  0.00     0.056 C 
ATOM     44  G   UNL     1       0.796  -4.684  -1.448  1.00  0.00     0.000 G0
ENDBRANCH  41  42
ENDBRANCH  39  41
ENDBRANCH  35  39
ENDBRANCH  33  35
ENDBRANCH  23  31
ENDBRANCH  21  23
ENDBRANCH  19  21
ENDBRANCH  14  19
ENDBRANCH   7  14
ENDBRANCH   2   5
BRANCH   3  45
ATOM     45  C   UNL     1       4.115  -2.758  -1.704  1.00  0.00     0.171 C 
BRANCH  45  46
ATOM     46  N   UNL     1       2.711  -3.142  -1.652  1.00  0.00    -0.342 N 
ATOM     47  C   UNL     1       2.307  -4.409  -1.314  1.00  0.00     0.247 C 
ATOM     48  O   UNL     1       3.092  -5.289  -0.960  1.00  0.00    -0.273 OA
ATOM     49  H   UNL     1       2.023  -2.428  -1.883  1.00  0.00     0.164 HD
BRANCH  47  50
ATOM     50  C   UNL     1       0.798  -4.664  -1.434  1.00  0.00     0.212 CG0
ATOM     51  G   UNL     1       0.606  -5.966  -2.237  1.00  0.00     0.000 G0
BRANCH  50  52
ATOM     52  N   UNL     1       0.307  -4.755  -0.061  1.00  0.00    -0.339 N 
ATOM     53  C   UNL     1      -0.517  -3.817   0.510  1.00  0.00     0.243 C 
ATOM     54  O   UNL     1      -0.865  -2.796  -0.076  1.00  0.00    -0.273 OA
ATOM     55  H   UNL     1       0.650  -5.523   0.513  1.00  0.00     0.164 HD
BRANCH  53  56
ATOM     56  C   UNL     1      -0.833  -4.082   1.997  1.00  0.00     0.182 C 
BRANCH  56  57
ATOM     57  N   UNL     1      -1.987  -4.975   2.139  1.00  0.00    -0.344 N 
ATOM     58  C   UNL     1      -1.860  -6.342   2.177  1.00  0.00     0.220 C 
ATOM     59  O   UNL     1      -0.786  -6.913   2.022  1.00  0.00    -0.275 OA
ATOM     60  H   UNL     1      -2.878  -4.543   2.372  1.00  0.00     0.164 HD
BRANCH  58  61
ATOM     61  C   UNL     1      -3.178  -7.063   2.389  1.00  0.00     0.100 C 
BRANCH  61  62
ATOM     62  C   UNL     1      -3.394  -8.243   1.441  1.00  0.00     0.010 C 
BRANCH  62  63
ATOM     63  C   UNL     1      -3.394  -7.862  -0.045  1.00  0.00     0.000 C 
BRANCH  63  64
ATOM     64  C   UNL     1      -4.091  -8.876  -0.952  1.00  0.00    -0.003 C 
ATOM     65  C   UNL     1      -3.097  -9.861  -1.549  1.00  0.00     0.004 C 
ENDBRANCH  63  64
ENDBRANCH  62  63
ENDBRANCH  61  62
ENDBRANCH  58  61
ENDBRANCH  56  57
BRANCH  56  66
ATOM     66  C   UNL     1      -1.014  -2.778   2.771  1.00  0.00     0.157 C 
BRANCH  66  67
ATOM     67  C   UNL     1      -0.767  -2.978   4.239  1.00  0.00     0.305 C 
ATOM     68  O   UNL     1      -0.738  -4.042   4.838  1.00  0.00    -0.252 OA
BRANCH  67  69
ATOM     69  O   UNL     1      -0.514  -1.820   4.878  1.00  0.00    -0.481 OA
ATOM     70  H   UNL     1       0.065  -1.318   4.267  1.00  0.00     0.296 HD
ENDBRANCH  67  69
ENDBRANCH  66  67
ENDBRANCH  56  66
ENDBRANCH  53  56
ENDBRANCH  50  52
ENDBRANCH  47  50
ENDBRANCH  45  46
BRANCH  45  71
ATOM     71  C   UNL     1       4.294  -1.245  -1.530  1.00  0.00     0.037 C 
BRANCH  71  72
ATOM     72  C   UNL     1       3.215  -0.449  -2.269  1.00  0.00     0.026 C 
BRANCH  72  73
ATOM     73  C   UNL     1       2.643   0.665  -1.395  1.00  0.00     0.146 C 
BRANCH  73  74
ATOM     74  N   UNL     1       1.188   0.609  -1.496  1.00  0.00    -0.254 NA
ATOM     75  C   UNL     1       0.538   0.114  -0.509  1.00  0.00     0.185 C 
ATOM     76  N   UNL     1      -0.802   0.050  -0.571  1.00  0.00    -0.370 N 
ATOM     77  N   UNL     1       1.008  -0.382   0.649  1.00  0.00    -0.370 N 
ATOM     78  H   UNL     1      -1.238   0.396  -1.414  1.00  0.00     0.159 HD
ATOM     79  H   UNL     1      -1.364  -0.452   0.093  1.00  0.00     0.159 HD
ATOM     80  H   UNL     1       1.999  -0.395   0.838  1.00  0.00     0.159 HD
ATOM     81  H   UNL     1       0.392  -0.639   1.403  1.00  0.00     0.159 HD
ENDBRANCH  73  74
ENDBRANCH  72  73
ENDBRANCH  71  72
ENDBRANCH  45  71
ENDBRANCH   3  45
TORSDOF 20
ENDMDL
MODEL 5
REMARK VINA RESULT:    -5.967      2.255      3.766
REMARK INTER + INTRA:         -22.921
REMARK INTER:                 -18.762
REMARK INTRA:                  -4.158
REMARK UNBOUND:                -5.791
REMARK SMILES CCCCCC(=O)N[C@H](CC(=O)O)C(=O)N[C@H]1C(=O)N[C@H](CCCN=C(N)N)C(=O)N[C@@H]2CC[C@H](O)N(C2=O)[C@@H](CC(C)C)C(=O)N(C)[C@@H](Cc2ccccc2)C(=O)N[C@H](C(C)C)C(=O)O[C@@H]1C
REMARK SMILES IDX 30 1 31 2 29 3 32 5 35 6 37 7 34 8 38 9 33 10 39 11 36 12
REMARK SMILES IDX 40 14 41 15 42 16 43 17 44 18 45 19 46 20 47 21 48 22 49 23
REMARK SMILES IDX 50 24 51 25 52 26 56 27 53 28 55 29 54 30 57 31 58 32 59 33
REMARK SMILES IDX 60 35 61 36 62 37 63 38 64 39 65 40 66 41 67 42 68 43 21 45
REMARK SMILES IDX 20 46 18 47 19 48 17 50 16 52 14 53 15 54 9 56 8 57 6 58
REMARK SMILES IDX 7 59 5 61 4 62 3 63 2 64 1 65 10 66 11 67 12 68 13 69 22 71
REMARK SMILES IDX 23 72 24 73 25 74 26 75 27 76 28 77
REMARK H PARENT 31 4 36 13 59 34 20 49 16 55 8 60 13 70 27 78 27 79 28 80
REMARK H PARENT 28 81
REMARK Flexibility Score:  259.900
ROOT
ATOM      1  O   UNL     1       3.965  -3.757  -3.999  1.00  0.00    -0.273 OA
ATOM      2  N   UNL     1       6.063  -3.126  -3.341  1.00  0.00    -0.343 N 
ATOM      3  C   UNL     1       4.709  -3.287  -3.138  1.00  0.00     0.243 C 
ATOM      4  H   UNL     1       6.646  -2.749  -2.605  1.00  0.00     0.164 HD
ENDROOT
BRANCH   2   5
ATOM      5  C   UNL     1       6.655  -3.400  -4.646  1.00  0.00     0.171 C 
ATOM      6  C   UNL     1       5.504  -3.994  -7.240  1.00  0.00     0.214 C 
ATOM      7  N   UNL     1       5.834  -5.078  -6.344  1.00  0.00    -0.303 N 
ATOM      8  C   UNL     1       6.401  -2.778  -7.070  1.00  0.00     0.057 C 
ATOM      9  C   UNL     1       6.339  -4.862  -5.072  1.00  0.00     0.247 C 
ATOM     10  C   UNL     1       6.331  -2.286  -5.640  1.00  0.00     0.040 C 
ATOM     11  O   UNL     1       6.538  -5.792  -4.279  1.00  0.00    -0.272 OA
BRANCH   6  12
ATOM     12  O   UNL     1       4.157  -3.647  -7.018  1.00  0.00    -0.373 OA
ATOM     13  H   UNL     1       4.140  -2.693  -6.791  1.00  0.00     0.213 HD
ENDBRANCH   6  12
BRANCH   7  14
ATOM     14  C   UNL     1       5.474  -6.443  -6.782  1.00  0.00     0.177 C 
BRANCH  14  15
ATOM     15  C   UNL     1       6.602  -7.486  -6.673  1.00  0.00     0.038 C 
BRANCH  15  16
ATOM     16  C   UNL     1       7.092  -8.213  -7.946  1.00  0.00    -0.015 C 
ATOM     17  C   UNL     1       7.888  -7.293  -8.875  1.00  0.00     0.007 C 
ATOM     18  C   UNL     1       5.889  -8.759  -8.726  1.00  0.00     0.007 C 
ENDBRANCH  15  16
ENDBRANCH  14  15
BRANCH  14  19
ATOM     19  C   UNL     1       3.955  -6.718  -6.508  1.00  0.00     0.245 C 
ATOM     20  O   UNL     1       3.140  -6.131  -7.239  1.00  0.00    -0.272 OA
BRANCH  19  21
ATOM     21  N   UNL     1       3.487  -7.474  -5.448  1.00  0.00    -0.332 N 
ATOM     22  C   UNL     1       3.698  -7.176  -4.043  1.00  0.00     0.147 C 
BRANCH  21  23
ATOM     23  C   UNL     1       2.708  -8.704  -5.761  1.00  0.00     0.178 C 
BRANCH  23  24
ATOM     24  C   UNL     1       3.548  -9.996  -5.841  1.00  0.00     0.070 C 
BRANCH  24  25
ATOM     25  C   UNL     1       4.640 -10.172  -4.811  1.00  0.00    -0.045 A 
ATOM     26  C   UNL     1       5.964 -10.405  -5.203  1.00  0.00     0.004 A 
ATOM     27  C   UNL     1       4.338 -10.108  -3.442  1.00  0.00     0.004 A 
ATOM     28  C   UNL     1       6.964 -10.584  -4.245  1.00  0.00     0.000 A 
ATOM     29  C   UNL     1       5.340 -10.285  -2.486  1.00  0.00     0.000 A 
ATOM     30  C   UNL     1       6.652 -10.526  -2.889  1.00  0.00     0.000 A 
ENDBRANCH  24  25
ENDBRANCH  23  24
BRANCH  23  31
ATOM     31  C   UNL     1       1.408  -8.823  -4.931  1.00  0.00     0.243 C 
ATOM     32  O   UNL     1       1.145  -9.772  -4.198  1.00  0.00    -0.273 OA
ATOM     33  N   UNL     1       0.471  -7.847  -5.229  1.00  0.00    -0.341 N 
ATOM     34  H   UNL     1       0.746  -7.084  -5.853  1.00  0.00     0.164 HD
BRANCH  33  35
ATOM     35  C   UNL     1      -0.877  -7.832  -4.654  1.00  0.00     0.194 C 
BRANCH  35  36
ATOM     36  C   UNL     1      -2.016  -7.982  -5.701  1.00  0.00     0.017 C 
ATOM     37  C   UNL     1      -2.205  -9.451  -6.116  1.00  0.00     0.010 C 
ATOM     38  C   UNL     1      -1.772  -7.171  -6.980  1.00  0.00     0.010 C 
ENDBRANCH  35  36
BRANCH  35  39
ATOM     39  C   UNL     1      -1.111  -6.618  -3.711  1.00  0.00     0.329 C 
ATOM     40  O   UNL     1      -2.180  -6.368  -3.167  1.00  0.00    -0.250 OA
BRANCH  39  41
ATOM     41  O   UNL     1       0.035  -5.906  -3.486  1.00  0.00    -0.458 OA
BRANCH  41  42
ATOM     42  C   UNL     1       0.717  -6.167  -2.236  1.00  0.00     0.205 CG0
ATOM     43  C   UNL     1      -0.138  -7.160  -1.451  1.00  0.00     0.056 C 
ATOM     44  G   UNL     1       0.904  -4.831  -1.490  1.00  0.00     0.000 G0
ENDBRANCH  41  42
ENDBRANCH  39  41
ENDBRANCH  35  39
ENDBRANCH  33  35
ENDBRANCH  23  31
ENDBRANCH  21  23
ENDBRANCH  19  21
ENDBRANCH  14  19
ENDBRANCH   7  14
ENDBRANCH   2   5
BRANCH   3  45
ATOM     45  C   UNL     1       4.197  -2.860  -1.756  1.00  0.00     0.171 C 
BRANCH  45  46
ATOM     46  N   UNL     1       2.799  -3.268  -1.710  1.00  0.00    -0.342 N 
ATOM     47  C   UNL     1       2.414  -4.537  -1.356  1.00  0.00     0.247 C 
ATOM     48  O   UNL     1       3.212  -5.398  -0.983  1.00  0.00    -0.273 OA
ATOM     49  H   UNL     1       2.101  -2.569  -1.957  1.00  0.00     0.164 HD
BRANCH  47  50
ATOM     50  C   UNL     1       0.911  -4.820  -1.485  1.00  0.00     0.212 CG0
ATOM     51  G   UNL     1       0.750  -6.158  -2.235  1.00  0.00     0.000 G0
BRANCH  50  52
ATOM     52  N   UNL     1       0.403  -4.860  -0.117  1.00  0.00    -0.339 N 
ATOM     53  C   UNL     1      -0.057  -3.752   0.552  1.00  0.00     0.243 C 
ATOM     54  O   UNL     1      -0.027  -2.625   0.064  1.00  0.00    -0.273 OA
ATOM     55  H   UNL     1       0.456  -5.747   0.381  1.00  0.00     0.164 HD
BRANCH  53  56
ATOM     56  C   UNL     1      -0.461  -4.024   2.015  1.00  0.00     0.182 C 
BRANCH  56  57
ATOM     57  N   UNL     1      -1.668  -4.855   2.082  1.00  0.00    -0.344 N 
ATOM     58  C   UNL     1      -1.615  -6.227   2.113  1.00  0.00     0.220 C 
ATOM     59  O   UNL     1      -0.566  -6.854   2.015  1.00  0.00    -0.275 OA
ATOM     60  H   UNL     1      -2.546  -4.378   2.267  1.00  0.00     0.164 HD
BRANCH  58  61
ATOM     61  C   UNL     1      -2.980  -6.878   2.242  1.00  0.00     0.100 C 
BRANCH  61  62
ATOM     62  C   UNL     1      -3.059  -8.272   1.619  1.00  0.00     0.010 C 
BRANCH  62  63
ATOM     63  C   UNL     1      -4.138  -8.416   0.538  1.00  0.00     0.000 C 
BRANCH  63  64
ATOM     64  C   UNL     1      -3.612  -8.899  -0.813  1.00  0.00    -0.003 C 
ATOM     65  C   UNL     1      -4.601  -8.604  -1.931  1.00  0.00     0.004 C 
ENDBRANCH  63  64
ENDBRANCH  62  63
ENDBRANCH  61  62
ENDBRANCH  58  61
ENDBRANCH  56  57
BRANCH  56  66
ATOM     66  C   UNL     1      -0.611  -2.726   2.805  1.00  0.00     0.157 C 
BRANCH  66  67
ATOM     67  C   UNL     1      -0.665  -2.992   4.282  1.00  0.00     0.305 C 
ATOM     68  O   UNL     1      -0.752  -4.081   4.828  1.00  0.00    -0.252 OA
BRANCH  67  69
ATOM     69  O   UNL     1      -0.553  -1.864   5.010  1.00  0.00    -0.481 OA
ATOM     70  H   UNL     1      -0.057  -1.244   4.434  1.00  0.00     0.296 HD
ENDBRANCH  67  69
ENDBRANCH  66  67
ENDBRANCH  56  66
ENDBRANCH  53  56
ENDBRANCH  50  52
ENDBRANCH  47  50
ENDBRANCH  45  46
BRANCH  45  71
ATOM     71  C   UNL     1       4.350  -1.345  -1.574  1.00  0.00     0.037 C 
BRANCH  71  72
ATOM     72  C   UNL     1       3.354  -0.560  -2.432  1.00  0.00     0.026 C 
BRANCH  72  73
ATOM     73  C   UNL     1       2.621   0.499  -1.610  1.00  0.00     0.146 C 
BRANCH  73  74
ATOM     74  N   UNL     1       1.188   0.316  -1.823  1.00  0.00    -0.254 NA
ATOM     75  C   UNL     1       0.430   0.278  -0.790  1.00  0.00     0.185 C 
ATOM     76  N   UNL     1      -0.893   0.112  -0.954  1.00  0.00    -0.370 N 
ATOM     77  N   UNL     1       0.763   0.383   0.508  1.00  0.00    -0.370 N 
ATOM     78  H   UNL     1      -1.228   0.016  -1.902  1.00  0.00     0.159 HD
ATOM     79  H   UNL     1      -1.526  -0.072  -0.196  1.00  0.00     0.159 HD
ATOM     80  H   UNL     1       1.725   0.515   0.782  1.00  0.00     0.159 HD
ATOM     81  H   UNL     1       0.064   0.454   1.229  1.00  0.00     0.159 HD
ENDBRANCH  73  74
ENDBRANCH  72  73
ENDBRANCH  71  72
ENDBRANCH  45  71
ENDBRANCH   3  45
TORSDOF 20
ENDMDL
MODEL 6
REMARK VINA RESULT:    -5.813      1.591      2.897
REMARK INTER + INTRA:         -22.479
REMARK INTER:                 -17.999
REMARK INTRA:                  -4.480
REMARK UNBOUND:                -5.791
REMARK SMILES CCCCCC(=O)N[C@H](CC(=O)O)C(=O)N[C@H]1C(=O)N[C@H](CCCN=C(N)N)C(=O)N[C@@H]2CC[C@H](O)N(C2=O)[C@@H](CC(C)C)C(=O)N(C)[C@@H](Cc2ccccc2)C(=O)N[C@H](C(C)C)C(=O)O[C@@H]1C
REMARK SMILES IDX 30 1 31 2 29 3 32 5 35 6 37 7 34 8 38 9 33 10 39 11 36 12
REMARK SMILES IDX 40 14 41 15 42 16 43 17 44 18 45 19 46 20 47 21 48 22 49 23
REMARK SMILES IDX 50 24 51 25 52 26 56 27 53 28 55 29 54 30 57 31 58 32 59 33
REMARK SMILES IDX 60 35 61 36 62 37 63 38 64 39 65 40 66 41 67 42 68 43 21 45
REMARK SMILES IDX 20 46 18 47 19 48 17 50 16 52 14 53 15 54 9 56 8 57 6 58
REMARK SMILES IDX 7 59 5 61 4 62 3 63 2 64 1 65 10 66 11 67 12 68 13 69 22 71
REMARK SMILES IDX 23 72 24 73 25 74 26 75 27 76 28 77
REMARK H PARENT 31 4 36 13 59 34 20 49 16 55 8 60 13 70 27 78 27 79 28 80
REMARK H PARENT 28 81
REMARK Flexibility Score:  259.900
ROOT
ATOM      1  O   UNL     1       8.268  -4.217  -2.955  1.00  0.00    -0.273 OA
ATOM      2  N   UNL     1       6.534  -3.691  -4.351  1.00  0.00    -0.343 N 
ATOM      3  C   UNL     1       7.073  -3.962  -3.111  1.00  0.00     0.243 C 
ATOM      4  H   UNL     1       5.550  -3.471  -4.440  1.00  0.00     0.164 HD
ENDROOT
BRANCH   2   5
ATOM      5  C   UNL     1       7.346  -3.814  -5.556  1.00  0.00     0.171 C 
ATOM      6  C   UNL     1       6.668  -4.059  -8.365  1.00  0.00     0.214 C 
ATOM      7  N   UNL     1       6.837  -5.252  -7.568  1.00  0.00    -0.303 N 
ATOM      8  C   UNL     1       7.521  -2.893  -7.890  1.00  0.00     0.057 C 
ATOM      9  C   UNL     1       7.111  -5.206  -6.211  1.00  0.00     0.247 C 
ATOM     10  C   UNL     1       7.201  -2.579  -6.444  1.00  0.00     0.040 C 
ATOM     11  O   UNL     1       7.169  -6.231  -5.518  1.00  0.00    -0.272 OA
BRANCH   6  12
ATOM     12  O   UNL     1       5.303  -3.714  -8.338  1.00  0.00    -0.373 OA
ATOM     13  H   UNL     1       4.794  -4.549  -8.409  1.00  0.00     0.213 HD
ENDBRANCH   6  12
BRANCH   7  14
ATOM     14  C   UNL     1       6.560  -6.544  -8.230  1.00  0.00     0.177 C 
BRANCH  14  15
ATOM     15  C   UNL     1       7.806  -7.357  -8.632  1.00  0.00     0.038 C 
BRANCH  15  16
ATOM     16  C   UNL     1       8.062  -7.670 -10.123  1.00  0.00    -0.015 C 
ATOM     17  C   UNL     1       8.276  -6.404 -10.958  1.00  0.00     0.007 C 
ATOM     18  C   UNL     1       6.865  -8.432 -10.705  1.00  0.00     0.007 C 
ENDBRANCH  15  16
ENDBRANCH  14  15
BRANCH  14  19
ATOM     19  C   UNL     1       5.216  -7.150  -7.697  1.00  0.00     0.245 C 
ATOM     20  O   UNL     1       4.336  -6.343  -7.352  1.00  0.00    -0.272 OA
BRANCH  19  21
ATOM     21  N   UNL     1       5.007  -8.502  -7.491  1.00  0.00    -0.332 N 
ATOM     22  C   UNL     1       5.931  -9.406  -6.828  1.00  0.00     0.147 C 
BRANCH  21  23
ATOM     23  C   UNL     1       3.739  -9.096  -7.996  1.00  0.00     0.178 C 
BRANCH  23  24
ATOM     24  C   UNL     1       3.920 -10.191  -9.068  1.00  0.00     0.070 C 
BRANCH  24  25
ATOM     25  C   UNL     1       3.238  -9.971 -10.398  1.00  0.00    -0.045 A 
ATOM     26  C   UNL     1       2.580 -11.022 -11.049  1.00  0.00     0.004 A 
ATOM     27  C   UNL     1       3.260  -8.706 -11.004  1.00  0.00     0.004 A 
ATOM     28  C   UNL     1       1.967 -10.815 -12.287  1.00  0.00     0.000 A 
ATOM     29  C   UNL     1       2.646  -8.500 -12.241  1.00  0.00     0.000 A 
ATOM     30  C   UNL     1       2.003  -9.556 -12.883  1.00  0.00     0.000 A 
ENDBRANCH  24  25
ENDBRANCH  23  24
BRANCH  23  31
ATOM     31  C   UNL     1       2.745  -9.450  -6.864  1.00  0.00     0.243 C 
ATOM     32  O   UNL     1       2.515 -10.596  -6.486  1.00  0.00    -0.273 OA
ATOM     33  N   UNL     1       1.990  -8.372  -6.434  1.00  0.00    -0.341 N 
ATOM     34  H   UNL     1       2.225  -7.443  -6.790  1.00  0.00     0.164 HD
BRANCH  33  35
ATOM     35  C   UNL     1       0.906  -8.496  -5.455  1.00  0.00     0.194 C 
BRANCH  35  36
ATOM     36  C   UNL     1      -0.121  -7.331  -5.495  1.00  0.00     0.017 C 
ATOM     37  C   UNL     1      -1.392  -7.678  -4.699  1.00  0.00     0.010 C 
ATOM     38  C   UNL     1      -0.558  -6.959  -6.917  1.00  0.00     0.010 C 
ENDBRANCH  35  36
BRANCH  35  39
ATOM     39  C   UNL     1       1.429  -8.761  -4.015  1.00  0.00     0.329 C 
ATOM     40  O   UNL     1       1.742  -9.867  -3.591  1.00  0.00    -0.250 OA
BRANCH  39  41
ATOM     41  O   UNL     1       1.584  -7.607  -3.298  1.00  0.00    -0.458 OA
BRANCH  41  42
ATOM     42  C   UNL     1       2.817  -6.880  -3.513  1.00  0.00     0.205 CG0
ATOM     43  C   UNL     1       3.954  -7.744  -2.972  1.00  0.00     0.056 C 
ATOM     44  G   UNL     1       2.718  -5.520  -2.793  1.00  0.00     0.000 G0
ENDBRANCH  41  42
ENDBRANCH  39  41
ENDBRANCH  35  39
ENDBRANCH  33  35
ENDBRANCH  23  31
ENDBRANCH  21  23
ENDBRANCH  19  21
ENDBRANCH  14  19
ENDBRANCH   7  14
ENDBRANCH   2   5
BRANCH   3  45
ATOM     45  C   UNL     1       6.086  -3.902  -1.938  1.00  0.00     0.171 C 
BRANCH  45  46
ATOM     46  N   UNL     1       4.782  -4.220  -2.505  1.00  0.00    -0.342 N 
ATOM     47  C   UNL     1       3.984  -5.218  -2.003  1.00  0.00     0.247 C 
ATOM     48  O   UNL     1       4.278  -5.866  -0.997  1.00  0.00    -0.273 OA
ATOM     49  H   UNL     1       4.475  -3.670  -3.304  1.00  0.00     0.164 HD
BRANCH  47  50
ATOM     50  C   UNL     1       2.704  -5.492  -2.804  1.00  0.00     0.212 CG0
ATOM     51  G   UNL     1       2.857  -6.871  -3.474  1.00  0.00     0.000 G0
BRANCH  50  52
ATOM     52  N   UNL     1       1.617  -5.441  -1.830  1.00  0.00    -0.339 N 
ATOM     53  C   UNL     1       1.038  -4.270  -1.404  1.00  0.00     0.243 C 
ATOM     54  O   UNL     1       1.429  -3.166  -1.772  1.00  0.00    -0.273 OA
ATOM     55  H   UNL     1       1.322  -6.317  -1.403  1.00  0.00     0.164 HD
BRANCH  53  56
ATOM     56  C   UNL     1      -0.031  -4.461  -0.308  1.00  0.00     0.182 C 
BRANCH  56  57
ATOM     57  N   UNL     1      -0.258  -3.213   0.428  1.00  0.00    -0.344 N 
ATOM     58  C   UNL     1      -1.436  -2.512   0.341  1.00  0.00     0.220 C 
ATOM     59  O   UNL     1      -2.349  -2.838  -0.410  1.00  0.00    -0.275 OA
ATOM     60  H   UNL     1       0.428  -2.964   1.135  1.00  0.00     0.164 HD
BRANCH  58  61
ATOM     61  C   UNL     1      -1.472  -1.284   1.233  1.00  0.00     0.100 C 
BRANCH  61  62
ATOM     62  C   UNL     1      -1.182   0.023   0.495  1.00  0.00     0.010 C 
BRANCH  62  63
ATOM     63  C   UNL     1       0.312   0.309   0.291  1.00  0.00     0.000 C 
BRANCH  63  64
ATOM     64  C   UNL     1       0.777   0.212  -1.161  1.00  0.00    -0.003 C 
ATOM     65  C   UNL     1       2.050   1.012  -1.391  1.00  0.00     0.004 C 
ENDBRANCH  63  64
ENDBRANCH  62  63
ENDBRANCH  61  62
ENDBRANCH  58  61
ENDBRANCH  56  57
BRANCH  56  66
ATOM     66  C   UNL     1       0.320  -5.622   0.620  1.00  0.00     0.157 C 
BRANCH  66  67
ATOM     67  C   UNL     1      -0.917  -6.289   1.148  1.00  0.00     0.305 C 
ATOM     68  O   UNL     1      -1.195  -6.496   2.319  1.00  0.00    -0.252 OA
BRANCH  67  69
ATOM     69  O   UNL     1      -1.778  -6.620   0.167  1.00  0.00    -0.481 OA
ATOM     70  H   UNL     1      -2.256  -7.406   0.508  1.00  0.00     0.296 HD
ENDBRANCH  67  69
ENDBRANCH  66  67
ENDBRANCH  56  66
ENDBRANCH  53  56
ENDBRANCH  50  52
ENDBRANCH  47  50
ENDBRANCH  45  46
BRANCH  45  71
ATOM     71  C   UNL     1       6.100  -2.510  -1.299  1.00  0.00     0.037 C 
BRANCH  71  72
ATOM     72  C   UNL     1       4.911  -1.657  -1.748  1.00  0.00     0.026 C 
BRANCH  72  73
ATOM     73  C   UNL     1       5.251  -0.169  -1.734  1.00  0.00     0.146 C 
BRANCH  73  74
ATOM     74  N   UNL     1       6.432   0.028  -2.568  1.00  0.00    -0.254 NA
ATOM     75  C   UNL     1       6.273   0.033  -3.840  1.00  0.00     0.185 C 
ATOM     76  N   UNL     1       7.341   0.212  -4.635  1.00  0.00    -0.370 N 
ATOM     77  N   UNL     1       5.142  -0.121  -4.551  1.00  0.00    -0.370 N 
ATOM     78  H   UNL     1       8.235   0.329  -4.180  1.00  0.00     0.159 HD
ATOM     79  H   UNL     1       7.317   0.085  -5.631  1.00  0.00     0.159 HD
ATOM     80  H   UNL     1       4.258  -0.261  -4.085  1.00  0.00     0.159 HD
ATOM     81  H   UNL     1       5.121   0.017  -5.548  1.00  0.00     0.159 HD
ENDBRANCH  73  74
ENDBRANCH  72  73
ENDBRANCH  71  72
ENDBRANCH  45  71
ENDBRANCH   3  45
TORSDOF 20
ENDMDL
MODEL 7
REMARK VINA RESULT:    -5.805      2.689      9.649
REMARK INTER + INTRA:         -22.455
REMARK INTER:                 -17.391
REMARK INTRA:                  -5.063
REMARK UNBOUND:                -5.791
REMARK SMILES CCCCCC(=O)N[C@H](CC(=O)O)C(=O)N[C@H]1C(=O)N[C@H](CCCN=C(N)N)C(=O)N[C@@H]2CC[C@H](O)N(C2=O)[C@@H](CC(C)C)C(=O)N(C)[C@@H](Cc2ccccc2)C(=O)N[C@H](C(C)C)C(=O)O[C@@H]1C
REMARK SMILES IDX 30 1 31 2 29 3 32 5 35 6 37 7 34 8 38 9 33 10 39 11 36 12
REMARK SMILES IDX 40 14 41 15 42 16 43 17 44 18 45 19 46 20 47 21 48 22 49 23
REMARK SMILES IDX 50 24 51 25 52 26 56 27 53 28 55 29 54 30 57 31 58 32 59 33
REMARK SMILES IDX 60 35 61 36 62 37 63 38 64 39 65 40 66 41 67 42 68 43 21 45
REMARK SMILES IDX 20 46 18 47 19 48 17 50 16 52 14 53 15 54 9 56 8 57 6 58
REMARK SMILES IDX 7 59 5 61 4 62 3 63 2 64 1 65 10 66 11 67 12 68 13 69 22 71
REMARK SMILES IDX 23 72 24 73 25 74 26 75 27 76 28 77
REMARK H PARENT 31 4 36 13 59 34 20 49 16 55 8 60 13 70 27 78 27 79 28 80
REMARK H PARENT 28 81
REMARK Flexibility Score:  259.900
ROOT
ATOM      1  O   UNL     1      -1.331  -0.736   1.063  1.00  0.00    -0.273 OA
ATOM      2  N   UNL     1      -0.193  -2.603   1.734  1.00  0.00    -0.343 N 
ATOM      3  C   UNL     1      -0.428  -1.552   0.875  1.00  0.00     0.243 C 
ATOM      4  H   UNL     1       0.568  -3.246   1.556  1.00  0.00     0.164 HD
ENDROOT
BRANCH   2   5
ATOM      5  C   UNL     1      -1.094  -2.863   2.852  1.00  0.00     0.171 C 
ATOM      6  C   UNL     1      -1.229  -4.996   4.811  1.00  0.00     0.214 C 
ATOM      7  N   UNL     1      -1.973  -5.115   3.579  1.00  0.00    -0.303 N 
ATOM      8  C   UNL     1      -1.048  -3.557   5.269  1.00  0.00     0.057 C 
ATOM      9  C   UNL     1      -1.913  -4.157   2.580  1.00  0.00     0.247 C 
ATOM     10  C   UNL     1      -0.356  -2.758   4.186  1.00  0.00     0.040 C 
ATOM     11  O   UNL     1      -2.485  -4.307   1.492  1.00  0.00    -0.272 OA
BRANCH   6  12
ATOM     12  O   UNL     1       0.024  -5.612   4.619  1.00  0.00    -0.373 OA
ATOM     13  H   UNL     1       0.487  -5.108   3.916  1.00  0.00     0.213 HD
ENDBRANCH   6  12
BRANCH   7  14
ATOM     14  C   UNL     1      -2.699  -6.383   3.355  1.00  0.00     0.177 C 
BRANCH  14  15
ATOM     15  C   UNL     1      -4.210  -6.336   3.655  1.00  0.00     0.038 C 
BRANCH  15  16
ATOM     16  C   UNL     1      -4.734  -6.870   5.006  1.00  0.00    -0.015 C 
ATOM     17  C   UNL     1      -5.907  -7.840   4.836  1.00  0.00     0.007 C 
ATOM     18  C   UNL     1      -5.202  -5.700   5.880  1.00  0.00     0.007 C 
ENDBRANCH  15  16
ENDBRANCH  14  15
BRANCH  14  19
ATOM     19  C   UNL     1      -2.030  -7.194   2.191  1.00  0.00     0.245 C 
ATOM     20  O   UNL     1      -0.809  -7.031   2.026  1.00  0.00    -0.272 OA
BRANCH  19  21
ATOM     21  N   UNL     1      -2.733  -7.973   1.291  1.00  0.00    -0.332 N 
ATOM     22  C   UNL     1      -4.153  -8.269   1.361  1.00  0.00     0.147 C 
BRANCH  21  23
ATOM     23  C   UNL     1      -1.981  -8.575   0.155  1.00  0.00     0.178 C 
BRANCH  23  24
ATOM     24  C   UNL     1      -2.303 -10.059  -0.118  1.00  0.00     0.070 C 
BRANCH  24  25
ATOM     25  C   UNL     1      -3.037 -10.379  -1.399  1.00  0.00    -0.045 A 
ATOM     26  C   UNL     1      -2.558 -11.363  -2.274  1.00  0.00     0.004 A 
ATOM     27  C   UNL     1      -4.212  -9.689  -1.733  1.00  0.00     0.004 A 
ATOM     28  C   UNL     1      -3.233 -11.641  -3.464  1.00  0.00     0.000 A 
ATOM     29  C   UNL     1      -4.887  -9.969  -2.922  1.00  0.00     0.000 A 
ATOM     30  C   UNL     1      -4.395 -10.943  -3.788  1.00  0.00     0.000 A 
ENDBRANCH  24  25
ENDBRANCH  23  24
BRANCH  23  31
ATOM     31  C   UNL     1      -1.959  -7.671  -1.101  1.00  0.00     0.243 C 
ATOM     32  O   UNL     1      -2.915  -6.999  -1.480  1.00  0.00    -0.273 OA
ATOM     33  N   UNL     1      -0.822  -7.828  -1.874  1.00  0.00    -0.341 N 
ATOM     34  H   UNL     1      -0.062  -8.406  -1.509  1.00  0.00     0.164 HD
BRANCH  33  35
ATOM     35  C   UNL     1      -0.638  -7.163  -3.168  1.00  0.00     0.194 C 
BRANCH  35  36
ATOM     36  C   UNL     1      -0.710  -8.121  -4.390  1.00  0.00     0.017 C 
ATOM     37  C   UNL     1      -2.154  -8.272  -4.898  1.00  0.00     0.010 C 
ATOM     38  C   UNL     1      -0.181  -9.528  -4.087  1.00  0.00     0.010 C 
ENDBRANCH  35  36
BRANCH  35  39
ATOM     39  C   UNL     1       0.633  -6.269  -3.205  1.00  0.00     0.329 C 
ATOM     40  O   UNL     1       1.478  -6.314  -4.092  1.00  0.00    -0.250 OA
BRANCH  39  41
ATOM     41  O   UNL     1       0.662  -5.363  -2.181  1.00  0.00    -0.458 OA
BRANCH  41  42
ATOM     42  C   UNL     1       1.634  -5.607  -1.136  1.00  0.00     0.205 CG0
ATOM     43  C   UNL     1       0.878  -5.628   0.191  1.00  0.00     0.056 C 
ATOM     44  G   UNL     1       2.701  -4.496  -1.189  1.00  0.00     0.000 G0
ENDBRANCH  41  42
ENDBRANCH  39  41
ENDBRANCH  35  39
ENDBRANCH  33  35
ENDBRANCH  23  31
ENDBRANCH  21  23
ENDBRANCH  19  21
ENDBRANCH  14  19
ENDBRANCH   7  14
ENDBRANCH   2   5
BRANCH   3  45
ATOM     45  C   UNL     1       0.529  -1.455  -0.321  1.00  0.00     0.171 C 
BRANCH  45  46
ATOM     46  N   UNL     1       1.336  -2.668  -0.279  1.00  0.00    -0.342 N 
ATOM     47  C   UNL     1       2.033  -3.126  -1.369  1.00  0.00     0.247 C 
ATOM     48  O   UNL     1       2.087  -2.512  -2.435  1.00  0.00    -0.273 OA
ATOM     49  H   UNL     1       1.364  -3.178   0.601  1.00  0.00     0.164 HD
BRANCH  47  50
ATOM     50  C   UNL     1       2.723  -4.484  -1.174  1.00  0.00     0.212 CG0
ATOM     51  G   UNL     1       1.625  -5.565  -1.128  1.00  0.00     0.000 G0
BRANCH  50  52
ATOM     52  N   UNL     1       3.627  -4.627  -2.313  1.00  0.00    -0.339 N 
ATOM     53  C   UNL     1       4.985  -4.441  -2.227  1.00  0.00     0.243 C 
ATOM     54  O   UNL     1       5.541  -4.084  -1.192  1.00  0.00    -0.273 OA
ATOM     55  H   UNL     1       3.214  -4.813  -3.224  1.00  0.00     0.164 HD
BRANCH  53  56
ATOM     56  C   UNL     1       5.721  -4.562  -3.577  1.00  0.00     0.182 C 
BRANCH  56  57
ATOM     57  N   UNL     1       5.816  -5.962  -4.001  1.00  0.00    -0.344 N 
ATOM     58  C   UNL     1       5.209  -6.428  -5.142  1.00  0.00     0.220 C 
ATOM     59  O   UNL     1       4.489  -5.726  -5.844  1.00  0.00    -0.275 OA
ATOM     60  H   UNL     1       6.482  -6.549  -3.507  1.00  0.00     0.164 HD
BRANCH  58  61
ATOM     61  C   UNL     1       5.489  -7.894  -5.417  1.00  0.00     0.100 C 
BRANCH  61  62
ATOM     62  C   UNL     1       4.588  -8.502  -6.492  1.00  0.00     0.010 C 
BRANCH  62  63
ATOM     63  C   UNL     1       3.116  -8.629  -6.079  1.00  0.00     0.000 C 
BRANCH  63  64
ATOM     64  C   UNL     1       2.133  -8.597  -7.248  1.00  0.00    -0.003 C 
ATOM     65  C   UNL     1       1.486  -7.227  -7.393  1.00  0.00     0.004 C 
ENDBRANCH  63  64
ENDBRANCH  62  63
ENDBRANCH  61  62
ENDBRANCH  58  61
ENDBRANCH  56  57
BRANCH  56  66
ATOM     66  C   UNL     1       7.088  -3.879  -3.533  1.00  0.00     0.157 C 
BRANCH  66  67
ATOM     67  C   UNL     1       7.527  -3.454  -4.904  1.00  0.00     0.305 C 
ATOM     68  O   UNL     1       7.900  -4.181  -5.813  1.00  0.00    -0.252 OA
BRANCH  67  69
ATOM     69  O   UNL     1       7.426  -2.123  -5.084  1.00  0.00    -0.481 OA
ATOM     70  H   UNL     1       7.909  -1.946  -5.919  1.00  0.00     0.296 HD
ENDBRANCH  67  69
ENDBRANCH  66  67
ENDBRANCH  56  66
ENDBRANCH  53  56
ENDBRANCH  50  52
ENDBRANCH  47  50
ENDBRANCH  45  46
BRANCH  45  71
ATOM     71  C   UNL     1       1.396  -0.196  -0.211  1.00  0.00     0.037 C 
BRANCH  71  72
ATOM     72  C   UNL     1       1.486   0.559  -1.540  1.00  0.00     0.026 C 
BRANCH  72  73
ATOM     73  C   UNL     1       2.910   1.034  -1.819  1.00  0.00     0.146 C 
BRANCH  73  74
ATOM     74  N   UNL     1       3.361   0.397  -3.053  1.00  0.00    -0.254 NA
ATOM     75  C   UNL     1       4.250  -0.522  -2.962  1.00  0.00     0.185 C 
ATOM     76  N   UNL     1       4.684  -1.128  -4.079  1.00  0.00    -0.370 N 
ATOM     77  N   UNL     1       4.855  -1.007  -1.863  1.00  0.00    -0.370 N 
ATOM     78  H   UNL     1       4.284  -0.817  -4.953  1.00  0.00     0.159 HD
ATOM     79  H   UNL     1       5.474  -1.747  -4.101  1.00  0.00     0.159 HD
ATOM     80  H   UNL     1       4.624  -0.647  -0.949  1.00  0.00     0.159 HD
ATOM     81  H   UNL     1       5.457  -1.813  -1.904  1.00  0.00     0.159 HD
ENDBRANCH  73  74
ENDBRANCH  72  73
ENDBRANCH  71  72
ENDBRANCH  45  71
ENDBRANCH   3  45
TORSDOF 20
ENDMDL
MODEL 8
REMARK VINA RESULT:    -5.790      2.751      4.801
REMARK INTER + INTRA:         -22.412
REMARK INTER:                 -19.068
REMARK INTRA:                  -3.343
REMARK UNBOUND:                -5.791
REMARK SMILES CCCCCC(=O)N[C@H](CC(=O)O)C(=O)N[C@H]1C(=O)N[C@H](CCCN=C(N)N)C(=O)N[C@@H]2CC[C@H](O)N(C2=O)[C@@H](CC(C)C)C(=O)N(C)[C@@H](Cc2ccccc2)C(=O)N[C@H](C(C)C)C(=O)O[C@@H]1C
REMARK SMILES IDX 30 1 31 2 29 3 32 5 35 6 37 7 34 8 38 9 33 10 39 11 36 12
REMARK SMILES IDX 40 14 41 15 42 16 43 17 44 18 45 19 46 20 47 21 48 22 49 23
REMARK SMILES IDX 50 24 51 25 52 26 56 27 53 28 55 29 54 30 57 31 58 32 59 33
REMARK SMILES IDX 60 35 61 36 62 37 63 38 64 39 65 40 66 41 67 42 68 43 21 45
REMARK SMILES IDX 20 46 18 47 19 48 17 50 16 52 14 53 15 54 9 56 8 57 6 58
REMARK SMILES IDX 7 59 5 61 4 62 3 63 2 64 1 65 10 66 11 67 12 68 13 69 22 71
REMARK SMILES IDX 23 72 24 73 25 74 26 75 27 76 28 77
REMARK H PARENT 31 4 36 13 59 34 20 49 16 55 8 60 13 70 27 78 27 79 28 80
REMARK H PARENT 28 81
REMARK Flexibility Score:  259.900
ROOT
ATOM      1  O   UNL     1       5.707  -2.753  -2.500  1.00  0.00    -0.273 OA
ATOM      2  N   UNL     1       3.865  -3.384  -3.700  1.00  0.00    -0.343 N 
ATOM      3  C   UNL     1       4.488  -2.713  -2.669  1.00  0.00     0.243 C 
ATOM      4  H   UNL     1       2.862  -3.316  -3.817  1.00  0.00     0.164 HD
ENDROOT
BRANCH   2   5
ATOM      5  C   UNL     1       4.623  -4.276  -4.571  1.00  0.00     0.171 C 
ATOM      6  C   UNL     1       3.840  -6.051  -6.724  1.00  0.00     0.214 C 
ATOM      7  N   UNL     1       3.904  -6.558  -5.374  1.00  0.00    -0.303 N 
ATOM      8  C   UNL     1       4.826  -4.925  -6.992  1.00  0.00     0.057 C 
ATOM      9  C   UNL     1       4.221  -5.752  -4.292  1.00  0.00     0.247 C 
ATOM     10  C   UNL     1       4.584  -3.791  -6.019  1.00  0.00     0.040 C 
ATOM     11  O   UNL     1       4.190  -6.174  -3.128  1.00  0.00    -0.272 OA
BRANCH   6  12
ATOM     12  O   UNL     1       2.521  -5.617  -6.959  1.00  0.00    -0.373 OA
ATOM     13  H   UNL     1       2.364  -5.684  -7.925  1.00  0.00     0.213 HD
ENDBRANCH   6  12
BRANCH   7  14
ATOM     14  C   UNL     1       3.471  -7.956  -5.161  1.00  0.00     0.177 C 
BRANCH  14  15
ATOM     15  C   UNL     1       4.590  -8.936  -4.758  1.00  0.00     0.038 C 
BRANCH  15  16
ATOM     16  C   UNL     1       5.248  -9.823  -5.838  1.00  0.00    -0.015 C 
ATOM     17  C   UNL     1       6.385  -9.105  -6.570  1.00  0.00     0.007 C 
ATOM     18  C   UNL     1       4.199 -10.244  -6.874  1.00  0.00     0.007 C 
ENDBRANCH  15  16
ENDBRANCH  14  15
BRANCH  14  19
ATOM     19  C   UNL     1       1.997  -7.992  -4.626  1.00  0.00     0.245 C 
ATOM     20  O   UNL     1       1.846  -7.901  -3.396  1.00  0.00    -0.272 OA
BRANCH  19  21
ATOM     21  N   UNL     1       0.893  -8.229  -5.425  1.00  0.00    -0.332 N 
ATOM     22  C   UNL     1       0.527  -9.513  -5.997  1.00  0.00     0.147 C 
BRANCH  21  23
ATOM     23  C   UNL     1       0.002  -7.078  -5.741  1.00  0.00     0.178 C 
BRANCH  23  24
ATOM     24  C   UNL     1      -0.687  -7.155  -7.118  1.00  0.00     0.070 C 
BRANCH  24  25
ATOM     25  C   UNL     1      -2.164  -7.475  -7.132  1.00  0.00    -0.045 A 
ATOM     26  C   UNL     1      -2.614  -8.793  -6.979  1.00  0.00     0.004 A 
ATOM     27  C   UNL     1      -3.108  -6.452  -7.303  1.00  0.00     0.004 A 
ATOM     28  C   UNL     1      -3.980  -9.082  -7.010  1.00  0.00     0.000 A 
ATOM     29  C   UNL     1      -4.473  -6.742  -7.333  1.00  0.00     0.000 A 
ATOM     30  C   UNL     1      -4.907  -8.058  -7.189  1.00  0.00     0.000 A 
ENDBRANCH  24  25
ENDBRANCH  23  24
BRANCH  23  31
ATOM     31  C   UNL     1      -0.929  -6.696  -4.566  1.00  0.00     0.243 C 
ATOM     32  O   UNL     1      -1.435  -5.586  -4.424  1.00  0.00    -0.273 OA
ATOM     33  N   UNL     1      -0.999  -7.663  -3.578  1.00  0.00    -0.341 N 
ATOM     34  H   UNL     1      -0.552  -8.567  -3.751  1.00  0.00     0.164 HD
BRANCH  33  35
ATOM     35  C   UNL     1      -1.725  -7.468  -2.320  1.00  0.00     0.194 C 
BRANCH  35  36
ATOM     36  C   UNL     1      -3.264  -7.654  -2.439  1.00  0.00     0.017 C 
ATOM     37  C   UNL     1      -3.859  -8.241  -1.148  1.00  0.00     0.010 C 
ATOM     38  C   UNL     1      -3.673  -8.577  -3.594  1.00  0.00     0.010 C 
ENDBRANCH  35  36
BRANCH  35  39
ATOM     39  C   UNL     1      -1.355  -6.133  -1.616  1.00  0.00     0.329 C 
ATOM     40  O   UNL     1      -2.124  -5.187  -1.490  1.00  0.00    -0.250 OA
BRANCH  39  41
ATOM     41  O   UNL     1      -0.099  -6.161  -1.074  1.00  0.00    -0.458 OA
BRANCH  41  42
ATOM     42  C   UNL     1       0.791  -5.088  -1.463  1.00  0.00     0.205 CG0
ATOM     43  C   UNL     1       2.216  -5.549  -1.160  1.00  0.00     0.056 C 
ATOM     44  G   UNL     1       0.403  -3.819  -0.679  1.00  0.00     0.000 G0
ENDBRANCH  41  42
ENDBRANCH  39  41
ENDBRANCH  35  39
ENDBRANCH  33  35
ENDBRANCH  23  31
ENDBRANCH  21  23
ENDBRANCH  19  21
ENDBRANCH  14  19
ENDBRANCH   7  14
ENDBRANCH   2   5
BRANCH   3  45
ATOM     45  C   UNL     1       3.560  -1.896  -1.762  1.00  0.00     0.171 C 
BRANCH  45  46
ATOM     46  N   UNL     1       2.304  -2.633  -1.716  1.00  0.00    -0.342 N 
ATOM     47  C   UNL     1       1.662  -2.920  -0.538  1.00  0.00     0.247 C 
ATOM     48  O   UNL     1       2.058  -2.515   0.556  1.00  0.00    -0.273 OA
ATOM     49  H   UNL     1       1.911  -2.939  -2.604  1.00  0.00     0.164 HD
BRANCH  47  50
ATOM     50  C   UNL     1       0.420  -3.812  -0.675  1.00  0.00     0.212 CG0
ATOM     51  G   UNL     1       0.826  -5.057  -1.488  1.00  0.00     0.000 G0
BRANCH  50  52
ATOM     52  N   UNL     1       0.011  -4.124   0.692  1.00  0.00    -0.339 N 
ATOM     53  C   UNL     1      -1.132  -3.626   1.271  1.00  0.00     0.243 C 
ATOM     54  O   UNL     1      -1.873  -2.834   0.697  1.00  0.00    -0.273 OA
ATOM     55  H   UNL     1       0.642  -4.687   1.257  1.00  0.00     0.164 HD
BRANCH  53  56
ATOM     56  C   UNL     1      -1.309  -4.024   2.750  1.00  0.00     0.182 C 
BRANCH  56  57
ATOM     57  N   UNL     1      -2.394  -4.999   2.906  1.00  0.00    -0.344 N 
ATOM     58  C   UNL     1      -2.275  -6.304   2.497  1.00  0.00     0.220 C 
ATOM     59  O   UNL     1      -1.286  -6.728   1.909  1.00  0.00    -0.275 OA
ATOM     60  H   UNL     1      -3.187  -4.717   3.477  1.00  0.00     0.164 HD
BRANCH  58  61
ATOM     61  C   UNL     1      -3.498  -7.147   2.811  1.00  0.00     0.100 C 
BRANCH  61  62
ATOM     62  C   UNL     1      -4.287  -6.659   4.026  1.00  0.00     0.010 C 
BRANCH  62  63
ATOM     63  C   UNL     1      -5.664  -7.317   4.186  1.00  0.00     0.000 C 
BRANCH  63  64
ATOM     64  C   UNL     1      -5.613  -8.762   4.682  1.00  0.00    -0.003 C 
ATOM     65  C   UNL     1      -6.466  -8.951   5.927  1.00  0.00     0.004 C 
ENDBRANCH  63  64
ENDBRANCH  62  63
ENDBRANCH  61  62
ENDBRANCH  58  61
ENDBRANCH  56  57
BRANCH  56  66
ATOM     66  C   UNL     1      -1.503  -2.798   3.641  1.00  0.00     0.157 C 
BRANCH  66  67
ATOM     67  C   UNL     1      -0.616  -2.859   4.851  1.00  0.00     0.305 C 
ATOM     68  O   UNL     1       0.386  -2.192   5.059  1.00  0.00    -0.252 OA
BRANCH  67  69
ATOM     69  O   UNL     1      -1.068  -3.730   5.773  1.00  0.00    -0.481 OA
ATOM     70  H   UNL     1      -1.647  -3.197   6.358  1.00  0.00     0.296 HD
ENDBRANCH  67  69
ENDBRANCH  66  67
ENDBRANCH  56  66
ENDBRANCH  53  56
ENDBRANCH  50  52
ENDBRANCH  47  50
ENDBRANCH  45  46
BRANCH  45  71
ATOM     71  C   UNL     1       3.367  -0.485  -2.328  1.00  0.00     0.037 C 
BRANCH  71  72
ATOM     72  C   UNL     1       1.889  -0.148  -2.542  1.00  0.00     0.026 C 
BRANCH  72  73
ATOM     73  C   UNL     1       1.456   1.043  -1.689  1.00  0.00     0.146 C 
BRANCH  73  74
ATOM     74  N   UNL     1       1.182   0.551  -0.342  1.00  0.00    -0.254 NA
ATOM     75  C   UNL     1      -0.013   0.173  -0.074  1.00  0.00     0.185 C 
ATOM     76  N   UNL     1      -0.296  -0.285   1.156  1.00  0.00    -0.370 N 
ATOM     77  N   UNL     1      -1.094   0.159  -0.873  1.00  0.00    -0.370 N 
ATOM     78  H   UNL     1       0.462  -0.302   1.824  1.00  0.00     0.159 HD
ATOM     79  H   UNL     1      -1.231  -0.461   1.480  1.00  0.00     0.159 HD
ATOM     80  H   UNL     1      -1.030   0.473  -1.830  1.00  0.00     0.159 HD
ATOM     81  H   UNL     1      -1.958  -0.270  -0.585  1.00  0.00     0.159 HD
ENDBRANCH  73  74
ENDBRANCH  72  73
ENDBRANCH  71  72
ENDBRANCH  45  71
ENDBRANCH   3  45
TORSDOF 20
ENDMDL
MODEL 9
REMARK VINA RESULT:    -5.696      2.648      6.761
REMARK INTER + INTRA:         -22.142
REMARK INTER:                 -18.146
REMARK INTRA:                  -3.996
REMARK UNBOUND:                -5.791
REMARK SMILES CCCCCC(=O)N[C@H](CC(=O)O)C(=O)N[C@H]1C(=O)N[C@H](CCCN=C(N)N)C(=O)N[C@@H]2CC[C@H](O)N(C2=O)[C@@H](CC(C)C)C(=O)N(C)[C@@H](Cc2ccccc2)C(=O)N[C@H](C(C)C)C(=O)O[C@@H]1C
REMARK SMILES IDX 30 1 31 2 29 3 32 5 35 6 37 7 34 8 38 9 33 10 39 11 36 12
REMARK SMILES IDX 40 14 41 15 42 16 43 17 44 18 45 19 46 20 47 21 48 22 49 23
REMARK SMILES IDX 50 24 51 25 52 26 56 27 53 28 55 29 54 30 57 31 58 32 59 33
REMARK SMILES IDX 60 35 61 36 62 37 63 38 64 39 65 40 66 41 67 42 68 43 21 45
REMARK SMILES IDX 20 46 18 47 19 48 17 50 16 52 14 53 15 54 9 56 8 57 6 58
REMARK SMILES IDX 7 59 5 61 4 62 3 63 2 64 1 65 10 66 11 67 12 68 13 69 22 71
REMARK SMILES IDX 23 72 24 73 25 74 26 75 27 76 28 77
REMARK H PARENT 31 4 36 13 59 34 20 49 16 55 8 60 13 70 27 78 27 79 28 80
REMARK H PARENT 28 81
REMARK Flexibility Score:  259.900
ROOT
ATOM      1  O   UNL     1      -0.161  -8.730  -2.245  1.00  0.00    -0.273 OA
ATOM      2  N   UNL     1      -0.456  -7.337  -4.035  1.00  0.00    -0.343 N 
ATOM      3  C   UNL     1      -0.655  -7.708  -2.723  1.00  0.00     0.243 C 
ATOM      4  H   UNL     1      -0.866  -6.482  -4.390  1.00  0.00     0.164 HD
ENDROOT
BRANCH   2   5
ATOM      5  C   UNL     1       0.262  -8.214  -4.954  1.00  0.00     0.171 C 
ATOM      6  C   UNL     1       2.734  -9.710  -4.714  1.00  0.00     0.214 C 
ATOM      7  N   UNL     1       2.766  -8.364  -5.238  1.00  0.00    -0.303 N 
ATOM      8  C   UNL     1       1.432 -10.439  -5.008  1.00  0.00     0.057 C 
ATOM      9  C   UNL     1       1.630  -7.576  -5.332  1.00  0.00     0.247 C 
ATOM     10  C   UNL     1       0.267  -9.655  -4.445  1.00  0.00     0.040 C 
ATOM     11  O   UNL     1       1.679  -6.396  -5.700  1.00  0.00    -0.272 OA
BRANCH   6  12
ATOM     12  O   UNL     1       2.954  -9.636  -3.325  1.00  0.00    -0.373 OA
ATOM     13  H   UNL     1       2.550 -10.436  -2.927  1.00  0.00     0.213 HD
ENDBRANCH   6  12
BRANCH   7  14
ATOM     14  C   UNL     1       4.096  -7.794  -5.540  1.00  0.00     0.177 C 
BRANCH  14  15
ATOM     15  C   UNL     1       4.244  -7.184  -6.948  1.00  0.00     0.038 C 
BRANCH  15  16
ATOM     16  C   UNL     1       4.411  -8.116  -8.167  1.00  0.00    -0.015 C 
ATOM     17  C   UNL     1       3.097  -8.791  -8.572  1.00  0.00     0.007 C 
ATOM     18  C   UNL     1       5.435  -9.213  -7.845  1.00  0.00     0.007 C 
ENDBRANCH  15  16
ENDBRANCH  14  15
BRANCH  14  19
ATOM     19  C   UNL     1       4.755  -7.231  -4.234  1.00  0.00     0.245 C 
ATOM     20  O   UNL     1       4.007  -7.064  -3.257  1.00  0.00    -0.272 OA
BRANCH  19  21
ATOM     21  N   UNL     1       6.073  -6.816  -4.153  1.00  0.00    -0.332 N 
ATOM     22  C   UNL     1       7.235  -7.685  -4.190  1.00  0.00     0.147 C 
BRANCH  21  23
ATOM     23  C   UNL     1       6.334  -5.357  -4.003  1.00  0.00     0.178 C 
BRANCH  23  24
ATOM     24  C   UNL     1       7.438  -4.801  -4.927  1.00  0.00     0.070 C 
BRANCH  24  25
ATOM     25  C   UNL     1       7.212  -4.918  -6.416  1.00  0.00    -0.045 A 
ATOM     26  C   UNL     1       6.439  -3.972  -7.101  1.00  0.00     0.004 A 
ATOM     27  C   UNL     1       7.773  -5.984  -7.135  1.00  0.00     0.004 A 
ATOM     28  C   UNL     1       6.222  -4.096  -8.475  1.00  0.00     0.000 A 
ATOM     29  C   UNL     1       7.555  -6.107  -8.508  1.00  0.00     0.000 A 
ATOM     30  C   UNL     1       6.777  -5.164  -9.177  1.00  0.00     0.000 A 
ENDBRANCH  24  25
ENDBRANCH  23  24
BRANCH  23  31
ATOM     31  C   UNL     1       5.038  -4.513  -3.956  1.00  0.00     0.243 C 
ATOM     32  O   UNL     1       4.433  -4.127  -4.953  1.00  0.00    -0.273 OA
ATOM     33  N   UNL     1       4.714  -4.068  -2.685  1.00  0.00    -0.341 N 
ATOM     34  H   UNL     1       5.259  -4.420  -1.894  1.00  0.00     0.164 HD
BRANCH  33  35
ATOM     35  C   UNL     1       3.598  -3.157  -2.419  1.00  0.00     0.194 C 
BRANCH  35  36
ATOM     36  C   UNL     1       3.995  -1.880  -1.627  1.00  0.00     0.017 C 
ATOM     37  C   UNL     1       3.208  -0.651  -2.115  1.00  0.00     0.010 C 
ATOM     38  C   UNL     1       5.487  -1.541  -1.736  1.00  0.00     0.010 C 
ENDBRANCH  35  36
BRANCH  35  39
ATOM     39  C   UNL     1       2.377  -3.878  -1.781  1.00  0.00     0.329 C 
ATOM     40  O   UNL     1       1.669  -4.684  -2.375  1.00  0.00    -0.250 OA
BRANCH  39  41
ATOM     41  O   UNL     1       2.232  -3.580  -0.455  1.00  0.00    -0.458 OA
BRANCH  41  42
ATOM     42  C   UNL     1       0.895  -3.238  -0.017  1.00  0.00     0.205 CG0
ATOM     43  C   UNL     1       1.021  -2.065   0.953  1.00  0.00     0.056 C 
ATOM     44  G   UNL     1       0.258  -4.480   0.638  1.00  0.00     0.000 G0
ENDBRANCH  41  42
ENDBRANCH  39  41
ENDBRANCH  35  39
ENDBRANCH  33  35
ENDBRANCH  23  31
ENDBRANCH  21  23
ENDBRANCH  19  21
ENDBRANCH  14  19
ENDBRANCH   7  14
ENDBRANCH   2   5
BRANCH   3  45
ATOM     45  C   UNL     1      -1.519  -6.749  -1.893  1.00  0.00     0.171 C 
BRANCH  45  46
ATOM     46  N   UNL     1      -0.624  -6.176  -0.896  1.00  0.00    -0.342 N 
ATOM     47  C   UNL     1      -0.880  -4.978  -0.278  1.00  0.00     0.247 C 
ATOM     48  O   UNL     1      -1.915  -4.337  -0.466  1.00  0.00    -0.273 OA
ATOM     49  H   UNL     1       0.218  -6.702  -0.669  1.00  0.00     0.164 HD
BRANCH  47  50
ATOM     50  C   UNL     1       0.234  -4.473   0.650  1.00  0.00     0.212 CG0
ATOM     51  G   UNL     1       0.907  -3.270  -0.040  1.00  0.00     0.000 G0
BRANCH  50  52
ATOM     52  N   UNL     1      -0.431  -4.123   1.902  1.00  0.00    -0.339 N 
ATOM     53  C   UNL     1      -0.704  -5.034   2.893  1.00  0.00     0.243 C 
ATOM     54  O   UNL     1      -0.456  -6.231   2.779  1.00  0.00    -0.273 OA
ATOM     55  H   UNL     1      -0.761  -3.166   2.010  1.00  0.00     0.164 HD
BRANCH  53  56
ATOM     56  C   UNL     1      -1.489  -4.448   4.084  1.00  0.00     0.182 C 
BRANCH  56  57
ATOM     57  N   UNL     1      -2.911  -4.800   4.002  1.00  0.00    -0.344 N 
ATOM     58  C   UNL     1      -3.509  -5.658   4.892  1.00  0.00     0.220 C 
ATOM     59  O   UNL     1      -2.886  -6.245   5.769  1.00  0.00    -0.275 OA
ATOM     60  H   UNL     1      -3.482  -4.260   3.357  1.00  0.00     0.164 HD
BRANCH  58  61
ATOM     61  C   UNL     1      -4.998  -5.830   4.652  1.00  0.00     0.100 C 
BRANCH  61  62
ATOM     62  C   UNL     1      -5.572  -7.119   5.242  1.00  0.00     0.010 C 
BRANCH  62  63
ATOM     63  C   UNL     1      -5.389  -8.353   4.349  1.00  0.00     0.000 C 
BRANCH  63  64
ATOM     64  C   UNL     1      -6.640  -8.753   3.569  1.00  0.00    -0.003 C 
ATOM     65  C   UNL     1      -7.709  -9.325   4.489  1.00  0.00     0.004 C 
ENDBRANCH  63  64
ENDBRANCH  62  63
ENDBRANCH  61  62
ENDBRANCH  58  61
ENDBRANCH  56  57
BRANCH  56  66
ATOM     66  C   UNL     1      -1.274  -2.941   4.210  1.00  0.00     0.157 C 
BRANCH  66  67
ATOM     67  C   UNL     1      -0.136  -2.630   5.138  1.00  0.00     0.305 C 
ATOM     68  O   UNL     1       0.027  -3.062   6.269  1.00  0.00    -0.252 OA
BRANCH  67  69
ATOM     69  O   UNL     1       0.780  -1.821   4.571  1.00  0.00    -0.481 OA
ATOM     70  H   UNL     1       0.524  -0.917   4.853  1.00  0.00     0.296 HD
ENDBRANCH  67  69
ENDBRANCH  66  67
ENDBRANCH  56  66
ENDBRANCH  53  56
ENDBRANCH  50  52
ENDBRANCH  47  50
ENDBRANCH  45  46
BRANCH  45  71
ATOM     71  C   UNL     1      -2.682  -7.506  -1.241  1.00  0.00     0.037 C 
BRANCH  71  72
ATOM     72  C   UNL     1      -3.625  -8.117  -2.280  1.00  0.00     0.026 C 
BRANCH  72  73
ATOM     73  C   UNL     1      -4.301  -7.039  -3.126  1.00  0.00     0.146 C 
BRANCH  73  74
ATOM     74  N   UNL     1      -3.780  -7.146  -4.485  1.00  0.00    -0.254 NA
ATOM     75  C   UNL     1      -3.729  -6.078  -5.192  1.00  0.00     0.185 C 
ATOM     76  N   UNL     1      -3.253  -6.144  -6.446  1.00  0.00    -0.370 N 
ATOM     77  N   UNL     1      -4.095  -4.827  -4.862  1.00  0.00    -0.370 N 
ATOM     78  H   UNL     1      -2.961  -7.052  -6.778  1.00  0.00     0.159 HD
ATOM     79  H   UNL     1      -3.317  -5.386  -7.103  1.00  0.00     0.159 HD
ATOM     80  H   UNL     1      -4.468  -4.626  -3.946  1.00  0.00     0.159 HD
ATOM     81  H   UNL     1      -3.900  -4.043  -5.463  1.00  0.00     0.159 HD
ENDBRANCH  73  74
ENDBRANCH  72  73
ENDBRANCH  71  72
ENDBRANCH  45  71
ENDBRANCH   3  45
TORSDOF 20
ENDMDL
MODEL 10
REMARK VINA RESULT:    -5.671      2.920      8.023
REMARK INTER + INTRA:         -22.072
REMARK INTER:                 -17.438
REMARK INTRA:                  -4.634
REMARK UNBOUND:                -5.791
REMARK SMILES CCCCCC(=O)N[C@H](CC(=O)O)C(=O)N[C@H]1C(=O)N[C@H](CCCN=C(N)N)C(=O)N[C@@H]2CC[C@H](O)N(C2=O)[C@@H](CC(C)C)C(=O)N(C)[C@@H](Cc2ccccc2)C(=O)N[C@H](C(C)C)C(=O)O[C@@H]1C
REMARK SMILES IDX 30 1 31 2 29 3 32 5 35 6 37 7 34 8 38 9 33 10 39 11 36 12
REMARK SMILES IDX 40 14 41 15 42 16 43 17 44 18 45 19 46 20 47 21 48 22 49 23
REMARK SMILES IDX 50 24 51 25 52 26 56 27 53 28 55 29 54 30 57 31 58 32 59 33
REMARK SMILES IDX 60 35 61 36 62 37 63 38 64 39 65 40 66 41 67 42 68 43 21 45
REMARK SMILES IDX 20 46 18 47 19 48 17 50 16 52 14 53 15 54 9 56 8 57 6 58
REMARK SMILES IDX 7 59 5 61 4 62 3 63 2 64 1 65 10 66 11 67 12 68 13 69 22 71
REMARK SMILES IDX 23 72 24 73 25 74 26 75 27 76 28 77
REMARK H PARENT 31 4 36 13 59 34 20 49 16 55 8 60 13 70 27 78 27 79 28 80
REMARK H PARENT 28 81
REMARK Flexibility Score:  259.900
ROOT
ATOM      1  O   UNL     1      -1.907  -5.011  -1.209  1.00  0.00    -0.273 OA
ATOM      2  N   UNL     1      -1.783  -7.263  -0.826  1.00  0.00    -0.343 N 
ATOM      3  C   UNL     1      -1.361  -5.963  -0.649  1.00  0.00     0.243 C 
ATOM      4  H   UNL     1      -1.319  -8.019  -0.338  1.00  0.00     0.164 HD
ENDROOT
BRANCH   2   5
ATOM      5  C   UNL     1      -2.832  -7.578  -1.790  1.00  0.00     0.171 C 
ATOM      6  C   UNL     1      -3.893 -10.085  -2.788  1.00  0.00     0.214 C 
ATOM      7  N   UNL     1      -2.800  -9.448  -3.485  1.00  0.00    -0.303 N 
ATOM      8  C   UNL     1      -4.813  -9.099  -2.084  1.00  0.00     0.057 C 
ATOM      9  C   UNL     1      -2.213  -8.277  -3.034  1.00  0.00     0.247 C 
ATOM     10  C   UNL     1      -4.015  -8.262  -1.107  1.00  0.00     0.040 C 
ATOM     11  O   UNL     1      -1.221  -7.785  -3.588  1.00  0.00    -0.272 OA
BRANCH   6  12
ATOM     12  O   UNL     1      -3.343 -10.993  -1.862  1.00  0.00    -0.373 OA
ATOM     13  H   UNL     1      -3.269 -10.520  -1.005  1.00  0.00     0.213 HD
ENDBRANCH   6  12
BRANCH   7  14
ATOM     14  C   UNL     1      -2.223 -10.178  -4.634  1.00  0.00     0.177 C 
BRANCH  14  15
ATOM     15  C   UNL     1      -2.430  -9.508  -6.007  1.00  0.00     0.038 C 
BRANCH  15  16
ATOM     16  C   UNL     1      -3.774  -9.688  -6.747  1.00  0.00    -0.015 C 
ATOM     17  C   UNL     1      -3.624 -10.489  -8.043  1.00  0.00     0.007 C 
ATOM     18  C   UNL     1      -4.362  -8.315  -7.096  1.00  0.00     0.007 C 
ENDBRANCH  15  16
ENDBRANCH  14  15
BRANCH  14  19
ATOM     19  C   UNL     1      -0.940 -10.962  -4.192  1.00  0.00     0.245 C 
ATOM     20  O   UNL     1      -0.650 -10.924  -2.984  1.00  0.00    -0.272 OA
BRANCH  19  21
ATOM     21  N   UNL     1      -0.074 -11.584  -5.073  1.00  0.00    -0.332 N 
ATOM     22  C   UNL     1      -0.449 -12.580  -6.061  1.00  0.00     0.147 C 
BRANCH  21  23
ATOM     23  C   UNL     1       1.368 -11.219  -5.007  1.00  0.00     0.178 C 
BRANCH  23  24
ATOM     24  C   UNL     1       2.338 -12.419  -5.004  1.00  0.00     0.070 C 
BRANCH  24  25
ATOM     25  C   UNL     1       3.750 -12.161  -4.534  1.00  0.00    -0.045 A 
ATOM     26  C   UNL     1       3.997 -11.621  -3.265  1.00  0.00     0.004 A 
ATOM     27  C   UNL     1       4.839 -12.456  -5.368  1.00  0.00     0.004 A 
ATOM     28  C   UNL     1       5.304 -11.369  -2.844  1.00  0.00     0.000 A 
ATOM     29  C   UNL     1       6.146 -12.205  -4.945  1.00  0.00     0.000 A 
ATOM     30  C   UNL     1       6.377 -11.659  -3.684  1.00  0.00     0.000 A 
ENDBRANCH  24  25
ENDBRANCH  23  24
BRANCH  23  31
ATOM     31  C   UNL     1       1.747 -10.077  -5.978  1.00  0.00     0.243 C 
ATOM     32  O   UNL     1       1.546 -10.110  -7.190  1.00  0.00    -0.273 OA
ATOM     33  N   UNL     1       2.508  -9.080  -5.391  1.00  0.00    -0.341 N 
ATOM     34  H   UNL     1       2.647  -9.110  -4.378  1.00  0.00     0.164 HD
BRANCH  33  35
ATOM     35  C   UNL     1       3.080  -7.961  -6.145  1.00  0.00     0.194 C 
BRANCH  35  36
ATOM     36  C   UNL     1       4.632  -7.978  -6.227  1.00  0.00     0.017 C 
ATOM     37  C   UNL     1       5.128  -9.033  -7.231  1.00  0.00     0.010 C 
ATOM     38  C   UNL     1       5.305  -8.273  -4.881  1.00  0.00     0.010 C 
ENDBRANCH  35  36
BRANCH  35  39
ATOM     39  C   UNL     1       2.538  -6.583  -5.673  1.00  0.00     0.329 C 
ATOM     40  O   UNL     1       1.681  -5.942  -6.269  1.00  0.00    -0.250 OA
BRANCH  39  41
ATOM     41  O   UNL     1       3.061  -6.204  -4.467  1.00  0.00    -0.458 OA
BRANCH  41  42
ATOM     42  C   UNL     1       2.229  -6.437  -3.306  1.00  0.00     0.205 CG0
ATOM     43  C   UNL     1       0.825  -5.945  -3.647  1.00  0.00     0.056 C 
ATOM     44  G   UNL     1       2.841  -5.687  -2.105  1.00  0.00     0.000 G0
ENDBRANCH  41  42
ENDBRANCH  39  41
ENDBRANCH  35  39
ENDBRANCH  33  35
ENDBRANCH  23  31
ENDBRANCH  21  23
ENDBRANCH  19  21
ENDBRANCH  14  19
ENDBRANCH   7  14
ENDBRANCH   2   5
BRANCH   3  45
ATOM     45  C   UNL     1      -0.178  -5.781   0.311  1.00  0.00     0.171 C 
BRANCH  45  46
ATOM     46  N   UNL     1       1.013  -6.089  -0.470  1.00  0.00    -0.342 N 
ATOM     47  C   UNL     1       1.681  -5.138  -1.200  1.00  0.00     0.247 C 
ATOM     48  O   UNL     1       1.369  -3.947  -1.192  1.00  0.00    -0.273 OA
ATOM     49  H   UNL     1       1.340  -7.053  -0.460  1.00  0.00     0.164 HD
BRANCH  47  50
ATOM     50  C   UNL     1       2.838  -5.672  -2.057  1.00  0.00     0.212 CG0
ATOM     51  G   UNL     1       2.225  -6.399  -3.270  1.00  0.00     0.000 G0
BRANCH  50  52
ATOM     52  N   UNL     1       3.624  -4.497  -2.426  1.00  0.00    -0.339 N 
ATOM     53  C   UNL     1       4.796  -4.146  -1.801  1.00  0.00     0.243 C 
ATOM     54  O   UNL     1       5.248  -4.767  -0.844  1.00  0.00    -0.273 OA
ATOM     55  H   UNL     1       3.243  -3.878  -3.139  1.00  0.00     0.164 HD
BRANCH  53  56
ATOM     56  C   UNL     1       5.401  -2.819  -2.304  1.00  0.00     0.182 C 
BRANCH  56  57
ATOM     57  N   UNL     1       4.364  -1.797  -2.471  1.00  0.00    -0.344 N 
ATOM     58  C   UNL     1       4.579  -0.473  -2.173  1.00  0.00     0.220 C 
ATOM     59  O   UNL     1       5.626  -0.067  -1.679  1.00  0.00    -0.275 OA
ATOM     60  H   UNL     1       3.522  -2.072  -2.970  1.00  0.00     0.164 HD
BRANCH  58  61
ATOM     61  C   UNL     1       3.387   0.414  -2.478  1.00  0.00     0.100 C 
BRANCH  61  62
ATOM     62  C   UNL     1       2.040  -0.231  -2.153  1.00  0.00     0.010 C 
BRANCH  62  63
ATOM     63  C   UNL     1       1.204   0.544  -1.126  1.00  0.00     0.000 C 
BRANCH  63  64
ATOM     64  C   UNL     1       0.667  -0.313   0.019  1.00  0.00    -0.003 C 
ATOM     65  C   UNL     1      -0.723   0.136   0.444  1.00  0.00     0.004 C 
ENDBRANCH  63  64
ENDBRANCH  62  63
ENDBRANCH  61  62
ENDBRANCH  58  61
ENDBRANCH  56  57
BRANCH  56  66
ATOM     66  C   UNL     1       6.219  -3.024  -3.578  1.00  0.00     0.157 C 
BRANCH  66  67
ATOM     67  C   UNL     1       5.438  -2.623  -4.796  1.00  0.00     0.305 C 
ATOM     68  O   UNL     1       4.499  -3.224  -5.294  1.00  0.00    -0.252 OA
BRANCH  67  69
ATOM     69  O   UNL     1       5.849  -1.445  -5.303  1.00  0.00    -0.481 OA
ATOM     70  H   UNL     1       6.812  -1.416  -5.120  1.00  0.00     0.296 HD
ENDBRANCH  67  69
ENDBRANCH  66  67
ENDBRANCH  56  66
ENDBRANCH  53  56
ENDBRANCH  50  52
ENDBRANCH  47  50
ENDBRANCH  45  46
BRANCH  45  71
ATOM     71  C   UNL     1      -0.320  -6.715   1.517  1.00  0.00     0.037 C 
BRANCH  71  72
ATOM     72  C   UNL     1      -0.378  -5.944   2.838  1.00  0.00     0.026 C 
BRANCH  72  73
ATOM     73  C   UNL     1      -1.594  -5.022   2.897  1.00  0.00     0.146 C 
BRANCH  73  74
ATOM     74  N   UNL     1      -1.407  -4.107   4.018  1.00  0.00    -0.254 NA
ATOM     75  C   UNL     1      -0.703  -3.054   3.822  1.00  0.00     0.185 C 
ATOM     76  N   UNL     1      -0.514  -2.192   4.834  1.00  0.00    -0.370 N 
ATOM     77  N   UNL     1      -0.086  -2.648   2.698  1.00  0.00    -0.370 N 
ATOM     78  H   UNL     1      -0.940  -2.426   5.720  1.00  0.00     0.159 HD
ATOM     79  H   UNL     1       0.138  -1.429   4.797  1.00  0.00     0.159 HD
ATOM     80  H   UNL     1      -0.144  -3.196   1.853  1.00  0.00     0.159 HD
ATOM     81  H   UNL     1       0.345  -1.741   2.631  1.00  0.00     0.159 HD
ENDBRANCH  73  74
ENDBRANCH  72  73
ENDBRANCH  71  72
ENDBRANCH  45  71
ENDBRANCH   3  45
TORSDOF 20
ENDMDL
MODEL 11
REMARK VINA RESULT:    -5.543      2.546      7.094
REMARK INTER + INTRA:         -21.704
REMARK INTER:                 -17.911
REMARK INTRA:                  -3.793
REMARK UNBOUND:                -5.791
REMARK SMILES CCCCCC(=O)N[C@H](CC(=O)O)C(=O)N[C@H]1C(=O)N[C@H](CCCN=C(N)N)C(=O)N[C@@H]2CC[C@H](O)N(C2=O)[C@@H](CC(C)C)C(=O)N(C)[C@@H](Cc2ccccc2)C(=O)N[C@H](C(C)C)C(=O)O[C@@H]1C
REMARK SMILES IDX 30 1 31 2 29 3 32 5 35 6 37 7 34 8 38 9 33 10 39 11 36 12
REMARK SMILES IDX 40 14 41 15 42 16 43 17 44 18 45 19 46 20 47 21 48 22 49 23
REMARK SMILES IDX 50 24 51 25 52 26 56 27 53 28 55 29 54 30 57 31 58 32 59 33
REMARK SMILES IDX 60 35 61 36 62 37 63 38 64 39 65 40 66 41 67 42 68 43 21 45
REMARK SMILES IDX 20 46 18 47 19 48 17 50 16 52 14 53 15 54 9 56 8 57 6 58
REMARK SMILES IDX 7 59 5 61 4 62 3 63 2 64 1 65 10 66 11 67 12 68 13 69 22 71
REMARK SMILES IDX 23 72 24 73 25 74 26 75 27 76 28 77
REMARK H PARENT 31 4 36 13 59 34 20 49 16 55 8 60 13 70 27 78 27 79 28 80
REMARK H PARENT 28 81
REMARK Flexibility Score:  259.900
ROOT
ATOM      1  O   UNL     1      -0.415  -8.023  -3.439  1.00  0.00    -0.273 OA
ATOM      2  N   UNL     1      -1.344  -6.814  -5.144  1.00  0.00    -0.343 N 
ATOM      3  C   UNL     1      -1.101  -7.071  -3.811  1.00  0.00     0.243 C 
ATOM      4  H   UNL     1      -1.901  -6.013  -5.414  1.00  0.00     0.164 HD
ENDROOT
BRANCH   2   5
ATOM      5  C   UNL     1      -0.887  -7.741  -6.174  1.00  0.00     0.171 C 
ATOM      6  C   UNL     1       0.910 -10.014  -6.113  1.00  0.00     0.214 C 
ATOM      7  N   UNL     1       1.436  -8.701  -6.406  1.00  0.00    -0.303 N 
ATOM      8  C   UNL     1      -0.531 -10.200  -6.561  1.00  0.00     0.057 C 
ATOM      9  C   UNL     1       0.642  -7.566  -6.401  1.00  0.00     0.247 C 
ATOM     10  C   UNL     1      -1.408  -9.153  -5.910  1.00  0.00     0.040 C 
ATOM     11  O   UNL     1       1.114  -6.434  -6.567  1.00  0.00    -0.272 OA
BRANCH   6  12
ATOM     12  O   UNL     1       1.025 -10.224  -4.725  1.00  0.00    -0.373 OA
ATOM     13  H   UNL     1       1.281  -9.366  -4.325  1.00  0.00     0.213 HD
ENDBRANCH   6  12
BRANCH   7  14
ATOM     14  C   UNL     1       2.900  -8.586  -6.571  1.00  0.00     0.177 C 
BRANCH  14  15
ATOM     15  C   UNL     1       3.366  -8.050  -7.938  1.00  0.00     0.038 C 
BRANCH  15  16
ATOM     16  C   UNL     1       3.906  -9.036  -8.998  1.00  0.00    -0.015 C 
ATOM     17  C   UNL     1       2.930  -9.235 -10.161  1.00  0.00     0.007 C 
ATOM     18  C   UNL     1       4.168 -10.401  -8.351  1.00  0.00     0.007 C 
ENDBRANCH  15  16
ENDBRANCH  14  15
BRANCH  14  19
ATOM     19  C   UNL     1       3.579  -8.271  -5.193  1.00  0.00     0.245 C 
ATOM     20  O   UNL     1       2.822  -8.007  -4.244  1.00  0.00    -0.272 OA
BRANCH  19  21
ATOM     21  N   UNL     1       4.947  -8.163  -5.015  1.00  0.00    -0.332 N 
ATOM     22  C   UNL     1       5.846  -9.261  -4.706  1.00  0.00     0.147 C 
BRANCH  21  23
ATOM     23  C   UNL     1       5.560  -6.811  -5.135  1.00  0.00     0.178 C 
BRANCH  23  24
ATOM     24  C   UNL     1       6.314  -6.560  -6.457  1.00  0.00     0.070 C 
BRANCH  24  25
ATOM     25  C   UNL     1       6.557  -5.121  -6.848  1.00  0.00    -0.045 A 
ATOM     26  C   UNL     1       7.163  -4.227  -5.955  1.00  0.00     0.004 A 
ATOM     27  C   UNL     1       6.172  -4.657  -8.115  1.00  0.00     0.004 A 
ATOM     28  C   UNL     1       7.369  -2.894  -6.318  1.00  0.00     0.000 A 
ATOM     29  C   UNL     1       6.380  -3.325  -8.476  1.00  0.00     0.000 A 
ATOM     30  C   UNL     1       6.975  -2.444  -7.576  1.00  0.00     0.000 A 
ENDBRANCH  24  25
ENDBRANCH  23  24
BRANCH  23  31
ATOM     31  C   UNL     1       4.604  -5.674  -4.704  1.00  0.00     0.243 C 
ATOM     32  O   UNL     1       3.859  -5.073  -5.475  1.00  0.00    -0.273 OA
ATOM     33  N   UNL     1       4.792  -5.258  -3.397  1.00  0.00    -0.341 N 
ATOM     34  H   UNL     1       5.430  -5.795  -2.804  1.00  0.00     0.164 HD
BRANCH  33  35
ATOM     35  C   UNL     1       4.081  -4.118  -2.811  1.00  0.00     0.194 C 
BRANCH  35  36
ATOM     36  C   UNL     1       4.929  -3.291  -1.804  1.00  0.00     0.017 C 
ATOM     37  C   UNL     1       5.033  -1.819  -2.237  1.00  0.00     0.010 C 
ATOM     38  C   UNL     1       6.358  -3.823  -1.638  1.00  0.00     0.010 C 
ENDBRANCH  35  36
BRANCH  35  39
ATOM     39  C   UNL     1       2.700  -4.515  -2.218  1.00  0.00     0.329 C 
ATOM     40  O   UNL     1       1.878  -5.212  -2.801  1.00  0.00    -0.250 OA
BRANCH  39  41
ATOM     41  O   UNL     1       2.538  -4.071  -0.935  1.00  0.00    -0.458 OA
BRANCH  41  42
ATOM     42  C   UNL     1       1.237  -3.531  -0.603  1.00  0.00     0.205 CG0
ATOM     43  C   UNL     1       1.463  -2.348   0.336  1.00  0.00     0.056 C 
ATOM     44  G   UNL     1       0.392  -4.646   0.046  1.00  0.00     0.000 G0
ENDBRANCH  41  42
ENDBRANCH  39  41
ENDBRANCH  35  39
ENDBRANCH  33  35
ENDBRANCH  23  31
ENDBRANCH  21  23
ENDBRANCH  19  21
ENDBRANCH  14  19
ENDBRANCH   7  14
ENDBRANCH   2   5
BRANCH   3  45
ATOM     45  C   UNL     1      -1.729  -6.076  -2.826  1.00  0.00     0.171 C 
BRANCH  45  46
ATOM     46  N   UNL     1      -0.707  -5.821  -1.819  1.00  0.00    -0.342 N 
ATOM     47  C   UNL     1      -0.853  -4.862  -0.849  1.00  0.00     0.247 C 
ATOM     48  O   UNL     1      -1.882  -4.200  -0.712  1.00  0.00    -0.273 OA
ATOM     49  H   UNL     1       0.139  -6.386  -1.861  1.00  0.00     0.164 HD
BRANCH  47  50
ATOM     50  C   UNL     1       0.377  -4.649   0.045  1.00  0.00     0.212 CG0
ATOM     51  G   UNL     1       1.239  -3.546  -0.600  1.00  0.00     0.000 G0
BRANCH  50  52
ATOM     52  N   UNL     1      -0.152  -4.276   1.354  1.00  0.00    -0.339 N 
ATOM     53  C   UNL     1      -0.488  -5.192   2.322  1.00  0.00     0.243 C 
ATOM     54  O   UNL     1      -0.419  -6.404   2.139  1.00  0.00    -0.273 OA
ATOM     55  H   UNL     1      -0.338  -3.290   1.526  1.00  0.00     0.164 HD
BRANCH  53  56
ATOM     56  C   UNL     1      -1.108  -4.567   3.588  1.00  0.00     0.182 C 
BRANCH  56  57
ATOM     57  N   UNL     1      -2.538  -4.876   3.682  1.00  0.00    -0.344 N 
ATOM     58  C   UNL     1      -3.097  -5.439   4.804  1.00  0.00     0.220 C 
ATOM     59  O   UNL     1      -2.432  -5.789   5.772  1.00  0.00    -0.275 OA
ATOM     60  H   UNL     1      -3.137  -4.510   2.947  1.00  0.00     0.164 HD
BRANCH  58  61
ATOM     61  C   UNL     1      -4.601  -5.616   4.702  1.00  0.00     0.100 C 
BRANCH  61  62
ATOM     62  C   UNL     1      -5.097  -6.971   5.205  1.00  0.00     0.010 C 
BRANCH  62  63
ATOM     63  C   UNL     1      -5.227  -7.065   6.730  1.00  0.00     0.000 C 
BRANCH  63  64
ATOM     64  C   UNL     1      -5.790  -5.808   7.390  1.00  0.00    -0.003 C 
ATOM     65  C   UNL     1      -5.559  -5.819   8.894  1.00  0.00     0.004 C 
ENDBRANCH  63  64
ENDBRANCH  62  63
ENDBRANCH  61  62
ENDBRANCH  58  61
ENDBRANCH  56  57
BRANCH  56  66
ATOM     66  C   UNL     1      -0.836  -3.065   3.662  1.00  0.00     0.157 C 
BRANCH  66  67
ATOM     67  C   UNL     1      -0.491  -2.643   5.061  1.00  0.00     0.305 C 
ATOM     68  O   UNL     1      -0.357  -1.499   5.469  1.00  0.00    -0.252 OA
BRANCH  67  69
ATOM     69  O   UNL     1      -0.382  -3.691   5.900  1.00  0.00    -0.481 OA
ATOM     70  H   UNL     1       0.376  -4.209   5.555  1.00  0.00     0.296 HD
ENDBRANCH  67  69
ENDBRANCH  66  67
ENDBRANCH  56  66
ENDBRANCH  53  56
ENDBRANCH  50  52
ENDBRANCH  47  50
ENDBRANCH  45  46
BRANCH  45  71
ATOM     71  C   UNL     1      -2.998  -6.670  -2.204  1.00  0.00     0.037 C 
BRANCH  71  72
ATOM     72  C   UNL     1      -2.882  -8.181  -1.989  1.00  0.00     0.026 C 
BRANCH  72  73
ATOM     73  C   UNL     1      -4.076  -8.730  -1.212  1.00  0.00     0.146 C 
BRANCH  73  74
ATOM     74  N   UNL     1      -4.064  -8.123   0.116  1.00  0.00    -0.254 NA
ATOM     75  C   UNL     1      -3.114  -8.446   0.914  1.00  0.00     0.185 C 
ATOM     76  N   UNL     1      -3.075  -7.903   2.141  1.00  0.00    -0.370 N 
ATOM     77  N   UNL     1      -2.089  -9.292   0.708  1.00  0.00    -0.370 N 
ATOM     78  H   UNL     1      -3.816  -7.260   2.381  1.00  0.00     0.159 HD
ATOM     79  H   UNL     1      -2.452  -8.215   2.865  1.00  0.00     0.159 HD
ATOM     80  H   UNL     1      -1.988  -9.772  -0.173  1.00  0.00     0.159 HD
ATOM     81  H   UNL     1      -1.336  -9.380   1.370  1.00  0.00     0.159 HD
ENDBRANCH  73  74
ENDBRANCH  72  73
ENDBRANCH  71  72
ENDBRANCH  45  71
ENDBRANCH   3  45
TORSDOF 20
ENDMDL
MODEL 12
REMARK VINA RESULT:    -5.449      2.907      4.433
REMARK INTER + INTRA:         -21.435
REMARK INTER:                 -20.135
REMARK INTRA:                  -1.300
REMARK UNBOUND:                -5.791
REMARK SMILES CCCCCC(=O)N[C@H](CC(=O)O)C(=O)N[C@H]1C(=O)N[C@H](CCCN=C(N)N)C(=O)N[C@@H]2CC[C@H](O)N(C2=O)[C@@H](CC(C)C)C(=O)N(C)[C@@H](Cc2ccccc2)C(=O)N[C@H](C(C)C)C(=O)O[C@@H]1C
REMARK SMILES IDX 30 1 31 2 29 3 32 5 35 6 37 7 34 8 38 9 33 10 39 11 36 12
REMARK SMILES IDX 40 14 41 15 42 16 43 17 44 18 45 19 46 20 47 21 48 22 49 23
REMARK SMILES IDX 50 24 51 25 52 26 56 27 53 28 55 29 54 30 57 31 58 32 59 33
REMARK SMILES IDX 60 35 61 36 62 37 63 38 64 39 65 40 66 41 67 42 68 43 21 45
REMARK SMILES IDX 20 46 18 47 19 48 17 50 16 52 14 53 15 54 9 56 8 57 6 58
REMARK SMILES IDX 7 59 5 61 4 62 3 63 2 64 1 65 10 66 11 67 12 68 13 69 22 71
REMARK SMILES IDX 23 72 24 73 25 74 26 75 27 76 28 77
REMARK H PARENT 31 4 36 13 59 34 20 49 16 55 8 60 13 70 27 78 27 79 28 80
REMARK H PARENT 28 81
REMARK Flexibility Score:  259.900
ROOT
ATOM      1  O   UNL     1       5.598  -2.770  -2.458  1.00  0.00    -0.273 OA
ATOM      2  N   UNL     1       3.741  -3.412  -3.629  1.00  0.00    -0.343 N 
ATOM      3  C   UNL     1       4.376  -2.740  -2.607  1.00  0.00     0.243 C 
ATOM      4  H   UNL     1       2.736  -3.352  -3.729  1.00  0.00     0.164 HD
ENDROOT
BRANCH   2   5
ATOM      5  C   UNL     1       4.492  -4.295  -4.515  1.00  0.00     0.171 C 
ATOM      6  C   UNL     1       3.675  -6.192  -6.550  1.00  0.00     0.214 C 
ATOM      7  N   UNL     1       3.852  -6.642  -5.189  1.00  0.00    -0.303 N 
ATOM      8  C   UNL     1       4.578  -5.026  -6.920  1.00  0.00     0.057 C 
ATOM      9  C   UNL     1       4.191  -5.779  -4.160  1.00  0.00     0.247 C 
ATOM     10  C   UNL     1       4.335  -3.870  -5.974  1.00  0.00     0.040 C 
ATOM     11  O   UNL     1       4.256  -6.157  -2.982  1.00  0.00    -0.272 OA
BRANCH   6  12
ATOM     12  O   UNL     1       2.322  -5.838  -6.714  1.00  0.00    -0.373 OA
ATOM     13  H   UNL     1       2.216  -5.527  -7.639  1.00  0.00     0.213 HD
ENDBRANCH   6  12
BRANCH   7  14
ATOM     14  C   UNL     1       3.511  -8.051  -4.900  1.00  0.00     0.177 C 
BRANCH  14  15
ATOM     15  C   UNL     1       4.711  -8.964  -4.579  1.00  0.00     0.038 C 
BRANCH  15  16
ATOM     16  C   UNL     1       4.759  -9.712  -3.229  1.00  0.00    -0.015 C 
ATOM     17  C   UNL     1       5.799  -9.123  -2.271  1.00  0.00     0.007 C 
ATOM     18  C   UNL     1       5.104 -11.188  -3.465  1.00  0.00     0.007 C 
ENDBRANCH  15  16
ENDBRANCH  14  15
BRANCH  14  19
ATOM     19  C   UNL     1       2.098  -8.142  -4.228  1.00  0.00     0.245 C 
ATOM     20  O   UNL     1       1.985  -7.647  -3.094  1.00  0.00    -0.272 OA
BRANCH  19  21
ATOM     21  N   UNL     1       1.027  -8.828  -4.773  1.00  0.00    -0.332 N 
ATOM     22  C   UNL     1       0.790 -10.256  -4.650  1.00  0.00     0.147 C 
BRANCH  21  23
ATOM     23  C   UNL     1       0.033  -8.052  -5.565  1.00  0.00     0.178 C 
BRANCH  23  24
ATOM     24  C   UNL     1      -0.703  -8.864  -6.651  1.00  0.00     0.070 C 
BRANCH  24  25
ATOM     25  C   UNL     1      -2.171  -8.572  -6.851  1.00  0.00    -0.045 A 
ATOM     26  C   UNL     1      -3.143  -9.531  -6.538  1.00  0.00     0.004 A 
ATOM     27  C   UNL     1      -2.583  -7.331  -7.361  1.00  0.00     0.004 A 
ATOM     28  C   UNL     1      -4.498  -9.260  -6.743  1.00  0.00     0.000 A 
ATOM     29  C   UNL     1      -3.937  -7.061  -7.563  1.00  0.00     0.000 A 
ATOM     30  C   UNL     1      -4.893  -8.027  -7.256  1.00  0.00     0.000 A 
ENDBRANCH  24  25
ENDBRANCH  23  24
BRANCH  23  31
ATOM     31  C   UNL     1      -0.879  -7.164  -4.685  1.00  0.00     0.243 C 
ATOM     32  O   UNL     1      -1.009  -5.952  -4.835  1.00  0.00    -0.273 OA
ATOM     33  N   UNL     1      -1.400  -7.826  -3.586  1.00  0.00    -0.341 N 
ATOM     34  H   UNL     1      -1.254  -8.835  -3.513  1.00  0.00     0.164 HD
BRANCH  33  35
ATOM     35  C   UNL     1      -2.194  -7.155  -2.553  1.00  0.00     0.194 C 
BRANCH  35  36
ATOM     36  C   UNL     1      -3.697  -6.990  -2.913  1.00  0.00     0.017 C 
ATOM     37  C   UNL     1      -4.350  -8.349  -3.220  1.00  0.00     0.010 C 
ATOM     38  C   UNL     1      -3.932  -6.084  -4.127  1.00  0.00     0.010 C 
ENDBRANCH  35  36
BRANCH  35  39
ATOM     39  C   UNL     1      -1.559  -5.814  -2.088  1.00  0.00     0.329 C 
ATOM     40  O   UNL     1      -2.071  -4.715  -2.264  1.00  0.00    -0.250 OA
BRANCH  39  41
ATOM     41  O   UNL     1      -0.403  -6.004  -1.381  1.00  0.00    -0.458 OA
BRANCH  41  42
ATOM     42  C   UNL     1       0.620  -4.992  -1.542  1.00  0.00     0.205 CG0
ATOM     43  C   UNL     1       1.946  -5.615  -1.111  1.00  0.00     0.056 C 
ATOM     44  G   UNL     1       0.239  -3.767  -0.687  1.00  0.00     0.000 G0
ENDBRANCH  41  42
ENDBRANCH  39  41
ENDBRANCH  35  39
ENDBRANCH  33  35
ENDBRANCH  23  31
ENDBRANCH  21  23
ENDBRANCH  19  21
ENDBRANCH  14  19
ENDBRANCH   7  14
ENDBRANCH   2   5
BRANCH   3  45
ATOM     45  C   UNL     1       3.457  -1.932  -1.681  1.00  0.00     0.171 C 
BRANCH  45  46
ATOM     46  N   UNL     1       2.188  -2.648  -1.665  1.00  0.00    -0.342 N 
ATOM     47  C   UNL     1       1.503  -2.907  -0.504  1.00  0.00     0.247 C 
ATOM     48  O   UNL     1       1.872  -2.492   0.596  1.00  0.00    -0.273 OA
ATOM     49  H   UNL     1       1.818  -2.960  -2.561  1.00  0.00     0.164 HD
BRANCH  47  50
ATOM     50  C   UNL     1       0.251  -3.779  -0.668  1.00  0.00     0.212 CG0
ATOM     51  G   UNL     1       0.625  -4.967  -1.578  1.00  0.00     0.000 G0
BRANCH  50  52
ATOM     52  N   UNL     1      -0.122  -4.184   0.684  1.00  0.00    -0.339 N 
ATOM     53  C   UNL     1      -1.357  -3.938   1.233  1.00  0.00     0.243 C 
ATOM     54  O   UNL     1      -2.230  -3.307   0.643  1.00  0.00    -0.273 OA
ATOM     55  H   UNL     1       0.596  -4.613   1.265  1.00  0.00     0.164 HD
BRANCH  53  56
ATOM     56  C   UNL     1      -1.490  -4.381   2.705  1.00  0.00     0.182 C 
BRANCH  56  57
ATOM     57  N   UNL     1      -2.578  -5.350   2.866  1.00  0.00    -0.344 N 
ATOM     58  C   UNL     1      -2.580  -6.568   2.231  1.00  0.00     0.220 C 
ATOM     59  O   UNL     1      -1.712  -6.899   1.429  1.00  0.00    -0.275 OA
ATOM     60  H   UNL     1      -3.260  -5.159   3.595  1.00  0.00     0.164 HD
BRANCH  58  61
ATOM     61  C   UNL     1      -3.774  -7.432   2.590  1.00  0.00     0.100 C 
BRANCH  61  62
ATOM     62  C   UNL     1      -4.146  -8.449   1.510  1.00  0.00     0.010 C 
BRANCH  62  63
ATOM     63  C   UNL     1      -2.979  -9.332   1.051  1.00  0.00     0.000 C 
BRANCH  63  64
ATOM     64  C   UNL     1      -3.243 -10.097  -0.245  1.00  0.00    -0.003 C 
ATOM     65  C   UNL     1      -1.964 -10.702  -0.803  1.00  0.00     0.004 C 
ENDBRANCH  63  64
ENDBRANCH  62  63
ENDBRANCH  61  62
ENDBRANCH  58  61
ENDBRANCH  56  57
BRANCH  56  66
ATOM     66  C   UNL     1      -1.642  -3.182   3.639  1.00  0.00     0.157 C 
BRANCH  66  67
ATOM     67  C   UNL     1      -0.308  -2.576   3.968  1.00  0.00     0.305 C 
ATOM     68  O   UNL     1       0.081  -2.213   5.068  1.00  0.00    -0.252 OA
BRANCH  67  69
ATOM     69  O   UNL     1       0.501  -2.504   2.894  1.00  0.00    -0.481 OA
ATOM     70  H   UNL     1       1.367  -2.840   3.209  1.00  0.00     0.296 HD
ENDBRANCH  67  69
ENDBRANCH  66  67
ENDBRANCH  56  66
ENDBRANCH  53  56
ENDBRANCH  50  52
ENDBRANCH  47  50
ENDBRANCH  45  46
BRANCH  45  71
ATOM     71  C   UNL     1       3.292  -0.502  -2.207  1.00  0.00     0.037 C 
BRANCH  71  72
ATOM     72  C   UNL     1       4.641   0.186  -2.435  1.00  0.00     0.026 C 
BRANCH  72  73
ATOM     73  C   UNL     1       4.694   0.878  -3.795  1.00  0.00     0.146 C 
BRANCH  73  74
ATOM     74  N   UNL     1       6.095   1.145  -4.107  1.00  0.00    -0.254 NA
ATOM     75  C   UNL     1       6.755   0.234  -4.722  1.00  0.00     0.185 C 
ATOM     76  N   UNL     1       8.045   0.451  -5.024  1.00  0.00    -0.370 N 
ATOM     77  N   UNL     1       6.340  -0.974  -5.140  1.00  0.00    -0.370 N 
ATOM     78  H   UNL     1       8.440   1.335  -4.738  1.00  0.00     0.159 HD
ATOM     79  H   UNL     1       8.660  -0.264  -5.371  1.00  0.00     0.159 HD
ATOM     80  H   UNL     1       5.389  -1.272  -4.985  1.00  0.00     0.159 HD
ATOM     81  H   UNL     1       6.919  -1.561  -5.718  1.00  0.00     0.159 HD
ENDBRANCH  73  74
ENDBRANCH  72  73
ENDBRANCH  71  72
ENDBRANCH  45  71
ENDBRANCH   3  45
TORSDOF 20
ENDMDL
MODEL 13
REMARK VINA RESULT:    -5.326      1.634      2.430
REMARK INTER + INTRA:         -21.080
REMARK INTER:                 -15.477
REMARK INTRA:                  -5.603
REMARK UNBOUND:                -5.791
REMARK SMILES CCCCCC(=O)N[C@H](CC(=O)O)C(=O)N[C@H]1C(=O)N[C@H](CCCN=C(N)N)C(=O)N[C@@H]2CC[C@H](O)N(C2=O)[C@@H](CC(C)C)C(=O)N(C)[C@@H](Cc2ccccc2)C(=O)N[C@H](C(C)C)C(=O)O[C@@H]1C
REMARK SMILES IDX 30 1 31 2 29 3 32 5 35 6 37 7 34 8 38 9 33 10 39 11 36 12
REMARK SMILES IDX 40 14 41 15 42 16 43 17 44 18 45 19 46 20 47 21 48 22 49 23
REMARK SMILES IDX 50 24 51 25 52 26 56 27 53 28 55 29 54 30 57 31 58 32 59 33
REMARK SMILES IDX 60 35 61 36 62 37 63 38 64 39 65 40 66 41 67 42 68 43 21 45
REMARK SMILES IDX 20 46 18 47 19 48 17 50 16 52 14 53 15 54 9 56 8 57 6 58
REMARK SMILES IDX 7 59 5 61 4 62 3 63 2 64 1 65 10 66 11 67 12 68 13 69 22 71
REMARK SMILES IDX 23 72 24 73 25 74 26 75 27 76 28 77
REMARK H PARENT 31 4 36 13 59 34 20 49 16 55 8 60 13 70 27 78 27 79 28 80
REMARK H PARENT 28 81
REMARK Flexibility Score:  259.900
ROOT
ATOM      1  O   UNL     1       8.277  -5.135  -2.924  1.00  0.00    -0.273 OA
ATOM      2  N   UNL     1       6.584  -4.363  -4.254  1.00  0.00    -0.343 N 
ATOM      3  C   UNL     1       7.119  -4.732  -3.039  1.00  0.00     0.243 C 
ATOM      4  H   UNL     1       5.632  -4.022  -4.308  1.00  0.00     0.164 HD
ENDROOT
BRANCH   2   5
ATOM      5  C   UNL     1       7.342  -4.550  -5.486  1.00  0.00     0.171 C 
ATOM      6  C   UNL     1       6.575  -4.552  -8.282  1.00  0.00     0.214 C 
ATOM      7  N   UNL     1       6.575  -5.794  -7.545  1.00  0.00    -0.303 N 
ATOM      8  C   UNL     1       7.607  -3.554  -7.780  1.00  0.00     0.057 C 
ATOM      9  C   UNL     1       6.881  -5.856  -6.195  1.00  0.00     0.247 C 
ATOM     10  C   UNL     1       7.369  -3.266  -6.314  1.00  0.00     0.040 C 
ATOM     11  O   UNL     1       6.795  -6.910  -5.551  1.00  0.00    -0.272 OA
BRANCH   6  12
ATOM     12  O   UNL     1       5.280  -4.004  -8.202  1.00  0.00    -0.373 OA
ATOM     13  H   UNL     1       4.660  -4.751  -8.065  1.00  0.00     0.213 HD
ENDBRANCH   6  12
BRANCH   7  14
ATOM     14  C   UNL     1       6.089  -6.995  -8.256  1.00  0.00     0.177 C 
BRANCH  14  15
ATOM     15  C   UNL     1       7.186  -7.973  -8.720  1.00  0.00     0.038 C 
BRANCH  15  16
ATOM     16  C   UNL     1       6.997  -8.760 -10.035  1.00  0.00    -0.015 C 
ATOM     17  C   UNL     1       5.987  -8.094 -10.975  1.00  0.00     0.007 C 
ATOM     18  C   UNL     1       6.501 -10.178  -9.724  1.00  0.00     0.007 C 
ENDBRANCH  15  16
ENDBRANCH  14  15
BRANCH  14  19
ATOM     19  C   UNL     1       4.674  -7.408  -7.720  1.00  0.00     0.245 C 
ATOM     20  O   UNL     1       3.876  -6.486  -7.480  1.00  0.00    -0.272 OA
BRANCH  19  21
ATOM     21  N   UNL     1       4.319  -8.707  -7.401  1.00  0.00    -0.332 N 
ATOM     22  C   UNL     1       5.111  -9.626  -6.604  1.00  0.00     0.147 C 
BRANCH  21  23
ATOM     23  C   UNL     1       3.022  -9.221  -7.922  1.00  0.00     0.178 C 
BRANCH  23  24
ATOM     24  C   UNL     1       3.134 -10.488  -8.795  1.00  0.00     0.070 C 
BRANCH  24  25
ATOM     25  C   UNL     1       2.624 -10.393 -10.214  1.00  0.00    -0.045 A 
ATOM     26  C   UNL     1       1.968 -11.475 -10.815  1.00  0.00     0.004 A 
ATOM     27  C   UNL     1       2.808  -9.216 -10.955  1.00  0.00     0.004 A 
ATOM     28  C   UNL     1       1.515 -11.385 -12.133  1.00  0.00     0.000 A 
ATOM     29  C   UNL     1       2.353  -9.127 -12.272  1.00  0.00     0.000 A 
ATOM     30  C   UNL     1       1.709 -10.213 -12.860  1.00  0.00     0.000 A 
ENDBRANCH  24  25
ENDBRANCH  23  24
BRANCH  23  31
ATOM     31  C   UNL     1       1.914  -9.269  -6.843  1.00  0.00     0.243 C 
ATOM     32  O   UNL     1       1.452 -10.309  -6.379  1.00  0.00    -0.273 OA
ATOM     33  N   UNL     1       1.350  -8.034  -6.574  1.00  0.00    -0.341 N 
ATOM     34  H   UNL     1       1.776  -7.204  -6.995  1.00  0.00     0.164 HD
BRANCH  33  35
ATOM     35  C   UNL     1       0.206  -7.857  -5.675  1.00  0.00     0.194 C 
BRANCH  35  36
ATOM     36  C   UNL     1      -1.162  -7.746  -6.404  1.00  0.00     0.017 C 
ATOM     37  C   UNL     1      -1.644  -9.120  -6.901  1.00  0.00     0.010 C 
ATOM     38  C   UNL     1      -1.128  -6.806  -7.616  1.00  0.00     0.010 C 
ENDBRANCH  35  36
BRANCH  35  39
ATOM     39  C   UNL     1       0.418  -6.700  -4.659  1.00  0.00     0.329 C 
ATOM     40  O   UNL     1      -0.452  -6.282  -3.905  1.00  0.00    -0.250 OA
BRANCH  39  41
ATOM     41  O   UNL     1       1.711  -6.255  -4.639  1.00  0.00    -0.458 OA
BRANCH  41  42
ATOM     42  C   UNL     1       2.463  -6.526  -3.432  1.00  0.00     0.205 CG0
ATOM     43  C   UNL     1       1.783  -7.698  -2.727  1.00  0.00     0.056 C 
ATOM     44  G   UNL     1       2.482  -5.249  -2.568  1.00  0.00     0.000 G0
ENDBRANCH  41  42
ENDBRANCH  39  41
ENDBRANCH  35  39
ENDBRANCH  33  35
ENDBRANCH  23  31
ENDBRANCH  21  23
ENDBRANCH  19  21
ENDBRANCH  14  19
ENDBRANCH   7  14
ENDBRANCH   2   5
BRANCH   3  45
ATOM     45  C   UNL     1       6.179  -4.585  -1.835  1.00  0.00     0.171 C 
BRANCH  45  46
ATOM     46  N   UNL     1       4.830  -4.596  -2.385  1.00  0.00    -0.342 N 
ATOM     47  C   UNL     1       3.788  -5.242  -1.768  1.00  0.00     0.247 C 
ATOM     48  O   UNL     1       3.898  -5.793  -0.673  1.00  0.00    -0.273 OA
ATOM     49  H   UNL     1       4.681  -4.103  -3.264  1.00  0.00     0.164 HD
BRANCH  47  50
ATOM     50  C   UNL     1       2.470  -5.251  -2.557  1.00  0.00     0.212 CG0
ATOM     51  G   UNL     1       2.447  -6.534  -3.412  1.00  0.00     0.000 G0
BRANCH  50  52
ATOM     52  N   UNL     1       1.413  -5.210  -1.550  1.00  0.00    -0.339 N 
ATOM     53  C   UNL     1       0.848  -4.044  -1.094  1.00  0.00     0.243 C 
ATOM     54  O   UNL     1       1.229  -2.936  -1.463  1.00  0.00    -0.273 OA
ATOM     55  H   UNL     1       1.132  -6.091  -1.123  1.00  0.00     0.164 HD
BRANCH  53  56
ATOM     56  C   UNL     1      -0.187  -4.246   0.031  1.00  0.00     0.182 C 
BRANCH  56  57
ATOM     57  N   UNL     1      -1.089  -5.360  -0.277  1.00  0.00    -0.344 N 
ATOM     58  C   UNL     1      -0.881  -6.629   0.205  1.00  0.00     0.220 C 
ATOM     59  O   UNL     1       0.107  -6.936   0.862  1.00  0.00    -0.275 OA
ATOM     60  H   UNL     1      -1.968  -5.128  -0.731  1.00  0.00     0.164 HD
BRANCH  58  61
ATOM     61  C   UNL     1      -1.971  -7.608  -0.192  1.00  0.00     0.100 C 
BRANCH  61  62
ATOM     62  C   UNL     1      -1.525  -8.640  -1.229  1.00  0.00     0.010 C 
BRANCH  62  63
ATOM     63  C   UNL     1      -2.494  -8.804  -2.407  1.00  0.00     0.000 C 
BRANCH  63  64
ATOM     64  C   UNL     1      -3.811  -9.488  -2.044  1.00  0.00    -0.003 C 
ATOM     65  C   UNL     1      -4.950  -8.483  -1.948  1.00  0.00     0.004 C 
ENDBRANCH  63  64
ENDBRANCH  62  63
ENDBRANCH  61  62
ENDBRANCH  58  61
ENDBRANCH  56  57
BRANCH  56  66
ATOM     66  C   UNL     1      -0.946  -2.955   0.331  1.00  0.00     0.157 C 
BRANCH  66  67
ATOM     67  C   UNL     1      -0.582  -2.411   1.683  1.00  0.00     0.305 C 
ATOM     68  O   UNL     1      -1.159  -2.626   2.738  1.00  0.00    -0.252 OA
BRANCH  67  69
ATOM     69  O   UNL     1       0.533  -1.657   1.648  1.00  0.00    -0.481 OA
ATOM     70  H   UNL     1       1.232  -2.226   2.034  1.00  0.00     0.296 HD
ENDBRANCH  67  69
ENDBRANCH  66  67
ENDBRANCH  56  66
ENDBRANCH  53  56
ENDBRANCH  50  52
ENDBRANCH  47  50
ENDBRANCH  45  46
BRANCH  45  71
ATOM     71  C   UNL     1       6.472  -3.282  -1.084  1.00  0.00     0.037 C 
BRANCH  71  72
ATOM     72  C   UNL     1       5.230  -2.396  -0.961  1.00  0.00     0.026 C 
BRANCH  72  73
ATOM     73  C   UNL     1       5.283  -1.219  -1.932  1.00  0.00     0.146 C 
BRANCH  73  74
ATOM     74  N   UNL     1       4.713  -1.660  -3.202  1.00  0.00    -0.254 NA
ATOM     75  C   UNL     1       5.141  -1.105  -4.275  1.00  0.00     0.185 C 
ATOM     76  N   UNL     1       4.637  -1.491  -5.459  1.00  0.00    -0.370 N 
ATOM     77  N   UNL     1       6.069  -0.143  -4.417  1.00  0.00    -0.370 N 
ATOM     78  H   UNL     1       3.925  -2.208  -5.441  1.00  0.00     0.159 HD
ATOM     79  H   UNL     1       4.814  -1.006  -6.321  1.00  0.00     0.159 HD
ATOM     80  H   UNL     1       6.537   0.242  -3.611  1.00  0.00     0.159 HD
ATOM     81  H   UNL     1       6.407   0.135  -5.324  1.00  0.00     0.159 HD
ENDBRANCH  73  74
ENDBRANCH  72  73
ENDBRANCH  71  72
ENDBRANCH  45  71
ENDBRANCH   3  45
TORSDOF 20
ENDMDL
MODEL 14
REMARK VINA RESULT:    -5.265      2.017      3.037
REMARK INTER + INTRA:         -20.906
REMARK INTER:                 -15.841
REMARK INTRA:                  -5.065
REMARK UNBOUND:                -5.791
REMARK SMILES CCCCCC(=O)N[C@H](CC(=O)O)C(=O)N[C@H]1C(=O)N[C@H](CCCN=C(N)N)C(=O)N[C@@H]2CC[C@H](O)N(C2=O)[C@@H](CC(C)C)C(=O)N(C)[C@@H](Cc2ccccc2)C(=O)N[C@H](C(C)C)C(=O)O[C@@H]1C
REMARK SMILES IDX 30 1 31 2 29 3 32 5 35 6 37 7 34 8 38 9 33 10 39 11 36 12
REMARK SMILES IDX 40 14 41 15 42 16 43 17 44 18 45 19 46 20 47 21 48 22 49 23
REMARK SMILES IDX 50 24 51 25 52 26 56 27 53 28 55 29 54 30 57 31 58 32 59 33
REMARK SMILES IDX 60 35 61 36 62 37 63 38 64 39 65 40 66 41 67 42 68 43 21 45
REMARK SMILES IDX 20 46 18 47 19 48 17 50 16 52 14 53 15 54 9 56 8 57 6 58
REMARK SMILES IDX 7 59 5 61 4 62 3 63 2 64 1 65 10 66 11 67 12 68 13 69 22 71
REMARK SMILES IDX 23 72 24 73 25 74 26 75 27 76 28 77
REMARK H PARENT 31 4 36 13 59 34 20 49 16 55 8 60 13 70 27 78 27 79 28 80
REMARK H PARENT 28 81
REMARK Flexibility Score:  259.900
ROOT
ATOM      1  O   UNL     1       4.137  -3.699  -4.193  1.00  0.00    -0.273 OA
ATOM      2  N   UNL     1       6.000  -4.558  -3.181  1.00  0.00    -0.343 N 
ATOM      3  C   UNL     1       4.747  -3.984  -3.162  1.00  0.00     0.243 C 
ATOM      4  H   UNL     1       6.465  -4.793  -2.313  1.00  0.00     0.164 HD
ENDROOT
BRANCH   2   5
ATOM      5  C   UNL     1       6.712  -4.743  -4.441  1.00  0.00     0.171 C 
ATOM      6  C   UNL     1       5.902  -4.479  -7.212  1.00  0.00     0.214 C 
ATOM      7  N   UNL     1       5.781  -5.760  -6.556  1.00  0.00    -0.303 N 
ATOM      8  C   UNL     1       7.043  -3.632  -6.672  1.00  0.00     0.057 C 
ATOM      9  C   UNL     1       6.101  -5.943  -5.220  1.00  0.00     0.247 C 
ATOM     10  C   UNL     1       6.863  -3.417  -5.185  1.00  0.00     0.040 C 
ATOM     11  O   UNL     1       5.913  -7.022  -4.643  1.00  0.00    -0.272 OA
BRANCH   6  12
ATOM     12  O   UNL     1       4.675  -3.803  -7.066  1.00  0.00    -0.373 OA
ATOM     13  H   UNL     1       4.444  -3.829  -6.113  1.00  0.00     0.213 HD
ENDBRANCH   6  12
BRANCH   7  14
ATOM     14  C   UNL     1       5.155  -6.854  -7.329  1.00  0.00     0.177 C 
BRANCH  14  15
ATOM     15  C   UNL     1       6.118  -7.966  -7.788  1.00  0.00     0.038 C 
BRANCH  15  16
ATOM     16  C   UNL     1       7.267  -7.625  -8.762  1.00  0.00    -0.015 C 
ATOM     17  C   UNL     1       6.776  -6.879 -10.007  1.00  0.00     0.007 C 
ATOM     18  C   UNL     1       7.962  -8.914  -9.218  1.00  0.00     0.007 C 
ENDBRANCH  15  16
ENDBRANCH  14  15
BRANCH  14  19
ATOM     19  C   UNL     1       3.674  -7.070  -6.864  1.00  0.00     0.245 C 
ATOM     20  O   UNL     1       2.945  -6.065  -6.832  1.00  0.00    -0.272 OA
BRANCH  19  21
ATOM     21  N   UNL     1       3.183  -8.274  -6.392  1.00  0.00    -0.332 N 
ATOM     22  C   UNL     1       3.600  -8.932  -5.166  1.00  0.00     0.147 C 
BRANCH  21  23
ATOM     23  C   UNL     1       2.147  -8.970  -7.204  1.00  0.00     0.178 C 
BRANCH  23  24
ATOM     24  C   UNL     1       2.628 -10.263  -7.895  1.00  0.00     0.070 C 
BRANCH  24  25
ATOM     25  C   UNL     1       3.455 -10.106  -9.150  1.00  0.00    -0.045 A 
ATOM     26  C   UNL     1       3.186  -9.077 -10.062  1.00  0.00     0.004 A 
ATOM     27  C   UNL     1       4.504 -10.996  -9.422  1.00  0.00     0.004 A 
ATOM     28  C   UNL     1       3.943  -8.949 -11.228  1.00  0.00     0.000 A 
ATOM     29  C   UNL     1       5.261 -10.867 -10.587  1.00  0.00     0.000 A 
ATOM     30  C   UNL     1       4.978  -9.845 -11.491  1.00  0.00     0.000 A 
ENDBRANCH  24  25
ENDBRANCH  23  24
BRANCH  23  31
ATOM     31  C   UNL     1       0.787  -9.088  -6.476  1.00  0.00     0.243 C 
ATOM     32  O   UNL     1       0.191 -10.148  -6.300  1.00  0.00    -0.273 OA
ATOM     33  N   UNL     1       0.201  -7.865  -6.196  1.00  0.00    -0.341 N 
ATOM     34  H   UNL     1       0.744  -7.016  -6.370  1.00  0.00     0.164 HD
BRANCH  33  35
ATOM     35  C   UNL     1      -1.139  -7.735  -5.618  1.00  0.00     0.194 C 
BRANCH  35  36
ATOM     36  C   UNL     1      -2.209  -7.196  -6.609  1.00  0.00     0.017 C 
ATOM     37  C   UNL     1      -2.973  -8.346  -7.288  1.00  0.00     0.010 C 
ATOM     38  C   UNL     1      -1.616  -6.320  -7.720  1.00  0.00     0.010 C 
ENDBRANCH  35  36
BRANCH  35  39
ATOM     39  C   UNL     1      -1.139  -6.946  -4.279  1.00  0.00     0.329 C 
ATOM     40  O   UNL     1      -2.070  -6.946  -3.482  1.00  0.00    -0.250 OA
BRANCH  39  41
ATOM     41  O   UNL     1       0.054  -6.319  -4.046  1.00  0.00    -0.458 OA
BRANCH  41  42
ATOM     42  C   UNL     1       0.861  -6.855  -2.970  1.00  0.00     0.205 CG0
ATOM     43  C   UNL     1       0.226  -8.176  -2.541  1.00  0.00     0.056 C 
ATOM     44  G   UNL     1       0.904  -5.822  -1.826  1.00  0.00     0.000 G0
ENDBRANCH  41  42
ENDBRANCH  39  41
ENDBRANCH  35  39
ENDBRANCH  33  35
ENDBRANCH  23  31
ENDBRANCH  21  23
ENDBRANCH  19  21
ENDBRANCH  14  19
ENDBRANCH   7  14
ENDBRANCH   2   5
BRANCH   3  45
ATOM     45  C   UNL     1       4.155  -3.746  -1.766  1.00  0.00     0.171 C 
BRANCH  45  46
ATOM     46  N   UNL     1       2.771  -4.193  -1.843  1.00  0.00    -0.342 N 
ATOM     47  C   UNL     1       2.395  -5.480  -1.548  1.00  0.00     0.247 C 
ATOM     48  O   UNL     1       3.185  -6.326  -1.128  1.00  0.00    -0.273 OA
ATOM     49  H   UNL     1       2.075  -3.508  -2.133  1.00  0.00     0.164 HD
BRANCH  47  50
ATOM     50  C   UNL     1       0.916  -5.801  -1.806  1.00  0.00     0.212 CG0
ATOM     51  G   UNL     1       0.855  -6.835  -2.947  1.00  0.00     0.000 G0
BRANCH  50  52
ATOM     52  N   UNL     1       0.401  -6.309  -0.537  1.00  0.00    -0.339 N 
ATOM     53  C   UNL     1      -0.733  -5.824   0.067  1.00  0.00     0.243 C 
ATOM     54  O   UNL     1      -1.376  -4.883  -0.391  1.00  0.00    -0.273 OA
ATOM     55  H   UNL     1       0.952  -7.015  -0.052  1.00  0.00     0.164 HD
BRANCH  53  56
ATOM     56  C   UNL     1      -1.032  -6.456   1.441  1.00  0.00     0.182 C 
BRANCH  56  57
ATOM     57  N   UNL     1      -1.446  -7.856   1.298  1.00  0.00    -0.344 N 
ATOM     58  C   UNL     1      -2.553  -8.225   0.573  1.00  0.00     0.220 C 
ATOM     59  O   UNL     1      -3.311  -7.410   0.058  1.00  0.00    -0.275 OA
ATOM     60  H   UNL     1      -0.793  -8.565   1.621  1.00  0.00     0.164 HD
BRANCH  58  61
ATOM     61  C   UNL     1      -2.758  -9.728   0.511  1.00  0.00     0.100 C 
BRANCH  61  62
ATOM     62  C   UNL     1      -2.066 -10.396  -0.677  1.00  0.00     0.010 C 
BRANCH  62  63
ATOM     63  C   UNL     1      -3.012 -11.186  -1.590  1.00  0.00     0.000 C 
BRANCH  63  64
ATOM     64  C   UNL     1      -3.894 -10.315  -2.483  1.00  0.00    -0.003 C 
ATOM     65  C   UNL     1      -4.768 -11.163  -3.396  1.00  0.00     0.004 C 
ENDBRANCH  63  64
ENDBRANCH  62  63
ENDBRANCH  61  62
ENDBRANCH  58  61
ENDBRANCH  56  57
BRANCH  56  66
ATOM     66  C   UNL     1      -2.049  -5.632   2.228  1.00  0.00     0.157 C 
BRANCH  66  67
ATOM     67  C   UNL     1      -1.675  -5.548   3.680  1.00  0.00     0.305 C 
ATOM     68  O   UNL     1      -0.803  -4.848   4.173  1.00  0.00    -0.252 OA
BRANCH  67  69
ATOM     69  O   UNL     1      -2.459  -6.320   4.456  1.00  0.00    -0.481 OA
ATOM     70  H   UNL     1      -1.861  -7.016   4.801  1.00  0.00     0.296 HD
ENDBRANCH  67  69
ENDBRANCH  66  67
ENDBRANCH  56  66
ENDBRANCH  53  56
ENDBRANCH  50  52
ENDBRANCH  47  50
ENDBRANCH  45  46
BRANCH  45  71
ATOM     71  C   UNL     1       4.250  -2.262  -1.392  1.00  0.00     0.037 C 
BRANCH  71  72
ATOM     72  C   UNL     1       5.613  -1.665  -1.749  1.00  0.00     0.026 C 
BRANCH  72  73
ATOM     73  C   UNL     1       5.496  -0.191  -2.131  1.00  0.00     0.146 C 
BRANCH  73  74
ATOM     74  N   UNL     1       5.328  -0.116  -3.579  1.00  0.00    -0.254 NA
ATOM     75  C   UNL     1       4.143   0.058  -4.036  1.00  0.00     0.185 C 
ATOM     76  N   UNL     1       3.956   0.132  -5.364  1.00  0.00    -0.370 N 
ATOM     77  N   UNL     1       2.988   0.188  -3.361  1.00  0.00    -0.370 N 
ATOM     78  H   UNL     1       4.776   0.036  -5.947  1.00  0.00     0.159 HD
ATOM     79  H   UNL     1       3.050   0.122  -5.797  1.00  0.00     0.159 HD
ATOM     80  H   UNL     1       2.975   0.157  -2.353  1.00  0.00     0.159 HD
ATOM     81  H   UNL     1       2.130   0.438  -3.826  1.00  0.00     0.159 HD
ENDBRANCH  73  74
ENDBRANCH  72  73
ENDBRANCH  71  72
ENDBRANCH  45  71
ENDBRANCH   3  45
TORSDOF 20
ENDMDL
MODEL 15
REMARK VINA RESULT:    -5.244     16.411     21.603
REMARK INTER + INTRA:         -20.844
REMARK INTER:                 -14.737
REMARK INTRA:                  -6.107
REMARK UNBOUND:                -5.791
REMARK SMILES CCCCCC(=O)N[C@H](CC(=O)O)C(=O)N[C@H]1C(=O)N[C@H](CCCN=C(N)N)C(=O)N[C@@H]2CC[C@H](O)N(C2=O)[C@@H](CC(C)C)C(=O)N(C)[C@@H](Cc2ccccc2)C(=O)N[C@H](C(C)C)C(=O)O[C@@H]1C
REMARK SMILES IDX 30 1 31 2 29 3 32 5 35 6 37 7 34 8 38 9 33 10 39 11 36 12
REMARK SMILES IDX 40 14 41 15 42 16 43 17 44 18 45 19 46 20 47 21 48 22 49 23
REMARK SMILES IDX 50 24 51 25 52 26 56 27 53 28 55 29 54 30 57 31 58 32 59 33
REMARK SMILES IDX 60 35 61 36 62 37 63 38 64 39 65 40 66 41 67 42 68 43 21 45
REMARK SMILES IDX 20 46 18 47 19 48 17 50 16 52 14 53 15 54 9 56 8 57 6 58
REMARK SMILES IDX 7 59 5 61 4 62 3 63 2 64 1 65 10 66 11 67 12 68 13 69 22 71
REMARK SMILES IDX 23 72 24 73 25 74 26 75 27 76 28 77
REMARK H PARENT 31 4 36 13 59 34 20 49 16 55 8 60 13 70 27 78 27 79 28 80
REMARK H PARENT 28 81
REMARK Flexibility Score:  259.900
ROOT
ATOM      1  O   UNL     1     -17.828  -4.923   2.305  1.00  0.00    -0.273 OA
ATOM      2  N   UNL     1     -18.645  -7.058   2.253  1.00  0.00    -0.343 N 
ATOM      3  C   UNL     1     -17.882  -6.049   2.800  1.00  0.00     0.243 C 
ATOM      4  H   UNL     1     -18.678  -7.968   2.696  1.00  0.00     0.164 HD
ENDROOT
BRANCH   2   5
ATOM      5  C   UNL     1     -19.333  -6.863   0.981  1.00  0.00     0.171 C 
ATOM      6  C   UNL     1     -20.631  -8.697  -0.851  1.00  0.00     0.214 C 
ATOM      7  N   UNL     1     -19.232  -8.387  -1.029  1.00  0.00    -0.303 N 
ATOM      8  C   UNL     1     -21.425  -7.559  -0.228  1.00  0.00     0.057 C 
ATOM      9  C   UNL     1     -18.538  -7.560  -0.160  1.00  0.00     0.247 C 
ATOM     10  C   UNL     1     -20.821  -7.185   1.108  1.00  0.00     0.040 C 
ATOM     11  O   UNL     1     -17.320  -7.368  -0.269  1.00  0.00    -0.272 OA
BRANCH   6  12
ATOM     12  O   UNL     1     -20.718  -9.853  -0.051  1.00  0.00    -0.373 OA
ATOM     13  H   UNL     1     -20.009  -9.790   0.624  1.00  0.00     0.213 HD
ENDBRANCH   6  12
BRANCH   7  14
ATOM     14  C   UNL     1     -18.516  -9.109  -2.102  1.00  0.00     0.177 C 
BRANCH  14  15
ATOM     15  C   UNL     1     -18.185  -8.269  -3.351  1.00  0.00     0.038 C 
BRANCH  15  16
ATOM     16  C   UNL     1     -19.330  -7.794  -4.274  1.00  0.00    -0.015 C 
ATOM     17  C   UNL     1     -19.420  -8.617  -5.562  1.00  0.00     0.007 C 
ATOM     18  C   UNL     1     -19.111  -6.325  -4.657  1.00  0.00     0.007 C 
ENDBRANCH  15  16
ENDBRANCH  14  15
BRANCH  14  19
ATOM     19  C   UNL     1     -17.599 -10.223  -1.489  1.00  0.00     0.245 C 
ATOM     20  O   UNL     1     -16.375 -10.096  -1.659  1.00  0.00    -0.272 OA
BRANCH  19  21
ATOM     21  N   UNL     1     -18.080 -11.370  -0.883  1.00  0.00    -0.332 N 
ATOM     22  C   UNL     1     -18.990 -12.326  -1.489  1.00  0.00     0.147 C 
BRANCH  21  23
ATOM     23  C   UNL     1     -17.644 -11.655   0.512  1.00  0.00     0.178 C 
BRANCH  23  24
ATOM     24  C   UNL     1     -18.513 -12.684   1.263  1.00  0.00     0.070 C 
BRANCH  24  25
ATOM     25  C   UNL     1     -18.954 -12.322   2.662  1.00  0.00    -0.045 A 
ATOM     26  C   UNL     1     -18.119 -12.558   3.761  1.00  0.00     0.004 A 
ATOM     27  C   UNL     1     -20.215 -11.745   2.879  1.00  0.00     0.004 A 
ATOM     28  C   UNL     1     -18.541 -12.236   5.053  1.00  0.00     0.000 A 
ATOM     29  C   UNL     1     -20.635 -11.423   4.171  1.00  0.00     0.000 A 
ATOM     30  C   UNL     1     -19.798 -11.671   5.257  1.00  0.00     0.000 A 
ENDBRANCH  24  25
ENDBRANCH  23  24
BRANCH  23  31
ATOM     31  C   UNL     1     -16.117 -11.880   0.633  1.00  0.00     0.243 C 
ATOM     32  O   UNL     1     -15.555 -12.938   0.360  1.00  0.00    -0.273 OA
ATOM     33  N   UNL     1     -15.453 -10.838   1.257  1.00  0.00    -0.341 N 
ATOM     34  H   UNL     1     -15.976  -9.984   1.465  1.00  0.00     0.164 HD
BRANCH  33  35
ATOM     35  C   UNL     1     -14.025 -10.884   1.585  1.00  0.00     0.194 C 
BRANCH  35  36
ATOM     36  C   UNL     1     -13.720 -10.782   3.106  1.00  0.00     0.017 C 
ATOM     37  C   UNL     1     -12.774 -11.907   3.563  1.00  0.00     0.010 C 
ATOM     38  C   UNL     1     -14.977 -10.857   3.981  1.00  0.00     0.010 C 
ENDBRANCH  35  36
BRANCH  35  39
ATOM     39  C   UNL     1     -13.188  -9.870   0.756  1.00  0.00     0.329 C 
ATOM     40  O   UNL     1     -13.096  -9.893  -0.466  1.00  0.00    -0.250 OA
BRANCH  39  41
ATOM     41  O   UNL     1     -12.634  -8.893   1.536  1.00  0.00    -0.458 OA
BRANCH  41  42
ATOM     42  C   UNL     1     -13.135  -7.550   1.334  1.00  0.00     0.205 CG0
ATOM     43  C   UNL     1     -12.004  -6.731   0.715  1.00  0.00     0.056 C 
ATOM     44  G   UNL     1     -13.595  -6.986   2.693  1.00  0.00     0.000 G0
ENDBRANCH  41  42
ENDBRANCH  39  41
ENDBRANCH  35  39
ENDBRANCH  33  35
ENDBRANCH  23  31
ENDBRANCH  21  23
ENDBRANCH  19  21
ENDBRANCH  14  19
ENDBRANCH   7  14
ENDBRANCH   2   5
BRANCH   3  45
ATOM     45  C   UNL     1     -17.124  -6.419   4.081  1.00  0.00     0.171 C 
BRANCH  45  46
ATOM     46  N   UNL     1     -15.710  -6.318   3.745  1.00  0.00    -0.342 N 
ATOM     47  C   UNL     1     -15.106  -7.159   2.844  1.00  0.00     0.247 C 
ATOM     48  O   UNL     1     -15.725  -8.008   2.203  1.00  0.00    -0.273 OA
ATOM     49  H   UNL     1     -15.171  -5.591   4.212  1.00  0.00     0.164 HD
BRANCH  47  50
ATOM     50  C   UNL     1     -13.586  -6.985   2.711  1.00  0.00     0.212 CG0
ATOM     51  G   UNL     1     -13.174  -7.522   1.326  1.00  0.00     0.000 G0
BRANCH  50  52
ATOM     52  N   UNL     1     -13.343  -5.554   2.870  1.00  0.00    -0.339 N 
ATOM     53  C   UNL     1     -12.505  -5.031   3.825  1.00  0.00     0.243 C 
ATOM     54  O   UNL     1     -11.933  -5.730   4.658  1.00  0.00    -0.273 OA
ATOM     55  H   UNL     1     -13.874  -4.915   2.281  1.00  0.00     0.164 HD
BRANCH  53  56
ATOM     56  C   UNL     1     -12.474  -3.490   3.857  1.00  0.00     0.182 C 
BRANCH  56  57
ATOM     57  N   UNL     1     -13.725  -2.927   3.339  1.00  0.00    -0.344 N 
ATOM     58  C   UNL     1     -14.729  -2.481   4.163  1.00  0.00     0.220 C 
ATOM     59  O   UNL     1     -14.682  -2.589   5.384  1.00  0.00    -0.275 OA
ATOM     60  H   UNL     1     -13.761  -2.727   2.343  1.00  0.00     0.164 HD
BRANCH  58  61
ATOM     61  C   UNL     1     -15.904  -1.886   3.412  1.00  0.00     0.100 C 
BRANCH  61  62
ATOM     62  C   UNL     1     -15.709  -0.419   3.024  1.00  0.00     0.010 C 
BRANCH  62  63
ATOM     63  C   UNL     1     -15.802  -0.151   1.517  1.00  0.00     0.000 C 
BRANCH  63  64
ATOM     64  C   UNL     1     -14.709  -0.827   0.691  1.00  0.00    -0.003 C 
ATOM     65  C   UNL     1     -15.223  -1.234  -0.683  1.00  0.00     0.004 C 
ENDBRANCH  63  64
ENDBRANCH  62  63
ENDBRANCH  61  62
ENDBRANCH  58  61
ENDBRANCH  56  57
BRANCH  56  66
ATOM     66  C   UNL     1     -11.248  -2.939   3.130  1.00  0.00     0.157 C 
BRANCH  66  67
ATOM     67  C   UNL     1     -11.229  -3.372   1.692  1.00  0.00     0.305 C 
ATOM     68  O   UNL     1     -12.182  -3.422   0.930  1.00  0.00    -0.252 OA
BRANCH  67  69
ATOM     69  O   UNL     1      -9.988  -3.674   1.266  1.00  0.00    -0.481 OA
ATOM     70  H   UNL     1     -10.074  -3.766   0.293  1.00  0.00     0.296 HD
ENDBRANCH  67  69
ENDBRANCH  66  67
ENDBRANCH  56  66
ENDBRANCH  53  56
ENDBRANCH  50  52
ENDBRANCH  47  50
ENDBRANCH  45  46
BRANCH  45  71
ATOM     71  C   UNL     1     -17.498  -7.835   4.533  1.00  0.00     0.037 C 
BRANCH  71  72
ATOM     72  C   UNL     1     -16.852  -8.202   5.871  1.00  0.00     0.026 C 
BRANCH  72  73
ATOM     73  C   UNL     1     -17.769  -9.089   6.711  1.00  0.00     0.146 C 
BRANCH  73  74
ATOM     74  N   UNL     1     -18.864  -8.260   7.204  1.00  0.00    -0.254 NA
ATOM     75  C   UNL     1     -19.414  -8.592   8.313  1.00  0.00     0.185 C 
ATOM     76  N   UNL     1     -20.424  -7.848   8.793  1.00  0.00    -0.370 N 
ATOM     77  N   UNL     1     -19.127  -9.626   9.123  1.00  0.00    -0.370 N 
ATOM     78  H   UNL     1     -20.709  -7.053   8.240  1.00  0.00     0.159 HD
ATOM     79  H   UNL     1     -20.994  -8.125   9.573  1.00  0.00     0.159 HD
ATOM     80  H   UNL     1     -18.385 -10.270   8.891  1.00  0.00     0.159 HD
ATOM     81  H   UNL     1     -19.552  -9.720  10.031  1.00  0.00     0.159 HD
ENDBRANCH  73  74
ENDBRANCH  72  73
ENDBRANCH  71  72
ENDBRANCH  45  71
ENDBRANCH   3  45
TORSDOF 20
ENDMDL
MODEL 16
REMARK VINA RESULT:    -5.236      2.125      3.744
REMARK INTER + INTRA:         -20.822
REMARK INTER:                 -16.027
REMARK INTRA:                  -4.794
REMARK UNBOUND:                -5.791
REMARK SMILES CCCCCC(=O)N[C@H](CC(=O)O)C(=O)N[C@H]1C(=O)N[C@H](CCCN=C(N)N)C(=O)N[C@@H]2CC[C@H](O)N(C2=O)[C@@H](CC(C)C)C(=O)N(C)[C@@H](Cc2ccccc2)C(=O)N[C@H](C(C)C)C(=O)O[C@@H]1C
REMARK SMILES IDX 30 1 31 2 29 3 32 5 35 6 37 7 34 8 38 9 33 10 39 11 36 12
REMARK SMILES IDX 40 14 41 15 42 16 43 17 44 18 45 19 46 20 47 21 48 22 49 23
REMARK SMILES IDX 50 24 51 25 52 26 56 27 53 28 55 29 54 30 57 31 58 32 59 33
REMARK SMILES IDX 60 35 61 36 62 37 63 38 64 39 65 40 66 41 67 42 68 43 21 45
REMARK SMILES IDX 20 46 18 47 19 48 17 50 16 52 14 53 15 54 9 56 8 57 6 58
REMARK SMILES IDX 7 59 5 61 4 62 3 63 2 64 1 65 10 66 11 67 12 68 13 69 22 71
REMARK SMILES IDX 23 72 24 73 25 74 26 75 27 76 28 77
REMARK H PARENT 31 4 36 13 59 34 20 49 16 55 8 60 13 70 27 78 27 79 28 80
REMARK H PARENT 28 81
REMARK Flexibility Score:  259.900
ROOT
ATOM      1  O   UNL     1       4.062  -3.847  -4.755  1.00  0.00    -0.273 OA
ATOM      2  N   UNL     1       5.769  -4.268  -3.293  1.00  0.00    -0.343 N 
ATOM      3  C   UNL     1       4.506  -3.814  -3.607  1.00  0.00     0.243 C 
ATOM      4  H   UNL     1       6.096  -4.239  -2.335  1.00  0.00     0.164 HD
ENDROOT
BRANCH   2   5
ATOM      5  C   UNL     1       6.685  -4.701  -4.342  1.00  0.00     0.171 C 
ATOM      6  C   UNL     1       6.427  -4.877  -7.224  1.00  0.00     0.214 C 
ATOM      7  N   UNL     1       6.083  -6.019  -6.409  1.00  0.00    -0.303 N 
ATOM      8  C   UNL     1       7.513  -4.007  -6.613  1.00  0.00     0.057 C 
ATOM      9  C   UNL     1       6.135  -5.986  -5.025  1.00  0.00     0.247 C 
ATOM     10  C   UNL     1       7.079  -3.532  -5.243  1.00  0.00     0.040 C 
ATOM     11  O   UNL     1       5.756  -6.939  -4.332  1.00  0.00    -0.272 OA
BRANCH   6  12
ATOM     12  O   UNL     1       5.253  -4.127  -7.431  1.00  0.00    -0.373 OA
ATOM     13  H   UNL     1       5.433  -3.217  -7.111  1.00  0.00     0.213 HD
ENDBRANCH   6  12
BRANCH   7  14
ATOM     14  C   UNL     1       5.525  -7.197  -7.107  1.00  0.00     0.177 C 
BRANCH  14  15
ATOM     15  C   UNL     1       6.503  -8.374  -7.291  1.00  0.00     0.038 C 
BRANCH  15  16
ATOM     16  C   UNL     1       7.012  -8.726  -8.706  1.00  0.00    -0.015 C 
ATOM     17  C   UNL     1       6.374  -7.853  -9.791  1.00  0.00     0.007 C 
ATOM     18  C   UNL     1       6.694 -10.193  -9.022  1.00  0.00     0.007 C 
ENDBRANCH  15  16
ENDBRANCH  14  15
BRANCH  14  19
ATOM     19  C   UNL     1       3.992  -7.329  -6.809  1.00  0.00     0.245 C 
ATOM     20  O   UNL     1       3.320  -6.286  -6.863  1.00  0.00    -0.272 OA
BRANCH  19  21
ATOM     21  N   UNL     1       3.386  -8.500  -6.389  1.00  0.00    -0.332 N 
ATOM     22  C   UNL     1       3.602  -9.148  -5.108  1.00  0.00     0.147 C 
BRANCH  21  23
ATOM     23  C   UNL     1       2.440  -9.169  -7.325  1.00  0.00     0.178 C 
BRANCH  23  24
ATOM     24  C   UNL     1       3.049 -10.328  -8.139  1.00  0.00     0.070 C 
BRANCH  24  25
ATOM     25  C   UNL     1       2.945 -10.241  -9.644  1.00  0.00    -0.045 A 
ATOM     26  C   UNL     1       2.807 -11.398 -10.422  1.00  0.00     0.004 A 
ATOM     27  C   UNL     1       2.989  -8.994 -10.286  1.00  0.00     0.004 A 
ATOM     28  C   UNL     1       2.729 -11.310 -11.814  1.00  0.00     0.000 A 
ATOM     29  C   UNL     1       2.910  -8.908 -11.677  1.00  0.00     0.000 A 
ATOM     30  C   UNL     1       2.782 -10.067 -12.440  1.00  0.00     0.000 A 
ENDBRANCH  24  25
ENDBRANCH  23  24
BRANCH  23  31
ATOM     31  C   UNL     1       1.068  -9.476  -6.679  1.00  0.00     0.243 C 
ATOM     32  O   UNL     1       0.561 -10.594  -6.644  1.00  0.00    -0.273 OA
ATOM     33  N   UNL     1       0.368  -8.343  -6.301  1.00  0.00    -0.341 N 
ATOM     34  H   UNL     1       0.842  -7.438  -6.359  1.00  0.00     0.164 HD
BRANCH  33  35
ATOM     35  C   UNL     1      -1.000  -8.387  -5.777  1.00  0.00     0.194 C 
BRANCH  35  36
ATOM     36  C   UNL     1      -2.097  -8.115  -6.844  1.00  0.00     0.017 C 
ATOM     37  C   UNL     1      -2.291  -6.606  -7.076  1.00  0.00     0.010 C 
ATOM     38  C   UNL     1      -3.464  -8.700  -6.468  1.00  0.00     0.010 C 
ENDBRANCH  35  36
BRANCH  35  39
ATOM     39  C   UNL     1      -1.185  -7.499  -4.515  1.00  0.00     0.329 C 
ATOM     40  O   UNL     1      -1.981  -7.742  -3.616  1.00  0.00    -0.250 OA
BRANCH  39  41
ATOM     41  O   UNL     1      -0.298  -6.459  -4.476  1.00  0.00    -0.458 OA
BRANCH  41  42
ATOM     42  C   UNL     1       0.807  -6.593  -3.550  1.00  0.00     0.205 CG0
ATOM     43  C   UNL     1       0.833  -8.047  -3.082  1.00  0.00     0.056 C 
ATOM     44  G   UNL     1       0.597  -5.603  -2.388  1.00  0.00     0.000 G0
ENDBRANCH  41  42
ENDBRANCH  39  41
ENDBRANCH  35  39
ENDBRANCH  33  35
ENDBRANCH  23  31
ENDBRANCH  21  23
ENDBRANCH  19  21
ENDBRANCH  14  19
ENDBRANCH   7  14
ENDBRANCH   2   5
BRANCH   3  45
ATOM     45  C   UNL     1       3.685  -3.286  -2.423  1.00  0.00     0.171 C 
BRANCH  45  46
ATOM     46  N   UNL     1       2.362  -3.880  -2.566  1.00  0.00    -0.342 N 
ATOM     47  C   UNL     1       2.030  -5.083  -1.995  1.00  0.00     0.247 C 
ATOM     48  O   UNL     1       2.797  -5.710  -1.264  1.00  0.00    -0.273 OA
ATOM     49  H   UNL     1       1.678  -3.365  -3.117  1.00  0.00     0.164 HD
BRANCH  47  50
ATOM     50  C   UNL     1       0.634  -5.610  -2.356  1.00  0.00     0.212 CG0
ATOM     51  G   UNL     1       0.795  -6.587  -3.538  1.00  0.00     0.000 G0
BRANCH  50  52
ATOM     52  N   UNL     1       0.133  -6.249  -1.142  1.00  0.00    -0.339 N 
ATOM     53  C   UNL     1      -0.953  -5.790  -0.439  1.00  0.00     0.243 C 
ATOM     54  O   UNL     1      -1.558  -4.767  -0.749  1.00  0.00    -0.273 OA
ATOM     55  H   UNL     1       0.660  -7.038  -0.771  1.00  0.00     0.164 HD
BRANCH  53  56
ATOM     56  C   UNL     1      -1.241  -6.576   0.856  1.00  0.00     0.182 C 
BRANCH  56  57
ATOM     57  N   UNL     1      -2.218  -7.643   0.618  1.00  0.00    -0.344 N 
ATOM     58  C   UNL     1      -1.866  -8.856   0.076  1.00  0.00     0.220 C 
ATOM     59  O   UNL     1      -0.730  -9.104  -0.312  1.00  0.00    -0.275 OA
ATOM     60  H   UNL     1      -3.144  -7.517   1.017  1.00  0.00     0.164 HD
BRANCH  58  61
ATOM     61  C   UNL     1      -3.026  -9.828  -0.026  1.00  0.00     0.100 C 
BRANCH  61  62
ATOM     62  C   UNL     1      -3.129 -10.525  -1.383  1.00  0.00     0.010 C 
BRANCH  62  63
ATOM     63  C   UNL     1      -2.310 -11.819  -1.487  1.00  0.00     0.000 C 
BRANCH  63  64
ATOM     64  C   UNL     1      -2.780 -12.771  -2.585  1.00  0.00    -0.003 C 
ATOM     65  C   UNL     1      -3.665 -12.058  -3.597  1.00  0.00     0.004 C 
ENDBRANCH  63  64
ENDBRANCH  62  63
ENDBRANCH  61  62
ENDBRANCH  58  61
ENDBRANCH  56  57
BRANCH  56  66
ATOM     66  C   UNL     1      -1.667  -5.648   1.993  1.00  0.00     0.157 C 
BRANCH  66  67
ATOM     67  C   UNL     1      -0.893  -5.934   3.247  1.00  0.00     0.305 C 
ATOM     68  O   UNL     1      -1.308  -5.872   4.394  1.00  0.00    -0.252 OA
BRANCH  67  69
ATOM     69  O   UNL     1       0.365  -6.340   2.992  1.00  0.00    -0.481 OA
ATOM     70  H   UNL     1       0.441  -6.319   2.014  1.00  0.00     0.296 HD
ENDBRANCH  67  69
ENDBRANCH  66  67
ENDBRANCH  56  66
ENDBRANCH  53  56
ENDBRANCH  50  52
ENDBRANCH  47  50
ENDBRANCH  45  46
BRANCH  45  71
ATOM     71  C   UNL     1       3.624  -1.755  -2.457  1.00  0.00     0.037 C 
BRANCH  71  72
ATOM     72  C   UNL     1       3.023  -1.174  -1.175  1.00  0.00     0.026 C 
BRANCH  72  73
ATOM     73  C   UNL     1       1.497  -1.225  -1.198  1.00  0.00     0.146 C 
BRANCH  73  74
ATOM     74  N   UNL     1       1.020  -0.937   0.151  1.00  0.00    -0.254 NA
ATOM     75  C   UNL     1       0.656  -1.926   0.882  1.00  0.00     0.185 C 
ATOM     76  N   UNL     1       0.214  -1.693   2.128  1.00  0.00    -0.370 N 
ATOM     77  N   UNL     1       0.646  -3.237   0.585  1.00  0.00    -0.370 N 
ATOM     78  H   UNL     1       0.182  -0.730   2.430  1.00  0.00     0.159 HD
ATOM     79  H   UNL     1      -0.220  -2.395   2.701  1.00  0.00     0.159 HD
ATOM     80  H   UNL     1       0.957  -3.561  -0.319  1.00  0.00     0.159 HD
ATOM     81  H   UNL     1       0.448  -3.935   1.282  1.00  0.00     0.159 HD
ENDBRANCH  73  74
ENDBRANCH  72  73
ENDBRANCH  71  72
ENDBRANCH  45  71
ENDBRANCH   3  45
TORSDOF 20
ENDMDL
MODEL 17
REMARK VINA RESULT:    -5.174      3.052      7.654
REMARK INTER + INTRA:         -20.645
REMARK INTER:                 -18.527
REMARK INTRA:                  -2.118
REMARK UNBOUND:                -5.791
REMARK SMILES CCCCCC(=O)N[C@H](CC(=O)O)C(=O)N[C@H]1C(=O)N[C@H](CCCN=C(N)N)C(=O)N[C@@H]2CC[C@H](O)N(C2=O)[C@@H](CC(C)C)C(=O)N(C)[C@@H](Cc2ccccc2)C(=O)N[C@H](C(C)C)C(=O)O[C@@H]1C
REMARK SMILES IDX 30 1 31 2 29 3 32 5 35 6 37 7 34 8 38 9 33 10 39 11 36 12
REMARK SMILES IDX 40 14 41 15 42 16 43 17 44 18 45 19 46 20 47 21 48 22 49 23
REMARK SMILES IDX 50 24 51 25 52 26 56 27 53 28 55 29 54 30 57 31 58 32 59 33
REMARK SMILES IDX 60 35 61 36 62 37 63 38 64 39 65 40 66 41 67 42 68 43 21 45
REMARK SMILES IDX 20 46 18 47 19 48 17 50 16 52 14 53 15 54 9 56 8 57 6 58
REMARK SMILES IDX 7 59 5 61 4 62 3 63 2 64 1 65 10 66 11 67 12 68 13 69 22 71
REMARK SMILES IDX 23 72 24 73 25 74 26 75 27 76 28 77
REMARK H PARENT 31 4 36 13 59 34 20 49 16 55 8 60 13 70 27 78 27 79 28 80
REMARK H PARENT 28 81
REMARK Flexibility Score:  259.900
ROOT
ATOM      1  O   UNL     1       2.480  -6.682  -2.560  1.00  0.00    -0.273 OA
ATOM      2  N   UNL     1       2.140  -8.267  -4.173  1.00  0.00    -0.343 N 
ATOM      3  C   UNL     1       1.711  -7.425  -3.170  1.00  0.00     0.243 C 
ATOM      4  H   UNL     1       1.476  -8.854  -4.663  1.00  0.00     0.164 HD
ENDROOT
BRANCH   2   5
ATOM      5  C   UNL     1       3.561  -8.397  -4.476  1.00  0.00     0.171 C 
ATOM      6  C   UNL     1       5.946  -7.367  -3.189  1.00  0.00     0.214 C 
ATOM      7  N   UNL     1       5.317  -6.600  -4.238  1.00  0.00    -0.303 N 
ATOM      8  C   UNL     1       5.758  -8.868  -3.346  1.00  0.00     0.057 C 
ATOM      9  C   UNL     1       4.148  -7.009  -4.859  1.00  0.00     0.247 C 
ATOM     10  C   UNL     1       4.282  -9.197  -3.391  1.00  0.00     0.040 C 
ATOM     11  O   UNL     1       3.569  -6.304  -5.696  1.00  0.00    -0.272 OA
BRANCH   6  12
ATOM     12  O   UNL     1       5.416  -6.930  -1.959  1.00  0.00    -0.373 OA
ATOM     13  H   UNL     1       5.224  -5.973  -2.052  1.00  0.00     0.213 HD
ENDBRANCH   6  12
BRANCH   7  14
ATOM     14  C   UNL     1       5.892  -5.269  -4.532  1.00  0.00     0.177 C 
BRANCH  14  15
ATOM     15  C   UNL     1       6.631  -5.157  -5.879  1.00  0.00     0.038 C 
BRANCH  15  16
ATOM     16  C   UNL     1       5.817  -5.060  -7.189  1.00  0.00    -0.015 C 
ATOM     17  C   UNL     1       5.964  -6.310  -8.062  1.00  0.00     0.007 C 
ATOM     18  C   UNL     1       6.286  -3.847  -8.002  1.00  0.00     0.007 C 
ENDBRANCH  15  16
ENDBRANCH  14  15
BRANCH  14  19
ATOM     19  C   UNL     1       5.016  -4.144  -3.881  1.00  0.00     0.245 C 
ATOM     20  O   UNL     1       3.979  -3.823  -4.484  1.00  0.00    -0.272 OA
BRANCH  19  21
ATOM     21  N   UNL     1       5.390  -3.429  -2.757  1.00  0.00    -0.332 N 
ATOM     22  C   UNL     1       6.507  -3.751  -1.886  1.00  0.00     0.147 C 
BRANCH  21  23
ATOM     23  C   UNL     1       4.582  -2.233  -2.392  1.00  0.00     0.178 C 
BRANCH  23  24
ATOM     24  C   UNL     1       4.383  -1.215  -3.534  1.00  0.00     0.070 C 
BRANCH  24  25
ATOM     25  C   UNL     1       5.620  -0.536  -4.074  1.00  0.00    -0.045 A 
ATOM     26  C   UNL     1       6.194   0.549  -3.399  1.00  0.00     0.004 A 
ATOM     27  C   UNL     1       6.209  -0.982  -5.266  1.00  0.00     0.004 A 
ATOM     28  C   UNL     1       7.328   1.183  -3.914  1.00  0.00     0.000 A 
ATOM     29  C   UNL     1       7.342  -0.348  -5.779  1.00  0.00     0.000 A 
ATOM     30  C   UNL     1       7.899   0.736  -5.103  1.00  0.00     0.000 A 
ENDBRANCH  24  25
ENDBRANCH  23  24
BRANCH  23  31
ATOM     31  C   UNL     1       3.298  -2.589  -1.605  1.00  0.00     0.243 C 
ATOM     32  O   UNL     1       2.939  -3.738  -1.360  1.00  0.00    -0.273 OA
ATOM     33  N   UNL     1       2.481  -1.499  -1.357  1.00  0.00    -0.341 N 
ATOM     34  H   UNL     1       2.833  -0.566  -1.589  1.00  0.00     0.164 HD
BRANCH  33  35
ATOM     35  C   UNL     1       1.161  -1.616  -0.732  1.00  0.00     0.194 C 
BRANCH  35  36
ATOM     36  C   UNL     1       0.268  -0.354  -0.894  1.00  0.00     0.017 C 
ATOM     37  C   UNL     1       1.093   0.861  -1.353  1.00  0.00     0.010 C 
ATOM     38  C   UNL     1      -0.456   0.044   0.398  1.00  0.00     0.010 C 
ENDBRANCH  35  36
BRANCH  35  39
ATOM     39  C   UNL     1       1.239  -2.085   0.748  1.00  0.00     0.329 C 
ATOM     40  O   UNL     1       1.599  -1.370   1.676  1.00  0.00    -0.250 OA
BRANCH  39  41
ATOM     41  O   UNL     1       0.778  -3.361   0.914  1.00  0.00    -0.458 OA
BRANCH  41  42
ATOM     42  C   UNL     1      -0.421  -3.710   0.180  1.00  0.00     0.205 CG0
ATOM     43  C   UNL     1      -1.597  -3.037   0.884  1.00  0.00     0.056 C 
ATOM     44  G   UNL     1      -0.551  -5.246   0.153  1.00  0.00     0.000 G0
ENDBRANCH  41  42
ENDBRANCH  39  41
ENDBRANCH  35  39
ENDBRANCH  33  35
ENDBRANCH  23  31
ENDBRANCH  21  23
ENDBRANCH  19  21
ENDBRANCH  14  19
ENDBRANCH   7  14
ENDBRANCH   2   5
BRANCH   3  45
ATOM     45  C   UNL     1       0.205  -7.464  -2.879  1.00  0.00     0.171 C 
BRANCH  45  46
ATOM     46  N   UNL     1       0.049  -6.923  -1.536  1.00  0.00    -0.342 N 
ATOM     47  C   UNL     1      -0.601  -5.739  -1.289  1.00  0.00     0.247 C 
ATOM     48  O   UNL     1      -1.162  -5.088  -2.172  1.00  0.00    -0.273 OA
ATOM     49  H   UNL     1       0.449  -7.459  -0.768  1.00  0.00     0.164 HD
BRANCH  47  50
ATOM     50  C   UNL     1      -0.558  -5.266   0.170  1.00  0.00     0.212 CG0
ATOM     51  G   UNL     1      -0.422  -3.730   0.160  1.00  0.00     0.000 G0
BRANCH  50  52
ATOM     52  N   UNL     1      -1.808  -5.730   0.768  1.00  0.00    -0.339 N 
ATOM     53  C   UNL     1      -1.906  -6.177   2.063  1.00  0.00     0.243 C 
ATOM     54  O   UNL     1      -0.933  -6.270   2.807  1.00  0.00    -0.273 OA
ATOM     55  H   UNL     1      -2.628  -5.782   0.167  1.00  0.00     0.164 HD
BRANCH  53  56
ATOM     56  C   UNL     1      -3.307  -6.697   2.443  1.00  0.00     0.182 C 
BRANCH  56  57
ATOM     57  N   UNL     1      -3.431  -6.864   3.895  1.00  0.00    -0.344 N 
ATOM     58  C   UNL     1      -3.966  -5.892   4.704  1.00  0.00     0.220 C 
ATOM     59  O   UNL     1      -4.309  -4.793   4.283  1.00  0.00    -0.275 OA
ATOM     60  H   UNL     1      -3.254  -7.793   4.268  1.00  0.00     0.164 HD
BRANCH  58  61
ATOM     61  C   UNL     1      -4.050  -6.303   6.163  1.00  0.00     0.100 C 
BRANCH  61  62
ATOM     62  C   UNL     1      -5.475  -6.577   6.645  1.00  0.00     0.010 C 
BRANCH  62  63
ATOM     63  C   UNL     1      -5.572  -7.650   7.736  1.00  0.00     0.000 C 
BRANCH  63  64
ATOM     64  C   UNL     1      -5.785  -7.095   9.144  1.00  0.00    -0.003 C 
ATOM     65  C   UNL     1      -5.819  -5.574   9.141  1.00  0.00     0.004 C 
ENDBRANCH  63  64
ENDBRANCH  62  63
ENDBRANCH  61  62
ENDBRANCH  58  61
ENDBRANCH  56  57
BRANCH  56  66
ATOM     66  C   UNL     1      -3.654  -7.977   1.684  1.00  0.00     0.157 C 
BRANCH  66  67
ATOM     67  C   UNL     1      -4.838  -8.668   2.296  1.00  0.00     0.305 C 
ATOM     68  O   UNL     1      -6.011  -8.519   1.992  1.00  0.00    -0.252 OA
BRANCH  67  69
ATOM     69  O   UNL     1      -4.478  -9.562   3.236  1.00  0.00    -0.481 OA
ATOM     70  H   UNL     1      -5.289  -9.705   3.770  1.00  0.00     0.296 HD
ENDBRANCH  67  69
ENDBRANCH  66  67
ENDBRANCH  56  66
ENDBRANCH  53  56
ENDBRANCH  50  52
ENDBRANCH  47  50
ENDBRANCH  45  46
BRANCH  45  71
ATOM     71  C   UNL     1      -0.321  -8.900  -2.975  1.00  0.00     0.037 C 
BRANCH  71  72
ATOM     72  C   UNL     1      -1.570  -8.999  -3.854  1.00  0.00     0.026 C 
BRANCH  72  73
ATOM     73  C   UNL     1      -2.260  -7.645  -4.001  1.00  0.00     0.146 C 
BRANCH  73  74
ATOM     74  N   UNL     1      -2.856  -7.589  -5.332  1.00  0.00    -0.254 NA
ATOM     75  C   UNL     1      -2.217  -6.962  -6.249  1.00  0.00     0.185 C 
ATOM     76  N   UNL     1      -2.739  -6.895  -7.485  1.00  0.00    -0.370 N 
ATOM     77  N   UNL     1      -1.037  -6.323  -6.170  1.00  0.00    -0.370 N 
ATOM     78  H   UNL     1      -3.632  -7.345  -7.629  1.00  0.00     0.159 HD
ATOM     79  H   UNL     1      -2.372  -6.304  -8.210  1.00  0.00     0.159 HD
ATOM     80  H   UNL     1      -0.525  -6.294  -5.301  1.00  0.00     0.159 HD
ATOM     81  H   UNL     1      -0.575  -5.963  -6.989  1.00  0.00     0.159 HD
ENDBRANCH  73  74
ENDBRANCH  72  73
ENDBRANCH  71  72
ENDBRANCH  45  71
ENDBRANCH   3  45
TORSDOF 20
ENDMDL
MODEL 18
REMARK VINA RESULT:    -5.132      2.986      6.911
REMARK INTER + INTRA:         -20.525
REMARK INTER:                 -17.409
REMARK INTRA:                  -3.116
REMARK UNBOUND:                -5.791
REMARK SMILES CCCCCC(=O)N[C@H](CC(=O)O)C(=O)N[C@H]1C(=O)N[C@H](CCCN=C(N)N)C(=O)N[C@@H]2CC[C@H](O)N(C2=O)[C@@H](CC(C)C)C(=O)N(C)[C@@H](Cc2ccccc2)C(=O)N[C@H](C(C)C)C(=O)O[C@@H]1C
REMARK SMILES IDX 30 1 31 2 29 3 32 5 35 6 37 7 34 8 38 9 33 10 39 11 36 12
REMARK SMILES IDX 40 14 41 15 42 16 43 17 44 18 45 19 46 20 47 21 48 22 49 23
REMARK SMILES IDX 50 24 51 25 52 26 56 27 53 28 55 29 54 30 57 31 58 32 59 33
REMARK SMILES IDX 60 35 61 36 62 37 63 38 64 39 65 40 66 41 67 42 68 43 21 45
REMARK SMILES IDX 20 46 18 47 19 48 17 50 16 52 14 53 15 54 9 56 8 57 6 58
REMARK SMILES IDX 7 59 5 61 4 62 3 63 2 64 1 65 10 66 11 67 12 68 13 69 22 71
REMARK SMILES IDX 23 72 24 73 25 74 26 75 27 76 28 77
REMARK H PARENT 31 4 36 13 59 34 20 49 16 55 8 60 13 70 27 78 27 79 28 80
REMARK H PARENT 28 81
REMARK Flexibility Score:  259.900
ROOT
ATOM      1  O   UNL     1       2.623  -4.118  -1.352  1.00  0.00    -0.273 OA
ATOM      2  N   UNL     1       2.721  -6.207  -2.278  1.00  0.00    -0.343 N 
ATOM      3  C   UNL     1       2.079  -5.196  -1.597  1.00  0.00     0.243 C 
ATOM      4  H   UNL     1       2.238  -7.075  -2.475  1.00  0.00     0.164 HD
ENDROOT
BRANCH   2   5
ATOM      5  C   UNL     1       4.130  -6.083  -2.637  1.00  0.00     0.171 C 
ATOM      6  C   UNL     1       6.033  -3.909  -2.399  1.00  0.00     0.214 C 
ATOM      7  N   UNL     1       5.257  -4.044  -3.610  1.00  0.00    -0.303 N 
ATOM      8  C   UNL     1       6.308  -5.235  -1.709  1.00  0.00     0.057 C 
ATOM      9  C   UNL     1       4.295  -5.029  -3.769  1.00  0.00     0.247 C 
ATOM     10  C   UNL     1       5.001  -5.928  -1.391  1.00  0.00     0.040 C 
ATOM     11  O   UNL     1       3.574  -5.086  -4.774  1.00  0.00    -0.272 OA
BRANCH   6  12
ATOM     12  O   UNL     1       5.336  -3.040  -1.536  1.00  0.00    -0.373 OA
ATOM     13  H   UNL     1       4.408  -3.006  -1.852  1.00  0.00     0.213 HD
ENDBRANCH   6  12
BRANCH   7  14
ATOM     14  C   UNL     1       5.423  -2.991  -4.634  1.00  0.00     0.177 C 
BRANCH  14  15
ATOM     15  C   UNL     1       6.038  -1.673  -4.126  1.00  0.00     0.038 C 
BRANCH  15  16
ATOM     16  C   UNL     1       6.296  -0.520  -5.121  1.00  0.00    -0.015 C 
ATOM     17  C   UNL     1       7.518  -0.776  -6.008  1.00  0.00     0.007 C 
ATOM     18  C   UNL     1       6.525   0.787  -4.353  1.00  0.00     0.007 C 
ENDBRANCH  15  16
ENDBRANCH  14  15
BRANCH  14  19
ATOM     19  C   UNL     1       5.692  -3.636  -6.038  1.00  0.00     0.245 C 
ATOM     20  O   UNL     1       4.950  -3.279  -6.968  1.00  0.00    -0.272 OA
BRANCH  19  21
ATOM     21  N   UNL     1       6.616  -4.641  -6.260  1.00  0.00    -0.332 N 
ATOM     22  C   UNL     1       7.925  -4.734  -5.639  1.00  0.00     0.147 C 
BRANCH  21  23
ATOM     23  C   UNL     1       6.256  -5.717  -7.224  1.00  0.00     0.178 C 
BRANCH  23  24
ATOM     24  C   UNL     1       7.440  -6.278  -8.038  1.00  0.00     0.070 C 
BRANCH  24  25
ATOM     25  C   UNL     1       7.114  -6.970  -9.341  1.00  0.00    -0.045 A 
ATOM     26  C   UNL     1       7.171  -6.276 -10.556  1.00  0.00     0.004 A 
ATOM     27  C   UNL     1       6.742  -8.323  -9.350  1.00  0.00     0.004 A 
ATOM     28  C   UNL     1       6.851  -6.918 -11.754  1.00  0.00     0.000 A 
ATOM     29  C   UNL     1       6.424  -8.964 -10.548  1.00  0.00     0.000 A 
ATOM     30  C   UNL     1       6.476  -8.260 -11.749  1.00  0.00     0.000 A 
ENDBRANCH  24  25
ENDBRANCH  23  24
BRANCH  23  31
ATOM     31  C   UNL     1       5.321  -6.787  -6.613  1.00  0.00     0.243 C 
ATOM     32  O   UNL     1       5.709  -7.724  -5.920  1.00  0.00    -0.273 OA
ATOM     33  N   UNL     1       4.015  -6.705  -7.067  1.00  0.00    -0.341 N 
ATOM     34  H   UNL     1       3.752  -5.905  -7.646  1.00  0.00     0.164 HD
BRANCH  33  35
ATOM     35  C   UNL     1       2.984  -7.686  -6.715  1.00  0.00     0.194 C 
BRANCH  35  36
ATOM     36  C   UNL     1       2.908  -8.902  -7.680  1.00  0.00     0.017 C 
ATOM     37  C   UNL     1       4.024  -9.920  -7.386  1.00  0.00     0.010 C 
ATOM     38  C   UNL     1       3.024  -8.509  -9.158  1.00  0.00     0.010 C 
ENDBRANCH  35  36
BRANCH  35  39
ATOM     39  C   UNL     1       1.591  -7.034  -6.492  1.00  0.00     0.329 C 
ATOM     40  O   UNL     1       0.900  -6.569  -7.391  1.00  0.00    -0.250 OA
BRANCH  39  41
ATOM     41  O   UNL     1       1.181  -7.115  -5.190  1.00  0.00    -0.458 OA
BRANCH  41  42
ATOM     42  C   UNL     1       0.277  -8.199  -4.869  1.00  0.00     0.205 CG0
ATOM     43  C   UNL     1      -0.223  -8.780  -6.190  1.00  0.00     0.056 C 
ATOM     44  G   UNL     1      -0.867  -7.644  -3.997  1.00  0.00     0.000 G0
ENDBRANCH  41  42
ENDBRANCH  39  41
ENDBRANCH  35  39
ENDBRANCH  33  35
ENDBRANCH  23  31
ENDBRANCH  21  23
ENDBRANCH  19  21
ENDBRANCH  14  19
ENDBRANCH   7  14
ENDBRANCH   2   5
BRANCH   3  45
ATOM     45  C   UNL     1       0.632  -5.497  -1.184  1.00  0.00     0.171 C 
BRANCH  45  46
ATOM     46  N   UNL     1      -0.028  -5.982  -2.389  1.00  0.00    -0.342 N 
ATOM     47  C   UNL     1      -0.277  -7.314  -2.607  1.00  0.00     0.247 C 
ATOM     48  O   UNL     1      -0.029  -8.186  -1.773  1.00  0.00    -0.273 OA
ATOM     49  H   UNL     1      -0.302  -5.288  -3.082  1.00  0.00     0.164 HD
BRANCH  47  50
ATOM     50  C   UNL     1      -0.867  -7.649  -3.984  1.00  0.00     0.212 CG0
ATOM     51  G   UNL     1       0.281  -8.176  -4.868  1.00  0.00     0.000 G0
BRANCH  50  52
ATOM     52  N   UNL     1      -1.905  -8.644  -3.733  1.00  0.00    -0.339 N 
ATOM     53  C   UNL     1      -3.214  -8.485  -4.117  1.00  0.00     0.243 C 
ATOM     54  O   UNL     1      -3.625  -7.463  -4.659  1.00  0.00    -0.273 OA
ATOM     55  H   UNL     1      -1.650  -9.466  -3.188  1.00  0.00     0.164 HD
BRANCH  53  56
ATOM     56  C   UNL     1      -4.144  -9.629  -3.666  1.00  0.00     0.182 C 
BRANCH  56  57
ATOM     57  N   UNL     1      -4.698 -10.344  -4.821  1.00  0.00    -0.344 N 
ATOM     58  C   UNL     1      -4.073 -11.429  -5.384  1.00  0.00     0.220 C 
ATOM     59  O   UNL     1      -2.976 -11.830  -5.010  1.00  0.00    -0.275 OA
ATOM     60  H   UNL     1      -5.649 -10.108  -5.095  1.00  0.00     0.164 HD
BRANCH  58  61
ATOM     61  C   UNL     1      -4.854 -12.046  -6.529  1.00  0.00     0.100 C 
BRANCH  61  62
ATOM     62  C   UNL     1      -4.476 -11.490  -7.903  1.00  0.00     0.010 C 
BRANCH  62  63
ATOM     63  C   UNL     1      -5.675 -11.059  -8.757  1.00  0.00     0.000 C 
BRANCH  63  64
ATOM     64  C   UNL     1      -6.787 -12.103  -8.850  1.00  0.00    -0.003 C 
ATOM     65  C   UNL     1      -7.234 -12.311 -10.290  1.00  0.00     0.004 C 
ENDBRANCH  63  64
ENDBRANCH  62  63
ENDBRANCH  61  62
ENDBRANCH  58  61
ENDBRANCH  56  57
BRANCH  56  66
ATOM     66  C   UNL     1      -5.235  -9.125  -2.722  1.00  0.00     0.157 C 
BRANCH  66  67
ATOM     67  C   UNL     1      -4.648  -8.600  -1.444  1.00  0.00     0.305 C 
ATOM     68  O   UNL     1      -5.159  -7.798  -0.678  1.00  0.00    -0.252 OA
BRANCH  67  69
ATOM     69  O   UNL     1      -3.453  -9.155  -1.163  1.00  0.00    -0.481 OA
ATOM     70  H   UNL     1      -3.410  -9.955  -1.730  1.00  0.00     0.296 HD
ENDBRANCH  67  69
ENDBRANCH  66  67
ENDBRANCH  56  66
ENDBRANCH  53  56
ENDBRANCH  50  52
ENDBRANCH  47  50
ENDBRANCH  45  46
BRANCH  45  71
ATOM     71  C   UNL     1      -0.042  -4.233  -0.640  1.00  0.00     0.037 C 
BRANCH  71  72
ATOM     72  C   UNL     1      -0.152  -4.251   0.887  1.00  0.00     0.026 C 
BRANCH  72  73
ATOM     73  C   UNL     1      -1.092  -3.160   1.394  1.00  0.00     0.146 C 
BRANCH  73  74
ATOM     74  N   UNL     1      -0.450  -1.871   1.157  1.00  0.00    -0.254 NA
ATOM     75  C   UNL     1      -1.057  -1.027   0.407  1.00  0.00     0.185 C 
ATOM     76  N   UNL     1      -0.491   0.168   0.172  1.00  0.00    -0.370 N 
ATOM     77  N   UNL     1      -2.239  -1.153  -0.221  1.00  0.00    -0.370 N 
ATOM     78  H   UNL     1       0.406   0.342   0.601  1.00  0.00     0.159 HD
ATOM     79  H   UNL     1      -0.833   0.817  -0.515  1.00  0.00     0.159 HD
ATOM     80  H   UNL     1      -2.781  -1.999  -0.131  1.00  0.00     0.159 HD
ATOM     81  H   UNL     1      -2.672  -0.376  -0.692  1.00  0.00     0.159 HD
ENDBRANCH  73  74
ENDBRANCH  72  73
ENDBRANCH  71  72
ENDBRANCH  45  71
ENDBRANCH   3  45
TORSDOF 20
ENDMDL
MODEL 19
REMARK VINA RESULT:    -5.085      2.967      9.231
REMARK INTER + INTRA:         -20.389
REMARK INTER:                 -15.742
REMARK INTRA:                  -4.647
REMARK UNBOUND:                -5.791
REMARK SMILES CCCCCC(=O)N[C@H](CC(=O)O)C(=O)N[C@H]1C(=O)N[C@H](CCCN=C(N)N)C(=O)N[C@@H]2CC[C@H](O)N(C2=O)[C@@H](CC(C)C)C(=O)N(C)[C@@H](Cc2ccccc2)C(=O)N[C@H](C(C)C)C(=O)O[C@@H]1C
REMARK SMILES IDX 30 1 31 2 29 3 32 5 35 6 37 7 34 8 38 9 33 10 39 11 36 12
REMARK SMILES IDX 40 14 41 15 42 16 43 17 44 18 45 19 46 20 47 21 48 22 49 23
REMARK SMILES IDX 50 24 51 25 52 26 56 27 53 28 55 29 54 30 57 31 58 32 59 33
REMARK SMILES IDX 60 35 61 36 62 37 63 38 64 39 65 40 66 41 67 42 68 43 21 45
REMARK SMILES IDX 20 46 18 47 19 48 17 50 16 52 14 53 15 54 9 56 8 57 6 58
REMARK SMILES IDX 7 59 5 61 4 62 3 63 2 64 1 65 10 66 11 67 12 68 13 69 22 71
REMARK SMILES IDX 23 72 24 73 25 74 26 75 27 76 28 77
REMARK H PARENT 31 4 36 13 59 34 20 49 16 55 8 60 13 70 27 78 27 79 28 80
REMARK H PARENT 28 81
REMARK Flexibility Score:  259.900
ROOT
ATOM      1  O   UNL     1       4.538  -7.330  -4.319  1.00  0.00    -0.273 OA
ATOM      2  N   UNL     1       4.690  -6.638  -6.494  1.00  0.00    -0.343 N 
ATOM      3  C   UNL     1       4.212  -7.464  -5.499  1.00  0.00     0.243 C 
ATOM      4  H   UNL     1       4.389  -6.769  -7.452  1.00  0.00     0.164 HD
ENDROOT
BRANCH   2   5
ATOM      5  C   UNL     1       5.707  -5.634  -6.200  1.00  0.00     0.171 C 
ATOM      6  C   UNL     1       6.941  -4.752  -3.729  1.00  0.00     0.214 C 
ATOM      7  N   UNL     1       5.754  -4.084  -4.208  1.00  0.00    -0.303 N 
ATOM      8  C   UNL     1       7.802  -5.322  -4.845  1.00  0.00     0.057 C 
ATOM      9  C   UNL     1       5.085  -4.486  -5.353  1.00  0.00     0.247 C 
ATOM     10  C   UNL     1       6.987  -6.285  -5.681  1.00  0.00     0.040 C 
ATOM     11  O   UNL     1       4.021  -3.964  -5.709  1.00  0.00    -0.272 OA
BRANCH   6  12
ATOM     12  O   UNL     1       6.534  -5.775  -2.850  1.00  0.00    -0.373 OA
ATOM     13  H   UNL     1       7.256  -5.898  -2.198  1.00  0.00     0.213 HD
ENDBRANCH   6  12
BRANCH   7  14
ATOM     14  C   UNL     1       5.183  -3.030  -3.343  1.00  0.00     0.177 C 
BRANCH  14  15
ATOM     15  C   UNL     1       4.691  -1.770  -4.081  1.00  0.00     0.038 C 
BRANCH  15  16
ATOM     16  C   UNL     1       5.280  -0.391  -3.708  1.00  0.00    -0.015 C 
ATOM     17  C   UNL     1       6.449   0.009  -4.612  1.00  0.00     0.007 C 
ATOM     18  C   UNL     1       5.780  -0.416  -2.258  1.00  0.00     0.007 C 
ENDBRANCH  15  16
ENDBRANCH  14  15
BRANCH  14  19
ATOM     19  C   UNL     1       4.498  -3.670  -2.087  1.00  0.00     0.245 C 
ATOM     20  O   UNL     1       5.184  -3.749  -1.054  1.00  0.00    -0.272 OA
BRANCH  19  21
ATOM     21  N   UNL     1       3.237  -4.241  -2.102  1.00  0.00    -0.332 N 
ATOM     22  C   UNL     1       2.792  -5.276  -3.018  1.00  0.00     0.147 C 
BRANCH  21  23
ATOM     23  C   UNL     1       2.240  -3.754  -1.109  1.00  0.00     0.178 C 
BRANCH  23  24
ATOM     24  C   UNL     1       2.181  -2.221  -0.953  1.00  0.00     0.070 C 
BRANCH  24  25
ATOM     25  C   UNL     1       1.015  -1.652  -0.178  1.00  0.00    -0.045 A 
ATOM     26  C   UNL     1       0.569  -2.266   0.999  1.00  0.00     0.004 A 
ATOM     27  C   UNL     1       0.359  -0.499  -0.632  1.00  0.00     0.004 A 
ATOM     28  C   UNL     1      -0.520  -1.744   1.701  1.00  0.00     0.000 A 
ATOM     29  C   UNL     1      -0.729   0.022   0.070  1.00  0.00     0.000 A 
ATOM     30  C   UNL     1      -1.170  -0.603   1.235  1.00  0.00     0.000 A 
ENDBRANCH  24  25
ENDBRANCH  23  24
BRANCH  23  31
ATOM     31  C   UNL     1       0.864  -4.448  -1.245  1.00  0.00     0.243 C 
ATOM     32  O   UNL     1      -0.047  -4.034  -1.957  1.00  0.00    -0.273 OA
ATOM     33  N   UNL     1       0.677  -5.485  -0.346  1.00  0.00    -0.341 N 
ATOM     34  H   UNL     1       1.472  -5.781   0.225  1.00  0.00     0.164 HD
BRANCH  33  35
ATOM     35  C   UNL     1      -0.592  -6.207  -0.213  1.00  0.00     0.194 C 
BRANCH  35  36
ATOM     36  C   UNL     1      -0.987  -6.531   1.255  1.00  0.00     0.017 C 
ATOM     37  C   UNL     1      -1.880  -5.428   1.850  1.00  0.00     0.010 C 
ATOM     38  C   UNL     1       0.222  -6.693   2.185  1.00  0.00     0.010 C 
ENDBRANCH  35  36
BRANCH  35  39
ATOM     39  C   UNL     1      -0.662  -7.465  -1.124  1.00  0.00     0.329 C 
ATOM     40  O   UNL     1      -0.398  -8.600  -0.747  1.00  0.00    -0.250 OA
BRANCH  39  41
ATOM     41  O   UNL     1      -1.136  -7.176  -2.374  1.00  0.00    -0.458 OA
BRANCH  41  42
ATOM     42  C   UNL     1      -0.176  -7.245  -3.455  1.00  0.00     0.205 CG0
ATOM     43  C   UNL     1      -0.684  -6.336  -4.572  1.00  0.00     0.056 C 
ATOM     44  G   UNL     1      -0.046  -8.715  -3.904  1.00  0.00     0.000 G0
ENDBRANCH  41  42
ENDBRANCH  39  41
ENDBRANCH  35  39
ENDBRANCH  33  35
ENDBRANCH  23  31
ENDBRANCH  21  23
ENDBRANCH  19  21
ENDBRANCH  14  19
ENDBRANCH   7  14
ENDBRANCH   2   5
BRANCH   3  45
ATOM     45  C   UNL     1       3.229  -8.548  -5.961  1.00  0.00     0.171 C 
BRANCH  45  46
ATOM     46  N   UNL     1       2.227  -8.645  -4.909  1.00  0.00    -0.342 N 
ATOM     47  C   UNL     1       0.887  -8.765  -5.177  1.00  0.00     0.247 C 
ATOM     48  O   UNL     1       0.441  -8.873  -6.320  1.00  0.00    -0.273 OA
ATOM     49  H   UNL     1       2.558  -8.618  -3.946  1.00  0.00     0.164 HD
BRANCH  47  50
ATOM     50  C   UNL     1      -0.029  -8.729  -3.945  1.00  0.00     0.212 CG0
ATOM     51  G   UNL     1      -0.163  -7.257  -3.506  1.00  0.00     0.000 G0
BRANCH  50  52
ATOM     52  N   UNL     1      -1.292  -9.319  -4.381  1.00  0.00    -0.339 N 
ATOM     53  C   UNL     1      -1.914 -10.348  -3.717  1.00  0.00     0.243 C 
ATOM     54  O   UNL     1      -1.425 -10.890  -2.729  1.00  0.00    -0.273 OA
ATOM     55  H   UNL     1      -1.692  -8.987  -5.256  1.00  0.00     0.164 HD
BRANCH  53  56
ATOM     56  C   UNL     1      -3.190 -10.863  -4.412  1.00  0.00     0.182 C 
BRANCH  56  57
ATOM     57  N   UNL     1      -3.362 -10.237  -5.727  1.00  0.00    -0.344 N 
ATOM     58  C   UNL     1      -3.460 -10.971  -6.884  1.00  0.00     0.220 C 
ATOM     59  O   UNL     1      -3.338 -12.191  -6.908  1.00  0.00    -0.275 OA
ATOM     60  H   UNL     1      -3.569  -9.242  -5.740  1.00  0.00     0.164 HD
BRANCH  58  61
ATOM     61  C   UNL     1      -3.693 -10.120  -8.119  1.00  0.00     0.100 C 
BRANCH  61  62
ATOM     62  C   UNL     1      -5.087  -9.496  -8.184  1.00  0.00     0.010 C 
BRANCH  62  63
ATOM     63  C   UNL     1      -6.105 -10.317  -8.985  1.00  0.00     0.000 C 
BRANCH  63  64
ATOM     64  C   UNL     1      -7.362 -10.694  -8.203  1.00  0.00    -0.003 C 
ATOM     65  C   UNL     1      -7.219 -12.059  -7.545  1.00  0.00     0.004 C 
ENDBRANCH  63  64
ENDBRANCH  62  63
ENDBRANCH  61  62
ENDBRANCH  58  61
ENDBRANCH  56  57
BRANCH  56  66
ATOM     66  C   UNL     1      -4.421 -10.687  -3.525  1.00  0.00     0.157 C 
BRANCH  66  67
ATOM     67  C   UNL     1      -4.741  -9.234  -3.320  1.00  0.00     0.305 C 
ATOM     68  O   UNL     1      -4.299  -8.290  -3.957  1.00  0.00    -0.252 OA
BRANCH  67  69
ATOM     69  O   UNL     1      -5.650  -9.042  -2.345  1.00  0.00    -0.481 OA
ATOM     70  H   UNL     1      -5.535  -8.107  -2.075  1.00  0.00     0.296 HD
ENDBRANCH  67  69
ENDBRANCH  66  67
ENDBRANCH  56  66
ENDBRANCH  53  56
ENDBRANCH  50  52
ENDBRANCH  47  50
ENDBRANCH  45  46
BRANCH  45  71
ATOM     71  C   UNL     1       3.961  -9.878  -6.170  1.00  0.00     0.037 C 
BRANCH  71  72
ATOM     72  C   UNL     1       3.771 -10.832  -4.988  1.00  0.00     0.026 C 
BRANCH  72  73
ATOM     73  C   UNL     1       3.383 -12.233  -5.456  1.00  0.00     0.146 C 
BRANCH  73  74
ATOM     74  N   UNL     1       2.135 -12.125  -6.205  1.00  0.00    -0.254 NA
ATOM     75  C   UNL     1       1.035 -12.230  -5.555  1.00  0.00     0.185 C 
ATOM     76  N   UNL     1      -0.129 -12.133  -6.216  1.00  0.00    -0.370 N 
ATOM     77  N   UNL     1       0.847 -12.432  -4.239  1.00  0.00    -0.370 N 
ATOM     78  H   UNL     1      -0.078 -11.988  -7.215  1.00  0.00     0.159 HD
ATOM     79  H   UNL     1      -1.020 -12.348  -5.804  1.00  0.00     0.159 HD
ATOM     80  H   UNL     1       1.635 -12.520  -3.615  1.00  0.00     0.159 HD
ATOM     81  H   UNL     1      -0.068 -12.381  -3.822  1.00  0.00     0.159 HD
ENDBRANCH  73  74
ENDBRANCH  72  73
ENDBRANCH  71  72
ENDBRANCH  45  71
ENDBRANCH   3  45
TORSDOF 20
ENDMDL
MODEL 20
REMARK VINA RESULT:    -5.022      2.337      3.884
REMARK INTER + INTRA:         -20.209
REMARK INTER:                 -16.920
REMARK INTRA:                  -3.289
REMARK UNBOUND:                -5.791
REMARK SMILES CCCCCC(=O)N[C@H](CC(=O)O)C(=O)N[C@H]1C(=O)N[C@H](CCCN=C(N)N)C(=O)N[C@@H]2CC[C@H](O)N(C2=O)[C@@H](CC(C)C)C(=O)N(C)[C@@H](Cc2ccccc2)C(=O)N[C@H](C(C)C)C(=O)O[C@@H]1C
REMARK SMILES IDX 30 1 31 2 29 3 32 5 35 6 37 7 34 8 38 9 33 10 39 11 36 12
REMARK SMILES IDX 40 14 41 15 42 16 43 17 44 18 45 19 46 20 47 21 48 22 49 23
REMARK SMILES IDX 50 24 51 25 52 26 56 27 53 28 55 29 54 30 57 31 58 32 59 33
REMARK SMILES IDX 60 35 61 36 62 37 63 38 64 39 65 40 66 41 67 42 68 43 21 45
REMARK SMILES IDX 20 46 18 47 19 48 17 50 16 52 14 53 15 54 9 56 8 57 6 58
REMARK SMILES IDX 7 59 5 61 4 62 3 63 2 64 1 65 10 66 11 67 12 68 13 69 22 71
REMARK SMILES IDX 23 72 24 73 25 74 26 75 27 76 28 77
REMARK H PARENT 31 4 36 13 59 34 20 49 16 55 8 60 13 70 27 78 27 79 28 80
REMARK H PARENT 28 81
REMARK Flexibility Score:  259.900
ROOT
ATOM      1  O   UNL     1       3.533  -3.522  -3.534  1.00  0.00    -0.273 OA
ATOM      2  N   UNL     1       4.772  -3.744  -1.625  1.00  0.00    -0.343 N 
ATOM      3  C   UNL     1       3.687  -3.280  -2.337  1.00  0.00     0.243 C 
ATOM      4  H   UNL     1       4.859  -3.537  -0.638  1.00  0.00     0.164 HD
ENDROOT
BRANCH   2   5
ATOM      5  C   UNL     1       5.856  -4.451  -2.299  1.00  0.00     0.171 C 
ATOM      6  C   UNL     1       6.235  -5.304  -5.044  1.00  0.00     0.214 C 
ATOM      7  N   UNL     1       5.612  -6.202  -4.101  1.00  0.00    -0.303 N 
ATOM      8  C   UNL     1       7.233  -4.354  -4.401  1.00  0.00     0.057 C 
ATOM      9  C   UNL     1       5.354  -5.840  -2.789  1.00  0.00     0.247 C 
ATOM     10  C   UNL     1       6.549  -3.548  -3.318  1.00  0.00     0.040 C 
ATOM     11  O   UNL     1       4.742  -6.584  -2.011  1.00  0.00    -0.272 OA
BRANCH   6  12
ATOM     12  O   UNL     1       5.213  -4.580  -5.690  1.00  0.00    -0.373 OA
ATOM     13  H   UNL     1       5.419  -3.628  -5.576  1.00  0.00     0.213 HD
ENDBRANCH   6  12
BRANCH   7  14
ATOM     14  C   UNL     1       5.117  -7.491  -4.630  1.00  0.00     0.177 C 
BRANCH  14  15
ATOM     15  C   UNL     1       5.984  -8.718  -4.287  1.00  0.00     0.038 C 
BRANCH  15  16
ATOM     16  C   UNL     1       6.025  -9.239  -2.834  1.00  0.00    -0.015 C 
ATOM     17  C   UNL     1       7.313  -8.844  -2.106  1.00  0.00     0.007 C 
ATOM     18  C   UNL     1       5.921 -10.770  -2.829  1.00  0.00     0.007 C 
ENDBRANCH  15  16
ENDBRANCH  14  15
BRANCH  14  19
ATOM     19  C   UNL     1       3.551  -7.481  -4.708  1.00  0.00     0.245 C 
ATOM     20  O   UNL     1       2.998  -6.369  -4.705  1.00  0.00    -0.272 OA
BRANCH  19  21
ATOM     21  N   UNL     1       2.770  -8.622  -4.666  1.00  0.00    -0.332 N 
ATOM     22  C   UNL     1       2.784  -9.615  -3.607  1.00  0.00     0.147 C 
BRANCH  21  23
ATOM     23  C   UNL     1       1.839  -8.871  -5.802  1.00  0.00     0.178 C 
BRANCH  23  24
ATOM     24  C   UNL     1       2.241 -10.042  -6.721  1.00  0.00     0.070 C 
BRANCH  24  25
ATOM     25  C   UNL     1       3.543  -9.909  -7.477  1.00  0.00    -0.045 A 
ATOM     26  C   UNL     1       4.544 -10.880  -7.358  1.00  0.00     0.004 A 
ATOM     27  C   UNL     1       3.768  -8.801  -8.308  1.00  0.00     0.004 A 
ATOM     28  C   UNL     1       5.752 -10.741  -8.046  1.00  0.00     0.000 A 
ATOM     29  C   UNL     1       4.974  -8.664  -8.997  1.00  0.00     0.000 A 
ATOM     30  C   UNL     1       5.966  -9.633  -8.863  1.00  0.00     0.000 A 
ENDBRANCH  24  25
ENDBRANCH  23  24
BRANCH  23  31
ATOM     31  C   UNL     1       0.351  -8.856  -5.378  1.00  0.00     0.243 C 
ATOM     32  O   UNL     1      -0.330  -9.867  -5.229  1.00  0.00    -0.273 OA
ATOM     33  N   UNL     1      -0.206  -7.589  -5.358  1.00  0.00    -0.341 N 
ATOM     34  H   UNL     1       0.412  -6.785  -5.494  1.00  0.00     0.164 HD
BRANCH  33  35
ATOM     35  C   UNL     1      -1.628  -7.346  -5.100  1.00  0.00     0.194 C 
BRANCH  35  36
ATOM     36  C   UNL     1      -2.348  -6.544  -6.221  1.00  0.00     0.017 C 
ATOM     37  C   UNL     1      -3.345  -5.531  -5.632  1.00  0.00     0.010 C 
ATOM     38  C   UNL     1      -3.124  -7.436  -7.199  1.00  0.00     0.010 C 
ENDBRANCH  35  36
BRANCH  35  39
ATOM     39  C   UNL     1      -1.885  -6.735  -3.694  1.00  0.00     0.329 C 
ATOM     40  O   UNL     1      -2.626  -7.234  -2.855  1.00  0.00    -0.250 OA
BRANCH  39  41
ATOM     41  O   UNL     1      -1.124  -5.623  -3.463  1.00  0.00    -0.458 OA
BRANCH  41  42
ATOM     42  C   UNL     1      -0.068  -5.762  -2.482  1.00  0.00     0.205 CG0
ATOM     43  C   UNL     1      -0.029  -7.229  -2.061  1.00  0.00     0.056 C 
ATOM     44  G   UNL     1      -0.367  -4.818  -1.301  1.00  0.00     0.000 G0
ENDBRANCH  41  42
ENDBRANCH  39  41
ENDBRANCH  35  39
ENDBRANCH  33  35
ENDBRANCH  23  31
ENDBRANCH  21  23
ENDBRANCH  19  21
ENDBRANCH  14  19
ENDBRANCH   7  14
ENDBRANCH   2   5
BRANCH   3  45
ATOM     45  C   UNL     1       2.674  -2.458  -1.529  1.00  0.00     0.171 C 
BRANCH  45  46
ATOM     46  N   UNL     1       1.392  -3.126  -1.710  1.00  0.00    -0.342 N 
ATOM     47  C   UNL     1       0.959  -4.126  -0.877  1.00  0.00     0.247 C 
ATOM     48  O   UNL     1       1.585  -4.482   0.123  1.00  0.00    -0.273 OA
ATOM     49  H   UNL     1       0.816  -2.823  -2.493  1.00  0.00     0.164 HD
BRANCH  47  50
ATOM     50  C   UNL     1      -0.358  -4.797  -1.295  1.00  0.00     0.212 CG0
ATOM     51  G   UNL     1      -0.048  -5.739  -2.476  1.00  0.00     0.000 G0
BRANCH  50  52
ATOM     52  N   UNL     1      -0.833  -5.499  -0.106  1.00  0.00    -0.339 N 
ATOM     53  C   UNL     1      -1.511  -4.880   0.916  1.00  0.00     0.243 C 
ATOM     54  O   UNL     1      -1.725  -3.671   0.933  1.00  0.00    -0.273 OA
ATOM     55  H   UNL     1      -0.589  -6.482  -0.009  1.00  0.00     0.164 HD
BRANCH  53  56
ATOM     56  C   UNL     1      -1.835  -5.807   2.105  1.00  0.00     0.182 C 
BRANCH  56  57
ATOM     57  N   UNL     1      -2.706  -6.911   1.690  1.00  0.00    -0.344 N 
ATOM     58  C   UNL     1      -2.211  -8.086   1.178  1.00  0.00     0.220 C 
ATOM     59  O   UNL     1      -1.017  -8.265   0.963  1.00  0.00    -0.275 OA
ATOM     60  H   UNL     1      -3.688  -6.844   1.944  1.00  0.00     0.164 HD
BRANCH  58  61
ATOM     61  C   UNL     1      -3.289  -9.109   0.871  1.00  0.00     0.100 C 
BRANCH  61  62
ATOM     62  C   UNL     1      -3.440  -9.418  -0.618  1.00  0.00     0.010 C 
BRANCH  62  63
ATOM     63  C   UNL     1      -2.994 -10.832  -1.014  1.00  0.00     0.000 C 
BRANCH  63  64
ATOM     64  C   UNL     1      -3.303 -11.203  -2.464  1.00  0.00    -0.003 C 
ATOM     65  C   UNL     1      -4.350 -10.276  -3.063  1.00  0.00     0.004 C 
ENDBRANCH  63  64
ENDBRANCH  62  63
ENDBRANCH  61  62
ENDBRANCH  58  61
ENDBRANCH  56  57
BRANCH  56  66
ATOM     66  C   UNL     1      -2.416  -5.026   3.282  1.00  0.00     0.157 C 
BRANCH  66  67
ATOM     67  C   UNL     1      -1.418  -4.897   4.396  1.00  0.00     0.305 C 
ATOM     68  O   UNL     1      -1.054  -5.778   5.160  1.00  0.00    -0.252 OA
BRANCH  67  69
ATOM     69  O   UNL     1      -0.881  -3.664   4.462  1.00  0.00    -0.481 OA
ATOM     70  H   UNL     1      -0.972  -3.302   3.555  1.00  0.00     0.296 HD
ENDBRANCH  67  69
ENDBRANCH  66  67
ENDBRANCH  56  66
ENDBRANCH  53  56
ENDBRANCH  50  52
ENDBRANCH  47  50
ENDBRANCH  45  46
BRANCH  45  71
ATOM     71  C   UNL     1       2.635  -1.012  -2.034  1.00  0.00     0.037 C 
BRANCH  71  72
ATOM     72  C   UNL     1       4.031  -0.388  -2.103  1.00  0.00     0.026 C 
BRANCH  72  73
ATOM     73  C   UNL     1       4.171   0.541  -3.307  1.00  0.00     0.146 C 
BRANCH  73  74
ATOM     74  N   UNL     1       4.951  -0.159  -4.323  1.00  0.00    -0.254 NA
ATOM     75  C   UNL     1       6.228  -0.056  -4.274  1.00  0.00     0.185 C 
ATOM     76  N   UNL     1       6.973  -0.690  -5.195  1.00  0.00    -0.370 N 
ATOM     77  N   UNL     1       6.988   0.623  -3.398  1.00  0.00    -0.370 N 
ATOM     78  H   UNL     1       6.478  -1.220  -5.898  1.00  0.00     0.159 HD
ATOM     79  H   UNL     1       7.960  -0.540  -5.307  1.00  0.00     0.159 HD
ATOM     80  H   UNL     1       6.563   1.144  -2.646  1.00  0.00     0.159 HD
ATOM     81  H   UNL     1       7.991   0.535  -3.390  1.00  0.00     0.159 HD
ENDBRANCH  73  74
ENDBRANCH  72  73
ENDBRANCH  71  72
ENDBRANCH  45  71
ENDBRANCH   3  45
TORSDOF 20
ENDMDL
MODEL 21
REMARK VINA RESULT:    -4.981      2.629      8.878
REMARK INTER + INTRA:         -20.090
REMARK INTER:                 -16.876
REMARK INTRA:                  -3.214
REMARK UNBOUND:                -5.791
REMARK SMILES CCCCCC(=O)N[C@H](CC(=O)O)C(=O)N[C@H]1C(=O)N[C@H](CCCN=C(N)N)C(=O)N[C@@H]2CC[C@H](O)N(C2=O)[C@@H](CC(C)C)C(=O)N(C)[C@@H](Cc2ccccc2)C(=O)N[C@H](C(C)C)C(=O)O[C@@H]1C
REMARK SMILES IDX 30 1 31 2 29 3 32 5 35 6 37 7 34 8 38 9 33 10 39 11 36 12
REMARK SMILES IDX 40 14 41 15 42 16 43 17 44 18 45 19 46 20 47 21 48 22 49 23
REMARK SMILES IDX 50 24 51 25 52 26 56 27 53 28 55 29 54 30 57 31 58 32 59 33
REMARK SMILES IDX 60 35 61 36 62 37 63 38 64 39 65 40 66 41 67 42 68 43 21 45
REMARK SMILES IDX 20 46 18 47 19 48 17 50 16 52 14 53 15 54 9 56 8 57 6 58
REMARK SMILES IDX 7 59 5 61 4 62 3 63 2 64 1 65 10 66 11 67 12 68 13 69 22 71
REMARK SMILES IDX 23 72 24 73 25 74 26 75 27 76 28 77
REMARK H PARENT 31 4 36 13 59 34 20 49 16 55 8 60 13 70 27 78 27 79 28 80
REMARK H PARENT 28 81
REMARK Flexibility Score:  259.900
ROOT
ATOM      1  O   UNL     1       4.434  -7.678  -4.634  1.00  0.00    -0.273 OA
ATOM      2  N   UNL     1       4.378  -6.519  -6.606  1.00  0.00    -0.343 N 
ATOM      3  C   UNL     1       3.965  -7.529  -5.763  1.00  0.00     0.243 C 
ATOM      4  H   UNL     1       3.959  -6.419  -7.522  1.00  0.00     0.164 HD
ENDROOT
BRANCH   2   5
ATOM      5  C   UNL     1       5.487  -5.648  -6.232  1.00  0.00     0.171 C 
ATOM      6  C   UNL     1       6.846  -5.167  -3.718  1.00  0.00     0.214 C 
ATOM      7  N   UNL     1       5.714  -4.347  -4.081  1.00  0.00    -0.303 N 
ATOM      8  C   UNL     1       7.630  -5.677  -4.917  1.00  0.00     0.057 C 
ATOM      9  C   UNL     1       4.989  -4.556  -5.243  1.00  0.00     0.247 C 
ATOM     10  C   UNL     1       6.714  -6.464  -5.830  1.00  0.00     0.040 C 
ATOM     11  O   UNL     1       3.969  -3.905  -5.505  1.00  0.00    -0.272 OA
BRANCH   6  12
ATOM     12  O   UNL     1       6.367  -6.245  -2.947  1.00  0.00    -0.373 OA
ATOM     13  H   UNL     1       6.672  -6.097  -2.026  1.00  0.00     0.213 HD
ENDBRANCH   6  12
BRANCH   7  14
ATOM     14  C   UNL     1       5.259  -3.354  -3.085  1.00  0.00     0.177 C 
BRANCH  14  15
ATOM     15  C   UNL     1       5.028  -1.933  -3.634  1.00  0.00     0.038 C 
BRANCH  15  16
ATOM     16  C   UNL     1       4.954  -0.741  -2.654  1.00  0.00    -0.015 C 
ATOM     17  C   UNL     1       3.887   0.281  -3.056  1.00  0.00     0.007 C 
ATOM     18  C   UNL     1       6.310  -0.025  -2.605  1.00  0.00     0.007 C 
ENDBRANCH  15  16
ENDBRANCH  14  15
BRANCH  14  19
ATOM     19  C   UNL     1       4.393  -4.051  -1.980  1.00  0.00     0.245 C 
ATOM     20  O   UNL     1       4.977  -4.368  -0.930  1.00  0.00    -0.272 OA
BRANCH  19  21
ATOM     21  N   UNL     1       3.072  -4.423  -2.155  1.00  0.00    -0.332 N 
ATOM     22  C   UNL     1       2.592  -5.399  -3.117  1.00  0.00     0.147 C 
BRANCH  21  23
ATOM     23  C   UNL     1       2.045  -3.768  -1.299  1.00  0.00     0.178 C 
BRANCH  23  24
ATOM     24  C   UNL     1       2.027  -2.228  -1.377  1.00  0.00     0.070 C 
BRANCH  24  25
ATOM     25  C   UNL     1       0.953  -1.511  -0.591  1.00  0.00    -0.045 A 
ATOM     26  C   UNL     1       0.513  -0.237  -0.974  1.00  0.00     0.004 A 
ATOM     27  C   UNL     1       0.382  -2.114   0.540  1.00  0.00     0.004 A 
ATOM     28  C   UNL     1      -0.468   0.425  -0.232  1.00  0.00     0.000 A 
ATOM     29  C   UNL     1      -0.599  -1.452   1.279  1.00  0.00     0.000 A 
ATOM     30  C   UNL     1      -1.021  -0.181   0.893  1.00  0.00     0.000 A 
ENDBRANCH  24  25
ENDBRANCH  23  24
BRANCH  23  31
ATOM     31  C   UNL     1       0.656  -4.442  -1.400  1.00  0.00     0.243 C 
ATOM     32  O   UNL     1      -0.261  -4.024  -2.103  1.00  0.00    -0.273 OA
ATOM     33  N   UNL     1       0.467  -5.460  -0.481  1.00  0.00    -0.341 N 
ATOM     34  H   UNL     1       1.267  -5.761   0.082  1.00  0.00     0.164 HD
BRANCH  33  35
ATOM     35  C   UNL     1      -0.810  -6.160  -0.315  1.00  0.00     0.194 C 
BRANCH  35  36
ATOM     36  C   UNL     1      -1.246  -6.341   1.167  1.00  0.00     0.017 C 
ATOM     37  C   UNL     1      -0.093  -6.889   2.026  1.00  0.00     0.010 C 
ATOM     38  C   UNL     1      -2.435  -7.295   1.334  1.00  0.00     0.010 C 
ENDBRANCH  35  36
BRANCH  35  39
ATOM     39  C   UNL     1      -0.867  -7.497  -1.105  1.00  0.00     0.329 C 
ATOM     40  O   UNL     1      -0.498  -8.576  -0.655  1.00  0.00    -0.250 OA
BRANCH  39  41
ATOM     41  O   UNL     1      -1.456  -7.352  -2.330  1.00  0.00    -0.458 OA
BRANCH  41  42
ATOM     42  C   UNL     1      -0.562  -7.181  -3.455  1.00  0.00     0.205 CG0
ATOM     43  C   UNL     1      -1.267  -6.275  -4.462  1.00  0.00     0.056 C 
ATOM     44  G   UNL     1      -0.236  -8.570  -4.040  1.00  0.00     0.000 G0
ENDBRANCH  41  42
ENDBRANCH  39  41
ENDBRANCH  35  39
ENDBRANCH  33  35
ENDBRANCH  23  31
ENDBRANCH  21  23
ENDBRANCH  19  21
ENDBRANCH  14  19
ENDBRANCH   7  14
ENDBRANCH   2   5
BRANCH   3  45
ATOM     45  C   UNL     1       2.865  -8.442  -6.321  1.00  0.00     0.171 C 
BRANCH  45  46
ATOM     46  N   UNL     1       1.935  -8.656  -5.220  1.00  0.00    -0.342 N 
ATOM     47  C   UNL     1       0.586  -8.434  -5.342  1.00  0.00     0.247 C 
ATOM     48  O   UNL     1       0.055  -8.110  -6.405  1.00  0.00    -0.273 OA
ATOM     49  H   UNL     1       2.326  -8.979  -4.337  1.00  0.00     0.164 HD
BRANCH  47  50
ATOM     50  C   UNL     1      -0.218  -8.593  -4.044  1.00  0.00     0.212 CG0
ATOM     51  G   UNL     1      -0.515  -7.180  -3.503  1.00  0.00     0.000 G0
BRANCH  50  52
ATOM     52  N   UNL     1      -1.421  -9.332  -4.419  1.00  0.00    -0.339 N 
ATOM     53  C   UNL     1      -1.823 -10.488  -3.795  1.00  0.00     0.243 C 
ATOM     54  O   UNL     1      -1.168 -11.021  -2.904  1.00  0.00    -0.273 OA
ATOM     55  H   UNL     1      -1.947  -9.001  -5.225  1.00  0.00     0.164 HD
BRANCH  53  56
ATOM     56  C   UNL     1      -3.075 -11.136  -4.421  1.00  0.00     0.182 C 
BRANCH  56  57
ATOM     57  N   UNL     1      -3.508 -10.400  -5.613  1.00  0.00    -0.344 N 
ATOM     58  C   UNL     1      -3.815 -11.029  -6.795  1.00  0.00     0.220 C 
ATOM     59  O   UNL     1      -3.678 -12.237  -6.958  1.00  0.00    -0.275 OA
ATOM     60  H   UNL     1      -3.731  -9.416  -5.491  1.00  0.00     0.164 HD
BRANCH  58  61
ATOM     61  C   UNL     1      -4.296 -10.079  -7.875  1.00  0.00     0.100 C 
BRANCH  61  62
ATOM     62  C   UNL     1      -5.436  -9.163  -7.427  1.00  0.00     0.010 C 
BRANCH  62  63
ATOM     63  C   UNL     1      -5.489  -7.820  -8.165  1.00  0.00     0.000 C 
BRANCH  63  64
ATOM     64  C   UNL     1      -4.405  -6.829  -7.742  1.00  0.00    -0.003 C 
ATOM     65  C   UNL     1      -4.101  -6.940  -6.255  1.00  0.00     0.004 C 
ENDBRANCH  63  64
ENDBRANCH  62  63
ENDBRANCH  61  62
ENDBRANCH  58  61
ENDBRANCH  56  57
BRANCH  56  66
ATOM     66  C   UNL     1      -4.198 -11.287  -3.396  1.00  0.00     0.157 C 
BRANCH  66  67
ATOM     67  C   UNL     1      -4.500  -9.979  -2.724  1.00  0.00     0.305 C 
ATOM     68  O   UNL     1      -4.376  -9.719  -1.537  1.00  0.00    -0.252 OA
BRANCH  67  69
ATOM     69  O   UNL     1      -4.900  -9.035  -3.597  1.00  0.00    -0.481 OA
ATOM     70  H   UNL     1      -4.117  -8.869  -4.162  1.00  0.00     0.296 HD
ENDBRANCH  67  69
ENDBRANCH  66  67
ENDBRANCH  56  66
ENDBRANCH  53  56
ENDBRANCH  50  52
ENDBRANCH  47  50
ENDBRANCH  45  46
BRANCH  45  71
ATOM     71  C   UNL     1       3.466  -9.761  -6.818  1.00  0.00     0.037 C 
BRANCH  71  72
ATOM     72  C   UNL     1       2.775 -10.267  -8.087  1.00  0.00     0.026 C 
BRANCH  72  73
ATOM     73  C   UNL     1       3.354  -9.612  -9.339  1.00  0.00     0.146 C 
BRANCH  73  74
ATOM     74  N   UNL     1       4.556  -8.883  -8.947  1.00  0.00    -0.254 NA
ATOM     75  C   UNL     1       5.432  -8.641  -9.852  1.00  0.00     0.185 C 
ATOM     76  N   UNL     1       6.548  -7.971  -9.522  1.00  0.00    -0.370 N 
ATOM     77  N   UNL     1       5.413  -8.970 -11.155  1.00  0.00    -0.370 N 
ATOM     78  H   UNL     1       6.646  -7.692  -8.556  1.00  0.00     0.159 HD
ATOM     79  H   UNL     1       7.337  -7.873 -10.137  1.00  0.00     0.159 HD
ATOM     80  H   UNL     1       4.632  -9.474 -11.547  1.00  0.00     0.159 HD
ATOM     81  H   UNL     1       6.108  -8.625 -11.797  1.00  0.00     0.159 HD
ENDBRANCH  73  74
ENDBRANCH  72  73
ENDBRANCH  71  72
ENDBRANCH  45  71
ENDBRANCH   3  45
TORSDOF 20
ENDMDL
MODEL 22
REMARK VINA RESULT:    -4.950      2.544      5.955
REMARK INTER + INTRA:         -20.000
REMARK INTER:                 -16.732
REMARK INTRA:                  -3.269
REMARK UNBOUND:                -5.791
REMARK SMILES CCCCCC(=O)N[C@H](CC(=O)O)C(=O)N[C@H]1C(=O)N[C@H](CCCN=C(N)N)C(=O)N[C@@H]2CC[C@H](O)N(C2=O)[C@@H](CC(C)C)C(=O)N(C)[C@@H](Cc2ccccc2)C(=O)N[C@H](C(C)C)C(=O)O[C@@H]1C
REMARK SMILES IDX 30 1 31 2 29 3 32 5 35 6 37 7 34 8 38 9 33 10 39 11 36 12
REMARK SMILES IDX 40 14 41 15 42 16 43 17 44 18 45 19 46 20 47 21 48 22 49 23
REMARK SMILES IDX 50 24 51 25 52 26 56 27 53 28 55 29 54 30 57 31 58 32 59 33
REMARK SMILES IDX 60 35 61 36 62 37 63 38 64 39 65 40 66 41 67 42 68 43 21 45
REMARK SMILES IDX 20 46 18 47 19 48 17 50 16 52 14 53 15 54 9 56 8 57 6 58
REMARK SMILES IDX 7 59 5 61 4 62 3 63 2 64 1 65 10 66 11 67 12 68 13 69 22 71
REMARK SMILES IDX 23 72 24 73 25 74 26 75 27 76 28 77
REMARK H PARENT 31 4 36 13 59 34 20 49 16 55 8 60 13 70 27 78 27 79 28 80
REMARK H PARENT 28 81
REMARK Flexibility Score:  259.900
ROOT
ATOM      1  O   UNL     1       2.675  -3.825  -1.645  1.00  0.00    -0.273 OA
ATOM      2  N   UNL     1       2.667  -6.066  -2.100  1.00  0.00    -0.343 N 
ATOM      3  C   UNL     1       2.068  -4.895  -1.688  1.00  0.00     0.243 C 
ATOM      4  H   UNL     1       2.133  -6.925  -2.136  1.00  0.00     0.164 HD
ENDROOT
BRANCH   2   5
ATOM      5  C   UNL     1       4.096  -6.106  -2.393  1.00  0.00     0.171 C 
ATOM      6  C   UNL     1       6.215  -4.150  -2.104  1.00  0.00     0.214 C 
ATOM      7  N   UNL     1       5.485  -4.227  -3.347  1.00  0.00    -0.303 N 
ATOM      8  C   UNL     1       6.310  -5.483  -1.378  1.00  0.00     0.057 C 
ATOM      9  C   UNL     1       4.428  -5.103  -3.534  1.00  0.00     0.247 C 
ATOM     10  C   UNL     1       4.921  -6.020  -1.110  1.00  0.00     0.040 C 
ATOM     11  O   UNL     1       3.751  -5.103  -4.571  1.00  0.00    -0.272 OA
BRANCH   6  12
ATOM     12  O   UNL     1       5.581  -3.190  -1.290  1.00  0.00    -0.373 OA
ATOM     13  H   UNL     1       6.278  -2.774  -0.740  1.00  0.00     0.213 HD
ENDBRANCH   6  12
BRANCH   7  14
ATOM     14  C   UNL     1       5.813  -3.222  -4.381  1.00  0.00     0.177 C 
BRANCH  14  15
ATOM     15  C   UNL     1       6.575  -1.983  -3.873  1.00  0.00     0.038 C 
BRANCH  15  16
ATOM     16  C   UNL     1       6.355  -0.619  -4.562  1.00  0.00    -0.015 C 
ATOM     17  C   UNL     1       4.895  -0.399  -4.969  1.00  0.00     0.007 C 
ATOM     18  C   UNL     1       7.224  -0.528  -5.823  1.00  0.00     0.007 C 
ENDBRANCH  15  16
ENDBRANCH  14  15
BRANCH  14  19
ATOM     19  C   UNL     1       6.038  -3.921  -5.766  1.00  0.00     0.245 C 
ATOM     20  O   UNL     1       5.387  -3.480  -6.728  1.00  0.00    -0.272 OA
BRANCH  19  21
ATOM     21  N   UNL     1       6.820  -5.049  -5.943  1.00  0.00    -0.332 N 
ATOM     22  C   UNL     1       8.056  -5.337  -5.238  1.00  0.00     0.147 C 
BRANCH  21  23
ATOM     23  C   UNL     1       6.372  -6.056  -6.945  1.00  0.00     0.178 C 
BRANCH  23  24
ATOM     24  C   UNL     1       7.512  -6.730  -7.736  1.00  0.00     0.070 C 
BRANCH  24  25
ATOM     25  C   UNL     1       7.195  -7.194  -9.138  1.00  0.00    -0.045 A 
ATOM     26  C   UNL     1       7.093  -8.559  -9.436  1.00  0.00     0.004 A 
ATOM     27  C   UNL     1       7.003  -6.259 -10.167  1.00  0.00     0.004 A 
ATOM     28  C   UNL     1       6.817  -8.980 -10.739  1.00  0.00     0.000 A 
ATOM     29  C   UNL     1       6.726  -6.682 -11.468  1.00  0.00     0.000 A 
ATOM     30  C   UNL     1       6.636  -8.043 -11.753  1.00  0.00     0.000 A 
ENDBRANCH  24  25
ENDBRANCH  23  24
BRANCH  23  31
ATOM     31  C   UNL     1       5.303  -7.026  -6.389  1.00  0.00     0.243 C 
ATOM     32  O   UNL     1       5.545  -7.939  -5.603  1.00  0.00    -0.273 OA
ATOM     33  N   UNL     1       4.067  -6.896  -7.000  1.00  0.00    -0.341 N 
ATOM     34  H   UNL     1       3.927  -6.119  -7.652  1.00  0.00     0.164 HD
BRANCH  33  35
ATOM     35  C   UNL     1       2.939  -7.788  -6.719  1.00  0.00     0.194 C 
BRANCH  35  36
ATOM     36  C   UNL     1       2.875  -9.040  -7.638  1.00  0.00     0.017 C 
ATOM     37  C   UNL     1       3.494 -10.270  -6.952  1.00  0.00     0.010 C 
ATOM     38  C   UNL     1       3.601  -8.846  -8.975  1.00  0.00     0.010 C 
ENDBRANCH  35  36
BRANCH  35  39
ATOM     39  C   UNL     1       1.580  -7.035  -6.669  1.00  0.00     0.329 C 
ATOM     40  O   UNL     1       0.952  -6.685  -7.661  1.00  0.00    -0.250 OA
BRANCH  39  41
ATOM     41  O   UNL     1       1.117  -6.882  -5.391  1.00  0.00    -0.458 OA
BRANCH  41  42
ATOM     42  C   UNL     1       0.150  -7.860  -4.938  1.00  0.00     0.205 CG0
ATOM     43  C   UNL     1      -0.409  -8.553  -6.179  1.00  0.00     0.056 C 
ATOM     44  G   UNL     1      -0.941  -7.133  -4.127  1.00  0.00     0.000 G0
ENDBRANCH  41  42
ENDBRANCH  39  41
ENDBRANCH  35  39
ENDBRANCH  33  35
ENDBRANCH  23  31
ENDBRANCH  21  23
ENDBRANCH  19  21
ENDBRANCH  14  19
ENDBRANCH   7  14
ENDBRANCH   2   5
BRANCH   3  45
ATOM     45  C   UNL     1       0.586  -5.014  -1.306  1.00  0.00     0.171 C 
BRANCH  45  46
ATOM     46  N   UNL     1      -0.093  -5.483  -2.506  1.00  0.00    -0.342 N 
ATOM     47  C   UNL     1      -0.337  -6.813  -2.742  1.00  0.00     0.247 C 
ATOM     48  O   UNL     1      -0.067  -7.697  -1.928  1.00  0.00    -0.273 OA
ATOM     49  H   UNL     1      -0.385  -4.779  -3.182  1.00  0.00     0.164 HD
BRANCH  47  50
ATOM     50  C   UNL     1      -0.950  -7.128  -4.114  1.00  0.00     0.212 CG0
ATOM     51  G   UNL     1       0.123  -7.856  -4.949  1.00  0.00     0.000 G0
BRANCH  50  52
ATOM     52  N   UNL     1      -2.123  -7.953  -3.836  1.00  0.00    -0.339 N 
ATOM     53  C   UNL     1      -3.390  -7.630  -4.257  1.00  0.00     0.243 C 
ATOM     54  O   UNL     1      -3.644  -6.589  -4.856  1.00  0.00    -0.273 OA
ATOM     55  H   UNL     1      -1.995  -8.774  -3.247  1.00  0.00     0.164 HD
BRANCH  53  56
ATOM     56  C   UNL     1      -4.480  -8.607  -3.770  1.00  0.00     0.182 C 
BRANCH  56  57
ATOM     57  N   UNL     1      -4.635  -8.541  -2.314  1.00  0.00    -0.344 N 
ATOM     58  C   UNL     1      -3.694  -9.046  -1.450  1.00  0.00     0.220 C 
ATOM     59  O   UNL     1      -2.698  -9.651  -1.833  1.00  0.00    -0.275 OA
ATOM     60  H   UNL     1      -5.390  -7.962  -1.957  1.00  0.00     0.164 HD
BRANCH  58  61
ATOM     61  C   UNL     1      -4.033  -8.815   0.011  1.00  0.00     0.100 C 
BRANCH  61  62
ATOM     62  C   UNL     1      -2.814  -8.524   0.888  1.00  0.00     0.010 C 
BRANCH  62  63
ATOM     63  C   UNL     1      -2.779  -7.101   1.460  1.00  0.00     0.000 C 
BRANCH  63  64
ATOM     64  C   UNL     1      -1.404  -6.438   1.407  1.00  0.00    -0.003 C 
ATOM     65  C   UNL     1      -0.289  -7.456   1.594  1.00  0.00     0.004 C 
ENDBRANCH  63  64
ENDBRANCH  62  63
ENDBRANCH  61  62
ENDBRANCH  58  61
ENDBRANCH  56  57
BRANCH  56  66
ATOM     66  C   UNL     1      -4.215 -10.030  -4.258  1.00  0.00     0.157 C 
BRANCH  66  67
ATOM     67  C   UNL     1      -4.373 -10.133  -5.748  1.00  0.00     0.305 C 
ATOM     68  O   UNL     1      -3.895 -10.988  -6.478  1.00  0.00    -0.252 OA
BRANCH  67  69
ATOM     69  O   UNL     1      -5.176  -9.173  -6.245  1.00  0.00    -0.481 OA
ATOM     70  H   UNL     1      -4.702  -8.835  -7.034  1.00  0.00     0.296 HD
ENDBRANCH  67  69
ENDBRANCH  66  67
ENDBRANCH  56  66
ENDBRANCH  53  56
ENDBRANCH  50  52
ENDBRANCH  47  50
ENDBRANCH  45  46
BRANCH  45  71
ATOM     71  C   UNL     1       0.044  -3.658  -0.843  1.00  0.00     0.037 C 
BRANCH  71  72
ATOM     72  C   UNL     1       0.346  -3.390   0.634  1.00  0.00     0.026 C 
BRANCH  72  73
ATOM     73  C   UNL     1      -0.860  -2.791   1.353  1.00  0.00     0.146 C 
BRANCH  73  74
ATOM     74  N   UNL     1      -0.608  -1.365   1.536  1.00  0.00    -0.254 NA
ATOM     75  C   UNL     1      -1.215  -0.545   0.760  1.00  0.00     0.185 C 
ATOM     76  N   UNL     1      -1.005   0.774   0.905  1.00  0.00    -0.370 N 
ATOM     77  N   UNL     1      -2.081  -0.806  -0.234  1.00  0.00    -0.370 N 
ATOM     78  H   UNL     1      -0.359   1.057   1.628  1.00  0.00     0.159 HD
ATOM     79  H   UNL     1      -1.328   1.462   0.248  1.00  0.00     0.159 HD
ATOM     80  H   UNL     1      -2.338  -1.756  -0.455  1.00  0.00     0.159 HD
ATOM     81  H   UNL     1      -2.586  -0.071  -0.702  1.00  0.00     0.159 HD
ENDBRANCH  73  74
ENDBRANCH  72  73
ENDBRANCH  71  72
ENDBRANCH  45  71
ENDBRANCH   3  45
TORSDOF 20
ENDMDL
MODEL 23
REMARK VINA RESULT:    -4.923      2.911      7.717
REMARK INTER + INTRA:         -19.925
REMARK INTER:                 -15.193
REMARK INTRA:                  -4.731
REMARK UNBOUND:                -5.791
REMARK SMILES CCCCCC(=O)N[C@H](CC(=O)O)C(=O)N[C@H]1C(=O)N[C@H](CCCN=C(N)N)C(=O)N[C@@H]2CC[C@H](O)N(C2=O)[C@@H](CC(C)C)C(=O)N(C)[C@@H](Cc2ccccc2)C(=O)N[C@H](C(C)C)C(=O)O[C@@H]1C
REMARK SMILES IDX 30 1 31 2 29 3 32 5 35 6 37 7 34 8 38 9 33 10 39 11 36 12
REMARK SMILES IDX 40 14 41 15 42 16 43 17 44 18 45 19 46 20 47 21 48 22 49 23
REMARK SMILES IDX 50 24 51 25 52 26 56 27 53 28 55 29 54 30 57 31 58 32 59 33
REMARK SMILES IDX 60 35 61 36 62 37 63 38 64 39 65 40 66 41 67 42 68 43 21 45
REMARK SMILES IDX 20 46 18 47 19 48 17 50 16 52 14 53 15 54 9 56 8 57 6 58
REMARK SMILES IDX 7 59 5 61 4 62 3 63 2 64 1 65 10 66 11 67 12 68 13 69 22 71
REMARK SMILES IDX 23 72 24 73 25 74 26 75 27 76 28 77
REMARK H PARENT 31 4 36 13 59 34 20 49 16 55 8 60 13 70 27 78 27 79 28 80
REMARK H PARENT 28 81
REMARK Flexibility Score:  259.900
ROOT
ATOM      1  O   UNL     1      -1.280  -8.072  -2.274  1.00  0.00    -0.273 OA
ATOM      2  N   UNL     1      -0.913  -6.319  -3.696  1.00  0.00    -0.343 N 
ATOM      3  C   UNL     1      -0.733  -6.994  -2.508  1.00  0.00     0.243 C 
ATOM      4  H   UNL     1      -0.435  -5.441  -3.860  1.00  0.00     0.164 HD
ENDROOT
BRANCH   2   5
ATOM      5  C   UNL     1      -1.865  -6.804  -4.689  1.00  0.00     0.171 C 
ATOM      6  C   UNL     1      -3.604  -9.122  -4.773  1.00  0.00     0.214 C 
ATOM      7  N   UNL     1      -2.273  -9.213  -5.325  1.00  0.00    -0.303 N 
ATOM      8  C   UNL     1      -4.198  -7.725  -4.863  1.00  0.00     0.057 C 
ATOM      9  C   UNL     1      -1.373  -8.161  -5.272  1.00  0.00     0.247 C 
ATOM     10  C   UNL     1      -3.295  -6.738  -4.156  1.00  0.00     0.040 C 
ATOM     11  O   UNL     1      -0.206  -8.274  -5.668  1.00  0.00    -0.272 OA
BRANCH   6  12
ATOM     12  O   UNL     1      -3.545  -9.547  -3.432  1.00  0.00    -0.373 OA
ATOM     13  H   UNL     1      -2.725  -9.169  -3.047  1.00  0.00     0.213 HD
ENDBRANCH   6  12
BRANCH   7  14
ATOM     14  C   UNL     1      -1.844 -10.536  -5.826  1.00  0.00     0.177 C 
BRANCH  14  15
ATOM     15  C   UNL     1      -1.822 -10.681  -7.360  1.00  0.00     0.038 C 
BRANCH  15  16
ATOM     16  C   UNL     1      -2.638 -11.810  -8.029  1.00  0.00    -0.015 C 
ATOM     17  C   UNL     1      -2.229 -12.041  -9.486  1.00  0.00     0.007 C 
ATOM     18  C   UNL     1      -4.131 -11.458  -7.999  1.00  0.00     0.007 C 
ENDBRANCH  15  16
ENDBRANCH  14  15
BRANCH  14  19
ATOM     19  C   UNL     1      -0.811 -11.182  -4.839  1.00  0.00     0.245 C 
ATOM     20  O   UNL     1      -0.995 -10.981  -3.627  1.00  0.00    -0.272 OA
BRANCH  19  21
ATOM     21  N   UNL     1       0.329 -11.853  -5.246  1.00  0.00    -0.332 N 
ATOM     22  C   UNL     1       0.418 -12.749  -6.385  1.00  0.00     0.147 C 
BRANCH  21  23
ATOM     23  C   UNL     1       1.573 -11.656  -4.451  1.00  0.00     0.178 C 
BRANCH  23  24
ATOM     24  C   UNL     1       2.628 -12.768  -4.618  1.00  0.00     0.070 C 
BRANCH  24  25
ATOM     25  C   UNL     1       4.042 -12.444  -4.196  1.00  0.00    -0.045 A 
ATOM     26  C   UNL     1       5.104 -12.547  -5.104  1.00  0.00     0.004 A 
ATOM     27  C   UNL     1       4.312 -12.039  -2.880  1.00  0.00     0.004 A 
ATOM     28  C   UNL     1       6.410 -12.262  -4.701  1.00  0.00     0.000 A 
ATOM     29  C   UNL     1       5.618 -11.754  -2.479  1.00  0.00     0.000 A 
ATOM     30  C   UNL     1       6.667 -11.868  -3.390  1.00  0.00     0.000 A 
ENDBRANCH  24  25
ENDBRANCH  23  24
BRANCH  23  31
ATOM     31  C   UNL     1       2.126 -10.214  -4.543  1.00  0.00     0.243 C 
ATOM     32  O   UNL     1       1.899  -9.337  -3.713  1.00  0.00    -0.273 OA
ATOM     33  N   UNL     1       2.754  -9.938  -5.746  1.00  0.00    -0.341 N 
ATOM     34  H   UNL     1       2.909 -10.709  -6.400  1.00  0.00     0.164 HD
BRANCH  33  35
ATOM     35  C   UNL     1       3.249  -8.605  -6.101  1.00  0.00     0.194 C 
BRANCH  35  36
ATOM     36  C   UNL     1       3.382  -8.364  -7.631  1.00  0.00     0.017 C 
ATOM     37  C   UNL     1       2.813  -9.546  -8.435  1.00  0.00     0.010 C 
ATOM     38  C   UNL     1       4.831  -8.156  -8.087  1.00  0.00     0.010 C 
ENDBRANCH  35  36
BRANCH  35  39
ATOM     39  C   UNL     1       4.550  -8.229  -5.339  1.00  0.00     0.329 C 
ATOM     40  O   UNL     1       5.483  -9.001  -5.150  1.00  0.00    -0.250 OA
BRANCH  39  41
ATOM     41  O   UNL     1       4.578  -6.910  -4.977  1.00  0.00    -0.458 OA
BRANCH  41  42
ATOM     42  C   UNL     1       3.345  -6.364  -4.451  1.00  0.00     0.205 CG0
ATOM     43  C   UNL     1       2.817  -5.364  -5.476  1.00  0.00     0.056 C 
ATOM     44  G   UNL     1       3.640  -5.710  -3.086  1.00  0.00     0.000 G0
ENDBRANCH  41  42
ENDBRANCH  39  41
ENDBRANCH  35  39
ENDBRANCH  33  35
ENDBRANCH  23  31
ENDBRANCH  21  23
ENDBRANCH  19  21
ENDBRANCH  14  19
ENDBRANCH   7  14
ENDBRANCH   2   5
BRANCH   3  45
ATOM     45  C   UNL     1       0.213  -6.319  -1.506  1.00  0.00     0.171 C 
BRANCH  45  46
ATOM     46  N   UNL     1       1.549  -6.455  -2.071  1.00  0.00    -0.342 N 
ATOM     47  C   UNL     1       2.332  -5.371  -2.379  1.00  0.00     0.247 C 
ATOM     48  O   UNL     1       1.996  -4.212  -2.133  1.00  0.00    -0.273 OA
ATOM     49  H   UNL     1       1.889  -7.400  -2.239  1.00  0.00     0.164 HD
BRANCH  47  50
ATOM     50  C   UNL     1       3.656  -5.705  -3.082  1.00  0.00     0.212 CG0
ATOM     51  G   UNL     1       3.315  -6.344  -4.443  1.00  0.00     0.000 G0
BRANCH  50  52
ATOM     52  N   UNL     1       4.363  -4.433  -3.203  1.00  0.00    -0.339 N 
ATOM     53  C   UNL     1       5.650  -4.239  -2.762  1.00  0.00     0.243 C 
ATOM     54  O   UNL     1       6.289  -5.111  -2.180  1.00  0.00    -0.273 OA
ATOM     55  H   UNL     1       3.848  -3.638  -3.576  1.00  0.00     0.164 HD
BRANCH  53  56
ATOM     56  C   UNL     1       6.155  -2.790  -2.918  1.00  0.00     0.182 C 
BRANCH  56  57
ATOM     57  N   UNL     1       5.126  -1.827  -2.514  1.00  0.00    -0.344 N 
ATOM     58  C   UNL     1       5.407  -0.502  -2.286  1.00  0.00     0.220 C 
ATOM     59  O   UNL     1       6.545  -0.048  -2.332  1.00  0.00    -0.275 OA
ATOM     60  H   UNL     1       4.160  -2.138  -2.564  1.00  0.00     0.164 HD
BRANCH  58  61
ATOM     61  C   UNL     1       4.181   0.321  -1.936  1.00  0.00     0.100 C 
BRANCH  61  62
ATOM     62  C   UNL     1       2.875  -0.257  -2.482  1.00  0.00     0.010 C 
BRANCH  62  63
ATOM     63  C   UNL     1       1.806  -0.510  -1.411  1.00  0.00     0.000 C 
BRANCH  63  64
ATOM     64  C   UNL     1       0.982   0.724  -1.044  1.00  0.00    -0.003 C 
ATOM     65  C   UNL     1      -0.418   0.340  -0.588  1.00  0.00     0.004 C 
ENDBRANCH  63  64
ENDBRANCH  62  63
ENDBRANCH  61  62
ENDBRANCH  58  61
ENDBRANCH  56  57
BRANCH  56  66
ATOM     66  C   UNL     1       6.669  -2.526  -4.333  1.00  0.00     0.157 C 
BRANCH  66  67
ATOM     67  C   UNL     1       5.621  -1.858  -5.176  1.00  0.00     0.305 C 
ATOM     68  O   UNL     1       4.562  -2.340  -5.547  1.00  0.00    -0.252 OA
BRANCH  67  69
ATOM     69  O   UNL     1       5.939  -0.583  -5.470  1.00  0.00    -0.481 OA
ATOM     70  H   UNL     1       5.887  -0.108  -4.614  1.00  0.00     0.296 HD
ENDBRANCH  67  69
ENDBRANCH  66  67
ENDBRANCH  56  66
ENDBRANCH  53  56
ENDBRANCH  50  52
ENDBRANCH  47  50
ENDBRANCH  45  46
BRANCH  45  71
ATOM     71  C   UNL     1       0.108  -6.995  -0.134  1.00  0.00     0.037 C 
BRANCH  71  72
ATOM     72  C   UNL     1       0.382  -6.018   1.012  1.00  0.00     0.026 C 
BRANCH  72  73
ATOM     73  C   UNL     1       0.376  -4.570   0.527  1.00  0.00     0.146 C 
BRANCH  73  74
ATOM     74  N   UNL     1      -0.522  -3.812   1.393  1.00  0.00    -0.254 NA
ATOM     75  C   UNL     1      -0.072  -2.739   1.930  1.00  0.00     0.185 C 
ATOM     76  N   UNL     1      -0.875  -2.020   2.731  1.00  0.00    -0.370 N 
ATOM     77  N   UNL     1       1.146  -2.182   1.815  1.00  0.00    -0.370 N 
ATOM     78  H   UNL     1      -1.810  -2.373   2.879  1.00  0.00     0.159 HD
ATOM     79  H   UNL     1      -0.552  -1.255   3.297  1.00  0.00     0.159 HD
ATOM     80  H   UNL     1       1.855  -2.613   1.239  1.00  0.00     0.159 HD
ATOM     81  H   UNL     1       1.349  -1.272   2.193  1.00  0.00     0.159 HD
ENDBRANCH  73  74
ENDBRANCH  72  73
ENDBRANCH  71  72
ENDBRANCH  45  71
ENDBRANCH   3  45
TORSDOF 20
ENDMDL
MODEL 24
REMARK VINA RESULT:    -4.862     16.596     20.856
REMARK INTER + INTRA:         -19.749
REMARK INTER:                 -13.646
REMARK INTRA:                  -6.103
REMARK UNBOUND:                -5.791
REMARK SMILES CCCCCC(=O)N[C@H](CC(=O)O)C(=O)N[C@H]1C(=O)N[C@H](CCCN=C(N)N)C(=O)N[C@@H]2CC[C@H](O)N(C2=O)[C@@H](CC(C)C)C(=O)N(C)[C@@H](Cc2ccccc2)C(=O)N[C@H](C(C)C)C(=O)O[C@@H]1C
REMARK SMILES IDX 30 1 31 2 29 3 32 5 35 6 37 7 34 8 38 9 33 10 39 11 36 12
REMARK SMILES IDX 40 14 41 15 42 16 43 17 44 18 45 19 46 20 47 21 48 22 49 23
REMARK SMILES IDX 50 24 51 25 52 26 56 27 53 28 55 29 54 30 57 31 58 32 59 33
REMARK SMILES IDX 60 35 61 36 62 37 63 38 64 39 65 40 66 41 67 42 68 43 21 45
REMARK SMILES IDX 20 46 18 47 19 48 17 50 16 52 14 53 15 54 9 56 8 57 6 58
REMARK SMILES IDX 7 59 5 61 4 62 3 63 2 64 1 65 10 66 11 67 12 68 13 69 22 71
REMARK SMILES IDX 23 72 24 73 25 74 26 75 27 76 28 77
REMARK H PARENT 31 4 36 13 59 34 20 49 16 55 8 60 13 70 27 78 27 79 28 80
REMARK H PARENT 28 81
REMARK Flexibility Score:  259.900
ROOT
ATOM      1  O   UNL     1     -16.942  -4.759  -0.661  1.00  0.00    -0.273 OA
ATOM      2  N   UNL     1     -18.246  -6.574  -1.145  1.00  0.00    -0.343 N 
ATOM      3  C   UNL     1     -17.556  -5.756  -0.278  1.00  0.00     0.243 C 
ATOM      4  H   UNL     1     -18.752  -7.377  -0.793  1.00  0.00     0.164 HD
ENDROOT
BRANCH   2   5
ATOM      5  C   UNL     1     -18.178  -6.356  -2.586  1.00  0.00     0.171 C 
ATOM      6  C   UNL     1     -19.306  -7.780  -4.845  1.00  0.00     0.214 C 
ATOM      7  N   UNL     1     -17.990  -8.135  -4.367  1.00  0.00    -0.303 N 
ATOM      8  C   UNL     1     -19.653  -6.317  -4.623  1.00  0.00     0.057 C 
ATOM      9  C   UNL     1     -17.413  -7.530  -3.262  1.00  0.00     0.247 C 
ATOM     10  C   UNL     1     -19.548  -5.983  -3.150  1.00  0.00     0.040 C 
ATOM     11  O   UNL     1     -16.323  -7.899  -2.806  1.00  0.00    -0.272 OA
BRANCH   6  12
ATOM     12  O   UNL     1     -20.239  -8.612  -4.194  1.00  0.00    -0.373 OA
ATOM     13  H   UNL     1     -20.243  -9.468  -4.673  1.00  0.00     0.213 HD
ENDBRANCH   6  12
BRANCH   7  14
ATOM     14  C   UNL     1     -17.328  -9.286  -5.018  1.00  0.00     0.177 C 
BRANCH  14  15
ATOM     15  C   UNL     1     -16.396  -8.928  -6.192  1.00  0.00     0.038 C 
BRANCH  15  16
ATOM     16  C   UNL     1     -16.153  -9.963  -7.313  1.00  0.00    -0.015 C 
ATOM     17  C   UNL     1     -17.303 -10.965  -7.442  1.00  0.00     0.007 C 
ATOM     18  C   UNL     1     -14.864 -10.745  -7.026  1.00  0.00     0.007 C 
ENDBRANCH  15  16
ENDBRANCH  14  15
BRANCH  14  19
ATOM     19  C   UNL     1     -17.075 -10.429  -3.975  1.00  0.00     0.245 C 
ATOM     20  O   UNL     1     -15.890 -10.694  -3.712  1.00  0.00    -0.272 OA
BRANCH  19  21
ATOM     21  N   UNL     1     -18.078 -11.213  -3.432  1.00  0.00    -0.332 N 
ATOM     22  C   UNL     1     -19.128 -11.876  -4.184  1.00  0.00     0.147 C 
BRANCH  21  23
ATOM     23  C   UNL     1     -18.099 -11.391  -1.954  1.00  0.00     0.178 C 
BRANCH  23  24
ATOM     24  C   UNL     1     -19.353 -12.103  -1.408  1.00  0.00     0.070 C 
BRANCH  24  25
ATOM     25  C   UNL     1     -19.924 -11.590  -0.107  1.00  0.00    -0.045 A 
ATOM     26  C   UNL     1     -20.696 -10.421  -0.073  1.00  0.00     0.004 A 
ATOM     27  C   UNL     1     -19.684 -12.277   1.092  1.00  0.00     0.004 A 
ATOM     28  C   UNL     1     -21.206  -9.944   1.136  1.00  0.00     0.000 A 
ATOM     29  C   UNL     1     -20.195 -11.800   2.300  1.00  0.00     0.000 A 
ATOM     30  C   UNL     1     -20.954 -10.631   2.321  1.00  0.00     0.000 A 
ENDBRANCH  24  25
ENDBRANCH  23  24
BRANCH  23  31
ATOM     31  C   UNL     1     -16.756 -11.912  -1.389  1.00  0.00     0.243 C 
ATOM     32  O   UNL     1     -16.349 -13.062  -1.536  1.00  0.00    -0.273 OA
ATOM     33  N   UNL     1     -16.129 -11.017  -0.539  1.00  0.00    -0.341 N 
ATOM     34  H   UNL     1     -16.519 -10.075  -0.453  1.00  0.00     0.164 HD
BRANCH  33  35
ATOM     35  C   UNL     1     -14.907 -11.341   0.202  1.00  0.00     0.194 C 
BRANCH  35  36
ATOM     36  C   UNL     1     -15.053 -11.230   1.746  1.00  0.00     0.017 C 
ATOM     37  C   UNL     1     -14.655 -12.543   2.442  1.00  0.00     0.010 C 
ATOM     38  C   UNL     1     -16.479 -10.886   2.195  1.00  0.00     0.010 C 
ENDBRANCH  35  36
BRANCH  35  39
ATOM     39  C   UNL     1     -13.666 -10.565  -0.321  1.00  0.00     0.329 C 
ATOM     40  O   UNL     1     -13.269 -10.608  -1.479  1.00  0.00    -0.250 OA
BRANCH  39  41
ATOM     41  O   UNL     1     -13.116  -9.758   0.636  1.00  0.00    -0.458 OA
BRANCH  41  42
ATOM     42  C   UNL     1     -13.262  -8.332   0.433  1.00  0.00     0.205 CG0
ATOM     43  C   UNL     1     -11.859  -7.728   0.432  1.00  0.00     0.056 C 
ATOM     44  G   UNL     1     -14.148  -7.763   1.559  1.00  0.00     0.000 G0
ENDBRANCH  41  42
ENDBRANCH  39  41
ENDBRANCH  35  39
ENDBRANCH  33  35
ENDBRANCH  23  31
ENDBRANCH  21  23
ENDBRANCH  19  21
ENDBRANCH  14  19
ENDBRANCH   7  14
ENDBRANCH   2   5
BRANCH   3  45
ATOM     45  C   UNL     1     -17.623  -6.160   1.201  1.00  0.00     0.171 C 
BRANCH  45  46
ATOM     46  N   UNL     1     -16.255  -6.488   1.582  1.00  0.00    -0.342 N 
ATOM     47  C   UNL     1     -15.523  -7.454   0.939  1.00  0.00     0.247 C 
ATOM     48  O   UNL     1     -15.939  -8.061  -0.049  1.00  0.00    -0.273 OA
ATOM     49  H   UNL     1     -15.852  -5.969   2.360  1.00  0.00     0.164 HD
BRANCH  47  50
ATOM     50  C   UNL     1     -14.150  -7.748   1.557  1.00  0.00     0.212 CG0
ATOM     51  G   UNL     1     -13.261  -8.357   0.454  1.00  0.00     0.000 G0
BRANCH  50  52
ATOM     52  N   UNL     1     -13.660  -6.463   2.049  1.00  0.00    -0.339 N 
ATOM     53  C   UNL     1     -13.491  -6.179   3.383  1.00  0.00     0.243 C 
ATOM     54  O   UNL     1     -13.791  -6.972   4.271  1.00  0.00    -0.273 OA
ATOM     55  H   UNL     1     -13.500  -5.726   1.366  1.00  0.00     0.164 HD
BRANCH  53  56
ATOM     56  C   UNL     1     -13.047  -4.730   3.664  1.00  0.00     0.182 C 
BRANCH  56  57
ATOM     57  N   UNL     1     -14.122  -3.781   3.357  1.00  0.00    -0.344 N 
ATOM     58  C   UNL     1     -14.529  -2.817   4.247  1.00  0.00     0.220 C 
ATOM     59  O   UNL     1     -14.076  -2.728   5.383  1.00  0.00    -0.275 OA
ATOM     60  H   UNL     1     -14.451  -3.754   2.396  1.00  0.00     0.164 HD
BRANCH  58  61
ATOM     61  C   UNL     1     -15.614  -1.909   3.696  1.00  0.00     0.100 C 
BRANCH  61  62
ATOM     62  C   UNL     1     -15.522  -1.686   2.186  1.00  0.00     0.010 C 
BRANCH  62  63
ATOM     63  C   UNL     1     -16.496  -0.630   1.648  1.00  0.00     0.000 C 
BRANCH  63  64
ATOM     64  C   UNL     1     -16.001   0.808   1.788  1.00  0.00    -0.003 C 
ATOM     65  C   UNL     1     -16.295   1.622   0.536  1.00  0.00     0.004 C 
ENDBRANCH  63  64
ENDBRANCH  62  63
ENDBRANCH  61  62
ENDBRANCH  58  61
ENDBRANCH  56  57
BRANCH  56  66
ATOM     66  C   UNL     1     -11.750  -4.389   2.932  1.00  0.00     0.157 C 
BRANCH  66  67
ATOM     67  C   UNL     1     -12.027  -3.693   1.630  1.00  0.00     0.305 C 
ATOM     68  O   UNL     1     -12.876  -3.994   0.805  1.00  0.00    -0.252 OA
BRANCH  67  69
ATOM     69  O   UNL     1     -11.248  -2.609   1.454  1.00  0.00    -0.481 OA
ATOM     70  H   UNL     1     -10.378  -2.863   1.827  1.00  0.00     0.296 HD
ENDBRANCH  67  69
ENDBRANCH  66  67
ENDBRANCH  56  66
ENDBRANCH  53  56
ENDBRANCH  50  52
ENDBRANCH  47  50
ENDBRANCH  45  46
BRANCH  45  71
ATOM     71  C   UNL     1     -18.564  -7.355   1.385  1.00  0.00     0.037 C 
BRANCH  71  72
ATOM     72  C   UNL     1     -19.492  -7.177   2.590  1.00  0.00     0.026 C 
BRANCH  72  73
ATOM     73  C   UNL     1     -19.051  -8.042   3.769  1.00  0.00     0.146 C 
BRANCH  73  74
ATOM     74  N   UNL     1     -17.940  -7.363   4.430  1.00  0.00    -0.254 NA
ATOM     75  C   UNL     1     -17.498  -7.863   5.525  1.00  0.00     0.185 C 
ATOM     76  N   UNL     1     -16.477  -7.262   6.156  1.00  0.00    -0.370 N 
ATOM     77  N   UNL     1     -17.917  -8.959   6.182  1.00  0.00    -0.370 N 
ATOM     78  H   UNL     1     -16.106  -6.424   5.731  1.00  0.00     0.159 HD
ATOM     79  H   UNL     1     -16.175  -7.509   7.081  1.00  0.00     0.159 HD
ATOM     80  H   UNL     1     -18.677  -9.515   5.822  1.00  0.00     0.159 HD
ATOM     81  H   UNL     1     -17.415  -9.322   6.976  1.00  0.00     0.159 HD
ENDBRANCH  73  74
ENDBRANCH  72  73
ENDBRANCH  71  72
ENDBRANCH  45  71
ENDBRANCH   3  45
TORSDOF 20
ENDMDL
MODEL 25
REMARK VINA RESULT:    -4.780      2.679      4.370
REMARK INTER + INTRA:         -19.512
REMARK INTER:                 -17.907
REMARK INTRA:                  -1.606
REMARK UNBOUND:                -5.791
REMARK SMILES CCCCCC(=O)N[C@H](CC(=O)O)C(=O)N[C@H]1C(=O)N[C@H](CCCN=C(N)N)C(=O)N[C@@H]2CC[C@H](O)N(C2=O)[C@@H](CC(C)C)C(=O)N(C)[C@@H](Cc2ccccc2)C(=O)N[C@H](C(C)C)C(=O)O[C@@H]1C
REMARK SMILES IDX 30 1 31 2 29 3 32 5 35 6 37 7 34 8 38 9 33 10 39 11 36 12
REMARK SMILES IDX 40 14 41 15 42 16 43 17 44 18 45 19 46 20 47 21 48 22 49 23
REMARK SMILES IDX 50 24 51 25 52 26 56 27 53 28 55 29 54 30 57 31 58 32 59 33
REMARK SMILES IDX 60 35 61 36 62 37 63 38 64 39 65 40 66 41 67 42 68 43 21 45
REMARK SMILES IDX 20 46 18 47 19 48 17 50 16 52 14 53 15 54 9 56 8 57 6 58
REMARK SMILES IDX 7 59 5 61 4 62 3 63 2 64 1 65 10 66 11 67 12 68 13 69 22 71
REMARK SMILES IDX 23 72 24 73 25 74 26 75 27 76 28 77
REMARK H PARENT 31 4 36 13 59 34 20 49 16 55 8 60 13 70 27 78 27 79 28 80
REMARK H PARENT 28 81
REMARK Flexibility Score:  259.900
ROOT
ATOM      1  O   UNL     1       4.739  -2.662  -1.012  1.00  0.00    -0.273 OA
ATOM      2  N   UNL     1       3.667  -2.914  -3.016  1.00  0.00    -0.343 N 
ATOM      3  C   UNL     1       3.759  -2.444  -1.724  1.00  0.00     0.243 C 
ATOM      4  H   UNL     1       2.852  -2.702  -3.578  1.00  0.00     0.164 HD
ENDROOT
BRANCH   2   5
ATOM      5  C   UNL     1       4.691  -3.801  -3.558  1.00  0.00     0.171 C 
ATOM      6  C   UNL     1       4.586  -6.000  -5.445  1.00  0.00     0.214 C 
ATOM      7  N   UNL     1       4.440  -6.268  -4.033  1.00  0.00    -0.303 N 
ATOM      8  C   UNL     1       5.457  -4.788  -5.740  1.00  0.00     0.057 C 
ATOM      9  C   UNL     1       4.429  -5.259  -3.083  1.00  0.00     0.247 C 
ATOM     10  C   UNL     1       4.884  -3.567  -5.055  1.00  0.00     0.040 C 
ATOM     11  O   UNL     1       4.217  -5.489  -1.885  1.00  0.00    -0.272 OA
BRANCH   6  12
ATOM     12  O   UNL     1       3.297  -5.824  -5.985  1.00  0.00    -0.373 OA
ATOM     13  H   UNL     1       2.711  -5.549  -5.248  1.00  0.00     0.213 HD
ENDBRANCH   6  12
BRANCH   7  14
ATOM     14  C   UNL     1       4.151  -7.664  -3.642  1.00  0.00     0.177 C 
BRANCH  14  15
ATOM     15  C   UNL     1       5.221  -8.332  -2.757  1.00  0.00     0.038 C 
BRANCH  15  16
ATOM     16  C   UNL     1       6.140  -9.417  -3.363  1.00  0.00    -0.015 C 
ATOM     17  C   UNL     1       5.772  -9.753  -4.811  1.00  0.00     0.007 C 
ATOM     18  C   UNL     1       6.043 -10.702  -2.531  1.00  0.00     0.007 C 
ENDBRANCH  15  16
ENDBRANCH  14  15
BRANCH  14  19
ATOM     19  C   UNL     1       2.604  -7.884  -3.517  1.00  0.00     0.245 C 
ATOM     20  O   UNL     1       2.033  -7.318  -2.571  1.00  0.00    -0.272 OA
BRANCH  19  21
ATOM     21  N   UNL     1       1.881  -8.748  -4.321  1.00  0.00    -0.332 N 
ATOM     22  C   UNL     1       1.844 -10.193  -4.186  1.00  0.00     0.147 C 
BRANCH  21  23
ATOM     23  C   UNL     1       1.076  -8.159  -5.427  1.00  0.00     0.178 C 
BRANCH  23  24
ATOM     24  C   UNL     1       0.813  -9.112  -6.611  1.00  0.00     0.070 C 
BRANCH  24  25
ATOM     25  C   UNL     1       1.982  -9.426  -7.515  1.00  0.00    -0.045 A 
ATOM     26  C   UNL     1       2.669  -8.403  -8.181  1.00  0.00     0.004 A 
ATOM     27  C   UNL     1       2.393 -10.754  -7.705  1.00  0.00     0.004 A 
ATOM     28  C   UNL     1       3.738  -8.703  -9.028  1.00  0.00     0.000 A 
ATOM     29  C   UNL     1       3.462 -11.052  -8.551  1.00  0.00     0.000 A 
ATOM     30  C   UNL     1       4.132 -10.026  -9.214  1.00  0.00     0.000 A 
ENDBRANCH  24  25
ENDBRANCH  23  24
BRANCH  23  31
ATOM     31  C   UNL     1      -0.166  -7.385  -4.925  1.00  0.00     0.243 C 
ATOM     32  O   UNL     1      -0.546  -6.316  -5.396  1.00  0.00    -0.273 OA
ATOM     33  N   UNL     1      -0.713  -7.909  -3.766  1.00  0.00    -0.341 N 
ATOM     34  H   UNL     1      -0.350  -8.800  -3.418  1.00  0.00     0.164 HD
BRANCH  33  35
ATOM     35  C   UNL     1      -1.819  -7.273  -3.046  1.00  0.00     0.194 C 
BRANCH  35  36
ATOM     36  C   UNL     1      -3.138  -7.179  -3.864  1.00  0.00     0.017 C 
ATOM     37  C   UNL     1      -4.093  -6.130  -3.268  1.00  0.00     0.010 C 
ATOM     38  C   UNL     1      -3.902  -8.507  -3.933  1.00  0.00     0.010 C 
ENDBRANCH  35  36
BRANCH  35  39
ATOM     39  C   UNL     1      -1.421  -5.903  -2.428  1.00  0.00     0.329 C 
ATOM     40  O   UNL     1      -1.712  -4.819  -2.919  1.00  0.00    -0.250 OA
BRANCH  39  41
ATOM     41  O   UNL     1      -0.783  -6.041  -1.227  1.00  0.00    -0.458 OA
BRANCH  41  42
ATOM     42  C   UNL     1       0.306  -5.122  -0.970  1.00  0.00     0.205 CG0
ATOM     43  C   UNL     1       1.454  -5.934  -0.374  1.00  0.00     0.056 C 
ATOM     44  G   UNL     1      -0.195  -4.020  -0.016  1.00  0.00     0.000 G0
ENDBRANCH  41  42
ENDBRANCH  39  41
ENDBRANCH  35  39
ENDBRANCH  33  35
ENDBRANCH  23  31
ENDBRANCH  21  23
ENDBRANCH  19  21
ENDBRANCH  14  19
ENDBRANCH   7  14
ENDBRANCH   2   5
BRANCH   3  45
ATOM     45  C   UNL     1       2.564  -1.610  -1.242  1.00  0.00     0.171 C 
BRANCH  45  46
ATOM     46  N   UNL     1       1.451  -2.545  -1.131  1.00  0.00    -0.342 N 
ATOM     47  C   UNL     1       0.929  -2.927   0.079  1.00  0.00     0.247 C 
ATOM     48  O   UNL     1       1.310  -2.456   1.150  1.00  0.00    -0.273 OA
ATOM     49  H   UNL     1       1.067  -2.916  -1.998  1.00  0.00     0.164 HD
BRANCH  47  50
ATOM     50  C   UNL     1      -0.155  -4.012   0.005  1.00  0.00     0.212 CG0
ATOM     51  G   UNL     1       0.336  -5.097  -0.974  1.00  0.00     0.000 G0
BRANCH  50  52
ATOM     52  N   UNL     1      -0.314  -4.498   1.373  1.00  0.00    -0.339 N 
ATOM     53  C   UNL     1      -1.531  -4.806   1.929  1.00  0.00     0.243 C 
ATOM     54  O   UNL     1      -2.592  -4.644   1.332  1.00  0.00    -0.273 OA
ATOM     55  H   UNL     1       0.519  -4.548   1.956  1.00  0.00     0.164 HD
BRANCH  53  56
ATOM     56  C   UNL     1      -1.457  -5.216   3.414  1.00  0.00     0.182 C 
BRANCH  56  57
ATOM     57  N   UNL     1      -2.744  -5.003   4.084  1.00  0.00    -0.344 N 
ATOM     58  C   UNL     1      -3.049  -5.580   5.292  1.00  0.00     0.220 C 
ATOM     59  O   UNL     1      -2.300  -6.369   5.859  1.00  0.00    -0.275 OA
ATOM     60  H   UNL     1      -3.349  -4.281   3.701  1.00  0.00     0.164 HD
BRANCH  58  61
ATOM     61  C   UNL     1      -4.411  -5.175   5.826  1.00  0.00     0.100 C 
BRANCH  61  62
ATOM     62  C   UNL     1      -5.083  -6.250   6.680  1.00  0.00     0.010 C 
BRANCH  62  63
ATOM     63  C   UNL     1      -5.308  -5.841   8.141  1.00  0.00     0.000 C 
BRANCH  63  64
ATOM     64  C   UNL     1      -6.178  -6.813   8.937  1.00  0.00    -0.003 C 
ATOM     65  C   UNL     1      -6.664  -6.186  10.236  1.00  0.00     0.004 C 
ENDBRANCH  63  64
ENDBRANCH  62  63
ENDBRANCH  61  62
ENDBRANCH  58  61
ENDBRANCH  56  57
BRANCH  56  66
ATOM     66  C   UNL     1      -0.309  -4.510   4.133  1.00  0.00     0.157 C 
BRANCH  66  67
ATOM     67  C   UNL     1      -0.699  -3.120   4.547  1.00  0.00     0.305 C 
ATOM     68  O   UNL     1      -1.004  -2.195   3.809  1.00  0.00    -0.252 OA
BRANCH  67  69
ATOM     69  O   UNL     1      -0.736  -2.976   5.885  1.00  0.00    -0.481 OA
ATOM     70  H   UNL     1       0.029  -2.399   6.096  1.00  0.00     0.296 HD
ENDBRANCH  67  69
ENDBRANCH  66  67
ENDBRANCH  56  66
ENDBRANCH  53  56
ENDBRANCH  50  52
ENDBRANCH  47  50
ENDBRANCH  45  46
BRANCH  45  71
ATOM     71  C   UNL     1       2.261  -0.486  -2.238  1.00  0.00     0.037 C 
BRANCH  71  72
ATOM     72  C   UNL     1       2.577   0.896  -1.660  1.00  0.00     0.026 C 
BRANCH  72  73
ATOM     73  C   UNL     1       3.759   1.546  -2.377  1.00  0.00     0.146 C 
BRANCH  73  74
ATOM     74  N   UNL     1       4.863   0.592  -2.373  1.00  0.00    -0.254 NA
ATOM     75  C   UNL     1       5.697   0.636  -3.345  1.00  0.00     0.185 C 
ATOM     76  N   UNL     1       6.725  -0.228  -3.369  1.00  0.00    -0.370 N 
ATOM     77  N   UNL     1       5.710   1.458  -4.410  1.00  0.00    -0.370 N 
ATOM     78  H   UNL     1       6.785  -0.888  -2.607  1.00  0.00     0.159 HD
ATOM     79  H   UNL     1       7.328  -0.348  -4.163  1.00  0.00     0.159 HD
ATOM     80  H   UNL     1       4.999   2.164  -4.522  1.00  0.00     0.159 HD
ATOM     81  H   UNL     1       6.484   1.476  -5.053  1.00  0.00     0.159 HD
ENDBRANCH  73  74
ENDBRANCH  72  73
ENDBRANCH  71  72
ENDBRANCH  45  71
ENDBRANCH   3  45
TORSDOF 20
ENDMDL
MODEL 26
REMARK VINA RESULT:    -4.750      2.806      8.832
REMARK INTER + INTRA:         -19.427
REMARK INTER:                 -15.836
REMARK INTRA:                  -3.591
REMARK UNBOUND:                -5.791
REMARK SMILES CCCCCC(=O)N[C@H](CC(=O)O)C(=O)N[C@H]1C(=O)N[C@H](CCCN=C(N)N)C(=O)N[C@@H]2CC[C@H](O)N(C2=O)[C@@H](CC(C)C)C(=O)N(C)[C@@H](Cc2ccccc2)C(=O)N[C@H](C(C)C)C(=O)O[C@@H]1C
REMARK SMILES IDX 30 1 31 2 29 3 32 5 35 6 37 7 34 8 38 9 33 10 39 11 36 12
REMARK SMILES IDX 40 14 41 15 42 16 43 17 44 18 45 19 46 20 47 21 48 22 49 23
REMARK SMILES IDX 50 24 51 25 52 26 56 27 53 28 55 29 54 30 57 31 58 32 59 33
REMARK SMILES IDX 60 35 61 36 62 37 63 38 64 39 65 40 66 41 67 42 68 43 21 45
REMARK SMILES IDX 20 46 18 47 19 48 17 50 16 52 14 53 15 54 9 56 8 57 6 58
REMARK SMILES IDX 7 59 5 61 4 62 3 63 2 64 1 65 10 66 11 67 12 68 13 69 22 71
REMARK SMILES IDX 23 72 24 73 25 74 26 75 27 76 28 77
REMARK H PARENT 31 4 36 13 59 34 20 49 16 55 8 60 13 70 27 78 27 79 28 80
REMARK H PARENT 28 81
REMARK Flexibility Score:  259.900
ROOT
ATOM      1  O   UNL     1       3.514  -6.664  -4.702  1.00  0.00    -0.273 OA
ATOM      2  N   UNL     1       3.871  -6.026  -6.869  1.00  0.00    -0.343 N 
ATOM      3  C   UNL     1       3.168  -6.686  -5.883  1.00  0.00     0.243 C 
ATOM      4  H   UNL     1       3.548  -6.054  -7.828  1.00  0.00     0.164 HD
ENDROOT
BRANCH   2   5
ATOM      5  C   UNL     1       5.135  -5.366  -6.564  1.00  0.00     0.171 C 
ATOM      6  C   UNL     1       6.714  -5.169  -4.140  1.00  0.00     0.214 C 
ATOM      7  N   UNL     1       5.721  -4.159  -4.425  1.00  0.00    -0.303 N 
ATOM      8  C   UNL     1       7.319  -5.787  -5.391  1.00  0.00     0.057 C 
ATOM      9  C   UNL     1       4.898  -4.220  -5.538  1.00  0.00     0.247 C 
ATOM     10  C   UNL     1       6.225  -6.388  -6.246  1.00  0.00     0.040 C 
ATOM     11  O   UNL     1       3.991  -3.399  -5.730  1.00  0.00    -0.272 OA
BRANCH   6  12
ATOM     12  O   UNL     1       6.105  -6.160  -3.346  1.00  0.00    -0.373 OA
ATOM     13  H   UNL     1       5.200  -6.297  -3.701  1.00  0.00     0.213 HD
ENDBRANCH   6  12
BRANCH   7  14
ATOM     14  C   UNL     1       5.508  -3.119  -3.396  1.00  0.00     0.177 C 
BRANCH  14  15
ATOM     15  C   UNL     1       5.024  -1.757  -3.931  1.00  0.00     0.038 C 
BRANCH  15  16
ATOM     16  C   UNL     1       5.823  -0.479  -3.592  1.00  0.00    -0.015 C 
ATOM     17  C   UNL     1       5.745  -0.119  -2.105  1.00  0.00     0.007 C 
ATOM     18  C   UNL     1       5.277   0.703  -4.402  1.00  0.00     0.007 C 
ENDBRANCH  15  16
ENDBRANCH  14  15
BRANCH  14  19
ATOM     19  C   UNL     1       5.058  -3.775  -2.045  1.00  0.00     0.245 C 
ATOM     20  O   UNL     1       5.922  -3.877  -1.158  1.00  0.00    -0.272 OA
BRANCH  19  21
ATOM     21  N   UNL     1       3.810  -4.334  -1.837  1.00  0.00    -0.332 N 
ATOM     22  C   UNL     1       3.449  -5.715  -2.107  1.00  0.00     0.147 C 
BRANCH  21  23
ATOM     23  C   UNL     1       2.734  -3.455  -1.301  1.00  0.00     0.178 C 
BRANCH  23  24
ATOM     24  C   UNL     1       2.836  -1.977  -1.728  1.00  0.00     0.070 C 
BRANCH  24  25
ATOM     25  C   UNL     1       1.816  -1.022  -1.152  1.00  0.00    -0.045 A 
ATOM     26  C   UNL     1       1.214  -1.277   0.086  1.00  0.00     0.004 A 
ATOM     27  C   UNL     1       1.454   0.136  -1.857  1.00  0.00     0.004 A 
ATOM     28  C   UNL     1       0.259  -0.398   0.603  1.00  0.00     0.000 A 
ATOM     29  C   UNL     1       0.501   1.014  -1.338  1.00  0.00     0.000 A 
ATOM     30  C   UNL     1      -0.098   0.744  -0.109  1.00  0.00     0.000 A 
ENDBRANCH  24  25
ENDBRANCH  23  24
BRANCH  23  31
ATOM     31  C   UNL     1       1.324  -4.076  -1.436  1.00  0.00     0.243 C 
ATOM     32  O   UNL     1       0.601  -3.932  -2.419  1.00  0.00    -0.273 OA
ATOM     33  N   UNL     1       0.863  -4.663  -0.269  1.00  0.00    -0.341 N 
ATOM     34  H   UNL     1       1.510  -4.749   0.518  1.00  0.00     0.164 HD
BRANCH  33  35
ATOM     35  C   UNL     1      -0.489  -5.209  -0.129  1.00  0.00     0.194 C 
BRANCH  35  36
ATOM     36  C   UNL     1      -1.284  -4.634   1.077  1.00  0.00     0.017 C 
ATOM     37  C   UNL     1      -1.791  -3.211   0.787  1.00  0.00     0.010 C 
ATOM     38  C   UNL     1      -0.461  -4.574   2.370  1.00  0.00     0.010 C 
ENDBRANCH  35  36
BRANCH  35  39
ATOM     39  C   UNL     1      -0.512  -6.763  -0.152  1.00  0.00     0.329 C 
ATOM     40  O   UNL     1       0.045  -7.470   0.679  1.00  0.00    -0.250 OA
BRANCH  39  41
ATOM     41  O   UNL     1      -1.298  -7.256  -1.157  1.00  0.00    -0.458 OA
BRANCH  41  42
ATOM     42  C   UNL     1      -0.998  -6.788  -2.494  1.00  0.00     0.205 CG0
ATOM     43  C   UNL     1      -2.310  -6.305  -3.110  1.00  0.00     0.056 C 
ATOM     44  G   UNL     1      -0.364  -7.945  -3.290  1.00  0.00     0.000 G0
ENDBRANCH  41  42
ENDBRANCH  39  41
ENDBRANCH  35  39
ENDBRANCH  33  35
ENDBRANCH  23  31
ENDBRANCH  21  23
ENDBRANCH  19  21
ENDBRANCH  14  19
ENDBRANCH   7  14
ENDBRANCH   2   5
BRANCH   3  45
ATOM     45  C   UNL     1       1.914  -7.431  -6.358  1.00  0.00     0.171 C 
BRANCH  45  46
ATOM     46  N   UNL     1       1.269  -7.926  -5.149  1.00  0.00    -0.342 N 
ATOM     47  C   UNL     1       0.119  -7.368  -4.647  1.00  0.00     0.247 C 
ATOM     48  O   UNL     1      -0.489  -6.462  -5.218  1.00  0.00    -0.273 OA
ATOM     49  H   UNL     1       1.708  -8.712  -4.674  1.00  0.00     0.164 HD
BRANCH  47  50
ATOM     50  C   UNL     1      -0.345  -7.939  -3.299  1.00  0.00     0.212 CG0
ATOM     51  G   UNL     1      -0.994  -6.789  -2.503  1.00  0.00     0.000 G0
BRANCH  50  52
ATOM     52  N   UNL     1      -1.280  -9.010  -3.631  1.00  0.00    -0.339 N 
ATOM     53  C   UNL     1      -0.896 -10.313  -3.835  1.00  0.00     0.243 C 
ATOM     54  O   UNL     1       0.279 -10.669  -3.805  1.00  0.00    -0.273 OA
ATOM     55  H   UNL     1      -2.255  -8.757  -3.779  1.00  0.00     0.164 HD
BRANCH  53  56
ATOM     56  C   UNL     1      -2.047 -11.248  -4.259  1.00  0.00     0.182 C 
BRANCH  56  57
ATOM     57  N   UNL     1      -2.776 -10.698  -5.406  1.00  0.00    -0.344 N 
ATOM     58  C   UNL     1      -2.353 -10.875  -6.700  1.00  0.00     0.220 C 
ATOM     59  O   UNL     1      -1.302 -11.439  -6.984  1.00  0.00    -0.275 OA
ATOM     60  H   UNL     1      -3.700 -10.315  -5.223  1.00  0.00     0.164 HD
BRANCH  58  61
ATOM     61  C   UNL     1      -3.293 -10.271  -7.728  1.00  0.00     0.100 C 
BRANCH  61  62
ATOM     62  C   UNL     1      -4.651  -9.863  -7.156  1.00  0.00     0.010 C 
BRANCH  62  63
ATOM     63  C   UNL     1      -4.922  -8.354  -7.198  1.00  0.00     0.000 C 
BRANCH  63  64
ATOM     64  C   UNL     1      -3.700  -7.489  -6.898  1.00  0.00    -0.003 C 
ATOM     65  C   UNL     1      -4.077  -6.020  -6.767  1.00  0.00     0.004 C 
ENDBRANCH  63  64
ENDBRANCH  62  63
ENDBRANCH  61  62
ENDBRANCH  58  61
ENDBRANCH  56  57
BRANCH  56  66
ATOM     66  C   UNL     1      -2.972 -11.566  -3.085  1.00  0.00     0.157 C 
BRANCH  66  67
ATOM     67  C   UNL     1      -4.327 -10.948  -3.278  1.00  0.00     0.305 C 
ATOM     68  O   UNL     1      -5.353 -11.522  -3.610  1.00  0.00    -0.252 OA
BRANCH  67  69
ATOM     69  O   UNL     1      -4.335  -9.632  -2.991  1.00  0.00    -0.481 OA
ATOM     70  H   UNL     1      -3.683  -9.238  -3.608  1.00  0.00     0.296 HD
ENDBRANCH  67  69
ENDBRANCH  66  67
ENDBRANCH  56  66
ENDBRANCH  53  56
ENDBRANCH  50  52
ENDBRANCH  47  50
ENDBRANCH  45  46
BRANCH  45  71
ATOM     71  C   UNL     1       2.297  -8.576  -7.302  1.00  0.00     0.037 C 
BRANCH  71  72
ATOM     72  C   UNL     1       1.890  -9.942  -6.746  1.00  0.00     0.026 C 
BRANCH  72  73
ATOM     73  C   UNL     1       3.110 -10.782  -6.372  1.00  0.00     0.146 C 
BRANCH  73  74
ATOM     74  N   UNL     1       3.754 -10.148  -5.226  1.00  0.00    -0.254 NA
ATOM     75  C   UNL     1       3.803 -10.806  -4.127  1.00  0.00     0.185 C 
ATOM     76  N   UNL     1       4.391 -10.250  -3.055  1.00  0.00    -0.370 N 
ATOM     77  N   UNL     1       3.335 -12.037  -3.858  1.00  0.00    -0.370 N 
ATOM     78  H   UNL     1       4.764  -9.319  -3.170  1.00  0.00     0.159 HD
ATOM     79  H   UNL     1       4.340 -10.641  -2.131  1.00  0.00     0.159 HD
ATOM     80  H   UNL     1       2.872 -12.578  -4.572  1.00  0.00     0.159 HD
ATOM     81  H   UNL     1       3.535 -12.500  -2.986  1.00  0.00     0.159 HD
ENDBRANCH  73  74
ENDBRANCH  72  73
ENDBRANCH  71  72
ENDBRANCH  45  71
ENDBRANCH   3  45
TORSDOF 20
ENDMDL
MODEL 27
REMARK VINA RESULT:    -4.634      1.802      2.856
REMARK INTER + INTRA:         -19.094
REMARK INTER:                 -15.619
REMARK INTRA:                  -3.475
REMARK UNBOUND:                -5.791
REMARK SMILES CCCCCC(=O)N[C@H](CC(=O)O)C(=O)N[C@H]1C(=O)N[C@H](CCCN=C(N)N)C(=O)N[C@@H]2CC[C@H](O)N(C2=O)[C@@H](CC(C)C)C(=O)N(C)[C@@H](Cc2ccccc2)C(=O)N[C@H](C(C)C)C(=O)O[C@@H]1C
REMARK SMILES IDX 30 1 31 2 29 3 32 5 35 6 37 7 34 8 38 9 33 10 39 11 36 12
REMARK SMILES IDX 40 14 41 15 42 16 43 17 44 18 45 19 46 20 47 21 48 22 49 23
REMARK SMILES IDX 50 24 51 25 52 26 56 27 53 28 55 29 54 30 57 31 58 32 59 33
REMARK SMILES IDX 60 35 61 36 62 37 63 38 64 39 65 40 66 41 67 42 68 43 21 45
REMARK SMILES IDX 20 46 18 47 19 48 17 50 16 52 14 53 15 54 9 56 8 57 6 58
REMARK SMILES IDX 7 59 5 61 4 62 3 63 2 64 1 65 10 66 11 67 12 68 13 69 22 71
REMARK SMILES IDX 23 72 24 73 25 74 26 75 27 76 28 77
REMARK H PARENT 31 4 36 13 59 34 20 49 16 55 8 60 13 70 27 78 27 79 28 80
REMARK H PARENT 28 81
REMARK Flexibility Score:  259.900
ROOT
ATOM      1  O   UNL     1       7.465  -4.449  -2.566  1.00  0.00    -0.273 OA
ATOM      2  N   UNL     1       5.910  -3.962  -4.172  1.00  0.00    -0.343 N 
ATOM      3  C   UNL     1       6.290  -4.250  -2.878  1.00  0.00     0.243 C 
ATOM      4  H   UNL     1       4.936  -3.790  -4.389  1.00  0.00     0.164 HD
ENDROOT
BRANCH   2   5
ATOM      5  C   UNL     1       6.884  -3.999  -5.257  1.00  0.00     0.171 C 
ATOM      6  C   UNL     1       6.608  -4.152  -8.139  1.00  0.00     0.214 C 
ATOM      7  N   UNL     1       6.724  -5.370  -7.371  1.00  0.00    -0.303 N 
ATOM      8  C   UNL     1       7.330  -2.972  -7.509  1.00  0.00     0.057 C 
ATOM      9  C   UNL     1       6.808  -5.370  -5.988  1.00  0.00     0.247 C 
ATOM     10  C   UNL     1       6.801  -2.735  -6.111  1.00  0.00     0.040 C 
ATOM     11  O   UNL     1       6.820  -6.420  -5.332  1.00  0.00    -0.272 OA
BRANCH   6  12
ATOM     12  O   UNL     1       5.237  -3.868  -8.289  1.00  0.00    -0.373 OA
ATOM     13  H   UNL     1       4.924  -4.365  -9.075  1.00  0.00     0.213 HD
ENDBRANCH   6  12
BRANCH   7  14
ATOM     14  C   UNL     1       6.603  -6.644  -8.111  1.00  0.00     0.177 C 
BRANCH  14  15
ATOM     15  C   UNL     1       7.938  -7.319  -8.478  1.00  0.00     0.038 C 
BRANCH  15  16
ATOM     16  C   UNL     1       8.277  -7.578  -9.963  1.00  0.00    -0.015 C 
ATOM     17  C   UNL     1       7.779  -6.457 -10.880  1.00  0.00     0.007 C 
ATOM     18  C   UNL     1       7.634  -8.894 -10.420  1.00  0.00     0.007 C 
ENDBRANCH  15  16
ENDBRANCH  14  15
BRANCH  14  19
ATOM     19  C   UNL     1       5.292  -7.394  -7.690  1.00  0.00     0.245 C 
ATOM     20  O   UNL     1       4.300  -6.690  -7.441  1.00  0.00    -0.272 OA
BRANCH  19  21
ATOM     21  N   UNL     1       5.220  -8.759  -7.476  1.00  0.00    -0.332 N 
ATOM     22  C   UNL     1       6.300  -9.593  -6.979  1.00  0.00     0.147 C 
BRANCH  21  23
ATOM     23  C   UNL     1       3.936  -9.446  -7.789  1.00  0.00     0.178 C 
BRANCH  23  24
ATOM     24  C   UNL     1       4.027 -10.509  -8.903  1.00  0.00     0.070 C 
BRANCH  24  25
ATOM     25  C   UNL     1       3.512 -10.121 -10.269  1.00  0.00    -0.045 A 
ATOM     26  C   UNL     1       2.560 -10.910 -10.927  1.00  0.00     0.004 A 
ATOM     27  C   UNL     1       3.987  -8.962 -10.902  1.00  0.00     0.004 A 
ATOM     28  C   UNL     1       2.101 -10.554 -12.197  1.00  0.00     0.000 A 
ATOM     29  C   UNL     1       3.526  -8.607 -12.170  1.00  0.00     0.000 A 
ATOM     30  C   UNL     1       2.586  -9.405 -12.819  1.00  0.00     0.000 A 
ENDBRANCH  24  25
ENDBRANCH  23  24
BRANCH  23  31
ATOM     31  C   UNL     1       3.166  -9.892  -6.524  1.00  0.00     0.243 C 
ATOM     32  O   UNL     1       3.578 -10.733  -5.730  1.00  0.00    -0.273 OA
ATOM     33  N   UNL     1       1.876  -9.393  -6.457  1.00  0.00    -0.341 N 
ATOM     34  H   UNL     1       1.587  -8.699  -7.151  1.00  0.00     0.164 HD
BRANCH  33  35
ATOM     35  C   UNL     1       0.924  -9.777  -5.410  1.00  0.00     0.194 C 
BRANCH  35  36
ATOM     36  C   UNL     1      -0.501 -10.106  -5.938  1.00  0.00     0.017 C 
ATOM     37  C   UNL     1      -1.507  -9.008  -5.553  1.00  0.00     0.010 C 
ATOM     38  C   UNL     1      -1.049 -11.436  -5.407  1.00  0.00     0.010 C 
ENDBRANCH  35  36
BRANCH  35  39
ATOM     39  C   UNL     1       0.888  -8.761  -4.235  1.00  0.00     0.329 C 
ATOM     40  O   UNL     1       0.675  -9.069  -3.068  1.00  0.00    -0.250 OA
BRANCH  39  41
ATOM     41  O   UNL     1       1.206  -7.492  -4.633  1.00  0.00    -0.458 OA
BRANCH  41  42
ATOM     42  C   UNL     1       2.340  -6.879  -3.976  1.00  0.00     0.205 CG0
ATOM     43  C   UNL     1       3.072  -7.980  -3.212  1.00  0.00     0.056 C 
ATOM     44  G   UNL     1       1.826  -5.759  -3.049  1.00  0.00     0.000 G0
ENDBRANCH  41  42
ENDBRANCH  39  41
ENDBRANCH  35  39
ENDBRANCH  33  35
ENDBRANCH  23  31
ENDBRANCH  21  23
ENDBRANCH  19  21
ENDBRANCH  14  19
ENDBRANCH   7  14
ENDBRANCH   2   5
BRANCH   3  45
ATOM     45  C   UNL     1       5.151  -4.285  -1.851  1.00  0.00     0.171 C 
BRANCH  45  46
ATOM     46  N   UNL     1       3.953  -4.633  -2.603  1.00  0.00    -0.342 N 
ATOM     47  C   UNL     1       2.929  -5.367  -2.058  1.00  0.00     0.247 C 
ATOM     48  O   UNL     1       2.914  -5.720  -0.879  1.00  0.00    -0.273 OA
ATOM     49  H   UNL     1       3.899  -4.312  -3.568  1.00  0.00     0.164 HD
BRANCH  47  50
ATOM     50  C   UNL     1       1.807  -5.743  -3.036  1.00  0.00     0.212 CG0
ATOM     51  G   UNL     1       2.331  -6.884  -3.932  1.00  0.00     0.000 G0
BRANCH  50  52
ATOM     52  N   UNL     1       0.677  -6.139  -2.200  1.00  0.00    -0.339 N 
ATOM     53  C   UNL     1      -0.633  -5.895  -2.534  1.00  0.00     0.243 C 
ATOM     54  O   UNL     1      -0.954  -5.274  -3.544  1.00  0.00    -0.273 OA
ATOM     55  H   UNL     1       0.883  -6.559  -1.296  1.00  0.00     0.164 HD
BRANCH  53  56
ATOM     56  C   UNL     1      -1.646  -6.327  -1.455  1.00  0.00     0.182 C 
BRANCH  56  57
ATOM     57  N   UNL     1      -1.077  -6.185  -0.111  1.00  0.00    -0.344 N 
ATOM     58  C   UNL     1      -1.259  -5.055   0.649  1.00  0.00     0.220 C 
ATOM     59  O   UNL     1      -1.844  -4.062   0.232  1.00  0.00    -0.275 OA
ATOM     60  H   UNL     1      -0.675  -7.018   0.309  1.00  0.00     0.164 HD
BRANCH  58  61
ATOM     61  C   UNL     1      -0.632  -5.151   2.028  1.00  0.00     0.100 C 
BRANCH  61  62
ATOM     62  C   UNL     1      -0.846  -3.907   2.890  1.00  0.00     0.010 C 
BRANCH  62  63
ATOM     63  C   UNL     1      -1.794  -4.122   4.077  1.00  0.00     0.000 C 
BRANCH  63  64
ATOM     64  C   UNL     1      -2.700  -5.345   3.942  1.00  0.00    -0.003 C 
ATOM     65  C   UNL     1      -3.834  -5.311   4.956  1.00  0.00     0.004 C 
ENDBRANCH  63  64
ENDBRANCH  62  63
ENDBRANCH  61  62
ENDBRANCH  58  61
ENDBRANCH  56  57
BRANCH  56  66
ATOM     66  C   UNL     1      -2.171  -7.738  -1.712  1.00  0.00     0.157 C 
BRANCH  66  67
ATOM     67  C   UNL     1      -2.545  -8.422  -0.429  1.00  0.00     0.305 C 
ATOM     68  O   UNL     1      -2.114  -9.486  -0.013  1.00  0.00    -0.252 OA
BRANCH  67  69
ATOM     69  O   UNL     1      -3.416  -7.699   0.301  1.00  0.00    -0.481 OA
ATOM     70  H   UNL     1      -4.196  -8.282   0.410  1.00  0.00     0.296 HD
ENDBRANCH  67  69
ENDBRANCH  66  67
ENDBRANCH  56  66
ENDBRANCH  53  56
ENDBRANCH  50  52
ENDBRANCH  47  50
ENDBRANCH  45  46
BRANCH  45  71
ATOM     71  C   UNL     1       5.010  -2.922  -1.164  1.00  0.00     0.037 C 
BRANCH  71  72
ATOM     72  C   UNL     1       5.735  -1.813  -1.930  1.00  0.00     0.026 C 
BRANCH  72  73
ATOM     73  C   UNL     1       4.982  -0.487  -1.843  1.00  0.00     0.146 C 
BRANCH  73  74
ATOM     74  N   UNL     1       4.072  -0.414  -2.982  1.00  0.00    -0.254 NA
ATOM     75  C   UNL     1       4.560  -0.067  -4.116  1.00  0.00     0.185 C 
ATOM     76  N   UNL     1       3.748   0.009  -5.183  1.00  0.00    -0.370 N 
ATOM     77  N   UNL     1       5.828   0.252  -4.429  1.00  0.00    -0.370 N 
ATOM     78  H   UNL     1       2.773  -0.209  -5.033  1.00  0.00     0.159 HD
ATOM     79  H   UNL     1       4.025   0.409  -6.062  1.00  0.00     0.159 HD
ATOM     80  H   UNL     1       6.550   0.235  -3.725  1.00  0.00     0.159 HD
ATOM     81  H   UNL     1       6.116   0.398  -5.382  1.00  0.00     0.159 HD
ENDBRANCH  73  74
ENDBRANCH  72  73
ENDBRANCH  71  72
ENDBRANCH  45  71
ENDBRANCH   3  45
TORSDOF 20
ENDMDL
MODEL 28
REMARK VINA RESULT:    -4.590      3.662      8.205
REMARK INTER + INTRA:         -18.967
REMARK INTER:                 -16.191
REMARK INTRA:                  -2.775
REMARK UNBOUND:                -5.791
REMARK SMILES CCCCCC(=O)N[C@H](CC(=O)O)C(=O)N[C@H]1C(=O)N[C@H](CCCN=C(N)N)C(=O)N[C@@H]2CC[C@H](O)N(C2=O)[C@@H](CC(C)C)C(=O)N(C)[C@@H](Cc2ccccc2)C(=O)N[C@H](C(C)C)C(=O)O[C@@H]1C
REMARK SMILES IDX 30 1 31 2 29 3 32 5 35 6 37 7 34 8 38 9 33 10 39 11 36 12
REMARK SMILES IDX 40 14 41 15 42 16 43 17 44 18 45 19 46 20 47 21 48 22 49 23
REMARK SMILES IDX 50 24 51 25 52 26 56 27 53 28 55 29 54 30 57 31 58 32 59 33
REMARK SMILES IDX 60 35 61 36 62 37 63 38 64 39 65 40 66 41 67 42 68 43 21 45
REMARK SMILES IDX 20 46 18 47 19 48 17 50 16 52 14 53 15 54 9 56 8 57 6 58
REMARK SMILES IDX 7 59 5 61 4 62 3 63 2 64 1 65 10 66 11 67 12 68 13 69 22 71
REMARK SMILES IDX 23 72 24 73 25 74 26 75 27 76 28 77
REMARK H PARENT 31 4 36 13 59 34 20 49 16 55 8 60 13 70 27 78 27 79 28 80
REMARK H PARENT 28 81
REMARK Flexibility Score:  259.900
ROOT
ATOM      1  O   UNL     1       0.191  -9.746  -3.319  1.00  0.00    -0.273 OA
ATOM      2  N   UNL     1       0.957  -7.591  -3.354  1.00  0.00    -0.343 N 
ATOM      3  C   UNL     1      -0.001  -8.549  -3.101  1.00  0.00     0.243 C 
ATOM      4  H   UNL     1       0.769  -6.617  -3.149  1.00  0.00     0.164 HD
ENDROOT
BRANCH   2   5
ATOM      5  C   UNL     1       2.210  -7.950  -4.009  1.00  0.00     0.171 C 
ATOM      6  C   UNL     1       4.989  -7.544  -3.289  1.00  0.00     0.214 C 
ATOM      7  N   UNL     1       4.312  -6.554  -4.094  1.00  0.00    -0.303 N 
ATOM      8  C   UNL     1       4.458  -8.954  -3.496  1.00  0.00     0.057 C 
ATOM      9  C   UNL     1       2.973  -6.661  -4.431  1.00  0.00     0.247 C 
ATOM     10  C   UNL     1       2.976  -8.992  -3.196  1.00  0.00     0.040 C 
ATOM     11  O   UNL     1       2.378  -5.767  -5.047  1.00  0.00    -0.272 OA
BRANCH   6  12
ATOM     12  O   UNL     1       4.860  -7.163  -1.939  1.00  0.00    -0.373 OA
ATOM     13  H   UNL     1       5.640  -7.521  -1.463  1.00  0.00     0.213 HD
ENDBRANCH   6  12
BRANCH   7  14
ATOM     14  C   UNL     1       5.071  -5.330  -4.430  1.00  0.00     0.177 C 
BRANCH  14  15
ATOM     15  C   UNL     1       5.761  -5.344  -5.807  1.00  0.00     0.038 C 
BRANCH  15  16
ATOM     16  C   UNL     1       6.808  -4.259  -6.144  1.00  0.00    -0.015 C 
ATOM     17  C   UNL     1       7.354  -3.565  -4.893  1.00  0.00     0.007 C 
ATOM     18  C   UNL     1       6.178  -3.193  -7.049  1.00  0.00     0.007 C 
ENDBRANCH  15  16
ENDBRANCH  14  15
BRANCH  14  19
ATOM     19  C   UNL     1       4.406  -4.078  -3.761  1.00  0.00     0.245 C 
ATOM     20  O   UNL     1       3.746  -3.332  -4.502  1.00  0.00    -0.272 OA
BRANCH  19  21
ATOM     21  N   UNL     1       4.608  -3.710  -2.442  1.00  0.00    -0.332 N 
ATOM     22  C   UNL     1       5.692  -4.173  -1.595  1.00  0.00     0.147 C 
BRANCH  21  23
ATOM     23  C   UNL     1       3.632  -2.770  -1.825  1.00  0.00     0.178 C 
BRANCH  23  24
ATOM     24  C   UNL     1       3.425  -1.453  -2.600  1.00  0.00     0.070 C 
BRANCH  24  25
ATOM     25  C   UNL     1       4.666  -0.712  -3.041  1.00  0.00    -0.045 A 
ATOM     26  C   UNL     1       5.596  -0.247  -2.103  1.00  0.00     0.004 A 
ATOM     27  C   UNL     1       4.902  -0.475  -4.404  1.00  0.00     0.004 A 
ATOM     28  C   UNL     1       6.732   0.451  -2.517  1.00  0.00     0.000 A 
ATOM     29  C   UNL     1       6.038   0.222  -4.817  1.00  0.00     0.000 A 
ATOM     30  C   UNL     1       6.951   0.688  -3.873  1.00  0.00     0.000 A 
ENDBRANCH  24  25
ENDBRANCH  23  24
BRANCH  23  31
ATOM     31  C   UNL     1       2.329  -3.468  -1.366  1.00  0.00     0.243 C 
ATOM     32  O   UNL     1       1.963  -4.570  -1.765  1.00  0.00    -0.273 OA
ATOM     33  N   UNL     1       1.508  -2.657  -0.601  1.00  0.00    -0.341 N 
ATOM     34  H   UNL     1       1.865  -1.746  -0.305  1.00  0.00     0.164 HD
BRANCH  33  35
ATOM     35  C   UNL     1       0.172  -3.066  -0.157  1.00  0.00     0.194 C 
BRANCH  35  36
ATOM     36  C   UNL     1      -0.779  -1.880   0.169  1.00  0.00     0.017 C 
ATOM     37  C   UNL     1      -2.214  -2.167  -0.307  1.00  0.00     0.010 C 
ATOM     38  C   UNL     1      -0.339  -0.558  -0.472  1.00  0.00     0.010 C 
ENDBRANCH  35  36
BRANCH  35  39
ATOM     39  C   UNL     1       0.219  -4.106   0.997  1.00  0.00     0.329 C 
ATOM     40  O   UNL     1       0.506  -3.832   2.157  1.00  0.00    -0.250 OA
BRANCH  39  41
ATOM     41  O   UNL     1      -0.182  -5.349   0.593  1.00  0.00    -0.458 OA
BRANCH  41  42
ATOM     42  C   UNL     1      -0.253  -6.366   1.621  1.00  0.00     0.205 CG0
ATOM     43  C   UNL     1       1.121  -7.028   1.700  1.00  0.00     0.056 C 
ATOM     44  G   UNL     1      -1.368  -7.364   1.249  1.00  0.00     0.000 G0
ENDBRANCH  41  42
ENDBRANCH  39  41
ENDBRANCH  35  39
ENDBRANCH  33  35
ENDBRANCH  23  31
ENDBRANCH  21  23
ENDBRANCH  19  21
ENDBRANCH  14  19
ENDBRANCH   7  14
ENDBRANCH   2   5
BRANCH   3  45
ATOM     45  C   UNL     1      -1.316  -8.023  -2.510  1.00  0.00     0.171 C 
BRANCH  45  46
ATOM     46  N   UNL     1      -1.157  -8.103  -1.064  1.00  0.00    -0.342 N 
ATOM     47  C   UNL     1      -1.753  -7.212  -0.207  1.00  0.00     0.247 C 
ATOM     48  O   UNL     1      -2.521  -6.328  -0.590  1.00  0.00    -0.273 OA
ATOM     49  H   UNL     1      -0.575  -8.856  -0.701  1.00  0.00     0.164 HD
BRANCH  47  50
ATOM     50  C   UNL     1      -1.373  -7.378   1.271  1.00  0.00     0.212 CG0
ATOM     51  G   UNL     1      -0.251  -6.367   1.581  1.00  0.00     0.000 G0
BRANCH  50  52
ATOM     52  N   UNL     1      -2.600  -7.125   2.020  1.00  0.00    -0.339 N 
ATOM     53  C   UNL     1      -3.598  -8.057   2.173  1.00  0.00     0.243 C 
ATOM     54  O   UNL     1      -3.557  -9.164   1.643  1.00  0.00    -0.273 OA
ATOM     55  H   UNL     1      -2.744  -6.187   2.390  1.00  0.00     0.164 HD
BRANCH  53  56
ATOM     56  C   UNL     1      -4.835  -7.533   2.930  1.00  0.00     0.182 C 
BRANCH  56  57
ATOM     57  N   UNL     1      -4.552  -7.382   4.361  1.00  0.00    -0.344 N 
ATOM     58  C   UNL     1      -4.796  -6.213   5.040  1.00  0.00     0.220 C 
ATOM     59  O   UNL     1      -5.197  -5.195   4.486  1.00  0.00    -0.275 OA
ATOM     60  H   UNL     1      -4.316  -8.226   4.876  1.00  0.00     0.164 HD
BRANCH  58  61
ATOM     61  C   UNL     1      -4.483  -6.302   6.522  1.00  0.00     0.100 C 
BRANCH  61  62
ATOM     62  C   UNL     1      -4.896  -7.628   7.161  1.00  0.00     0.010 C 
BRANCH  62  63
ATOM     63  C   UNL     1      -5.244  -7.524   8.651  1.00  0.00     0.000 C 
BRANCH  63  64
ATOM     64  C   UNL     1      -6.588  -6.857   8.936  1.00  0.00    -0.003 C 
ATOM     65  C   UNL     1      -6.516  -5.965  10.168  1.00  0.00     0.004 C 
ENDBRANCH  63  64
ENDBRANCH  62  63
ENDBRANCH  61  62
ENDBRANCH  58  61
ENDBRANCH  56  57
BRANCH  56  66
ATOM     66  C   UNL     1      -6.060  -8.409   2.675  1.00  0.00     0.157 C 
BRANCH  66  67
ATOM     67  C   UNL     1      -6.170  -9.503   3.697  1.00  0.00     0.305 C 
ATOM     68  O   UNL     1      -5.728 -10.639   3.605  1.00  0.00    -0.252 OA
BRANCH  67  69
ATOM     69  O   UNL     1      -6.791  -9.095   4.820  1.00  0.00    -0.481 OA
ATOM     70  H   UNL     1      -7.676  -8.797   4.521  1.00  0.00     0.296 HD
ENDBRANCH  67  69
ENDBRANCH  66  67
ENDBRANCH  56  66
ENDBRANCH  53  56
ENDBRANCH  50  52
ENDBRANCH  47  50
ENDBRANCH  45  46
BRANCH  45  71
ATOM     71  C   UNL     1      -2.497  -8.869  -2.998  1.00  0.00     0.037 C 
BRANCH  71  72
ATOM     72  C   UNL     1      -3.764  -8.033  -3.190  1.00  0.00     0.026 C 
BRANCH  72  73
ATOM     73  C   UNL     1      -3.485  -6.770  -4.003  1.00  0.00     0.146 C 
BRANCH  73  74
ATOM     74  N   UNL     1      -3.705  -7.088  -5.410  1.00  0.00    -0.254 NA
ATOM     75  C   UNL     1      -4.098  -6.143  -6.183  1.00  0.00     0.185 C 
ATOM     76  N   UNL     1      -4.308  -6.404  -7.483  1.00  0.00    -0.370 N 
ATOM     77  N   UNL     1      -4.349  -4.857  -5.884  1.00  0.00    -0.370 N 
ATOM     78  H   UNL     1      -4.149  -7.353  -7.791  1.00  0.00     0.159 HD
ATOM     79  H   UNL     1      -4.751  -5.758  -8.113  1.00  0.00     0.159 HD
ATOM     80  H   UNL     1      -4.230  -4.515  -4.943  1.00  0.00     0.159 HD
ATOM     81  H   UNL     1      -4.543  -4.176  -6.601  1.00  0.00     0.159 HD
ENDBRANCH  73  74
ENDBRANCH  72  73
ENDBRANCH  71  72
ENDBRANCH  45  71
ENDBRANCH   3  45
TORSDOF 20
ENDMDL
MODEL 29
REMARK VINA RESULT:    -4.500      3.570      9.304
REMARK INTER + INTRA:         -18.708
REMARK INTER:                 -16.663
REMARK INTRA:                  -2.045
REMARK UNBOUND:                -5.791
REMARK SMILES CCCCCC(=O)N[C@H](CC(=O)O)C(=O)N[C@H]1C(=O)N[C@H](CCCN=C(N)N)C(=O)N[C@@H]2CC[C@H](O)N(C2=O)[C@@H](CC(C)C)C(=O)N(C)[C@@H](Cc2ccccc2)C(=O)N[C@H](C(C)C)C(=O)O[C@@H]1C
REMARK SMILES IDX 30 1 31 2 29 3 32 5 35 6 37 7 34 8 38 9 33 10 39 11 36 12
REMARK SMILES IDX 40 14 41 15 42 16 43 17 44 18 45 19 46 20 47 21 48 22 49 23
REMARK SMILES IDX 50 24 51 25 52 26 56 27 53 28 55 29 54 30 57 31 58 32 59 33
REMARK SMILES IDX 60 35 61 36 62 37 63 38 64 39 65 40 66 41 67 42 68 43 21 45
REMARK SMILES IDX 20 46 18 47 19 48 17 50 16 52 14 53 15 54 9 56 8 57 6 58
REMARK SMILES IDX 7 59 5 61 4 62 3 63 2 64 1 65 10 66 11 67 12 68 13 69 22 71
REMARK SMILES IDX 23 72 24 73 25 74 26 75 27 76 28 77
REMARK H PARENT 31 4 36 13 59 34 20 49 16 55 8 60 13 70 27 78 27 79 28 80
REMARK H PARENT 28 81
REMARK Flexibility Score:  259.900
ROOT
ATOM      1  O   UNL     1      -1.284  -1.121   0.763  1.00  0.00    -0.273 OA
ATOM      2  N   UNL     1      -0.039  -2.818   1.658  1.00  0.00    -0.343 N 
ATOM      3  C   UNL     1      -0.275  -1.826   0.731  1.00  0.00     0.243 C 
ATOM      4  H   UNL     1       0.809  -3.369   1.609  1.00  0.00     0.164 HD
ENDROOT
BRANCH   2   5
ATOM      5  C   UNL     1      -1.046  -3.154   2.659  1.00  0.00     0.171 C 
ATOM      6  C   UNL     1      -1.341  -5.395   4.474  1.00  0.00     0.214 C 
ATOM      7  N   UNL     1      -1.949  -5.456   3.166  1.00  0.00    -0.303 N 
ATOM      8  C   UNL     1      -1.240  -3.981   5.025  1.00  0.00     0.057 C 
ATOM      9  C   UNL     1      -1.805  -4.443   2.232  1.00  0.00     0.247 C 
ATOM     10  C   UNL     1      -0.455  -3.112   4.067  1.00  0.00     0.040 C 
ATOM     11  O   UNL     1      -2.256  -4.540   1.083  1.00  0.00    -0.272 OA
BRANCH   6  12
ATOM     12  O   UNL     1      -0.063  -5.980   4.382  1.00  0.00    -0.373 OA
ATOM     13  H   UNL     1       0.058  -6.261   3.450  1.00  0.00     0.213 HD
ENDBRANCH   6  12
BRANCH   7  14
ATOM     14  C   UNL     1      -2.621  -6.720   2.797  1.00  0.00     0.177 C 
BRANCH  14  15
ATOM     15  C   UNL     1      -4.143  -6.748   3.035  1.00  0.00     0.038 C 
BRANCH  15  16
ATOM     16  C   UNL     1      -4.686  -6.858   4.477  1.00  0.00    -0.015 C 
ATOM     17  C   UNL     1      -5.865  -7.829   4.585  1.00  0.00     0.007 C 
ATOM     18  C   UNL     1      -5.153  -5.479   4.962  1.00  0.00     0.007 C 
ENDBRANCH  15  16
ENDBRANCH  14  15
BRANCH  14  19
ATOM     19  C   UNL     1      -1.878  -7.400   1.595  1.00  0.00     0.245 C 
ATOM     20  O   UNL     1      -0.662  -7.170   1.488  1.00  0.00    -0.272 OA
BRANCH  19  21
ATOM     21  N   UNL     1      -2.515  -8.132   0.609  1.00  0.00    -0.332 N 
ATOM     22  C   UNL     1      -3.946  -8.144   0.360  1.00  0.00     0.147 C 
BRANCH  21  23
ATOM     23  C   UNL     1      -1.677  -8.993  -0.270  1.00  0.00     0.178 C 
BRANCH  23  24
ATOM     24  C   UNL     1      -2.159 -10.453  -0.393  1.00  0.00     0.070 C 
BRANCH  24  25
ATOM     25  C   UNL     1      -2.826 -10.850  -1.689  1.00  0.00    -0.045 A 
ATOM     26  C   UNL     1      -4.086 -10.344  -2.033  1.00  0.00     0.004 A 
ATOM     27  C   UNL     1      -2.190 -11.741  -2.568  1.00  0.00     0.004 A 
ATOM     28  C   UNL     1      -4.703 -10.730  -3.225  1.00  0.00     0.000 A 
ATOM     29  C   UNL     1      -2.808 -12.124  -3.759  1.00  0.00     0.000 A 
ATOM     30  C   UNL     1      -4.066 -11.620  -4.085  1.00  0.00     0.000 A 
ENDBRANCH  24  25
ENDBRANCH  23  24
BRANCH  23  31
ATOM     31  C   UNL     1      -1.312  -8.312  -1.611  1.00  0.00     0.243 C 
ATOM     32  O   UNL     1      -2.092  -7.630  -2.269  1.00  0.00    -0.273 OA
ATOM     33  N   UNL     1      -0.075  -8.691  -2.104  1.00  0.00    -0.341 N 
ATOM     34  H   UNL     1       0.529  -9.266  -1.512  1.00  0.00     0.164 HD
BRANCH  33  35
ATOM     35  C   UNL     1       0.427  -8.265  -3.414  1.00  0.00     0.194 C 
BRANCH  35  36
ATOM     36  C   UNL     1       0.428  -9.388  -4.489  1.00  0.00     0.017 C 
ATOM     37  C   UNL     1      -0.879  -9.388  -5.300  1.00  0.00     0.010 C 
ATOM     38  C   UNL     1       0.600 -10.792  -3.897  1.00  0.00     0.010 C 
ENDBRANCH  35  36
BRANCH  35  39
ATOM     39  C   UNL     1       1.803  -7.548  -3.322  1.00  0.00     0.329 C 
ATOM     40  O   UNL     1       2.881  -8.108  -3.485  1.00  0.00    -0.250 OA
BRANCH  39  41
ATOM     41  O   UNL     1       1.675  -6.201  -3.126  1.00  0.00    -0.458 OA
BRANCH  41  42
ATOM     42  C   UNL     1       1.588  -5.759  -1.750  1.00  0.00     0.205 CG0
ATOM     43  C   UNL     1       0.218  -5.109  -1.567  1.00  0.00     0.056 C 
ATOM     44  G   UNL     1       2.747  -4.780  -1.473  1.00  0.00     0.000 G0
ENDBRANCH  41  42
ENDBRANCH  39  41
ENDBRANCH  35  39
ENDBRANCH  33  35
ENDBRANCH  23  31
ENDBRANCH  21  23
ENDBRANCH  19  21
ENDBRANCH  14  19
ENDBRANCH   7  14
ENDBRANCH   2   5
BRANCH   3  45
ATOM     45  C   UNL     1       0.816  -1.648  -0.333  1.00  0.00     0.171 C 
BRANCH  45  46
ATOM     46  N   UNL     1       1.524  -2.920  -0.388  1.00  0.00    -0.342 N 
ATOM     47  C   UNL     1       2.168  -3.356  -1.519  1.00  0.00     0.247 C 
ATOM     48  O   UNL     1       2.258  -2.675  -2.541  1.00  0.00    -0.273 OA
ATOM     49  H   UNL     1       1.522  -3.491   0.455  1.00  0.00     0.164 HD
BRANCH  47  50
ATOM     50  C   UNL     1       2.750  -4.774  -1.430  1.00  0.00     0.212 CG0
ATOM     51  G   UNL     1       1.616  -5.766  -1.756  1.00  0.00     0.000 G0
BRANCH  50  52
ATOM     52  N   UNL     1       3.842  -4.808  -2.399  1.00  0.00    -0.339 N 
ATOM     53  C   UNL     1       5.135  -4.458  -2.093  1.00  0.00     0.243 C 
ATOM     54  O   UNL     1       5.463  -4.037  -0.987  1.00  0.00    -0.273 OA
ATOM     55  H   UNL     1       3.613  -5.042  -3.363  1.00  0.00     0.164 HD
BRANCH  53  56
ATOM     56  C   UNL     1       6.096  -4.490  -3.299  1.00  0.00     0.182 C 
BRANCH  56  57
ATOM     57  N   UNL     1       6.930  -5.696  -3.276  1.00  0.00    -0.344 N 
ATOM     58  C   UNL     1       6.598  -6.807  -2.540  1.00  0.00     0.220 C 
ATOM     59  O   UNL     1       5.624  -6.842  -1.796  1.00  0.00    -0.275 OA
ATOM     60  H   UNL     1       7.687  -5.745  -3.953  1.00  0.00     0.164 HD
BRANCH  58  61
ATOM     61  C   UNL     1       7.573  -7.956  -2.712  1.00  0.00     0.100 C 
BRANCH  61  62
ATOM     62  C   UNL     1       7.000  -9.139  -3.492  1.00  0.00     0.010 C 
BRANCH  62  63
ATOM     63  C   UNL     1       6.110 -10.069  -2.658  1.00  0.00     0.000 C 
BRANCH  63  64
ATOM     64  C   UNL     1       6.235 -11.548  -3.021  1.00  0.00    -0.003 C 
ATOM     65  C   UNL     1       4.909 -12.275  -2.852  1.00  0.00     0.004 C 
ENDBRANCH  63  64
ENDBRANCH  62  63
ENDBRANCH  61  62
ENDBRANCH  58  61
ENDBRANCH  56  57
BRANCH  56  66
ATOM     66  C   UNL     1       6.930  -3.213  -3.384  1.00  0.00     0.157 C 
BRANCH  66  67
ATOM     67  C   UNL     1       6.710  -2.506  -4.690  1.00  0.00     0.305 C 
ATOM     68  O   UNL     1       6.636  -1.299  -4.867  1.00  0.00    -0.252 OA
BRANCH  67  69
ATOM     69  O   UNL     1       6.646  -3.359  -5.730  1.00  0.00    -0.481 OA
ATOM     70  H   UNL     1       6.661  -2.786  -6.525  1.00  0.00     0.296 HD
ENDBRANCH  67  69
ENDBRANCH  66  67
ENDBRANCH  56  66
ENDBRANCH  53  56
ENDBRANCH  50  52
ENDBRANCH  47  50
ENDBRANCH  45  46
BRANCH  45  71
ATOM     71  C   UNL     1       1.753  -0.497   0.051  1.00  0.00     0.037 C 
BRANCH  71  72
ATOM     72  C   UNL     1       1.782   0.602  -1.015  1.00  0.00     0.026 C 
BRANCH  72  73
ATOM     73  C   UNL     1       2.421   0.108  -2.311  1.00  0.00     0.146 C 
BRANCH  73  74
ATOM     74  N   UNL     1       3.616   0.911  -2.553  1.00  0.00    -0.254 NA
ATOM     75  C   UNL     1       4.234   0.744  -3.664  1.00  0.00     0.185 C 
ATOM     76  N   UNL     1       5.336   1.469  -3.917  1.00  0.00    -0.370 N 
ATOM     77  N   UNL     1       3.941  -0.089  -4.678  1.00  0.00    -0.370 N 
ATOM     78  H   UNL     1       5.632   2.117  -3.200  1.00  0.00     0.159 HD
ATOM     79  H   UNL     1       5.950   1.292  -4.692  1.00  0.00     0.159 HD
ATOM     80  H   UNL     1       3.135  -0.693  -4.629  1.00  0.00     0.159 HD
ATOM     81  H   UNL     1       4.436  -0.049  -5.554  1.00  0.00     0.159 HD
ENDBRANCH  73  74
ENDBRANCH  72  73
ENDBRANCH  71  72
ENDBRANCH  45  71
ENDBRANCH   3  45
TORSDOF 20
ENDMDL
MODEL 30
REMARK VINA RESULT:    -4.263      2.550     11.118
REMARK INTER + INTRA:         -18.028
REMARK INTER:                 -14.870
REMARK INTRA:                  -3.158
REMARK UNBOUND:                -5.791
REMARK SMILES CCCCCC(=O)N[C@H](CC(=O)O)C(=O)N[C@H]1C(=O)N[C@H](CCCN=C(N)N)C(=O)N[C@@H]2CC[C@H](O)N(C2=O)[C@@H](CC(C)C)C(=O)N(C)[C@@H](Cc2ccccc2)C(=O)N[C@H](C(C)C)C(=O)O[C@@H]1C
REMARK SMILES IDX 30 1 31 2 29 3 32 5 35 6 37 7 34 8 38 9 33 10 39 11 36 12
REMARK SMILES IDX 40 14 41 15 42 16 43 17 44 18 45 19 46 20 47 21 48 22 49 23
REMARK SMILES IDX 50 24 51 25 52 26 56 27 53 28 55 29 54 30 57 31 58 32 59 33
REMARK SMILES IDX 60 35 61 36 62 37 63 38 64 39 65 40 66 41 67 42 68 43 21 45
REMARK SMILES IDX 20 46 18 47 19 48 17 50 16 52 14 53 15 54 9 56 8 57 6 58
REMARK SMILES IDX 7 59 5 61 4 62 3 63 2 64 1 65 10 66 11 67 12 68 13 69 22 71
REMARK SMILES IDX 23 72 24 73 25 74 26 75 27 76 28 77
REMARK H PARENT 31 4 36 13 59 34 20 49 16 55 8 60 13 70 27 78 27 79 28 80
REMARK H PARENT 28 81
REMARK Flexibility Score:  259.900
ROOT
ATOM      1  O   UNL     1       0.519  -6.352  -4.389  1.00  0.00    -0.273 OA
ATOM      2  N   UNL     1       1.224  -7.888  -2.848  1.00  0.00    -0.343 N 
ATOM      3  C   UNL     1       1.186  -7.351  -4.117  1.00  0.00     0.243 C 
ATOM      4  H   UNL     1       1.796  -8.702  -2.658  1.00  0.00     0.164 HD
ENDROOT
BRANCH   2   5
ATOM      5  C   UNL     1       0.371  -7.357  -1.791  1.00  0.00     0.171 C 
ATOM      6  C   UNL     1      -1.223  -4.946  -1.578  1.00  0.00     0.214 C 
ATOM      7  N   UNL     1       0.146  -4.935  -1.119  1.00  0.00    -0.303 N 
ATOM      8  C   UNL     1      -1.889  -6.307  -1.455  1.00  0.00     0.057 C 
ATOM      9  C   UNL     1       0.978  -6.036  -1.237  1.00  0.00     0.247 C 
ATOM     10  C   UNL     1      -1.093  -7.338  -2.226  1.00  0.00     0.040 C 
ATOM     11  O   UNL     1       2.174  -5.992  -0.921  1.00  0.00    -0.272 OA
BRANCH   6  12
ATOM     12  O   UNL     1      -1.230  -4.514  -2.919  1.00  0.00    -0.373 OA
ATOM     13  H   UNL     1      -0.398  -4.833  -3.329  1.00  0.00     0.213 HD
ENDBRANCH   6  12
BRANCH   7  14
ATOM     14  C   UNL     1       0.683  -3.642  -0.642  1.00  0.00     0.177 C 
BRANCH  14  15
ATOM     15  C   UNL     1       0.743  -3.481   0.889  1.00  0.00     0.038 C 
BRANCH  15  16
ATOM     16  C   UNL     1      -0.501  -2.969   1.650  1.00  0.00    -0.015 C 
ATOM     17  C   UNL     1      -1.434  -4.106   2.077  1.00  0.00     0.007 C 
ATOM     18  C   UNL     1      -1.294  -2.006   0.757  1.00  0.00     0.007 C 
ENDBRANCH  15  16
ENDBRANCH  14  15
BRANCH  14  19
ATOM     19  C   UNL     1       1.744  -3.088  -1.655  1.00  0.00     0.245 C 
ATOM     20  O   UNL     1       1.778  -3.621  -2.776  1.00  0.00    -0.272 OA
BRANCH  19  21
ATOM     21  N   UNL     1       2.695  -2.137  -1.331  1.00  0.00    -0.332 N 
ATOM     22  C   UNL     1       2.448  -0.714  -1.182  1.00  0.00     0.147 C 
BRANCH  21  23
ATOM     23  C   UNL     1       4.097  -2.597  -1.127  1.00  0.00     0.178 C 
BRANCH  23  24
ATOM     24  C   UNL     1       4.261  -4.123  -0.980  1.00  0.00     0.070 C 
BRANCH  24  25
ATOM     25  C   UNL     1       5.632  -4.697  -1.249  1.00  0.00    -0.045 A 
ATOM     26  C   UNL     1       5.797  -5.790  -2.110  1.00  0.00     0.004 A 
ATOM     27  C   UNL     1       6.765  -4.142  -0.634  1.00  0.00     0.004 A 
ATOM     28  C   UNL     1       7.066  -6.325  -2.340  1.00  0.00     0.000 A 
ATOM     29  C   UNL     1       8.033  -4.678  -0.866  1.00  0.00     0.000 A 
ATOM     30  C   UNL     1       8.182  -5.771  -1.717  1.00  0.00     0.000 A 
ENDBRANCH  24  25
ENDBRANCH  23  24
BRANCH  23  31
ATOM     31  C   UNL     1       5.100  -1.924  -2.094  1.00  0.00     0.243 C 
ATOM     32  O   UNL     1       6.059  -1.248  -1.728  1.00  0.00    -0.273 OA
ATOM     33  N   UNL     1       4.718  -1.992  -3.423  1.00  0.00    -0.341 N 
ATOM     34  H   UNL     1       3.906  -2.566  -3.665  1.00  0.00     0.164 HD
BRANCH  33  35
ATOM     35  C   UNL     1       5.452  -1.323  -4.500  1.00  0.00     0.194 C 
BRANCH  35  36
ATOM     36  C   UNL     1       5.047   0.162  -4.718  1.00  0.00     0.017 C 
ATOM     37  C   UNL     1       6.229   1.109  -4.446  1.00  0.00     0.010 C 
ATOM     38  C   UNL     1       3.885   0.609  -3.822  1.00  0.00     0.010 C 
ENDBRANCH  35  36
BRANCH  35  39
ATOM     39  C   UNL     1       5.431  -2.131  -5.829  1.00  0.00     0.329 C 
ATOM     40  O   UNL     1       6.184  -1.919  -6.772  1.00  0.00    -0.250 OA
BRANCH  39  41
ATOM     41  O   UNL     1       4.536  -3.164  -5.795  1.00  0.00    -0.458 OA
BRANCH  41  42
ATOM     42  C   UNL     1       5.058  -4.451  -5.388  1.00  0.00     0.205 CG0
ATOM     43  C   UNL     1       6.577  -4.316  -5.293  1.00  0.00     0.056 C 
ATOM     44  G   UNL     1       4.624  -5.508  -6.423  1.00  0.00     0.000 G0
ENDBRANCH  41  42
ENDBRANCH  39  41
ENDBRANCH  35  39
ENDBRANCH  33  35
ENDBRANCH  23  31
ENDBRANCH  21  23
ENDBRANCH  19  21
ENDBRANCH  14  19
ENDBRANCH   7  14
ENDBRANCH   2   5
BRANCH   3  45
ATOM     45  C   UNL     1       2.049  -8.070  -5.162  1.00  0.00     0.171 C 
BRANCH  45  46
ATOM     46  N   UNL     1       2.753  -7.018  -5.883  1.00  0.00    -0.342 N 
ATOM     47  C   UNL     1       4.083  -6.748  -5.677  1.00  0.00     0.247 C 
ATOM     48  O   UNL     1       4.793  -7.418  -4.926  1.00  0.00    -0.273 OA
ATOM     49  H   UNL     1       2.216  -6.475  -6.556  1.00  0.00     0.164 HD
BRANCH  47  50
ATOM     50  C   UNL     1       4.622  -5.525  -6.433  1.00  0.00     0.212 CG0
ATOM     51  G   UNL     1       5.054  -4.481  -5.385  1.00  0.00     0.000 G0
BRANCH  50  52
ATOM     52  N   UNL     1       5.732  -6.025  -7.240  1.00  0.00    -0.339 N 
ATOM     53  C   UNL     1       6.204  -5.380  -8.357  1.00  0.00     0.243 C 
ATOM     54  O   UNL     1       5.691  -4.354  -8.796  1.00  0.00    -0.273 OA
ATOM     55  H   UNL     1       6.128  -6.930  -6.992  1.00  0.00     0.164 HD
BRANCH  53  56
ATOM     56  C   UNL     1       7.324  -6.141  -9.095  1.00  0.00     0.182 C 
BRANCH  56  57
ATOM     57  N   UNL     1       6.781  -6.931 -10.205  1.00  0.00    -0.344 N 
ATOM     58  C   UNL     1       7.251  -6.814 -11.490  1.00  0.00     0.220 C 
ATOM     59  O   UNL     1       8.104  -5.994 -11.813  1.00  0.00    -0.275 OA
ATOM     60  H   UNL     1       6.149  -7.690  -9.964  1.00  0.00     0.164 HD
BRANCH  58  61
ATOM     61  C   UNL     1       6.585  -7.769 -12.464  1.00  0.00     0.100 C 
BRANCH  61  62
ATOM     62  C   UNL     1       5.772  -8.873 -11.785  1.00  0.00     0.010 C 
BRANCH  62  63
ATOM     63  C   UNL     1       4.746  -9.550 -12.702  1.00  0.00     0.000 C 
BRANCH  63  64
ATOM     64  C   UNL     1       3.870  -8.577 -13.489  1.00  0.00    -0.003 C 
ATOM     65  C   UNL     1       2.576  -8.271 -12.748  1.00  0.00     0.004 C 
ENDBRANCH  63  64
ENDBRANCH  62  63
ENDBRANCH  61  62
ENDBRANCH  58  61
ENDBRANCH  56  57
BRANCH  56  66
ATOM     66  C   UNL     1       8.151  -6.992  -8.133  1.00  0.00     0.157 C 
BRANCH  66  67
ATOM     67  C   UNL     1       7.745  -8.436  -8.197  1.00  0.00     0.305 C 
ATOM     68  O   UNL     1       8.071  -9.252  -9.045  1.00  0.00    -0.252 OA
BRANCH  67  69
ATOM     69  O   UNL     1       6.980  -8.799  -7.150  1.00  0.00    -0.481 OA
ATOM     70  H   UNL     1       6.061  -8.772  -7.490  1.00  0.00     0.296 HD
ENDBRANCH  67  69
ENDBRANCH  66  67
ENDBRANCH  56  66
ENDBRANCH  53  56
ENDBRANCH  50  52
ENDBRANCH  47  50
ENDBRANCH  45  46
BRANCH  45  71
ATOM     71  C   UNL     1       1.168  -8.905  -6.098  1.00  0.00     0.037 C 
BRANCH  71  72
ATOM     72  C   UNL     1       1.482 -10.400  -6.003  1.00  0.00     0.026 C 
BRANCH  72  73
ATOM     73  C   UNL     1       1.105 -10.966  -4.635  1.00  0.00     0.146 C 
BRANCH  73  74
ATOM     74  N   UNL     1      -0.175 -10.381  -4.247  1.00  0.00    -0.254 NA
ATOM     75  C   UNL     1      -0.934 -11.061  -3.469  1.00  0.00     0.185 C 
ATOM     76  N   UNL     1      -2.117 -10.549  -3.094  1.00  0.00    -0.370 N 
ATOM     77  N   UNL     1      -0.724 -12.277  -2.935  1.00  0.00    -0.370 N 
ATOM     78  H   UNL     1      -2.357  -9.638  -3.458  1.00  0.00     0.159 HD
ATOM     79  H   UNL     1      -2.820 -11.078  -2.609  1.00  0.00     0.159 HD
ATOM     80  H   UNL     1       0.128 -12.782  -3.128  1.00  0.00     0.159 HD
ATOM     81  H   UNL     1      -1.343 -12.664  -2.242  1.00  0.00     0.159 HD
ENDBRANCH  73  74
ENDBRANCH  72  73
ENDBRANCH  71  72
ENDBRANCH  45  71
ENDBRANCH   3  45
TORSDOF 20
ENDMDL
MODEL 31
REMARK VINA RESULT:    -4.219      3.651      7.833
REMARK INTER + INTRA:         -17.903
REMARK INTER:                 -13.924
REMARK INTRA:                  -3.979
REMARK UNBOUND:                -5.791
REMARK SMILES CCCCCC(=O)N[C@H](CC(=O)O)C(=O)N[C@H]1C(=O)N[C@H](CCCN=C(N)N)C(=O)N[C@@H]2CC[C@H](O)N(C2=O)[C@@H](CC(C)C)C(=O)N(C)[C@@H](Cc2ccccc2)C(=O)N[C@H](C(C)C)C(=O)O[C@@H]1C
REMARK SMILES IDX 30 1 31 2 29 3 32 5 35 6 37 7 34 8 38 9 33 10 39 11 36 12
REMARK SMILES IDX 40 14 41 15 42 16 43 17 44 18 45 19 46 20 47 21 48 22 49 23
REMARK SMILES IDX 50 24 51 25 52 26 56 27 53 28 55 29 54 30 57 31 58 32 59 33
REMARK SMILES IDX 60 35 61 36 62 37 63 38 64 39 65 40 66 41 67 42 68 43 21 45
REMARK SMILES IDX 20 46 18 47 19 48 17 50 16 52 14 53 15 54 9 56 8 57 6 58
REMARK SMILES IDX 7 59 5 61 4 62 3 63 2 64 1 65 10 66 11 67 12 68 13 69 22 71
REMARK SMILES IDX 23 72 24 73 25 74 26 75 27 76 28 77
REMARK H PARENT 31 4 36 13 59 34 20 49 16 55 8 60 13 70 27 78 27 79 28 80
REMARK H PARENT 28 81
REMARK Flexibility Score:  259.900
ROOT
ATOM      1  O   UNL     1      -2.102  -9.248  -6.750  1.00  0.00    -0.273 OA
ATOM      2  N   UNL     1      -0.869  -9.303  -4.824  1.00  0.00    -0.343 N 
ATOM      3  C   UNL     1      -1.996  -8.986  -5.552  1.00  0.00     0.243 C 
ATOM      4  H   UNL     1      -0.823  -9.085  -3.837  1.00  0.00     0.164 HD
ENDROOT
BRANCH   2   5
ATOM      5  C   UNL     1       0.306  -9.863  -5.483  1.00  0.00     0.171 C 
ATOM      6  C   UNL     1       3.057 -10.205  -4.635  1.00  0.00     0.214 C 
ATOM      7  N   UNL     1       2.672  -8.997  -5.325  1.00  0.00    -0.303 N 
ATOM      8  C   UNL     1       2.232 -11.417  -5.038  1.00  0.00     0.057 C 
ATOM      9  C   UNL     1       1.365  -8.747  -5.712  1.00  0.00     0.247 C 
ATOM     10  C   UNL     1       0.765 -11.145  -4.789  1.00  0.00     0.040 C 
ATOM     11  O   UNL     1       1.026  -7.672  -6.225  1.00  0.00    -0.272 OA
BRANCH   6  12
ATOM     12  O   UNL     1       2.939  -9.968  -3.251  1.00  0.00    -0.373 OA
ATOM     13  H   UNL     1       3.439 -10.677  -2.794  1.00  0.00     0.213 HD
ENDBRANCH   6  12
BRANCH   7  14
ATOM     14  C   UNL     1       3.707  -7.952  -5.477  1.00  0.00     0.177 C 
BRANCH  14  15
ATOM     15  C   UNL     1       4.350  -7.865  -6.875  1.00  0.00     0.038 C 
BRANCH  15  16
ATOM     16  C   UNL     1       5.887  -7.924  -7.011  1.00  0.00    -0.015 C 
ATOM     17  C   UNL     1       6.530  -8.847  -5.972  1.00  0.00     0.007 C 
ATOM     18  C   UNL     1       6.478  -6.519  -6.836  1.00  0.00     0.007 C 
ENDBRANCH  15  16
ENDBRANCH  14  15
BRANCH  14  19
ATOM     19  C   UNL     1       3.388  -6.731  -4.547  1.00  0.00     0.245 C 
ATOM     20  O   UNL     1       2.942  -5.711  -5.098  1.00  0.00    -0.272 OA
BRANCH  19  21
ATOM     21  N   UNL     1       3.679  -6.695  -3.195  1.00  0.00    -0.332 N 
ATOM     22  C   UNL     1       4.715  -7.469  -2.535  1.00  0.00     0.147 C 
BRANCH  21  23
ATOM     23  C   UNL     1       2.859  -5.801  -2.331  1.00  0.00     0.178 C 
BRANCH  23  24
ATOM     24  C   UNL     1       3.039  -4.294  -2.608  1.00  0.00     0.070 C 
BRANCH  24  25
ATOM     25  C   UNL     1       4.448  -3.751  -2.574  1.00  0.00    -0.045 A 
ATOM     26  C   UNL     1       5.224  -3.841  -1.411  1.00  0.00     0.004 A 
ATOM     27  C   UNL     1       4.999  -3.141  -3.711  1.00  0.00     0.004 A 
ATOM     28  C   UNL     1       6.520  -3.321  -1.383  1.00  0.00     0.000 A 
ATOM     29  C   UNL     1       6.295  -2.623  -3.681  1.00  0.00     0.000 A 
ATOM     30  C   UNL     1       7.053  -2.711  -2.516  1.00  0.00     0.000 A 
ENDBRANCH  24  25
ENDBRANCH  23  24
BRANCH  23  31
ATOM     31  C   UNL     1       1.390  -6.269  -2.199  1.00  0.00     0.243 C 
ATOM     32  O   UNL     1       0.626  -6.410  -3.150  1.00  0.00    -0.273 OA
ATOM     33  N   UNL     1       0.948  -6.340  -0.889  1.00  0.00    -0.341 N 
ATOM     34  H   UNL     1       1.631  -6.207  -0.138  1.00  0.00     0.164 HD
BRANCH  33  35
ATOM     35  C   UNL     1      -0.439  -6.645  -0.529  1.00  0.00     0.194 C 
BRANCH  35  36
ATOM     36  C   UNL     1      -0.996  -5.785   0.640  1.00  0.00     0.017 C 
ATOM     37  C   UNL     1      -1.142  -4.310   0.229  1.00  0.00     0.010 C 
ATOM     38  C   UNL     1      -0.115  -5.827   1.894  1.00  0.00     0.010 C 
ENDBRANCH  35  36
BRANCH  35  39
ATOM     39  C   UNL     1      -0.676  -8.164  -0.297  1.00  0.00     0.329 C 
ATOM     40  O   UNL     1      -0.351  -8.761   0.722  1.00  0.00    -0.250 OA
BRANCH  39  41
ATOM     41  O   UNL     1      -1.369  -8.745  -1.323  1.00  0.00    -0.458 OA
BRANCH  41  42
ATOM     42  C   UNL     1      -2.205  -9.873  -0.974  1.00  0.00     0.205 CG0
ATOM     43  C   UNL     1      -1.807 -11.033  -1.885  1.00  0.00     0.056 C 
ATOM     44  G   UNL     1      -3.681  -9.464  -1.150  1.00  0.00     0.000 G0
ENDBRANCH  41  42
ENDBRANCH  39  41
ENDBRANCH  35  39
ENDBRANCH  33  35
ENDBRANCH  23  31
ENDBRANCH  21  23
ENDBRANCH  19  21
ENDBRANCH  14  19
ENDBRANCH   7  14
ENDBRANCH   2   5
BRANCH   3  45
ATOM     45  C   UNL     1      -3.118  -8.302  -4.759  1.00  0.00     0.171 C 
BRANCH  45  46
ATOM     46  N   UNL     1      -3.254  -9.069  -3.528  1.00  0.00    -0.342 N 
ATOM     47  C   UNL     1      -3.742  -8.520  -2.368  1.00  0.00     0.247 C 
ATOM     48  O   UNL     1      -4.167  -7.366  -2.303  1.00  0.00    -0.273 OA
ATOM     49  H   UNL     1      -2.966 -10.046  -3.553  1.00  0.00     0.164 HD
BRANCH  47  50
ATOM     50  C   UNL     1      -3.695  -9.442  -1.142  1.00  0.00     0.212 CG0
ATOM     51  G   UNL     1      -2.233  -9.892  -0.951  1.00  0.00     0.000 G0
BRANCH  50  52
ATOM     52  N   UNL     1      -4.202  -8.641  -0.032  1.00  0.00    -0.339 N 
ATOM     53  C   UNL     1      -4.133  -9.039   1.281  1.00  0.00     0.243 C 
ATOM     54  O   UNL     1      -3.684 -10.130   1.619  1.00  0.00    -0.273 OA
ATOM     55  H   UNL     1      -4.687  -7.774  -0.257  1.00  0.00     0.164 HD
BRANCH  53  56
ATOM     56  C   UNL     1      -4.812  -8.067   2.268  1.00  0.00     0.182 C 
BRANCH  56  57
ATOM     57  N   UNL     1      -3.823  -7.434   3.147  1.00  0.00    -0.344 N 
ATOM     58  C   UNL     1      -4.121  -6.339   3.921  1.00  0.00     0.220 C 
ATOM     59  O   UNL     1      -5.207  -5.771   3.877  1.00  0.00    -0.275 OA
ATOM     60  H   UNL     1      -2.948  -7.931   3.289  1.00  0.00     0.164 HD
BRANCH  58  61
ATOM     61  C   UNL     1      -2.965  -5.889   4.796  1.00  0.00     0.100 C 
BRANCH  61  62
ATOM     62  C   UNL     1      -2.310  -4.589   4.329  1.00  0.00     0.010 C 
BRANCH  62  63
ATOM     63  C   UNL     1      -0.988  -4.263   5.037  1.00  0.00     0.000 C 
BRANCH  63  64
ATOM     64  C   UNL     1      -0.351  -2.945   4.599  1.00  0.00    -0.003 C 
ATOM     65  C   UNL     1      -1.000  -2.409   3.331  1.00  0.00     0.004 C 
ENDBRANCH  63  64
ENDBRANCH  62  63
ENDBRANCH  61  62
ENDBRANCH  58  61
ENDBRANCH  56  57
BRANCH  56  66
ATOM     66  C   UNL     1      -5.926  -8.755   3.054  1.00  0.00     0.157 C 
BRANCH  66  67
ATOM     67  C   UNL     1      -5.412  -9.317   4.348  1.00  0.00     0.305 C 
ATOM     68  O   UNL     1      -5.616  -8.879   5.470  1.00  0.00    -0.252 OA
BRANCH  67  69
ATOM     69  O   UNL     1      -4.699 -10.446   4.168  1.00  0.00    -0.481 OA
ATOM     70  H   UNL     1      -5.348 -11.172   4.282  1.00  0.00     0.296 HD
ENDBRANCH  67  69
ENDBRANCH  66  67
ENDBRANCH  56  66
ENDBRANCH  53  56
ENDBRANCH  50  52
ENDBRANCH  47  50
ENDBRANCH  45  46
BRANCH  45  71
ATOM     71  C   UNL     1      -4.419  -8.300  -5.570  1.00  0.00     0.037 C 
BRANCH  71  72
ATOM     72  C   UNL     1      -4.594  -7.009  -6.373  1.00  0.00     0.026 C 
BRANCH  72  73
ATOM     73  C   UNL     1      -3.467  -6.017  -6.092  1.00  0.00     0.146 C 
BRANCH  73  74
ATOM     74  N   UNL     1      -3.984  -5.000  -5.181  1.00  0.00    -0.254 NA
ATOM     75  C   UNL     1      -3.334  -4.780  -4.098  1.00  0.00     0.185 C 
ATOM     76  N   UNL     1      -3.784  -3.850  -3.240  1.00  0.00    -0.370 N 
ATOM     77  N   UNL     1      -2.207  -5.365  -3.656  1.00  0.00    -0.370 N 
ATOM     78  H   UNL     1      -4.633  -3.366  -3.494  1.00  0.00     0.159 HD
ATOM     79  H   UNL     1      -3.414  -3.726  -2.315  1.00  0.00     0.159 HD
ATOM     80  H   UNL     1      -1.753  -6.082  -4.200  1.00  0.00     0.159 HD
ATOM     81  H   UNL     1      -1.722  -5.028  -2.840  1.00  0.00     0.159 HD
ENDBRANCH  73  74
ENDBRANCH  72  73
ENDBRANCH  71  72
ENDBRANCH  45  71
ENDBRANCH   3  45
TORSDOF 20
ENDMDL
MODEL 32
REMARK VINA RESULT:    -4.218      2.701     11.130
REMARK INTER + INTRA:         -17.900
REMARK INTER:                 -14.934
REMARK INTRA:                  -2.966
REMARK UNBOUND:                -5.791
REMARK SMILES CCCCCC(=O)N[C@H](CC(=O)O)C(=O)N[C@H]1C(=O)N[C@H](CCCN=C(N)N)C(=O)N[C@@H]2CC[C@H](O)N(C2=O)[C@@H](CC(C)C)C(=O)N(C)[C@@H](Cc2ccccc2)C(=O)N[C@H](C(C)C)C(=O)O[C@@H]1C
REMARK SMILES IDX 30 1 31 2 29 3 32 5 35 6 37 7 34 8 38 9 33 10 39 11 36 12
REMARK SMILES IDX 40 14 41 15 42 16 43 17 44 18 45 19 46 20 47 21 48 22 49 23
REMARK SMILES IDX 50 24 51 25 52 26 56 27 53 28 55 29 54 30 57 31 58 32 59 33
REMARK SMILES IDX 60 35 61 36 62 37 63 38 64 39 65 40 66 41 67 42 68 43 21 45
REMARK SMILES IDX 20 46 18 47 19 48 17 50 16 52 14 53 15 54 9 56 8 57 6 58
REMARK SMILES IDX 7 59 5 61 4 62 3 63 2 64 1 65 10 66 11 67 12 68 13 69 22 71
REMARK SMILES IDX 23 72 24 73 25 74 26 75 27 76 28 77
REMARK H PARENT 31 4 36 13 59 34 20 49 16 55 8 60 13 70 27 78 27 79 28 80
REMARK H PARENT 28 81
REMARK Flexibility Score:  259.900
ROOT
ATOM      1  O   UNL     1       0.112  -6.421  -3.714  1.00  0.00    -0.273 OA
ATOM      2  N   UNL     1       0.500  -7.927  -2.037  1.00  0.00    -0.343 N 
ATOM      3  C   UNL     1       0.537  -7.519  -3.353  1.00  0.00     0.243 C 
ATOM      4  H   UNL     1       0.872  -8.832  -1.775  1.00  0.00     0.164 HD
ENDROOT
BRANCH   2   5
ATOM      5  C   UNL     1      -0.162  -7.111  -1.025  1.00  0.00     0.171 C 
ATOM      6  C   UNL     1      -1.331  -4.459  -1.097  1.00  0.00     0.214 C 
ATOM      7  N   UNL     1       0.059  -4.613  -0.733  1.00  0.00    -0.303 N 
ATOM      8  C   UNL     1      -2.189  -5.655  -0.717  1.00  0.00     0.057 C 
ATOM      9  C   UNL     1       0.693  -5.845  -0.728  1.00  0.00     0.247 C 
ATOM     10  C   UNL     1      -1.638  -6.908  -1.363  1.00  0.00     0.040 C 
ATOM     11  O   UNL     1       1.904  -5.959  -0.499  1.00  0.00    -0.272 OA
BRANCH   6  12
ATOM     12  O   UNL     1      -1.389  -4.233  -2.486  1.00  0.00    -0.373 OA
ATOM     13  H   UNL     1      -2.307  -3.957  -2.694  1.00  0.00     0.213 HD
ENDBRANCH   6  12
BRANCH   7  14
ATOM     14  C   UNL     1       0.833  -3.375  -0.503  1.00  0.00     0.177 C 
BRANCH  14  15
ATOM     15  C   UNL     1       1.020  -2.984   0.976  1.00  0.00     0.038 C 
BRANCH  15  16
ATOM     16  C   UNL     1      -0.020  -2.068   1.659  1.00  0.00    -0.015 C 
ATOM     17  C   UNL     1      -1.091  -2.862   2.413  1.00  0.00     0.007 C 
ATOM     18  C   UNL     1      -0.718  -1.200   0.605  1.00  0.00     0.007 C 
ENDBRANCH  15  16
ENDBRANCH  14  15
BRANCH  14  19
ATOM     19  C   UNL     1       1.901  -3.184  -1.634  1.00  0.00     0.245 C 
ATOM     20  O   UNL     1       1.784  -3.903  -2.641  1.00  0.00    -0.272 OA
BRANCH  19  21
ATOM     21  N   UNL     1       3.004  -2.356  -1.521  1.00  0.00    -0.332 N 
ATOM     22  C   UNL     1       2.972  -0.904  -1.527  1.00  0.00     0.147 C 
BRANCH  21  23
ATOM     23  C   UNL     1       4.343  -2.995  -1.395  1.00  0.00     0.178 C 
BRANCH  23  24
ATOM     24  C   UNL     1       4.311  -4.499  -1.055  1.00  0.00     0.070 C 
BRANCH  24  25
ATOM     25  C   UNL     1       5.591  -5.277  -1.257  1.00  0.00    -0.045 A 
ATOM     26  C   UNL     1       5.626  -6.392  -2.104  1.00  0.00     0.004 A 
ATOM     27  C   UNL     1       6.765  -4.893  -0.592  1.00  0.00     0.004 A 
ATOM     28  C   UNL     1       6.809  -7.116  -2.272  1.00  0.00     0.000 A 
ATOM     29  C   UNL     1       7.946  -5.617  -0.762  1.00  0.00     0.000 A 
ATOM     30  C   UNL     1       7.966  -6.730  -1.599  1.00  0.00     0.000 A 
ENDBRANCH  24  25
ENDBRANCH  23  24
BRANCH  23  31
ATOM     31  C   UNL     1       5.308  -2.605  -2.539  1.00  0.00     0.243 C 
ATOM     32  O   UNL     1       6.402  -2.074  -2.365  1.00  0.00    -0.273 OA
ATOM     33  N   UNL     1       4.753  -2.738  -3.801  1.00  0.00    -0.341 N 
ATOM     34  H   UNL     1       3.835  -3.183  -3.882  1.00  0.00     0.164 HD
BRANCH  33  35
ATOM     35  C   UNL     1       5.440  -2.317  -5.025  1.00  0.00     0.194 C 
BRANCH  35  36
ATOM     36  C   UNL     1       5.397  -0.784  -5.281  1.00  0.00     0.017 C 
ATOM     37  C   UNL     1       6.783  -0.145  -5.081  1.00  0.00     0.010 C 
ATOM     38  C   UNL     1       4.414  -0.045  -4.365  1.00  0.00     0.010 C 
ENDBRANCH  35  36
BRANCH  35  39
ATOM     39  C   UNL     1       4.989  -3.127  -6.272  1.00  0.00     0.329 C 
ATOM     40  O   UNL     1       5.466  -2.985  -7.392  1.00  0.00    -0.250 OA
BRANCH  39  41
ATOM     41  O   UNL     1       4.058  -4.080  -5.965  1.00  0.00    -0.458 OA
BRANCH  41  42
ATOM     42  C   UNL     1       4.572  -5.376  -5.575  1.00  0.00     0.205 CG0
ATOM     43  C   UNL     1       6.050  -5.411  -5.956  1.00  0.00     0.056 C 
ATOM     44  G   UNL     1       3.752  -6.467  -6.293  1.00  0.00     0.000 G0
ENDBRANCH  41  42
ENDBRANCH  39  41
ENDBRANCH  35  39
ENDBRANCH  33  35
ENDBRANCH  23  31
ENDBRANCH  21  23
ENDBRANCH  19  21
ENDBRANCH  14  19
ENDBRANCH   7  14
ENDBRANCH   2   5
BRANCH   3  45
ATOM     45  C   UNL     1       1.164  -8.519  -4.334  1.00  0.00     0.171 C 
BRANCH  45  46
ATOM     46  N   UNL     1       1.866  -7.713  -5.323  1.00  0.00    -0.342 N 
ATOM     47  C   UNL     1       3.212  -7.459  -5.246  1.00  0.00     0.247 C 
ATOM     48  O   UNL     1       3.936  -7.952  -4.379  1.00  0.00    -0.273 OA
ATOM     49  H   UNL     1       1.314  -7.332  -6.090  1.00  0.00     0.164 HD
BRANCH  47  50
ATOM     50  C   UNL     1       3.753  -6.489  -6.305  1.00  0.00     0.212 CG0
ATOM     51  G   UNL     1       4.564  -5.401  -5.573  1.00  0.00     0.000 G0
BRANCH  50  52
ATOM     52  N   UNL     1       4.565  -7.307  -7.204  1.00  0.00    -0.339 N 
ATOM     53  C   UNL     1       4.032  -8.116  -8.177  1.00  0.00     0.243 C 
ATOM     54  O   UNL     1       2.822  -8.255  -8.333  1.00  0.00    -0.273 OA
ATOM     55  H   UNL     1       5.571  -7.320  -7.051  1.00  0.00     0.164 HD
BRANCH  53  56
ATOM     56  C   UNL     1       5.079  -8.949  -8.944  1.00  0.00     0.182 C 
BRANCH  56  57
ATOM     57  N   UNL     1       4.690  -9.121 -10.347  1.00  0.00    -0.344 N 
ATOM     58  C   UNL     1       5.421  -8.594 -11.384  1.00  0.00     0.220 C 
ATOM     59  O   UNL     1       6.405  -7.883 -11.207  1.00  0.00    -0.275 OA
ATOM     60  H   UNL     1       3.944  -9.784 -10.540  1.00  0.00     0.164 HD
BRANCH  58  61
ATOM     61  C   UNL     1       4.867  -8.947 -12.751  1.00  0.00     0.100 C 
BRANCH  61  62
ATOM     62  C   UNL     1       3.576  -8.207 -13.102  1.00  0.00     0.010 C 
BRANCH  62  63
ATOM     63  C   UNL     1       2.299  -9.019 -12.853  1.00  0.00     0.000 C 
BRANCH  63  64
ATOM     64  C   UNL     1       2.332 -10.432 -13.434  1.00  0.00    -0.003 C 
ATOM     65  C   UNL     1       2.378 -11.483 -12.333  1.00  0.00     0.004 C 
ENDBRANCH  63  64
ENDBRANCH  62  63
ENDBRANCH  61  62
ENDBRANCH  58  61
ENDBRANCH  56  57
BRANCH  56  66
ATOM     66  C   UNL     1       5.348 -10.284  -8.252  1.00  0.00     0.157 C 
BRANCH  66  67
ATOM     67  C   UNL     1       5.145 -11.435  -9.193  1.00  0.00     0.305 C 
ATOM     68  O   UNL     1       4.092 -12.005  -9.438  1.00  0.00    -0.252 OA
BRANCH  67  69
ATOM     69  O   UNL     1       6.281 -11.785  -9.827  1.00  0.00    -0.481 OA
ATOM     70  H   UNL     1       6.319 -11.198 -10.612  1.00  0.00     0.296 HD
ENDBRANCH  67  69
ENDBRANCH  66  67
ENDBRANCH  56  66
ENDBRANCH  53  56
ENDBRANCH  50  52
ENDBRANCH  47  50
ENDBRANCH  45  46
BRANCH  45  71
ATOM     71  C   UNL     1       0.078  -9.387  -4.979  1.00  0.00     0.037 C 
BRANCH  71  72
ATOM     72  C   UNL     1      -0.744  -8.609  -6.010  1.00  0.00     0.026 C 
BRANCH  72  73
ATOM     73  C   UNL     1      -2.239  -8.690  -5.712  1.00  0.00     0.146 C 
BRANCH  73  74
ATOM     74  N   UNL     1      -2.881  -9.382  -6.826  1.00  0.00    -0.254 NA
ATOM     75  C   UNL     1      -4.159  -9.337  -6.903  1.00  0.00     0.185 C 
ATOM     76  N   UNL     1      -4.778  -9.963  -7.917  1.00  0.00    -0.370 N 
ATOM     77  N   UNL     1      -5.034  -8.728  -6.083  1.00  0.00    -0.370 N 
ATOM     78  H   UNL     1      -4.192 -10.454  -8.577  1.00  0.00     0.159 HD
ATOM     79  H   UNL     1      -5.773 -10.093  -7.963  1.00  0.00     0.159 HD
ATOM     80  H   UNL     1      -4.711  -8.214  -5.278  1.00  0.00     0.159 HD
ATOM     81  H   UNL     1      -6.013  -8.664  -6.310  1.00  0.00     0.159 HD
ENDBRANCH  73  74
ENDBRANCH  72  73
ENDBRANCH  71  72
ENDBRANCH  45  71
ENDBRANCH   3  45
TORSDOF 20
ENDMDL
MODEL 33
REMARK VINA RESULT:    -4.212      2.908      9.470
REMARK INTER + INTRA:         -17.883
REMARK INTER:                 -14.054
REMARK INTRA:                  -3.829
REMARK UNBOUND:                -5.791
REMARK SMILES CCCCCC(=O)N[C@H](CC(=O)O)C(=O)N[C@H]1C(=O)N[C@H](CCCN=C(N)N)C(=O)N[C@@H]2CC[C@H](O)N(C2=O)[C@@H](CC(C)C)C(=O)N(C)[C@@H](Cc2ccccc2)C(=O)N[C@H](C(C)C)C(=O)O[C@@H]1C
REMARK SMILES IDX 30 1 31 2 29 3 32 5 35 6 37 7 34 8 38 9 33 10 39 11 36 12
REMARK SMILES IDX 40 14 41 15 42 16 43 17 44 18 45 19 46 20 47 21 48 22 49 23
REMARK SMILES IDX 50 24 51 25 52 26 56 27 53 28 55 29 54 30 57 31 58 32 59 33
REMARK SMILES IDX 60 35 61 36 62 37 63 38 64 39 65 40 66 41 67 42 68 43 21 45
REMARK SMILES IDX 20 46 18 47 19 48 17 50 16 52 14 53 15 54 9 56 8 57 6 58
REMARK SMILES IDX 7 59 5 61 4 62 3 63 2 64 1 65 10 66 11 67 12 68 13 69 22 71
REMARK SMILES IDX 23 72 24 73 25 74 26 75 27 76 28 77
REMARK H PARENT 31 4 36 13 59 34 20 49 16 55 8 60 13 70 27 78 27 79 28 80
REMARK H PARENT 28 81
REMARK Flexibility Score:  259.900
ROOT
ATOM      1  O   UNL     1       4.444  -7.819  -5.298  1.00  0.00    -0.273 OA
ATOM      2  N   UNL     1       4.393  -6.438  -7.120  1.00  0.00    -0.343 N 
ATOM      3  C   UNL     1       4.046  -7.585  -6.439  1.00  0.00     0.243 C 
ATOM      4  H   UNL     1       4.034  -6.272  -8.052  1.00  0.00     0.164 HD
ENDROOT
BRANCH   2   5
ATOM      5  C   UNL     1       5.354  -5.500  -6.552  1.00  0.00     0.171 C 
ATOM      6  C   UNL     1       6.525  -5.244  -3.912  1.00  0.00     0.214 C 
ATOM      7  N   UNL     1       5.308  -4.530  -4.222  1.00  0.00    -0.303 N 
ATOM      8  C   UNL     1       7.422  -5.457  -5.121  1.00  0.00     0.057 C 
ATOM      9  C   UNL     1       4.669  -4.648  -5.445  1.00  0.00     0.247 C 
ATOM     10  C   UNL     1       6.663  -6.203  -6.197  1.00  0.00     0.040 C 
ATOM     11  O   UNL     1       3.582  -4.102  -5.672  1.00  0.00    -0.272 OA
BRANCH   6  12
ATOM     12  O   UNL     1       6.165  -6.481  -3.342  1.00  0.00    -0.373 OA
ATOM     13  H   UNL     1       6.638  -6.551  -2.485  1.00  0.00     0.213 HD
ENDBRANCH   6  12
BRANCH   7  14
ATOM     14  C   UNL     1       4.678  -3.771  -3.121  1.00  0.00     0.177 C 
BRANCH  14  15
ATOM     15  C   UNL     1       4.192  -2.357  -3.493  1.00  0.00     0.038 C 
BRANCH  15  16
ATOM     16  C   UNL     1       4.776  -1.133  -2.754  1.00  0.00    -0.015 C 
ATOM     17  C   UNL     1       4.821  -1.333  -1.236  1.00  0.00     0.007 C 
ATOM     18  C   UNL     1       3.923   0.107  -3.050  1.00  0.00     0.007 C 
ENDBRANCH  15  16
ENDBRANCH  14  15
BRANCH  14  19
ATOM     19  C   UNL     1       3.953  -4.748  -2.132  1.00  0.00     0.245 C 
ATOM     20  O   UNL     1       4.621  -5.172  -1.174  1.00  0.00    -0.272 OA
BRANCH  19  21
ATOM     21  N   UNL     1       2.675  -5.238  -2.331  1.00  0.00    -0.332 N 
ATOM     22  C   UNL     1       2.315  -6.309  -3.244  1.00  0.00     0.147 C 
BRANCH  21  23
ATOM     23  C   UNL     1       1.563  -4.617  -1.559  1.00  0.00     0.178 C 
BRANCH  23  24
ATOM     24  C   UNL     1       1.507  -3.078  -1.633  1.00  0.00     0.070 C 
BRANCH  24  25
ATOM     25  C   UNL     1       0.638  -2.371  -0.619  1.00  0.00    -0.045 A 
ATOM     26  C   UNL     1       0.571  -0.973  -0.581  1.00  0.00     0.004 A 
ATOM     27  C   UNL     1      -0.113  -3.111   0.307  1.00  0.00     0.004 A 
ATOM     28  C   UNL     1      -0.221  -0.327   0.371  1.00  0.00     0.000 A 
ATOM     29  C   UNL     1      -0.906  -2.464   1.256  1.00  0.00     0.000 A 
ATOM     30  C   UNL     1      -0.957  -1.072   1.289  1.00  0.00     0.000 A 
ENDBRANCH  24  25
ENDBRANCH  23  24
BRANCH  23  31
ATOM     31  C   UNL     1       0.206  -5.329  -1.776  1.00  0.00     0.243 C 
ATOM     32  O   UNL     1      -0.741  -4.833  -2.379  1.00  0.00    -0.273 OA
ATOM     33  N   UNL     1       0.083  -6.512  -1.066  1.00  0.00    -0.341 N 
ATOM     34  H   UNL     1       0.906  -6.873  -0.577  1.00  0.00     0.164 HD
BRANCH  33  35
ATOM     35  C   UNL     1      -1.156  -7.294  -1.026  1.00  0.00     0.194 C 
BRANCH  35  36
ATOM     36  C   UNL     1      -1.661  -7.610   0.410  1.00  0.00     0.017 C 
ATOM     37  C   UNL     1      -3.145  -8.015   0.405  1.00  0.00     0.010 C 
ATOM     38  C   UNL     1      -1.511  -6.429   1.377  1.00  0.00     0.010 C 
ENDBRANCH  35  36
BRANCH  35  39
ATOM     39  C   UNL     1      -1.087  -8.570  -1.910  1.00  0.00     0.329 C 
ATOM     40  O   UNL     1      -0.769  -9.678  -1.493  1.00  0.00    -0.250 OA
BRANCH  39  41
ATOM     41  O   UNL     1      -1.505  -8.338  -3.191  1.00  0.00    -0.458 OA
BRANCH  41  42
ATOM     42  C   UNL     1      -0.504  -7.844  -4.113  1.00  0.00     0.205 CG0
ATOM     43  C   UNL     1      -1.178  -6.798  -4.998  1.00  0.00     0.056 C 
ATOM     44  G   UNL     1       0.050  -9.033  -4.922  1.00  0.00     0.000 G0
ENDBRANCH  41  42
ENDBRANCH  39  41
ENDBRANCH  35  39
ENDBRANCH  33  35
ENDBRANCH  23  31
ENDBRANCH  21  23
ENDBRANCH  19  21
ENDBRANCH  14  19
ENDBRANCH   7  14
ENDBRANCH   2   5
BRANCH   3  45
ATOM     45  C   UNL     1       3.111  -8.540  -7.194  1.00  0.00     0.171 C 
BRANCH  45  46
ATOM     46  N   UNL     1       2.154  -9.018  -6.205  1.00  0.00    -0.342 N 
ATOM     47  C   UNL     1       0.877  -8.524  -6.118  1.00  0.00     0.247 C 
ATOM     48  O   UNL     1       0.424  -7.698  -6.911  1.00  0.00    -0.273 OA
ATOM     49  H   UNL     1       2.470  -9.743  -5.564  1.00  0.00     0.164 HD
BRANCH  47  50
ATOM     50  C   UNL     1       0.053  -9.057  -4.937  1.00  0.00     0.212 CG0
ATOM     51  G   UNL     1      -0.500  -7.841  -4.167  1.00  0.00     0.000 G0
BRANCH  50  52
ATOM     52  N   UNL     1      -0.991  -9.886  -5.533  1.00  0.00    -0.339 N 
ATOM     53  C   UNL     1      -1.320 -11.137  -5.070  1.00  0.00     0.243 C 
ATOM     54  O   UNL     1      -0.720 -11.678  -4.145  1.00  0.00    -0.273 OA
ATOM     55  H   UNL     1      -1.450  -9.538  -6.373  1.00  0.00     0.164 HD
BRANCH  53  56
ATOM     56  C   UNL     1      -2.393 -11.856  -5.912  1.00  0.00     0.182 C 
BRANCH  56  57
ATOM     57  N   UNL     1      -3.202 -10.894  -6.667  1.00  0.00    -0.344 N 
ATOM     58  C   UNL     1      -3.177 -10.828  -8.038  1.00  0.00     0.220 C 
ATOM     59  O   UNL     1      -2.426 -11.515  -8.722  1.00  0.00    -0.275 OA
ATOM     60  H   UNL     1      -3.909 -10.380  -6.148  1.00  0.00     0.164 HD
BRANCH  58  61
ATOM     61  C   UNL     1      -4.137  -9.800  -8.608  1.00  0.00     0.100 C 
BRANCH  61  62
ATOM     62  C   UNL     1      -5.208  -9.342  -7.618  1.00  0.00     0.010 C 
BRANCH  62  63
ATOM     63  C   UNL     1      -5.282  -7.821  -7.434  1.00  0.00     0.000 C 
BRANCH  63  64
ATOM     64  C   UNL     1      -3.924  -7.145  -7.252  1.00  0.00    -0.003 C 
ATOM     65  C   UNL     1      -4.076  -5.732  -6.707  1.00  0.00     0.004 C 
ENDBRANCH  63  64
ENDBRANCH  62  63
ENDBRANCH  61  62
ENDBRANCH  58  61
ENDBRANCH  56  57
BRANCH  56  66
ATOM     66  C   UNL     1      -3.251 -12.783  -5.052  1.00  0.00     0.157 C 
BRANCH  66  67
ATOM     67  C   UNL     1      -4.664 -12.284  -4.959  1.00  0.00     0.305 C 
ATOM     68  O   UNL     1      -5.670 -12.856  -5.351  1.00  0.00    -0.252 OA
BRANCH  67  69
ATOM     69  O   UNL     1      -4.748 -11.101  -4.323  1.00  0.00    -0.481 OA
ATOM     70  H   UNL     1      -5.509 -11.198  -3.712  1.00  0.00     0.296 HD
ENDBRANCH  67  69
ENDBRANCH  66  67
ENDBRANCH  56  66
ENDBRANCH  53  56
ENDBRANCH  50  52
ENDBRANCH  47  50
ENDBRANCH  45  46
BRANCH  45  71
ATOM     71  C   UNL     1       3.911  -9.693  -7.810  1.00  0.00     0.037 C 
BRANCH  71  72
ATOM     72  C   UNL     1       3.137 -10.399  -8.927  1.00  0.00     0.026 C 
BRANCH  72  73
ATOM     73  C   UNL     1       3.030 -11.901  -8.672  1.00  0.00     0.146 C 
BRANCH  73  74
ATOM     74  N   UNL     1       2.134 -12.462  -9.678  1.00  0.00    -0.254 NA
ATOM     75  C   UNL     1       0.888 -12.547  -9.391  1.00  0.00     0.185 C 
ATOM     76  N   UNL     1       0.039 -13.058 -10.297  1.00  0.00    -0.370 N 
ATOM     77  N   UNL     1       0.255 -12.185  -8.261  1.00  0.00    -0.370 N 
ATOM     78  H   UNL     1       0.435 -13.363 -11.174  1.00  0.00     0.159 HD
ATOM     79  H   UNL     1      -0.917 -13.289 -10.091  1.00  0.00     0.159 HD
ATOM     80  H   UNL     1       0.768 -11.781  -7.492  1.00  0.00     0.159 HD
ATOM     81  H   UNL     1      -0.749 -12.193  -8.193  1.00  0.00     0.159 HD
ENDBRANCH  73  74
ENDBRANCH  72  73
ENDBRANCH  71  72
ENDBRANCH  45  71
ENDBRANCH   3  45
TORSDOF 20
ENDMDL
MODEL 34
REMARK VINA RESULT:    -4.155     15.415     21.606
REMARK INTER + INTRA:         -17.719
REMARK INTER:                 -13.340
REMARK INTRA:                  -4.379
REMARK UNBOUND:                -5.791
REMARK SMILES CCCCCC(=O)N[C@H](CC(=O)O)C(=O)N[C@H]1C(=O)N[C@H](CCCN=C(N)N)C(=O)N[C@@H]2CC[C@H](O)N(C2=O)[C@@H](CC(C)C)C(=O)N(C)[C@@H](Cc2ccccc2)C(=O)N[C@H](C(C)C)C(=O)O[C@@H]1C
REMARK SMILES IDX 30 1 31 2 29 3 32 5 35 6 37 7 34 8 38 9 33 10 39 11 36 12
REMARK SMILES IDX 40 14 41 15 42 16 43 17 44 18 45 19 46 20 47 21 48 22 49 23
REMARK SMILES IDX 50 24 51 25 52 26 56 27 53 28 55 29 54 30 57 31 58 32 59 33
REMARK SMILES IDX 60 35 61 36 62 37 63 38 64 39 65 40 66 41 67 42 68 43 21 45
REMARK SMILES IDX 20 46 18 47 19 48 17 50 16 52 14 53 15 54 9 56 8 57 6 58
REMARK SMILES IDX 7 59 5 61 4 62 3 63 2 64 1 65 10 66 11 67 12 68 13 69 22 71
REMARK SMILES IDX 23 72 24 73 25 74 26 75 27 76 28 77
REMARK H PARENT 31 4 36 13 59 34 20 49 16 55 8 60 13 70 27 78 27 79 28 80
REMARK H PARENT 28 81
REMARK Flexibility Score:  259.900
ROOT
ATOM      1  O   UNL     1     -17.592  -5.550  -1.356  1.00  0.00    -0.273 OA
ATOM      2  N   UNL     1     -18.063  -7.247   0.102  1.00  0.00    -0.343 N 
ATOM      3  C   UNL     1     -17.560  -6.003  -0.212  1.00  0.00     0.243 C 
ATOM      4  H   UNL     1     -18.033  -7.581   1.058  1.00  0.00     0.164 HD
ENDROOT
BRANCH   2   5
ATOM      5  C   UNL     1     -18.552  -8.136  -0.945  1.00  0.00     0.171 C 
ATOM      6  C   UNL     1     -20.327 -10.428  -0.907  1.00  0.00     0.214 C 
ATOM      7  N   UNL     1     -18.904 -10.629  -0.755  1.00  0.00    -0.303 N 
ATOM      8  C   UNL     1     -20.677  -9.213  -1.751  1.00  0.00     0.057 C 
ATOM      9  C   UNL     1     -18.006  -9.575  -0.714  1.00  0.00     0.247 C 
ATOM     10  C   UNL     1     -20.058  -7.972  -1.145  1.00  0.00     0.040 C 
ATOM     11  O   UNL     1     -16.800  -9.749  -0.497  1.00  0.00    -0.272 OA
BRANCH   6  12
ATOM     12  O   UNL     1     -20.885 -10.310   0.381  1.00  0.00    -0.373 OA
ATOM     13  H   UNL     1     -20.664 -11.133   0.867  1.00  0.00     0.213 HD
ENDBRANCH   6  12
BRANCH   7  14
ATOM     14  C   UNL     1     -18.446 -12.010  -0.495  1.00  0.00     0.177 C 
BRANCH  14  15
ATOM     15  C   UNL     1     -17.773 -12.713  -1.690  1.00  0.00     0.038 C 
BRANCH  15  16
ATOM     16  C   UNL     1     -17.876 -12.088  -3.098  1.00  0.00    -0.015 C 
ATOM     17  C   UNL     1     -19.228 -12.365  -3.763  1.00  0.00     0.007 C 
ATOM     18  C   UNL     1     -16.772 -12.655  -4.000  1.00  0.00     0.007 C 
ENDBRANCH  15  16
ENDBRANCH  14  15
BRANCH  14  19
ATOM     19  C   UNL     1     -18.025 -12.169   1.006  1.00  0.00     0.245 C 
ATOM     20  O   UNL     1     -16.817 -12.353   1.232  1.00  0.00    -0.272 OA
BRANCH  19  21
ATOM     21  N   UNL     1     -18.923 -12.228   2.057  1.00  0.00    -0.332 N 
ATOM     22  C   UNL     1     -20.113 -13.059   2.104  1.00  0.00     0.147 C 
BRANCH  21  23
ATOM     23  C   UNL     1     -18.666 -11.362   3.241  1.00  0.00     0.178 C 
BRANCH  23  24
ATOM     24  C   UNL     1     -19.899 -11.099   4.129  1.00  0.00     0.070 C 
BRANCH  24  25
ATOM     25  C   UNL     1     -20.300  -9.658   4.341  1.00  0.00    -0.045 A 
ATOM     26  C   UNL     1     -20.442  -8.785   3.254  1.00  0.00     0.004 A 
ATOM     27  C   UNL     1     -20.530  -9.171   5.636  1.00  0.00     0.004 A 
ATOM     28  C   UNL     1     -20.795  -7.450   3.460  1.00  0.00     0.000 A 
ATOM     29  C   UNL     1     -20.885  -7.836   5.840  1.00  0.00     0.000 A 
ATOM     30  C   UNL     1     -21.014  -6.976   4.752  1.00  0.00     0.000 A 
ENDBRANCH  24  25
ENDBRANCH  23  24
BRANCH  23  31
ATOM     31  C   UNL     1     -17.382 -11.758   4.010  1.00  0.00     0.243 C 
ATOM     32  O   UNL     1     -17.371 -12.489   4.997  1.00  0.00    -0.273 OA
ATOM     33  N   UNL     1     -16.256 -11.064   3.601  1.00  0.00    -0.341 N 
ATOM     34  H   UNL     1     -16.329 -10.464   2.775  1.00  0.00     0.164 HD
BRANCH  33  35
ATOM     35  C   UNL     1     -14.956 -11.188   4.265  1.00  0.00     0.194 C 
BRANCH  35  36
ATOM     36  C   UNL     1     -14.831 -10.362   5.576  1.00  0.00     0.017 C 
ATOM     37  C   UNL     1     -14.676 -11.278   6.803  1.00  0.00     0.010 C 
ATOM     38  C   UNL     1     -16.038  -9.451   5.834  1.00  0.00     0.010 C 
ENDBRANCH  35  36
BRANCH  35  39
ATOM     39  C   UNL     1     -13.765 -10.929   3.301  1.00  0.00     0.329 C 
ATOM     40  O   UNL     1     -13.199 -11.806   2.659  1.00  0.00    -0.250 OA
BRANCH  39  41
ATOM     41  O   UNL     1     -13.472  -9.599   3.181  1.00  0.00    -0.458 OA
BRANCH  41  42
ATOM     42  C   UNL     1     -14.280  -8.847   2.244  1.00  0.00     0.205 CG0
ATOM     43  C   UNL     1     -13.594  -8.933   0.882  1.00  0.00     0.056 C 
ATOM     44  G   UNL     1     -14.401  -7.397   2.752  1.00  0.00     0.000 G0
ENDBRANCH  41  42
ENDBRANCH  39  41
ENDBRANCH  35  39
ENDBRANCH  33  35
ENDBRANCH  23  31
ENDBRANCH  21  23
ENDBRANCH  19  21
ENDBRANCH  14  19
ENDBRANCH   7  14
ENDBRANCH   2   5
BRANCH   3  45
ATOM     45  C   UNL     1     -16.978  -5.213   0.968  1.00  0.00     0.171 C 
BRANCH  45  46
ATOM     46  N   UNL     1     -15.776  -5.932   1.369  1.00  0.00    -0.342 N 
ATOM     47  C   UNL     1     -15.768  -6.834   2.403  1.00  0.00     0.247 C 
ATOM     48  O   UNL     1     -16.786  -7.154   3.018  1.00  0.00    -0.273 OA
ATOM     49  H   UNL     1     -14.922  -5.738   0.849  1.00  0.00     0.164 HD
BRANCH  47  50
ATOM     50  C   UNL     1     -14.387  -7.400   2.762  1.00  0.00     0.212 CG0
ATOM     51  G   UNL     1     -14.323  -8.846   2.234  1.00  0.00     0.000 G0
BRANCH  50  52
ATOM     52  N   UNL     1     -13.423  -6.508   2.123  1.00  0.00    -0.339 N 
ATOM     53  C   UNL     1     -12.575  -5.685   2.824  1.00  0.00     0.243 C 
ATOM     54  O   UNL     1     -12.600  -5.596   4.048  1.00  0.00    -0.273 OA
ATOM     55  H   UNL     1     -13.431  -6.454   1.107  1.00  0.00     0.164 HD
BRANCH  53  56
ATOM     56  C   UNL     1     -11.708  -4.772   1.932  1.00  0.00     0.182 C 
BRANCH  56  57
ATOM     57  N   UNL     1     -12.235  -3.404   1.911  1.00  0.00    -0.344 N 
ATOM     58  C   UNL     1     -13.231  -3.012   1.050  1.00  0.00     0.220 C 
ATOM     59  O   UNL     1     -13.697  -3.755   0.193  1.00  0.00    -0.275 OA
ATOM     60  H   UNL     1     -11.950  -2.789   2.668  1.00  0.00     0.164 HD
BRANCH  58  61
ATOM     61  C   UNL     1     -13.660  -1.570   1.243  1.00  0.00     0.100 C 
BRANCH  61  62
ATOM     62  C   UNL     1     -14.558  -1.039   0.124  1.00  0.00     0.010 C 
BRANCH  62  63
ATOM     63  C   UNL     1     -15.038   0.403   0.336  1.00  0.00     0.000 C 
BRANCH  63  64
ATOM     64  C   UNL     1     -16.457   0.670  -0.162  1.00  0.00    -0.003 C 
ATOM     65  C   UNL     1     -17.494   0.286   0.883  1.00  0.00     0.004 C 
ENDBRANCH  63  64
ENDBRANCH  62  63
ENDBRANCH  61  62
ENDBRANCH  58  61
ENDBRANCH  56  57
BRANCH  56  66
ATOM     66  C   UNL     1     -11.547  -5.351   0.528  1.00  0.00     0.157 C 
BRANCH  66  67
ATOM     67  C   UNL     1     -10.135  -5.799   0.283  1.00  0.00     0.305 C 
ATOM     68  O   UNL     1      -9.677  -6.915   0.474  1.00  0.00    -0.252 OA
BRANCH  67  69
ATOM     69  O   UNL     1      -9.372  -4.823  -0.244  1.00  0.00    -0.481 OA
ATOM     70  H   UNL     1      -9.816  -3.989   0.019  1.00  0.00     0.296 HD
ENDBRANCH  67  69
ENDBRANCH  66  67
ENDBRANCH  56  66
ENDBRANCH  53  56
ENDBRANCH  50  52
ENDBRANCH  47  50
ENDBRANCH  45  46
BRANCH  45  71
ATOM     71  C   UNL     1     -17.996  -5.131   2.111  1.00  0.00     0.037 C 
BRANCH  71  72
ATOM     72  C   UNL     1     -17.747  -3.924   3.019  1.00  0.00     0.026 C 
BRANCH  72  73
ATOM     73  C   UNL     1     -16.622  -3.042   2.482  1.00  0.00     0.146 C 
BRANCH  73  74
ATOM     74  N   UNL     1     -16.216  -2.136   3.552  1.00  0.00    -0.254 NA
ATOM     75  C   UNL     1     -15.415  -2.587   4.446  1.00  0.00     0.185 C 
ATOM     76  N   UNL     1     -15.022  -1.777   5.443  1.00  0.00    -0.370 N 
ATOM     77  N   UNL     1     -14.873  -3.812   4.554  1.00  0.00    -0.370 N 
ATOM     78  H   UNL     1     -15.391  -0.836   5.441  1.00  0.00     0.159 HD
ATOM     79  H   UNL     1     -14.518  -2.098   6.250  1.00  0.00     0.159 HD
ATOM     80  H   UNL     1     -15.077  -4.526   3.872  1.00  0.00     0.159 HD
ATOM     81  H   UNL     1     -14.164  -4.017   5.239  1.00  0.00     0.159 HD
ENDBRANCH  73  74
ENDBRANCH  72  73
ENDBRANCH  71  72
ENDBRANCH  45  71
ENDBRANCH   3  45
TORSDOF 20
ENDMDL
MODEL 35
REMARK VINA RESULT:    -4.095      2.548     10.886
REMARK INTER + INTRA:         -17.547
REMARK INTER:                 -15.371
REMARK INTRA:                  -2.176
REMARK UNBOUND:                -5.791
REMARK SMILES CCCCCC(=O)N[C@H](CC(=O)O)C(=O)N[C@H]1C(=O)N[C@H](CCCN=C(N)N)C(=O)N[C@@H]2CC[C@H](O)N(C2=O)[C@@H](CC(C)C)C(=O)N(C)[C@@H](Cc2ccccc2)C(=O)N[C@H](C(C)C)C(=O)O[C@@H]1C
REMARK SMILES IDX 30 1 31 2 29 3 32 5 35 6 37 7 34 8 38 9 33 10 39 11 36 12
REMARK SMILES IDX 40 14 41 15 42 16 43 17 44 18 45 19 46 20 47 21 48 22 49 23
REMARK SMILES IDX 50 24 51 25 52 26 56 27 53 28 55 29 54 30 57 31 58 32 59 33
REMARK SMILES IDX 60 35 61 36 62 37 63 38 64 39 65 40 66 41 67 42 68 43 21 45
REMARK SMILES IDX 20 46 18 47 19 48 17 50 16 52 14 53 15 54 9 56 8 57 6 58
REMARK SMILES IDX 7 59 5 61 4 62 3 63 2 64 1 65 10 66 11 67 12 68 13 69 22 71
REMARK SMILES IDX 23 72 24 73 25 74 26 75 27 76 28 77
REMARK H PARENT 31 4 36 13 59 34 20 49 16 55 8 60 13 70 27 78 27 79 28 80
REMARK H PARENT 28 81
REMARK Flexibility Score:  259.900
ROOT
ATOM      1  O   UNL     1       0.220  -5.994  -4.174  1.00  0.00    -0.273 OA
ATOM      2  N   UNL     1       0.407  -7.979  -3.055  1.00  0.00    -0.343 N 
ATOM      3  C   UNL     1       0.659  -7.143  -4.121  1.00  0.00     0.243 C 
ATOM      4  H   UNL     1       0.798  -8.913  -3.038  1.00  0.00     0.164 HD
ENDROOT
BRANCH   2   5
ATOM      5  C   UNL     1      -0.500  -7.570  -1.988  1.00  0.00     0.171 C 
ATOM      6  C   UNL     1      -1.973  -5.122  -1.494  1.00  0.00     0.214 C 
ATOM      7  N   UNL     1      -0.648  -5.278  -0.940  1.00  0.00    -0.303 N 
ATOM      8  C   UNL     1      -2.720  -6.438  -1.647  1.00  0.00     0.057 C 
ATOM      9  C   UNL     1       0.130  -6.400  -1.180  1.00  0.00     0.247 C 
ATOM     10  C   UNL     1      -1.920  -7.382  -2.519  1.00  0.00     0.040 C 
ATOM     11  O   UNL     1       1.296  -6.488  -0.774  1.00  0.00    -0.272 OA
BRANCH   6  12
ATOM     12  O   UNL     1      -1.846  -4.480  -2.741  1.00  0.00    -0.373 OA
ATOM     13  H   UNL     1      -1.353  -5.091  -3.330  1.00  0.00     0.213 HD
ENDBRANCH   6  12
BRANCH   7  14
ATOM     14  C   UNL     1      -0.083  -4.119  -0.218  1.00  0.00     0.177 C 
BRANCH  14  15
ATOM     15  C   UNL     1       0.018  -4.284   1.311  1.00  0.00     0.038 C 
BRANCH  15  16
ATOM     16  C   UNL     1      -1.148  -3.808   2.206  1.00  0.00    -0.015 C 
ATOM     17  C   UNL     1      -1.152  -2.289   2.401  1.00  0.00     0.007 C 
ATOM     18  C   UNL     1      -1.045  -4.469   3.587  1.00  0.00     0.007 C 
ENDBRANCH  15  16
ENDBRANCH  14  15
BRANCH  14  19
ATOM     19  C   UNL     1       0.959  -3.372  -1.120  1.00  0.00     0.245 C 
ATOM     20  O   UNL     1       0.701  -3.302  -2.333  1.00  0.00    -0.272 OA
BRANCH  19  21
ATOM     21  N   UNL     1       2.176  -2.898  -0.662  1.00  0.00    -0.332 N 
ATOM     22  C   UNL     1       2.359  -1.753   0.212  1.00  0.00     0.147 C 
BRANCH  21  23
ATOM     23  C   UNL     1       3.409  -3.606  -1.103  1.00  0.00     0.178 C 
BRANCH  23  24
ATOM     24  C   UNL     1       3.165  -4.978  -1.763  1.00  0.00     0.070 C 
BRANCH  24  25
ATOM     25  C   UNL     1       4.346  -5.916  -1.858  1.00  0.00    -0.045 A 
ATOM     26  C   UNL     1       4.277  -7.081  -2.633  1.00  0.00     0.004 A 
ATOM     27  C   UNL     1       5.532  -5.633  -1.163  1.00  0.00     0.004 A 
ATOM     28  C   UNL     1       5.367  -7.951  -2.701  1.00  0.00     0.000 A 
ATOM     29  C   UNL     1       6.621  -6.504  -1.234  1.00  0.00     0.000 A 
ATOM     30  C   UNL     1       6.536  -7.664  -2.001  1.00  0.00     0.000 A 
ENDBRANCH  24  25
ENDBRANCH  23  24
BRANCH  23  31
ATOM     31  C   UNL     1       4.395  -2.685  -1.861  1.00  0.00     0.243 C 
ATOM     32  O   UNL     1       5.193  -1.931  -1.310  1.00  0.00    -0.273 OA
ATOM     33  N   UNL     1       4.174  -2.644  -3.228  1.00  0.00    -0.341 N 
ATOM     34  H   UNL     1       3.491  -3.292  -3.628  1.00  0.00     0.164 HD
BRANCH  33  35
ATOM     35  C   UNL     1       4.908  -1.752  -4.129  1.00  0.00     0.194 C 
BRANCH  35  36
ATOM     36  C   UNL     1       4.238  -0.363  -4.333  1.00  0.00     0.017 C 
ATOM     37  C   UNL     1       5.287   0.761  -4.384  1.00  0.00     0.010 C 
ATOM     38  C   UNL     1       3.238  -0.007  -3.227  1.00  0.00     0.010 C 
ENDBRANCH  35  36
BRANCH  35  39
ATOM     39  C   UNL     1       5.263  -2.429  -5.483  1.00  0.00     0.329 C 
ATOM     40  O   UNL     1       6.340  -2.302  -6.052  1.00  0.00    -0.250 OA
BRANCH  39  41
ATOM     41  O   UNL     1       4.267  -3.254  -5.927  1.00  0.00    -0.458 OA
BRANCH  41  42
ATOM     42  C   UNL     1       4.411  -4.660  -5.612  1.00  0.00     0.205 CG0
ATOM     43  C   UNL     1       5.819  -4.858  -5.054  1.00  0.00     0.056 C 
ATOM     44  G   UNL     1       4.164  -5.479  -6.894  1.00  0.00     0.000 G0
ENDBRANCH  41  42
ENDBRANCH  39  41
ENDBRANCH  35  39
ENDBRANCH  33  35
ENDBRANCH  23  31
ENDBRANCH  21  23
ENDBRANCH  19  21
ENDBRANCH  14  19
ENDBRANCH   7  14
ENDBRANCH   2   5
BRANCH   3  45
ATOM     45  C   UNL     1       1.543  -7.736  -5.227  1.00  0.00     0.171 C 
BRANCH  45  46
ATOM     46  N   UNL     1       2.315  -6.619  -5.755  1.00  0.00    -0.342 N 
ATOM     47  C   UNL     1       3.410  -6.798  -6.562  1.00  0.00     0.247 C 
ATOM     48  O   UNL     1       3.775  -7.906  -6.958  1.00  0.00    -0.273 OA
ATOM     49  H   UNL     1       2.013  -5.681  -5.497  1.00  0.00     0.164 HD
BRANCH  47  50
ATOM     50  C   UNL     1       4.171  -5.514  -6.919  1.00  0.00     0.212 CG0
ATOM     51  G   UNL     1       4.360  -4.706  -5.620  1.00  0.00     0.000 G0
BRANCH  50  52
ATOM     52  N   UNL     1       5.430  -5.959  -7.510  1.00  0.00    -0.339 N 
ATOM     53  C   UNL     1       6.158  -5.202  -8.396  1.00  0.00     0.243 C 
ATOM     54  O   UNL     1       5.776  -4.108  -8.802  1.00  0.00    -0.273 OA
ATOM     55  H   UNL     1       5.744  -6.904  -7.299  1.00  0.00     0.164 HD
BRANCH  53  56
ATOM     56  C   UNL     1       7.408  -5.915  -8.952  1.00  0.00     0.182 C 
BRANCH  56  57
ATOM     57  N   UNL     1       7.040  -6.900  -9.975  1.00  0.00    -0.344 N 
ATOM     58  C   UNL     1       7.536  -6.852 -11.255  1.00  0.00     0.220 C 
ATOM     59  O   UNL     1       8.259  -5.945 -11.652  1.00  0.00    -0.275 OA
ATOM     60  H   UNL     1       6.528  -7.720  -9.661  1.00  0.00     0.164 HD
BRANCH  58  61
ATOM     61  C   UNL     1       7.067  -8.003 -12.125  1.00  0.00     0.100 C 
BRANCH  61  62
ATOM     62  C   UNL     1       5.968  -8.851 -11.485  1.00  0.00     0.010 C 
BRANCH  62  63
ATOM     63  C   UNL     1       4.550  -8.496 -11.951  1.00  0.00     0.000 C 
BRANCH  63  64
ATOM     64  C   UNL     1       3.760  -9.678 -12.511  1.00  0.00    -0.003 C 
ATOM     65  C   UNL     1       2.268  -9.380 -12.551  1.00  0.00     0.004 C 
ENDBRANCH  63  64
ENDBRANCH  62  63
ENDBRANCH  61  62
ENDBRANCH  58  61
ENDBRANCH  56  57
BRANCH  56  66
ATOM     66  C   UNL     1       8.245  -6.531  -7.833  1.00  0.00     0.157 C 
BRANCH  66  67
ATOM     67  C   UNL     1       7.568  -7.737  -7.247  1.00  0.00     0.305 C 
ATOM     68  O   UNL     1       7.225  -8.747  -7.843  1.00  0.00    -0.252 OA
BRANCH  67  69
ATOM     69  O   UNL     1       7.399  -7.632  -5.915  1.00  0.00    -0.481 OA
ATOM     70  H   UNL     1       7.701  -8.493  -5.556  1.00  0.00     0.296 HD
ENDBRANCH  67  69
ENDBRANCH  66  67
ENDBRANCH  56  66
ENDBRANCH  53  56
ENDBRANCH  50  52
ENDBRANCH  47  50
ENDBRANCH  45  46
BRANCH  45  71
ATOM     71  C   UNL     1       0.676  -8.387  -6.310  1.00  0.00     0.037 C 
BRANCH  71  72
ATOM     72  C   UNL     1      -0.345  -7.409  -6.897  1.00  0.00     0.026 C 
BRANCH  72  73
ATOM     73  C   UNL     1      -1.771  -7.779  -6.494  1.00  0.00     0.146 C 
BRANCH  73  74
ATOM     74  N   UNL     1      -2.685  -6.988  -7.312  1.00  0.00    -0.254 NA
ATOM     75  C   UNL     1      -3.914  -7.352  -7.359  1.00  0.00     0.185 C 
ATOM     76  N   UNL     1      -4.780  -6.644  -8.102  1.00  0.00    -0.370 N 
ATOM     77  N   UNL     1      -4.511  -8.390  -6.748  1.00  0.00    -0.370 N 
ATOM     78  H   UNL     1      -4.409  -5.849  -8.602  1.00  0.00     0.159 HD
ATOM     79  H   UNL     1      -5.716  -6.949  -8.302  1.00  0.00     0.159 HD
ATOM     80  H   UNL     1      -3.983  -9.009  -6.152  1.00  0.00     0.159 HD
ATOM     81  H   UNL     1      -5.511  -8.510  -6.767  1.00  0.00     0.159 HD
ENDBRANCH  73  74
ENDBRANCH  72  73
ENDBRANCH  71  72
ENDBRANCH  45  71
ENDBRANCH   3  45
TORSDOF 20
ENDMDL
MODEL 36
REMARK VINA RESULT:    -4.039     19.516     24.711
REMARK INTER + INTRA:         -17.386
REMARK INTER:                 -14.804
REMARK INTRA:                  -2.582
REMARK UNBOUND:                -5.791
REMARK SMILES CCCCCC(=O)N[C@H](CC(=O)O)C(=O)N[C@H]1C(=O)N[C@H](CCCN=C(N)N)C(=O)N[C@@H]2CC[C@H](O)N(C2=O)[C@@H](CC(C)C)C(=O)N(C)[C@@H](Cc2ccccc2)C(=O)N[C@H](C(C)C)C(=O)O[C@@H]1C
REMARK SMILES IDX 30 1 31 2 29 3 32 5 35 6 37 7 34 8 38 9 33 10 39 11 36 12
REMARK SMILES IDX 40 14 41 15 42 16 43 17 44 18 45 19 46 20 47 21 48 22 49 23
REMARK SMILES IDX 50 24 51 25 52 26 56 27 53 28 55 29 54 30 57 31 58 32 59 33
REMARK SMILES IDX 60 35 61 36 62 37 63 38 64 39 65 40 66 41 67 42 68 43 21 45
REMARK SMILES IDX 20 46 18 47 19 48 17 50 16 52 14 53 15 54 9 56 8 57 6 58
REMARK SMILES IDX 7 59 5 61 4 62 3 63 2 64 1 65 10 66 11 67 12 68 13 69 22 71
REMARK SMILES IDX 23 72 24 73 25 74 26 75 27 76 28 77
REMARK H PARENT 31 4 36 13 59 34 20 49 16 55 8 60 13 70 27 78 27 79 28 80
REMARK H PARENT 28 81
REMARK Flexibility Score:  259.900
ROOT
ATOM      1  O   UNL     1     -16.518   9.067  -1.813  1.00  0.00    -0.273 OA
ATOM      2  N   UNL     1     -18.580  10.031  -2.039  1.00  0.00    -0.343 N 
ATOM      3  C   UNL     1     -17.727   9.050  -1.580  1.00  0.00     0.243 C 
ATOM      4  H   UNL     1     -19.566   9.992  -1.816  1.00  0.00     0.164 HD
ENDROOT
BRANCH   2   5
ATOM      5  C   UNL     1     -18.094  11.078  -2.931  1.00  0.00     0.171 C 
ATOM      6  C   UNL     1     -19.396  12.692  -4.957  1.00  0.00     0.214 C 
ATOM      7  N   UNL     1     -18.780  11.441  -5.333  1.00  0.00    -0.303 N 
ATOM      8  C   UNL     1     -18.720  13.364  -3.773  1.00  0.00     0.057 C 
ATOM      9  C   UNL     1     -18.186  10.598  -4.408  1.00  0.00     0.247 C 
ATOM     10  C   UNL     1     -18.721  12.428  -2.584  1.00  0.00     0.040 C 
ATOM     11  O   UNL     1     -17.737   9.489  -4.724  1.00  0.00    -0.272 OA
BRANCH   6  12
ATOM     12  O   UNL     1     -20.751  12.435  -4.670  1.00  0.00    -0.373 OA
ATOM     13  H   UNL     1     -21.224  12.392  -5.529  1.00  0.00     0.213 HD
ENDBRANCH   6  12
BRANCH   7  14
ATOM     14  C   UNL     1     -18.934  11.013  -6.740  1.00  0.00     0.177 C 
BRANCH  14  15
ATOM     15  C   UNL     1     -20.389  10.908  -7.238  1.00  0.00     0.038 C 
BRANCH  15  16
ATOM     16  C   UNL     1     -20.692  10.144  -8.546  1.00  0.00    -0.015 C 
ATOM     17  C   UNL     1     -21.438  11.007  -9.567  1.00  0.00     0.007 C 
ATOM     18  C   UNL     1     -21.553   8.912  -8.239  1.00  0.00     0.007 C 
ENDBRANCH  15  16
ENDBRANCH  14  15
BRANCH  14  19
ATOM     19  C   UNL     1     -17.717  11.507  -7.595  1.00  0.00     0.245 C 
ATOM     20  O   UNL     1     -17.950  11.814  -8.776  1.00  0.00    -0.272 OA
BRANCH  19  21
ATOM     21  N   UNL     1     -16.408  11.510  -7.144  1.00  0.00    -0.332 N 
ATOM     22  C   UNL     1     -15.750  12.617  -6.474  1.00  0.00     0.147 C 
BRANCH  21  23
ATOM     23  C   UNL     1     -15.593  10.284  -7.369  1.00  0.00     0.178 C 
BRANCH  23  24
ATOM     24  C   UNL     1     -14.538  10.407  -8.487  1.00  0.00     0.070 C 
BRANCH  24  25
ATOM     25  C   UNL     1     -14.211  11.800  -8.975  1.00  0.00    -0.045 A 
ATOM     26  C   UNL     1     -14.999  12.422  -9.951  1.00  0.00     0.004 A 
ATOM     27  C   UNL     1     -13.104  12.489  -8.456  1.00  0.00     0.004 A 
ATOM     28  C   UNL     1     -14.680  13.702 -10.409  1.00  0.00     0.000 A 
ATOM     29  C   UNL     1     -12.787  13.769  -8.914  1.00  0.00     0.000 A 
ATOM     30  C   UNL     1     -13.574  14.373  -9.892  1.00  0.00     0.000 A 
ENDBRANCH  24  25
ENDBRANCH  23  24
BRANCH  23  31
ATOM     31  C   UNL     1     -15.077   9.653  -6.054  1.00  0.00     0.243 C 
ATOM     32  O   UNL     1     -14.332  10.226  -5.263  1.00  0.00    -0.273 OA
ATOM     33  N   UNL     1     -15.379   8.307  -5.930  1.00  0.00    -0.341 N 
ATOM     34  H   UNL     1     -16.000   7.884  -6.624  1.00  0.00     0.164 HD
BRANCH  33  35
ATOM     35  C   UNL     1     -14.891   7.477  -4.826  1.00  0.00     0.194 C 
BRANCH  35  36
ATOM     36  C   UNL     1     -13.347   7.301  -4.798  1.00  0.00     0.017 C 
ATOM     37  C   UNL     1     -12.758   7.301  -6.219  1.00  0.00     0.010 C 
ATOM     38  C   UNL     1     -12.899   6.003  -4.115  1.00  0.00     0.010 C 
ENDBRANCH  35  36
BRANCH  35  39
ATOM     39  C   UNL     1     -15.632   6.114  -4.730  1.00  0.00     0.329 C 
ATOM     40  O   UNL     1     -15.319   5.116  -5.369  1.00  0.00    -0.250 OA
BRANCH  39  41
ATOM     41  O   UNL     1     -16.622   6.126  -3.786  1.00  0.00    -0.458 OA
BRANCH  41  42
ATOM     42  C   UNL     1     -17.774   5.292  -4.055  1.00  0.00     0.205 CG0
ATOM     43  C   UNL     1     -18.824   6.172  -4.730  1.00  0.00     0.056 C 
ATOM     44  G   UNL     1     -18.272   4.696  -2.723  1.00  0.00     0.000 G0
ENDBRANCH  41  42
ENDBRANCH  39  41
ENDBRANCH  35  39
ENDBRANCH  33  35
ENDBRANCH  23  31
ENDBRANCH  21  23
ENDBRANCH  19  21
ENDBRANCH  14  19
ENDBRANCH   7  14
ENDBRANCH   2   5
BRANCH   3  45
ATOM     45  C   UNL     1     -18.386   7.947  -0.741  1.00  0.00     0.171 C 
BRANCH  45  46
ATOM     46  N   UNL     1     -18.640   6.849  -1.663  1.00  0.00    -0.342 N 
ATOM     47  C   UNL     1     -17.973   5.652  -1.586  1.00  0.00     0.247 C 
ATOM     48  O   UNL     1     -17.167   5.393  -0.691  1.00  0.00    -0.273 OA
ATOM     49  H   UNL     1     -19.342   7.001  -2.386  1.00  0.00     0.164 HD
BRANCH  47  50
ATOM     50  C   UNL     1     -18.282   4.661  -2.717  1.00  0.00     0.212 CG0
ATOM     51  G   UNL     1     -17.798   5.292  -4.037  1.00  0.00     0.000 G0
BRANCH  50  52
ATOM     52  N   UNL     1     -17.569   3.436  -2.366  1.00  0.00    -0.339 N 
ATOM     53  C   UNL     1     -18.186   2.216  -2.224  1.00  0.00     0.243 C 
ATOM     54  O   UNL     1     -19.401   2.073  -2.329  1.00  0.00    -0.273 OA
ATOM     55  H   UNL     1     -16.576   3.510  -2.157  1.00  0.00     0.164 HD
BRANCH  53  56
ATOM     56  C   UNL     1     -17.243   1.086  -1.766  1.00  0.00     0.182 C 
BRANCH  56  57
ATOM     57  N   UNL     1     -16.537   1.455  -0.535  1.00  0.00    -0.344 N 
ATOM     58  C   UNL     1     -16.955   1.040   0.706  1.00  0.00     0.220 C 
ATOM     59  O   UNL     1     -17.984   0.396   0.878  1.00  0.00    -0.275 OA
ATOM     60  H   UNL     1     -15.629   1.900  -0.640  1.00  0.00     0.164 HD
BRANCH  58  61
ATOM     61  C   UNL     1     -16.042   1.492   1.831  1.00  0.00     0.100 C 
BRANCH  61  62
ATOM     62  C   UNL     1     -15.726   0.394   2.847  1.00  0.00     0.010 C 
BRANCH  62  63
ATOM     63  C   UNL     1     -15.162  -0.891   2.228  1.00  0.00     0.000 C 
BRANCH  63  64
ATOM     64  C   UNL     1     -14.264  -1.696   3.166  1.00  0.00    -0.003 C 
ATOM     65  C   UNL     1     -15.042  -2.222   4.363  1.00  0.00     0.004 C 
ENDBRANCH  63  64
ENDBRANCH  62  63
ENDBRANCH  61  62
ENDBRANCH  58  61
ENDBRANCH  56  57
BRANCH  56  66
ATOM     66  C   UNL     1     -16.282   0.672  -2.879  1.00  0.00     0.157 C 
BRANCH  66  67
ATOM     67  C   UNL     1     -15.087  -0.050  -2.326  1.00  0.00     0.305 C 
ATOM     68  O   UNL     1     -13.969   0.410  -2.151  1.00  0.00    -0.252 OA
BRANCH  67  69
ATOM     69  O   UNL     1     -15.375  -1.316  -1.969  1.00  0.00    -0.481 OA
ATOM     70  H   UNL     1     -16.171  -1.550  -2.493  1.00  0.00     0.296 HD
ENDBRANCH  67  69
ENDBRANCH  66  67
ENDBRANCH  56  66
ENDBRANCH  53  56
ENDBRANCH  50  52
ENDBRANCH  47  50
ENDBRANCH  45  46
BRANCH  45  71
ATOM     71  C   UNL     1     -19.681   8.463  -0.104  1.00  0.00     0.037 C 
BRANCH  71  72
ATOM     72  C   UNL     1     -19.459   8.973   1.322  1.00  0.00     0.026 C 
BRANCH  72  73
ATOM     73  C   UNL     1     -18.002   8.814   1.753  1.00  0.00     0.146 C 
BRANCH  73  74
ATOM     74  N   UNL     1     -17.994   8.354   3.138  1.00  0.00    -0.254 NA
ATOM     75  C   UNL     1     -17.017   8.718   3.884  1.00  0.00     0.185 C 
ATOM     76  N   UNL     1     -16.982   8.311   5.164  1.00  0.00    -0.370 N 
ATOM     77  N   UNL     1     -15.959   9.487   3.575  1.00  0.00    -0.370 N 
ATOM     78  H   UNL     1     -17.739   7.721   5.477  1.00  0.00     0.159 HD
ATOM     79  H   UNL     1     -16.184   8.434   5.762  1.00  0.00     0.159 HD
ATOM     80  H   UNL     1     -15.855   9.869   2.647  1.00  0.00     0.159 HD
ATOM     81  H   UNL     1     -15.312   9.803   4.279  1.00  0.00     0.159 HD
ENDBRANCH  73  74
ENDBRANCH  72  73
ENDBRANCH  71  72
ENDBRANCH  45  71
ENDBRANCH   3  45
TORSDOF 20
ENDMDL
MODEL 37
REMARK VINA RESULT:    -3.998      2.395      4.925
REMARK INTER + INTRA:         -17.268
REMARK INTER:                 -14.467
REMARK INTRA:                  -2.801
REMARK UNBOUND:                -5.791
REMARK SMILES CCCCCC(=O)N[C@H](CC(=O)O)C(=O)N[C@H]1C(=O)N[C@H](CCCN=C(N)N)C(=O)N[C@@H]2CC[C@H](O)N(C2=O)[C@@H](CC(C)C)C(=O)N(C)[C@@H](Cc2ccccc2)C(=O)N[C@H](C(C)C)C(=O)O[C@@H]1C
REMARK SMILES IDX 30 1 31 2 29 3 32 5 35 6 37 7 34 8 38 9 33 10 39 11 36 12
REMARK SMILES IDX 40 14 41 15 42 16 43 17 44 18 45 19 46 20 47 21 48 22 49 23
REMARK SMILES IDX 50 24 51 25 52 26 56 27 53 28 55 29 54 30 57 31 58 32 59 33
REMARK SMILES IDX 60 35 61 36 62 37 63 38 64 39 65 40 66 41 67 42 68 43 21 45
REMARK SMILES IDX 20 46 18 47 19 48 17 50 16 52 14 53 15 54 9 56 8 57 6 58
REMARK SMILES IDX 7 59 5 61 4 62 3 63 2 64 1 65 10 66 11 67 12 68 13 69 22 71
REMARK SMILES IDX 23 72 24 73 25 74 26 75 27 76 28 77
REMARK H PARENT 31 4 36 13 59 34 20 49 16 55 8 60 13 70 27 78 27 79 28 80
REMARK H PARENT 28 81
REMARK Flexibility Score:  259.900
ROOT
ATOM      1  O   UNL     1       3.432  -3.024  -2.643  1.00  0.00    -0.273 OA
ATOM      2  N   UNL     1       3.886  -5.163  -1.972  1.00  0.00    -0.343 N 
ATOM      3  C   UNL     1       3.149  -3.999  -1.946  1.00  0.00     0.243 C 
ATOM      4  H   UNL     1       3.615  -5.949  -1.395  1.00  0.00     0.164 HD
ENDROOT
BRANCH   2   5
ATOM      5  C   UNL     1       5.117  -5.244  -2.751  1.00  0.00     0.171 C 
ATOM      6  C   UNL     1       6.909  -3.226  -3.811  1.00  0.00     0.214 C 
ATOM      7  N   UNL     1       5.814  -3.702  -4.624  1.00  0.00    -0.303 N 
ATOM      8  C   UNL     1       7.434  -4.271  -2.839  1.00  0.00     0.057 C 
ATOM      9  C   UNL     1       4.892  -4.627  -4.160  1.00  0.00     0.247 C 
ATOM     10  C   UNL     1       6.313  -4.745  -1.940  1.00  0.00     0.040 C 
ATOM     11  O   UNL     1       3.907  -4.964  -4.831  1.00  0.00    -0.272 OA
BRANCH   6  12
ATOM     12  O   UNL     1       6.464  -2.085  -3.114  1.00  0.00    -0.373 OA
ATOM     13  H   UNL     1       6.320  -1.380  -3.780  1.00  0.00     0.213 HD
ENDBRANCH   6  12
BRANCH   7  14
ATOM     14  C   UNL     1       5.621  -3.050  -5.936  1.00  0.00     0.177 C 
BRANCH  14  15
ATOM     15  C   UNL     1       6.107  -1.590  -6.022  1.00  0.00     0.038 C 
BRANCH  15  16
ATOM     16  C   UNL     1       7.527  -1.291  -6.552  1.00  0.00    -0.015 C 
ATOM     17  C   UNL     1       8.036   0.086  -6.115  1.00  0.00     0.007 C 
ATOM     18  C   UNL     1       7.529  -1.339  -8.085  1.00  0.00     0.007 C 
ENDBRANCH  15  16
ENDBRANCH  14  15
BRANCH  14  19
ATOM     19  C   UNL     1       5.721  -4.108  -7.089  1.00  0.00     0.245 C 
ATOM     20  O   UNL     1       5.074  -3.871  -8.123  1.00  0.00    -0.272 OA
BRANCH  19  21
ATOM     21  N   UNL     1       6.385  -5.316  -6.971  1.00  0.00    -0.332 N 
ATOM     22  C   UNL     1       7.671  -5.512  -6.325  1.00  0.00     0.147 C 
BRANCH  21  23
ATOM     23  C   UNL     1       5.743  -6.524  -7.560  1.00  0.00     0.178 C 
BRANCH  23  24
ATOM     24  C   UNL     1       6.719  -7.511  -8.232  1.00  0.00     0.070 C 
BRANCH  24  25
ATOM     25  C   UNL     1       6.579  -7.710  -9.723  1.00  0.00    -0.045 A 
ATOM     26  C   UNL     1       7.149  -6.802 -10.625  1.00  0.00     0.004 A 
ATOM     27  C   UNL     1       5.869  -8.810 -10.227  1.00  0.00     0.004 A 
ATOM     28  C   UNL     1       7.001  -6.984 -12.001  1.00  0.00     0.000 A 
ATOM     29  C   UNL     1       5.723  -8.991 -11.603  1.00  0.00     0.000 A 
ATOM     30  C   UNL     1       6.287  -8.076 -12.489  1.00  0.00     0.000 A 
ENDBRANCH  24  25
ENDBRANCH  23  24
BRANCH  23  31
ATOM     31  C   UNL     1       4.702  -7.175  -6.618  1.00  0.00     0.243 C 
ATOM     32  O   UNL     1       4.991  -7.922  -5.687  1.00  0.00    -0.273 OA
ATOM     33  N   UNL     1       3.393  -6.992  -7.029  1.00  0.00    -0.341 N 
ATOM     34  H   UNL     1       3.215  -6.362  -7.816  1.00  0.00     0.164 HD
BRANCH  33  35
ATOM     35  C   UNL     1       2.250  -7.617  -6.358  1.00  0.00     0.194 C 
BRANCH  35  36
ATOM     36  C   UNL     1       1.915  -9.045  -6.874  1.00  0.00     0.017 C 
ATOM     37  C   UNL     1       2.213 -10.111  -5.805  1.00  0.00     0.010 C 
ATOM     38  C   UNL     1       2.696  -9.431  -8.136  1.00  0.00     0.010 C 
ENDBRANCH  35  36
BRANCH  35  39
ATOM     39  C   UNL     1       0.995  -6.700  -6.334  1.00  0.00     0.329 C 
ATOM     40  O   UNL     1       0.297  -6.466  -7.314  1.00  0.00    -0.250 OA
BRANCH  39  41
ATOM     41  O   UNL     1       0.704  -6.251  -5.076  1.00  0.00    -0.458 OA
BRANCH  41  42
ATOM     42  C   UNL     1       0.346  -7.260  -4.102  1.00  0.00     0.205 CG0
ATOM     43  C   UNL     1      -0.667  -8.191  -4.764  1.00  0.00     0.056 C 
ATOM     44  G   UNL     1      -0.227  -6.558  -2.854  1.00  0.00     0.000 G0
ENDBRANCH  41  42
ENDBRANCH  39  41
ENDBRANCH  35  39
ENDBRANCH  33  35
ENDBRANCH  23  31
ENDBRANCH  21  23
ENDBRANCH  19  21
ENDBRANCH  14  19
ENDBRANCH   7  14
ENDBRANCH   2   5
BRANCH   3  45
ATOM     45  C   UNL     1       1.939  -4.009  -1.003  1.00  0.00     0.171 C 
BRANCH  45  46
ATOM     46  N   UNL     1       0.874  -4.680  -1.736  1.00  0.00    -0.342 N 
ATOM     47  C   UNL     1       0.864  -6.037  -1.943  1.00  0.00     0.247 C 
ATOM     48  O   UNL     1       1.712  -6.792  -1.465  1.00  0.00    -0.273 OA
ATOM     49  H   UNL     1       0.122  -4.099  -2.101  1.00  0.00     0.164 HD
BRANCH  47  50
ATOM     50  C   UNL     1      -0.269  -6.549  -2.843  1.00  0.00     0.212 CG0
ATOM     51  G   UNL     1       0.376  -7.225  -4.069  1.00  0.00     0.000 G0
BRANCH  50  52
ATOM     52  N   UNL     1      -1.038  -7.472  -2.013  1.00  0.00    -0.339 N 
ATOM     53  C   UNL     1      -1.827  -7.068  -0.964  1.00  0.00     0.243 C 
ATOM     54  O   UNL     1      -1.905  -5.895  -0.608  1.00  0.00    -0.273 OA
ATOM     55  H   UNL     1      -0.928  -8.469  -2.188  1.00  0.00     0.164 HD
BRANCH  53  56
ATOM     56  C   UNL     1      -2.473  -8.229  -0.180  1.00  0.00     0.182 C 
BRANCH  56  57
ATOM     57  N   UNL     1      -2.747  -7.840   1.207  1.00  0.00    -0.344 N 
ATOM     58  C   UNL     1      -4.017  -7.820   1.729  1.00  0.00     0.220 C 
ATOM     59  O   UNL     1      -5.015  -8.053   1.055  1.00  0.00    -0.275 OA
ATOM     60  H   UNL     1      -1.945  -7.738   1.823  1.00  0.00     0.164 HD
BRANCH  58  61
ATOM     61  C   UNL     1      -4.058  -7.444   3.198  1.00  0.00     0.100 C 
BRANCH  61  62
ATOM     62  C   UNL     1      -2.844  -6.639   3.662  1.00  0.00     0.010 C 
BRANCH  62  63
ATOM     63  C   UNL     1      -2.973  -5.126   3.443  1.00  0.00     0.000 C 
BRANCH  63  64
ATOM     64  C   UNL     1      -1.717  -4.466   2.875  1.00  0.00    -0.003 C 
ATOM     65  C   UNL     1      -1.044  -3.573   3.907  1.00  0.00     0.004 C 
ENDBRANCH  63  64
ENDBRANCH  62  63
ENDBRANCH  61  62
ENDBRANCH  58  61
ENDBRANCH  56  57
BRANCH  56  66
ATOM     66  C   UNL     1      -1.631  -9.500  -0.267  1.00  0.00     0.157 C 
BRANCH  66  67
ATOM     67  C   UNL     1      -2.338 -10.569  -1.049  1.00  0.00     0.305 C 
ATOM     68  O   UNL     1      -2.523 -11.727  -0.706  1.00  0.00    -0.252 OA
BRANCH  67  69
ATOM     69  O   UNL     1      -2.829 -10.109  -2.216  1.00  0.00    -0.481 OA
ATOM     70  H   UNL     1      -3.155 -10.908  -2.682  1.00  0.00     0.296 HD
ENDBRANCH  67  69
ENDBRANCH  66  67
ENDBRANCH  56  66
ENDBRANCH  53  56
ENDBRANCH  50  52
ENDBRANCH  47  50
ENDBRANCH  45  46
BRANCH  45  71
ATOM     71  C   UNL     1       1.547  -2.577  -0.621  1.00  0.00     0.037 C 
BRANCH  71  72
ATOM     72  C   UNL     1       1.418  -2.399   0.894  1.00  0.00     0.026 C 
BRANCH  72  73
ATOM     73  C   UNL     1       0.446  -1.275   1.246  1.00  0.00     0.146 C 
BRANCH  73  74
ATOM     74  N   UNL     1      -0.050  -0.705  -0.004  1.00  0.00    -0.254 NA
ATOM     75  C   UNL     1      -1.283  -0.360  -0.057  1.00  0.00     0.185 C 
ATOM     76  N   UNL     1      -1.768   0.168  -1.192  1.00  0.00    -0.370 N 
ATOM     77  N   UNL     1      -2.226  -0.445   0.897  1.00  0.00    -0.370 N 
ATOM     78  H   UNL     1      -1.124   0.261  -1.965  1.00  0.00     0.159 HD
ATOM     79  H   UNL     1      -2.746   0.326  -1.356  1.00  0.00     0.159 HD
ATOM     80  H   UNL     1      -2.004  -0.820   1.807  1.00  0.00     0.159 HD
ATOM     81  H   UNL     1      -3.137  -0.034   0.778  1.00  0.00     0.159 HD
ENDBRANCH  73  74
ENDBRANCH  72  73
ENDBRANCH  71  72
ENDBRANCH  45  71
ENDBRANCH   3  45
TORSDOF 20
ENDMDL
MODEL 38
REMARK VINA RESULT:    -3.935      3.067      8.355
REMARK INTER + INTRA:         -17.087
REMARK INTER:                 -14.519
REMARK INTRA:                  -2.568
REMARK UNBOUND:                -5.791
REMARK SMILES CCCCCC(=O)N[C@H](CC(=O)O)C(=O)N[C@H]1C(=O)N[C@H](CCCN=C(N)N)C(=O)N[C@@H]2CC[C@H](O)N(C2=O)[C@@H](CC(C)C)C(=O)N(C)[C@@H](Cc2ccccc2)C(=O)N[C@H](C(C)C)C(=O)O[C@@H]1C
REMARK SMILES IDX 30 1 31 2 29 3 32 5 35 6 37 7 34 8 38 9 33 10 39 11 36 12
REMARK SMILES IDX 40 14 41 15 42 16 43 17 44 18 45 19 46 20 47 21 48 22 49 23
REMARK SMILES IDX 50 24 51 25 52 26 56 27 53 28 55 29 54 30 57 31 58 32 59 33
REMARK SMILES IDX 60 35 61 36 62 37 63 38 64 39 65 40 66 41 67 42 68 43 21 45
REMARK SMILES IDX 20 46 18 47 19 48 17 50 16 52 14 53 15 54 9 56 8 57 6 58
REMARK SMILES IDX 7 59 5 61 4 62 3 63 2 64 1 65 10 66 11 67 12 68 13 69 22 71
REMARK SMILES IDX 23 72 24 73 25 74 26 75 27 76 28 77
REMARK H PARENT 31 4 36 13 59 34 20 49 16 55 8 60 13 70 27 78 27 79 28 80
REMARK H PARENT 28 81
REMARK Flexibility Score:  259.900
ROOT
ATOM      1  O   UNL     1      -0.830  -7.369  -1.973  1.00  0.00    -0.273 OA
ATOM      2  N   UNL     1      -1.391  -5.706  -3.439  1.00  0.00    -0.343 N 
ATOM      3  C   UNL     1      -0.664  -6.222  -2.388  1.00  0.00     0.243 C 
ATOM      4  H   UNL     1      -1.217  -4.763  -3.763  1.00  0.00     0.164 HD
ENDROOT
BRANCH   2   5
ATOM      5  C   UNL     1      -2.483  -6.470  -4.032  1.00  0.00     0.171 C 
ATOM      6  C   UNL     1      -3.470  -9.158  -3.581  1.00  0.00     0.214 C 
ATOM      7  N   UNL     1      -2.462  -8.932  -4.590  1.00  0.00    -0.303 N 
ATOM      8  C   UNL     1      -4.393  -7.968  -3.375  1.00  0.00     0.057 C 
ATOM      9  C   UNL     1      -1.910  -7.682  -4.821  1.00  0.00     0.247 C 
ATOM     10  C   UNL     1      -3.580  -6.747  -3.005  1.00  0.00     0.040 C 
ATOM     11  O   UNL     1      -0.985  -7.512  -5.627  1.00  0.00    -0.272 OA
BRANCH   6  12
ATOM     12  O   UNL     1      -2.812  -9.484  -2.379  1.00  0.00    -0.373 OA
ATOM     13  H   UNL     1      -1.853  -9.337  -2.528  1.00  0.00     0.213 HD
ENDBRANCH   6  12
BRANCH   7  14
ATOM     14  C   UNL     1      -1.923 -10.124  -5.279  1.00  0.00     0.177 C 
BRANCH  14  15
ATOM     15  C   UNL     1      -2.231 -10.205  -6.787  1.00  0.00     0.038 C 
BRANCH  15  16
ATOM     16  C   UNL     1      -3.401 -11.086  -7.278  1.00  0.00    -0.015 C 
ATOM     17  C   UNL     1      -3.248 -11.494  -8.747  1.00  0.00     0.007 C 
ATOM     18  C   UNL     1      -4.723 -10.323  -7.127  1.00  0.00     0.007 C 
ENDBRANCH  15  16
ENDBRANCH  14  15
BRANCH  14  19
ATOM     19  C   UNL     1      -0.589 -10.589  -4.599  1.00  0.00     0.245 C 
ATOM     20  O   UNL     1      -0.450 -10.314  -3.395  1.00  0.00    -0.272 OA
BRANCH  19  21
ATOM     21  N   UNL     1       0.462 -11.174  -5.283  1.00  0.00    -0.332 N 
ATOM     22  C   UNL     1       0.373 -11.799  -6.590  1.00  0.00     0.147 C 
BRANCH  21  23
ATOM     23  C   UNL     1       1.800 -11.179  -4.629  1.00  0.00     0.178 C 
BRANCH  23  24
ATOM     24  C   UNL     1       2.685 -12.392  -4.981  1.00  0.00     0.070 C 
BRANCH  24  25
ATOM     25  C   UNL     1       3.991 -12.531  -4.234  1.00  0.00    -0.045 A 
ATOM     26  C   UNL     1       4.007 -12.810  -2.861  1.00  0.00     0.004 A 
ATOM     27  C   UNL     1       5.212 -12.375  -4.908  1.00  0.00     0.004 A 
ATOM     28  C   UNL     1       5.218 -12.920  -2.175  1.00  0.00     0.000 A 
ATOM     29  C   UNL     1       6.421 -12.486  -4.220  1.00  0.00     0.000 A 
ATOM     30  C   UNL     1       6.423 -12.755  -2.853  1.00  0.00     0.000 A 
ENDBRANCH  24  25
ENDBRANCH  23  24
BRANCH  23  31
ATOM     31  C   UNL     1       2.514  -9.808  -4.704  1.00  0.00     0.243 C 
ATOM     32  O   UNL     1       2.198  -8.832  -4.029  1.00  0.00    -0.273 OA
ATOM     33  N   UNL     1       3.429  -9.717  -5.739  1.00  0.00    -0.341 N 
ATOM     34  H   UNL     1       3.646 -10.563  -6.271  1.00  0.00     0.164 HD
BRANCH  33  35
ATOM     35  C   UNL     1       4.136  -8.477  -6.074  1.00  0.00     0.194 C 
BRANCH  35  36
ATOM     36  C   UNL     1       4.691  -8.435  -7.526  1.00  0.00     0.017 C 
ATOM     37  C   UNL     1       5.766  -7.346  -7.681  1.00  0.00     0.010 C 
ATOM     38  C   UNL     1       3.609  -8.165  -8.578  1.00  0.00     0.010 C 
ENDBRANCH  35  36
BRANCH  35  39
ATOM     39  C   UNL     1       5.223  -8.108  -5.026  1.00  0.00     0.329 C 
ATOM     40  O   UNL     1       6.044  -8.900  -4.580  1.00  0.00    -0.250 OA
BRANCH  39  41
ATOM     41  O   UNL     1       5.218  -6.775  -4.720  1.00  0.00    -0.458 OA
BRANCH  41  42
ATOM     42  C   UNL     1       3.956  -6.225  -4.271  1.00  0.00     0.205 CG0
ATOM     43  C   UNL     1       3.711  -4.943  -5.065  1.00  0.00     0.056 C 
ATOM     44  G   UNL     1       4.044  -5.970  -2.753  1.00  0.00     0.000 G0
ENDBRANCH  41  42
ENDBRANCH  39  41
ENDBRANCH  35  39
ENDBRANCH  33  35
ENDBRANCH  23  31
ENDBRANCH  21  23
ENDBRANCH  19  21
ENDBRANCH  14  19
ENDBRANCH   7  14
ENDBRANCH   2   5
BRANCH   3  45
ATOM     45  C   UNL     1       0.382  -5.274  -1.785  1.00  0.00     0.171 C 
BRANCH  45  46
ATOM     46  N   UNL     1       1.675  -5.876  -2.079  1.00  0.00    -0.342 N 
ATOM     47  C   UNL     1       2.797  -5.126  -2.328  1.00  0.00     0.247 C 
ATOM     48  O   UNL     1       2.810  -3.897  -2.249  1.00  0.00    -0.273 OA
ATOM     49  H   UNL     1       1.722  -6.893  -2.099  1.00  0.00     0.164 HD
BRANCH  47  50
ATOM     50  C   UNL     1       4.038  -5.929  -2.741  1.00  0.00     0.212 CG0
ATOM     51  G   UNL     1       3.936  -6.202  -4.255  1.00  0.00     0.000 G0
BRANCH  50  52
ATOM     52  N   UNL     1       5.181  -5.094  -2.381  1.00  0.00    -0.339 N 
ATOM     53  C   UNL     1       5.867  -5.221  -1.198  1.00  0.00     0.243 C 
ATOM     54  O   UNL     1       5.536  -6.017  -0.323  1.00  0.00    -0.273 OA
ATOM     55  H   UNL     1       5.435  -4.341  -3.017  1.00  0.00     0.164 HD
BRANCH  53  56
ATOM     56  C   UNL     1       6.981  -4.173  -1.002  1.00  0.00     0.182 C 
BRANCH  56  57
ATOM     57  N   UNL     1       6.429  -2.814  -0.995  1.00  0.00    -0.344 N 
ATOM     58  C   UNL     1       6.108  -2.144  -2.150  1.00  0.00     0.220 C 
ATOM     59  O   UNL     1       6.326  -2.603  -3.266  1.00  0.00    -0.275 OA
ATOM     60  H   UNL     1       6.139  -2.440  -0.096  1.00  0.00     0.164 HD
BRANCH  58  61
ATOM     61  C   UNL     1       5.498  -0.777  -1.903  1.00  0.00     0.100 C 
BRANCH  61  62
ATOM     62  C   UNL     1       4.296  -0.467  -2.795  1.00  0.00     0.010 C 
BRANCH  62  63
ATOM     63  C   UNL     1       3.181   0.320  -2.095  1.00  0.00     0.000 C 
BRANCH  63  64
ATOM     64  C   UNL     1       1.821  -0.376  -2.106  1.00  0.00    -0.003 C 
ATOM     65  C   UNL     1       1.331  -0.659  -0.693  1.00  0.00     0.004 C 
ENDBRANCH  63  64
ENDBRANCH  62  63
ENDBRANCH  61  62
ENDBRANCH  58  61
ENDBRANCH  56  57
BRANCH  56  66
ATOM     66  C   UNL     1       8.093  -4.338  -2.036  1.00  0.00     0.157 C 
BRANCH  66  67
ATOM     67  C   UNL     1       8.088  -5.720  -2.624  1.00  0.00     0.305 C 
ATOM     68  O   UNL     1       8.000  -6.013  -3.807  1.00  0.00    -0.252 OA
BRANCH  67  69
ATOM     69  O   UNL     1       8.248  -6.675  -1.688  1.00  0.00    -0.481 OA
ATOM     70  H   UNL     1       8.735  -6.233  -0.961  1.00  0.00     0.296 HD
ENDBRANCH  67  69
ENDBRANCH  66  67
ENDBRANCH  56  66
ENDBRANCH  53  56
ENDBRANCH  50  52
ENDBRANCH  47  50
ENDBRANCH  45  46
BRANCH  45  71
ATOM     71  C   UNL     1       0.158  -5.123  -0.276  1.00  0.00     0.037 C 
BRANCH  71  72
ATOM     72  C   UNL     1      -0.982  -4.153   0.043  1.00  0.00     0.026 C 
BRANCH  72  73
ATOM     73  C   UNL     1      -1.177  -3.993   1.550  1.00  0.00     0.146 C 
BRANCH  73  74
ATOM     74  N   UNL     1      -1.937  -5.145   2.026  1.00  0.00    -0.254 NA
ATOM     75  C   UNL     1      -2.193  -5.216   3.280  1.00  0.00     0.185 C 
ATOM     76  N   UNL     1      -2.892  -6.262   3.749  1.00  0.00    -0.370 N 
ATOM     77  N   UNL     1      -1.855  -4.361   4.261  1.00  0.00    -0.370 N 
ATOM     78  H   UNL     1      -3.179  -6.959   3.076  1.00  0.00     0.159 HD
ATOM     79  H   UNL     1      -3.004  -6.459   4.728  1.00  0.00     0.159 HD
ATOM     80  H   UNL     1      -1.331  -3.524   4.056  1.00  0.00     0.159 HD
ATOM     81  H   UNL     1      -2.213  -4.462   5.197  1.00  0.00     0.159 HD
ENDBRANCH  73  74
ENDBRANCH  72  73
ENDBRANCH  71  72
ENDBRANCH  45  71
ENDBRANCH   3  45
TORSDOF 20
ENDMDL
MODEL 39
REMARK VINA RESULT:    -3.921      2.766      4.443
REMARK INTER + INTRA:         -17.047
REMARK INTER:                 -13.256
REMARK INTRA:                  -3.791
REMARK UNBOUND:                -5.791
REMARK SMILES CCCCCC(=O)N[C@H](CC(=O)O)C(=O)N[C@H]1C(=O)N[C@H](CCCN=C(N)N)C(=O)N[C@@H]2CC[C@H](O)N(C2=O)[C@@H](CC(C)C)C(=O)N(C)[C@@H](Cc2ccccc2)C(=O)N[C@H](C(C)C)C(=O)O[C@@H]1C
REMARK SMILES IDX 30 1 31 2 29 3 32 5 35 6 37 7 34 8 38 9 33 10 39 11 36 12
REMARK SMILES IDX 40 14 41 15 42 16 43 17 44 18 45 19 46 20 47 21 48 22 49 23
REMARK SMILES IDX 50 24 51 25 52 26 56 27 53 28 55 29 54 30 57 31 58 32 59 33
REMARK SMILES IDX 60 35 61 36 62 37 63 38 64 39 65 40 66 41 67 42 68 43 21 45
REMARK SMILES IDX 20 46 18 47 19 48 17 50 16 52 14 53 15 54 9 56 8 57 6 58
REMARK SMILES IDX 7 59 5 61 4 62 3 63 2 64 1 65 10 66 11 67 12 68 13 69 22 71
REMARK SMILES IDX 23 72 24 73 25 74 26 75 27 76 28 77
REMARK H PARENT 31 4 36 13 59 34 20 49 16 55 8 60 13 70 27 78 27 79 28 80
REMARK H PARENT 28 81
REMARK Flexibility Score:  259.900
ROOT
ATOM      1  O   UNL     1       2.658  -4.161  -3.282  1.00  0.00    -0.273 OA
ATOM      2  N   UNL     1       3.841  -5.159  -1.599  1.00  0.00    -0.343 N 
ATOM      3  C   UNL     1       2.758  -4.464  -2.093  1.00  0.00     0.243 C 
ATOM      4  H   UNL     1       3.883  -5.404  -0.617  1.00  0.00     0.164 HD
ENDROOT
BRANCH   2   5
ATOM      5  C   UNL     1       4.981  -5.465  -2.456  1.00  0.00     0.171 C 
ATOM      6  C   UNL     1       5.394  -5.273  -5.319  1.00  0.00     0.214 C 
ATOM      7  N   UNL     1       4.896  -6.506  -4.754  1.00  0.00    -0.303 N 
ATOM      8  C   UNL     1       6.293  -4.496  -4.371  1.00  0.00     0.057 C 
ATOM      9  C   UNL     1       4.629  -6.648  -3.402  1.00  0.00     0.247 C 
ATOM     10  C   UNL     1       5.547  -4.194  -3.089  1.00  0.00     0.040 C 
ATOM     11  O   UNL     1       4.121  -7.677  -2.938  1.00  0.00    -0.272 OA
BRANCH   6  12
ATOM     12  O   UNL     1       4.283  -4.492  -5.695  1.00  0.00    -0.373 OA
ATOM     13  H   UNL     1       4.253  -3.724  -5.086  1.00  0.00     0.213 HD
ENDBRANCH   6  12
BRANCH   7  14
ATOM     14  C   UNL     1       4.537  -7.581  -5.702  1.00  0.00     0.177 C 
BRANCH  14  15
ATOM     15  C   UNL     1       5.641  -8.625  -5.959  1.00  0.00     0.038 C 
BRANCH  15  16
ATOM     16  C   UNL     1       6.507  -9.123  -4.781  1.00  0.00    -0.015 C 
ATOM     17  C   UNL     1       7.884  -8.455  -4.743  1.00  0.00     0.007 C 
ATOM     18  C   UNL     1       6.711 -10.639  -4.892  1.00  0.00     0.007 C 
ENDBRANCH  15  16
ENDBRANCH  14  15
BRANCH  14  19
ATOM     19  C   UNL     1       3.001  -7.887  -5.623  1.00  0.00     0.245 C 
ATOM     20  O   UNL     1       2.246  -6.915  -5.455  1.00  0.00    -0.272 OA
BRANCH  19  21
ATOM     21  N   UNL     1       2.468  -9.163  -5.616  1.00  0.00    -0.332 N 
ATOM     22  C   UNL     1       2.750 -10.189  -4.627  1.00  0.00     0.147 C 
BRANCH  21  23
ATOM     23  C   UNL     1       1.534  -9.533  -6.714  1.00  0.00     0.178 C 
BRANCH  23  24
ATOM     24  C   UNL     1       2.065 -10.617  -7.675  1.00  0.00     0.070 C 
BRANCH  24  25
ATOM     25  C   UNL     1       3.350 -10.315  -8.411  1.00  0.00    -0.045 A 
ATOM     26  C   UNL     1       4.513 -11.052  -8.155  1.00  0.00     0.004 A 
ATOM     27  C   UNL     1       3.396  -9.284  -9.361  1.00  0.00     0.004 A 
ATOM     28  C   UNL     1       5.701 -10.756  -8.827  1.00  0.00     0.000 A 
ATOM     29  C   UNL     1       4.583  -8.990 -10.032  1.00  0.00     0.000 A 
ATOM     30  C   UNL     1       5.736  -9.725  -9.762  1.00  0.00     0.000 A 
ENDBRANCH  24  25
ENDBRANCH  23  24
BRANCH  23  31
ATOM     31  C   UNL     1       0.082  -9.751  -6.225  1.00  0.00     0.243 C 
ATOM     32  O   UNL     1      -0.393 -10.850  -5.952  1.00  0.00    -0.273 OA
ATOM     33  N   UNL     1      -0.702  -8.612  -6.297  1.00  0.00    -0.341 N 
ATOM     34  H   UNL     1      -0.250  -7.726  -6.536  1.00  0.00     0.164 HD
BRANCH  33  35
ATOM     35  C   UNL     1      -2.137  -8.610  -5.998  1.00  0.00     0.194 C 
BRANCH  35  36
ATOM     36  C   UNL     1      -3.018  -7.993  -7.121  1.00  0.00     0.017 C 
ATOM     37  C   UNL     1      -3.815  -6.782  -6.604  1.00  0.00     0.010 C 
ATOM     38  C   UNL     1      -4.025  -8.986  -7.713  1.00  0.00     0.010 C 
ENDBRANCH  35  36
BRANCH  35  39
ATOM     39  C   UNL     1      -2.456  -7.996  -4.606  1.00  0.00     0.329 C 
ATOM     40  O   UNL     1      -3.306  -8.437  -3.841  1.00  0.00    -0.250 OA
BRANCH  39  41
ATOM     41  O   UNL     1      -1.622  -6.960  -4.291  1.00  0.00    -0.458 OA
BRANCH  41  42
ATOM     42  C   UNL     1      -0.696  -7.191  -3.203  1.00  0.00     0.205 CG0
ATOM     43  C   UNL     1      -0.562  -8.703  -3.033  1.00  0.00     0.056 C 
ATOM     44  G   UNL     1      -1.243  -6.501  -1.937  1.00  0.00     0.000 G0
ENDBRANCH  41  42
ENDBRANCH  39  41
ENDBRANCH  35  39
ENDBRANCH  33  35
ENDBRANCH  23  31
ENDBRANCH  21  23
ENDBRANCH  19  21
ENDBRANCH  14  19
ENDBRANCH   7  14
ENDBRANCH   2   5
BRANCH   3  45
ATOM     45  C   UNL     1       1.677  -4.112  -1.062  1.00  0.00     0.171 C 
BRANCH  45  46
ATOM     46  N   UNL     1       0.449  -4.719  -1.557  1.00  0.00    -0.342 N 
ATOM     47  C   UNL     1       0.064  -5.990  -1.211  1.00  0.00     0.247 C 
ATOM     48  O   UNL     1       0.687  -6.680  -0.403  1.00  0.00    -0.273 OA
ATOM     49  H   UNL     1      -0.126  -4.161  -2.185  1.00  0.00     0.164 HD
BRANCH  47  50
ATOM     50  C   UNL     1      -1.192  -6.507  -1.926  1.00  0.00     0.212 CG0
ATOM     51  G   UNL     1      -0.738  -7.192  -3.231  1.00  0.00     0.000 G0
BRANCH  50  52
ATOM     52  N   UNL     1      -1.828  -7.424  -0.984  1.00  0.00    -0.339 N 
ATOM     53  C   UNL     1      -2.326  -7.030   0.234  1.00  0.00     0.243 C 
ATOM     54  O   UNL     1      -2.226  -5.879   0.649  1.00  0.00    -0.273 OA
ATOM     55  H   UNL     1      -1.841  -8.413  -1.223  1.00  0.00     0.164 HD
BRANCH  53  56
ATOM     56  C   UNL     1      -2.872  -8.189   1.093  1.00  0.00     0.182 C 
BRANCH  56  57
ATOM     57  N   UNL     1      -2.967  -9.425   0.310  1.00  0.00    -0.344 N 
ATOM     58  C   UNL     1      -1.891 -10.256   0.113  1.00  0.00     0.220 C 
ATOM     59  O   UNL     1      -0.764  -9.987   0.513  1.00  0.00    -0.275 OA
ATOM     60  H   UNL     1      -3.900  -9.734   0.049  1.00  0.00     0.164 HD
BRANCH  58  61
ATOM     61  C   UNL     1      -2.233 -11.505  -0.677  1.00  0.00     0.100 C 
BRANCH  61  62
ATOM     62  C   UNL     1      -3.248 -11.269  -1.796  1.00  0.00     0.010 C 
BRANCH  62  63
ATOM     63  C   UNL     1      -3.348 -12.419  -2.806  1.00  0.00     0.000 C 
BRANCH  63  64
ATOM     64  C   UNL     1      -4.306 -12.153  -3.965  1.00  0.00    -0.003 C 
ATOM     65  C   UNL     1      -3.615 -12.334  -5.309  1.00  0.00     0.004 C 
ENDBRANCH  63  64
ENDBRANCH  62  63
ENDBRANCH  61  62
ENDBRANCH  58  61
ENDBRANCH  56  57
BRANCH  56  66
ATOM     66  C   UNL     1      -4.201  -7.820   1.751  1.00  0.00     0.157 C 
BRANCH  66  67
ATOM     67  C   UNL     1      -3.993  -7.321   3.152  1.00  0.00     0.305 C 
ATOM     68  O   UNL     1      -3.345  -6.343   3.493  1.00  0.00    -0.252 OA
BRANCH  67  69
ATOM     69  O   UNL     1      -4.661  -8.056   4.061  1.00  0.00    -0.481 OA
ATOM     70  H   UNL     1      -4.307  -8.964   3.958  1.00  0.00     0.296 HD
ENDBRANCH  67  69
ENDBRANCH  66  67
ENDBRANCH  56  66
ENDBRANCH  53  56
ENDBRANCH  50  52
ENDBRANCH  47  50
ENDBRANCH  45  46
BRANCH  45  71
ATOM     71  C   UNL     1       1.542  -2.591  -0.928  1.00  0.00     0.037 C 
BRANCH  71  72
ATOM     72  C   UNL     1       2.902  -1.889  -0.948  1.00  0.00     0.026 C 
BRANCH  72  73
ATOM     73  C   UNL     1       2.795  -0.478  -1.524  1.00  0.00     0.146 C 
BRANCH  73  74
ATOM     74  N   UNL     1       3.095  -0.554  -2.950  1.00  0.00    -0.254 NA
ATOM     75  C   UNL     1       4.324  -0.492  -3.309  1.00  0.00     0.185 C 
ATOM     76  N   UNL     1       4.631  -0.560  -4.614  1.00  0.00    -0.370 N 
ATOM     77  N   UNL     1       5.422  -0.363  -2.543  1.00  0.00    -0.370 N 
ATOM     78  H   UNL     1       3.861  -0.651  -5.261  1.00  0.00     0.159 HD
ATOM     79  H   UNL     1       5.549  -0.375  -4.977  1.00  0.00     0.159 HD
ATOM     80  H   UNL     1       5.344  -0.303  -1.539  1.00  0.00     0.159 HD
ATOM     81  H   UNL     1       6.348  -0.442  -2.930  1.00  0.00     0.159 HD
ENDBRANCH  73  74
ENDBRANCH  72  73
ENDBRANCH  71  72
ENDBRANCH  45  71
ENDBRANCH   3  45
TORSDOF 20
ENDMDL
MODEL 40
REMARK VINA RESULT:    -3.900     14.056     19.300
REMARK INTER + INTRA:         -16.988
REMARK INTER:                 -12.390
REMARK INTRA:                  -4.598
REMARK UNBOUND:                -5.791
REMARK SMILES CCCCCC(=O)N[C@H](CC(=O)O)C(=O)N[C@H]1C(=O)N[C@H](CCCN=C(N)N)C(=O)N[C@@H]2CC[C@H](O)N(C2=O)[C@@H](CC(C)C)C(=O)N(C)[C@@H](Cc2ccccc2)C(=O)N[C@H](C(C)C)C(=O)O[C@@H]1C
REMARK SMILES IDX 30 1 31 2 29 3 32 5 35 6 37 7 34 8 38 9 33 10 39 11 36 12
REMARK SMILES IDX 40 14 41 15 42 16 43 17 44 18 45 19 46 20 47 21 48 22 49 23
REMARK SMILES IDX 50 24 51 25 52 26 56 27 53 28 55 29 54 30 57 31 58 32 59 33
REMARK SMILES IDX 60 35 61 36 62 37 63 38 64 39 65 40 66 41 67 42 68 43 21 45
REMARK SMILES IDX 20 46 18 47 19 48 17 50 16 52 14 53 15 54 9 56 8 57 6 58
REMARK SMILES IDX 7 59 5 61 4 62 3 63 2 64 1 65 10 66 11 67 12 68 13 69 22 71
REMARK SMILES IDX 23 72 24 73 25 74 26 75 27 76 28 77
REMARK H PARENT 31 4 36 13 59 34 20 49 16 55 8 60 13 70 27 78 27 79 28 80
REMARK H PARENT 28 81
REMARK Flexibility Score:  259.900
ROOT
ATOM      1  O   UNL     1     -11.449  -9.539   1.214  1.00  0.00    -0.273 OA
ATOM      2  N   UNL     1     -10.770  -7.645   2.301  1.00  0.00    -0.343 N 
ATOM      3  C   UNL     1     -10.754  -9.005   2.079  1.00  0.00     0.243 C 
ATOM      4  H   UNL     1     -10.174  -7.239   3.011  1.00  0.00     0.164 HD
ENDROOT
BRANCH   2   5
ATOM      5  C   UNL     1     -11.712  -6.788   1.590  1.00  0.00     0.171 C 
ATOM      6  C   UNL     1     -12.410  -3.987   1.861  1.00  0.00     0.214 C 
ATOM      7  N   UNL     1     -13.154  -4.979   2.602  1.00  0.00    -0.303 N 
ATOM      8  C   UNL     1     -11.861  -4.507   0.542  1.00  0.00     0.057 C 
ATOM      9  C   UNL     1     -12.840  -6.328   2.558  1.00  0.00     0.247 C 
ATOM     10  C   UNL     1     -10.979  -5.711   0.792  1.00  0.00     0.040 C 
ATOM     11  O   UNL     1     -13.426  -7.161   3.262  1.00  0.00    -0.272 OA
BRANCH   6  12
ATOM     12  O   UNL     1     -11.361  -3.532   2.685  1.00  0.00    -0.373 OA
ATOM     13  H   UNL     1     -11.773  -3.147   3.488  1.00  0.00     0.213 HD
ENDBRANCH   6  12
BRANCH   7  14
ATOM     14  C   UNL     1     -14.185  -4.483   3.538  1.00  0.00     0.177 C 
BRANCH  14  15
ATOM     15  C   UNL     1     -14.103  -2.980   3.868  1.00  0.00     0.038 C 
BRANCH  15  16
ATOM     16  C   UNL     1     -15.049  -1.991   3.151  1.00  0.00    -0.015 C 
ATOM     17  C   UNL     1     -14.307  -1.079   2.170  1.00  0.00     0.007 C 
ATOM     18  C   UNL     1     -15.757  -1.108   4.187  1.00  0.00     0.007 C 
ENDBRANCH  15  16
ENDBRANCH  14  15
BRANCH  14  19
ATOM     19  C   UNL     1     -15.510  -5.304   3.372  1.00  0.00     0.245 C 
ATOM     20  O   UNL     1     -16.139  -5.143   2.312  1.00  0.00    -0.272 OA
BRANCH  19  21
ATOM     21  N   UNL     1     -16.058  -6.093   4.368  1.00  0.00    -0.332 N 
ATOM     22  C   UNL     1     -15.741  -6.006   5.782  1.00  0.00     0.147 C 
BRANCH  21  23
ATOM     23  C   UNL     1     -17.050  -7.129   3.968  1.00  0.00     0.178 C 
BRANCH  23  24
ATOM     24  C   UNL     1     -18.449  -6.581   3.615  1.00  0.00     0.070 C 
BRANCH  24  25
ATOM     25  C   UNL     1     -19.600  -7.559   3.655  1.00  0.00    -0.045 A 
ATOM     26  C   UNL     1     -19.928  -8.233   4.839  1.00  0.00     0.004 A 
ATOM     27  C   UNL     1     -20.357  -7.808   2.501  1.00  0.00     0.004 A 
ATOM     28  C   UNL     1     -20.984  -9.147   4.863  1.00  0.00     0.000 A 
ATOM     29  C   UNL     1     -21.413  -8.721   2.527  1.00  0.00     0.000 A 
ATOM     30  C   UNL     1     -21.723  -9.393   3.708  1.00  0.00     0.000 A 
ENDBRANCH  24  25
ENDBRANCH  23  24
BRANCH  23  31
ATOM     31  C   UNL     1     -16.479  -8.155   2.960  1.00  0.00     0.243 C 
ATOM     32  O   UNL     1     -16.631  -8.080   1.743  1.00  0.00    -0.273 OA
ATOM     33  N   UNL     1     -15.933  -9.276   3.562  1.00  0.00    -0.341 N 
ATOM     34  H   UNL     1     -15.838  -9.282   4.581  1.00  0.00     0.164 HD
BRANCH  33  35
ATOM     35  C   UNL     1     -15.440 -10.429   2.804  1.00  0.00     0.194 C 
BRANCH  35  36
ATOM     36  C   UNL     1     -16.486 -11.565   2.625  1.00  0.00     0.017 C 
ATOM     37  C   UNL     1     -16.623 -11.972   1.147  1.00  0.00     0.010 C 
ATOM     38  C   UNL     1     -17.884 -11.184   3.127  1.00  0.00     0.010 C 
ENDBRANCH  35  36
BRANCH  35  39
ATOM     39  C   UNL     1     -14.087 -10.967   3.347  1.00  0.00     0.329 C 
ATOM     40  O   UNL     1     -13.336 -11.699   2.713  1.00  0.00    -0.250 OA
BRANCH  39  41
ATOM     41  O   UNL     1     -13.783 -10.461   4.581  1.00  0.00    -0.458 OA
BRANCH  41  42
ATOM     42  C   UNL     1     -12.947 -11.288   5.424  1.00  0.00     0.205 CG0
ATOM     43  C   UNL     1     -13.864 -11.992   6.423  1.00  0.00     0.056 C 
ATOM     44  G   UNL     1     -11.903 -10.388   6.116  1.00  0.00     0.000 G0
ENDBRANCH  41  42
ENDBRANCH  39  41
ENDBRANCH  35  39
ENDBRANCH  33  35
ENDBRANCH  23  31
ENDBRANCH  21  23
ENDBRANCH  19  21
ENDBRANCH  14  19
ENDBRANCH   7  14
ENDBRANCH   2   5
BRANCH   3  45
ATOM     45  C   UNL     1      -9.794  -9.805   2.970  1.00  0.00     0.171 C 
BRANCH  45  46
ATOM     46  N   UNL     1     -10.619 -10.375   4.026  1.00  0.00    -0.342 N 
ATOM     47  C   UNL     1     -11.168  -9.610   5.025  1.00  0.00     0.247 C 
ATOM     48  O   UNL     1     -11.064  -8.384   5.061  1.00  0.00    -0.273 OA
ATOM     49  H   UNL     1     -10.777 -11.381   4.003  1.00  0.00     0.164 HD
BRANCH  47  50
ATOM     50  C   UNL     1     -11.902 -10.399   6.119  1.00  0.00     0.212 CG0
ATOM     51  G   UNL     1     -12.929 -11.315   5.425  1.00  0.00     0.000 G0
BRANCH  50  52
ATOM     52  N   UNL     1     -10.862 -11.136   6.833  1.00  0.00    -0.339 N 
ATOM     53  C   UNL     1     -10.043 -10.564   7.776  1.00  0.00     0.243 C 
ATOM     54  O   UNL     1     -10.088  -9.369   8.055  1.00  0.00    -0.273 OA
ATOM     55  H   UNL     1     -10.701 -12.105   6.566  1.00  0.00     0.164 HD
BRANCH  53  56
ATOM     56  C   UNL     1      -8.964 -11.516   8.331  1.00  0.00     0.182 C 
BRANCH  56  57
ATOM     57  N   UNL     1      -7.747 -10.781   8.690  1.00  0.00    -0.344 N 
ATOM     58  C   UNL     1      -7.024 -11.064   9.823  1.00  0.00     0.220 C 
ATOM     59  O   UNL     1      -7.382 -11.897  10.648  1.00  0.00    -0.275 OA
ATOM     60  H   UNL     1      -7.362 -10.157   7.986  1.00  0.00     0.164 HD
BRANCH  58  61
ATOM     61  C   UNL     1      -5.771 -10.219   9.963  1.00  0.00     0.100 C 
BRANCH  61  62
ATOM     62  C   UNL     1      -5.900  -8.821   9.358  1.00  0.00     0.010 C 
BRANCH  62  63
ATOM     63  C   UNL     1      -6.336  -7.743  10.358  1.00  0.00     0.000 C 
BRANCH  63  64
ATOM     64  C   UNL     1      -5.540  -7.738  11.662  1.00  0.00    -0.003 C 
ATOM     65  C   UNL     1      -4.178  -7.084  11.478  1.00  0.00     0.004 C 
ENDBRANCH  63  64
ENDBRANCH  62  63
ENDBRANCH  61  62
ENDBRANCH  58  61
ENDBRANCH  56  57
BRANCH  56  66
ATOM     66  C   UNL     1      -8.680 -12.665   7.364  1.00  0.00     0.157 C 
BRANCH  66  67
ATOM     67  C   UNL     1      -7.830 -12.209   6.213  1.00  0.00     0.305 C 
ATOM     68  O   UNL     1      -6.632 -11.970   6.237  1.00  0.00    -0.252 OA
BRANCH  67  69
ATOM     69  O   UNL     1      -8.526 -12.126   5.064  1.00  0.00    -0.481 OA
ATOM     70  H   UNL     1      -8.658 -13.056   4.783  1.00  0.00     0.296 HD
ENDBRANCH  67  69
ENDBRANCH  66  67
ENDBRANCH  56  66
ENDBRANCH  53  56
ENDBRANCH  50  52
ENDBRANCH  47  50
ENDBRANCH  45  46
BRANCH  45  71
ATOM     71  C   UNL     1      -8.703  -8.889   3.536  1.00  0.00     0.037 C 
BRANCH  71  72
ATOM     72  C   UNL     1      -7.482  -8.811   2.615  1.00  0.00     0.026 C 
BRANCH  72  73
ATOM     73  C   UNL     1      -6.179  -8.920   3.403  1.00  0.00     0.146 C 
BRANCH  73  74
ATOM     74  N   UNL     1      -5.967  -7.652   4.095  1.00  0.00    -0.254 NA
ATOM     75  C   UNL     1      -5.356  -7.679   5.221  1.00  0.00     0.185 C 
ATOM     76  N   UNL     1      -5.145  -6.528   5.881  1.00  0.00    -0.370 N 
ATOM     77  N   UNL     1      -4.862  -8.736   5.890  1.00  0.00    -0.370 N 
ATOM     78  H   UNL     1      -5.493  -5.684   5.450  1.00  0.00     0.159 HD
ATOM     79  H   UNL     1      -4.807  -6.486   6.826  1.00  0.00     0.159 HD
ATOM     80  H   UNL     1      -4.945  -9.667   5.511  1.00  0.00     0.159 HD
ATOM     81  H   UNL     1      -4.297  -8.622   6.715  1.00  0.00     0.159 HD
ENDBRANCH  73  74
ENDBRANCH  72  73
ENDBRANCH  71  72
ENDBRANCH  45  71
ENDBRANCH   3  45
TORSDOF 20
ENDMDL
MODEL 41
REMARK VINA RESULT:    -3.891      3.333     10.976
REMARK INTER + INTRA:         -16.962
REMARK INTER:                 -13.141
REMARK INTRA:                  -3.821
REMARK UNBOUND:                -5.791
REMARK SMILES CCCCCC(=O)N[C@H](CC(=O)O)C(=O)N[C@H]1C(=O)N[C@H](CCCN=C(N)N)C(=O)N[C@@H]2CC[C@H](O)N(C2=O)[C@@H](CC(C)C)C(=O)N(C)[C@@H](Cc2ccccc2)C(=O)N[C@H](C(C)C)C(=O)O[C@@H]1C
REMARK SMILES IDX 30 1 31 2 29 3 32 5 35 6 37 7 34 8 38 9 33 10 39 11 36 12
REMARK SMILES IDX 40 14 41 15 42 16 43 17 44 18 45 19 46 20 47 21 48 22 49 23
REMARK SMILES IDX 50 24 51 25 52 26 56 27 53 28 55 29 54 30 57 31 58 32 59 33
REMARK SMILES IDX 60 35 61 36 62 37 63 38 64 39 65 40 66 41 67 42 68 43 21 45
REMARK SMILES IDX 20 46 18 47 19 48 17 50 16 52 14 53 15 54 9 56 8 57 6 58
REMARK SMILES IDX 7 59 5 61 4 62 3 63 2 64 1 65 10 66 11 67 12 68 13 69 22 71
REMARK SMILES IDX 23 72 24 73 25 74 26 75 27 76 28 77
REMARK H PARENT 31 4 36 13 59 34 20 49 16 55 8 60 13 70 27 78 27 79 28 80
REMARK H PARENT 28 81
REMARK Flexibility Score:  259.900
ROOT
ATOM      1  O   UNL     1      -1.007  -0.922   1.513  1.00  0.00    -0.273 OA
ATOM      2  N   UNL     1      -0.398  -3.058   2.060  1.00  0.00    -0.343 N 
ATOM      3  C   UNL     1      -0.478  -1.988   1.195  1.00  0.00     0.243 C 
ATOM      4  H   UNL     1       0.057  -3.914   1.768  1.00  0.00     0.164 HD
ENDROOT
BRANCH   2   5
ATOM      5  C   UNL     1      -1.049  -3.009   3.364  1.00  0.00     0.171 C 
ATOM      6  C   UNL     1      -1.302  -4.944   5.507  1.00  0.00     0.214 C 
ATOM      7  N   UNL     1      -2.316  -4.885   4.480  1.00  0.00    -0.303 N 
ATOM      8  C   UNL     1      -0.635  -3.604   5.772  1.00  0.00     0.057 C 
ATOM      9  C   UNL     1      -2.231  -4.020   3.402  1.00  0.00     0.247 C 
ATOM     10  C   UNL     1      -0.022  -3.076   4.493  1.00  0.00     0.040 C 
ATOM     11  O   UNL     1      -3.058  -4.035   2.481  1.00  0.00    -0.272 OA
BRANCH   6  12
ATOM     12  O   UNL     1      -0.347  -5.902   5.114  1.00  0.00    -0.373 OA
ATOM     13  H   UNL     1      -0.397  -6.640   5.758  1.00  0.00     0.213 HD
ENDBRANCH   6  12
BRANCH   7  14
ATOM     14  C   UNL     1      -3.393  -5.897   4.541  1.00  0.00     0.177 C 
BRANCH  14  15
ATOM     15  C   UNL     1      -4.693  -5.430   5.224  1.00  0.00     0.038 C 
BRANCH  15  16
ATOM     16  C   UNL     1      -5.196  -6.164   6.487  1.00  0.00    -0.015 C 
ATOM     17  C   UNL     1      -4.874  -5.399   7.774  1.00  0.00     0.007 C 
ATOM     18  C   UNL     1      -4.543  -7.549   6.576  1.00  0.00     0.007 C 
ENDBRANCH  15  16
ENDBRANCH  14  15
BRANCH  14  19
ATOM     19  C   UNL     1      -3.311  -6.853   3.302  1.00  0.00     0.245 C 
ATOM     20  O   UNL     1      -2.267  -6.809   2.629  1.00  0.00    -0.272 OA
BRANCH  19  21
ATOM     21  N   UNL     1      -4.361  -7.640   2.865  1.00  0.00    -0.332 N 
ATOM     22  C   UNL     1      -5.766  -7.407   3.152  1.00  0.00     0.147 C 
BRANCH  21  23
ATOM     23  C   UNL     1      -4.038  -8.837   2.040  1.00  0.00     0.178 C 
BRANCH  23  24
ATOM     24  C   UNL     1      -4.899 -10.081   2.341  1.00  0.00     0.070 C 
BRANCH  24  25
ATOM     25  C   UNL     1      -4.483 -10.939   3.513  1.00  0.00    -0.045 A 
ATOM     26  C   UNL     1      -3.557 -11.977   3.349  1.00  0.00     0.004 A 
ATOM     27  C   UNL     1      -5.026 -10.709   4.786  1.00  0.00     0.004 A 
ATOM     28  C   UNL     1      -3.191 -12.777   4.434  1.00  0.00     0.000 A 
ATOM     29  C   UNL     1      -4.658 -11.508   5.870  1.00  0.00     0.000 A 
ATOM     30  C   UNL     1      -3.743 -12.543   5.692  1.00  0.00     0.000 A 
ENDBRANCH  24  25
ENDBRANCH  23  24
BRANCH  23  31
ATOM     31  C   UNL     1      -3.872  -8.507   0.537  1.00  0.00     0.243 C 
ATOM     32  O   UNL     1      -4.661  -7.820  -0.106  1.00  0.00    -0.273 OA
ATOM     33  N   UNL     1      -2.847  -9.210  -0.073  1.00  0.00    -0.341 N 
ATOM     34  H   UNL     1      -2.226  -9.772   0.515  1.00  0.00     0.164 HD
BRANCH  33  35
ATOM     35  C   UNL     1      -2.583  -9.147  -1.513  1.00  0.00     0.194 C 
BRANCH  35  36
ATOM     36  C   UNL     1      -2.930 -10.454  -2.281  1.00  0.00     0.017 C 
ATOM     37  C   UNL     1      -4.388 -10.444  -2.772  1.00  0.00     0.010 C 
ATOM     38  C   UNL     1      -2.739 -11.720  -1.435  1.00  0.00     0.010 C 
ENDBRANCH  35  36
BRANCH  35  39
ATOM     39  C   UNL     1      -1.147  -8.649  -1.836  1.00  0.00     0.329 C 
ATOM     40  O   UNL     1      -0.232  -9.379  -2.199  1.00  0.00    -0.250 OA
BRANCH  39  41
ATOM     41  O   UNL     1      -1.038  -7.288  -1.754  1.00  0.00    -0.458 OA
BRANCH  41  42
ATOM     42  C   UNL     1      -0.406  -6.766  -0.561  1.00  0.00     0.205 CG0
ATOM     43  C   UNL     1      -1.454  -5.945   0.186  1.00  0.00     0.056 C 
ATOM     44  G   UNL     1       0.815  -5.922  -0.980  1.00  0.00     0.000 G0
ENDBRANCH  41  42
ENDBRANCH  39  41
ENDBRANCH  35  39
ENDBRANCH  33  35
ENDBRANCH  23  31
ENDBRANCH  21  23
ENDBRANCH  19  21
ENDBRANCH  14  19
ENDBRANCH   7  14
ENDBRANCH   2   5
BRANCH   3  45
ATOM     45  C   UNL     1       0.155  -2.209  -0.185  1.00  0.00     0.171 C 
BRANCH  45  46
ATOM     46  N   UNL     1       0.633  -3.586  -0.183  1.00  0.00    -0.342 N 
ATOM     47  C   UNL     1       0.354  -4.464  -1.200  1.00  0.00     0.247 C 
ATOM     48  O   UNL     1      -0.256  -4.135  -2.218  1.00  0.00    -0.273 OA
ATOM     49  H   UNL     1       1.190  -3.884   0.616  1.00  0.00     0.164 HD
BRANCH  47  50
ATOM     50  C   UNL     1       0.834  -5.903  -0.966  1.00  0.00     0.212 CG0
ATOM     51  G   UNL     1      -0.389  -6.740  -0.538  1.00  0.00     0.000 G0
BRANCH  50  52
ATOM     52  N   UNL     1       1.411  -6.333  -2.236  1.00  0.00    -0.339 N 
ATOM     53  C   UNL     1       2.750  -6.239  -2.528  1.00  0.00     0.243 C 
ATOM     54  O   UNL     1       3.562  -5.734  -1.757  1.00  0.00    -0.273 OA
ATOM     55  H   UNL     1       0.773  -6.658  -2.960  1.00  0.00     0.164 HD
BRANCH  53  56
ATOM     56  C   UNL     1       3.112  -6.674  -3.963  1.00  0.00     0.182 C 
BRANCH  56  57
ATOM     57  N   UNL     1       1.918  -7.098  -4.701  1.00  0.00    -0.344 N 
ATOM     58  C   UNL     1       1.705  -6.756  -6.014  1.00  0.00     0.220 C 
ATOM     59  O   UNL     1       2.458  -6.015  -6.637  1.00  0.00    -0.275 OA
ATOM     60  H   UNL     1       1.324  -7.792  -4.256  1.00  0.00     0.164 HD
BRANCH  58  61
ATOM     61  C   UNL     1       0.435  -7.353  -6.592  1.00  0.00     0.100 C 
BRANCH  61  62
ATOM     62  C   UNL     1      -0.579  -6.309  -7.060  1.00  0.00     0.010 C 
BRANCH  62  63
ATOM     63  C   UNL     1      -2.042  -6.702  -6.817  1.00  0.00     0.000 C 
BRANCH  63  64
ATOM     64  C   UNL     1      -2.302  -8.207  -6.864  1.00  0.00    -0.003 C 
ATOM     65  C   UNL     1      -3.107  -8.668  -5.657  1.00  0.00     0.004 C 
ENDBRANCH  63  64
ENDBRANCH  62  63
ENDBRANCH  61  62
ENDBRANCH  58  61
ENDBRANCH  56  57
BRANCH  56  66
ATOM     66  C   UNL     1       4.202  -7.744  -3.965  1.00  0.00     0.157 C 
BRANCH  66  67
ATOM     67  C   UNL     1       5.427  -7.271  -4.694  1.00  0.00     0.305 C 
ATOM     68  O   UNL     1       5.913  -6.151  -4.660  1.00  0.00    -0.252 OA
BRANCH  67  69
ATOM     69  O   UNL     1       6.016  -8.257  -5.398  1.00  0.00    -0.481 OA
ATOM     70  H   UNL     1       5.329  -8.557  -6.031  1.00  0.00     0.296 HD
ENDBRANCH  67  69
ENDBRANCH  66  67
ENDBRANCH  56  66
ENDBRANCH  53  56
ENDBRANCH  50  52
ENDBRANCH  47  50
ENDBRANCH  45  46
BRANCH  45  71
ATOM     71  C   UNL     1       1.298  -1.214  -0.414  1.00  0.00     0.037 C 
BRANCH  71  72
ATOM     72  C   UNL     1       1.513  -0.915  -1.900  1.00  0.00     0.026 C 
BRANCH  72  73
ATOM     73  C   UNL     1       2.987  -0.676  -2.216  1.00  0.00     0.146 C 
BRANCH  73  74
ATOM     74  N   UNL     1       3.755  -1.763  -1.616  1.00  0.00    -0.254 NA
ATOM     75  C   UNL     1       4.620  -2.362  -2.349  1.00  0.00     0.185 C 
ATOM     76  N   UNL     1       5.342  -3.365  -1.824  1.00  0.00    -0.370 N 
ATOM     77  N   UNL     1       4.940  -2.135  -3.635  1.00  0.00    -0.370 N 
ATOM     78  H   UNL     1       5.158  -3.606  -0.861  1.00  0.00     0.159 HD
ATOM     79  H   UNL     1       5.928  -3.971  -2.372  1.00  0.00     0.159 HD
ATOM     80  H   UNL     1       4.479  -1.406  -4.157  1.00  0.00     0.159 HD
ATOM     81  H   UNL     1       5.720  -2.595  -4.074  1.00  0.00     0.159 HD
ENDBRANCH  73  74
ENDBRANCH  72  73
ENDBRANCH  71  72
ENDBRANCH  45  71
ENDBRANCH   3  45
TORSDOF 20
ENDMDL
MODEL 42
REMARK VINA RESULT:    -3.809      4.515      7.546
REMARK INTER + INTRA:         -16.726
REMARK INTER:                 -12.969
REMARK INTRA:                  -3.757
REMARK UNBOUND:                -5.791
REMARK SMILES CCCCCC(=O)N[C@H](CC(=O)O)C(=O)N[C@H]1C(=O)N[C@H](CCCN=C(N)N)C(=O)N[C@@H]2CC[C@H](O)N(C2=O)[C@@H](CC(C)C)C(=O)N(C)[C@@H](Cc2ccccc2)C(=O)N[C@H](C(C)C)C(=O)O[C@@H]1C
REMARK SMILES IDX 30 1 31 2 29 3 32 5 35 6 37 7 34 8 38 9 33 10 39 11 36 12
REMARK SMILES IDX 40 14 41 15 42 16 43 17 44 18 45 19 46 20 47 21 48 22 49 23
REMARK SMILES IDX 50 24 51 25 52 26 56 27 53 28 55 29 54 30 57 31 58 32 59 33
REMARK SMILES IDX 60 35 61 36 62 37 63 38 64 39 65 40 66 41 67 42 68 43 21 45
REMARK SMILES IDX 20 46 18 47 19 48 17 50 16 52 14 53 15 54 9 56 8 57 6 58
REMARK SMILES IDX 7 59 5 61 4 62 3 63 2 64 1 65 10 66 11 67 12 68 13 69 22 71
REMARK SMILES IDX 23 72 24 73 25 74 26 75 27 76 28 77
REMARK H PARENT 31 4 36 13 59 34 20 49 16 55 8 60 13 70 27 78 27 79 28 80
REMARK H PARENT 28 81
REMARK Flexibility Score:  259.900
ROOT
ATOM      1  O   UNL     1      -0.120  -4.443  -1.725  1.00  0.00    -0.273 OA
ATOM      2  N   UNL     1      -1.150  -6.307  -2.559  1.00  0.00    -0.343 N 
ATOM      3  C   UNL     1      -0.660  -5.532  -1.530  1.00  0.00     0.243 C 
ATOM      4  H   UNL     1      -1.601  -7.190  -2.360  1.00  0.00     0.164 HD
ENDROOT
BRANCH   2   5
ATOM      5  C   UNL     1      -0.937  -5.916  -3.949  1.00  0.00     0.171 C 
ATOM      6  C   UNL     1      -0.872  -7.422  -6.425  1.00  0.00     0.214 C 
ATOM      7  N   UNL     1       0.354  -7.208  -5.691  1.00  0.00    -0.303 N 
ATOM      8  C   UNL     1      -1.883  -6.300  -6.247  1.00  0.00     0.057 C 
ATOM      9  C   UNL     1       0.385  -6.542  -4.476  1.00  0.00     0.247 C 
ATOM     10  C   UNL     1      -2.203  -6.128  -4.778  1.00  0.00     0.040 C 
ATOM     11  O   UNL     1       1.425  -6.439  -3.812  1.00  0.00    -0.272 OA
BRANCH   6  12
ATOM     12  O   UNL     1      -1.418  -8.650  -6.003  1.00  0.00    -0.373 OA
ATOM     13  H   UNL     1      -0.863  -9.360  -6.390  1.00  0.00     0.213 HD
ENDBRANCH   6  12
BRANCH   7  14
ATOM     14  C   UNL     1       1.572  -7.862  -6.215  1.00  0.00     0.177 C 
BRANCH  14  15
ATOM     15  C   UNL     1       2.857  -7.015  -6.136  1.00  0.00     0.038 C 
BRANCH  15  16
ATOM     16  C   UNL     1       4.204  -7.633  -6.570  1.00  0.00    -0.015 C 
ATOM     17  C   UNL     1       4.969  -8.251  -5.396  1.00  0.00     0.007 C 
ATOM     18  C   UNL     1       5.090  -6.553  -7.205  1.00  0.00     0.007 C 
ENDBRANCH  15  16
ENDBRANCH  14  15
BRANCH  14  19
ATOM     19  C   UNL     1       1.493  -9.412  -5.999  1.00  0.00     0.245 C 
ATOM     20  O   UNL     1       1.113 -10.093  -6.965  1.00  0.00    -0.272 OA
BRANCH  19  21
ATOM     21  N   UNL     1       1.711 -10.033  -4.781  1.00  0.00    -0.332 N 
ATOM     22  C   UNL     1       2.320  -9.415  -3.617  1.00  0.00     0.147 C 
BRANCH  21  23
ATOM     23  C   UNL     1       1.302 -11.458  -4.644  1.00  0.00     0.178 C 
BRANCH  23  24
ATOM     24  C   UNL     1       2.359 -12.374  -3.994  1.00  0.00     0.070 C 
BRANCH  24  25
ATOM     25  C   UNL     1       3.709 -12.453  -4.668  1.00  0.00    -0.045 A 
ATOM     26  C   UNL     1       4.882 -12.583  -3.913  1.00  0.00     0.004 A 
ATOM     27  C   UNL     1       3.806 -12.391  -6.067  1.00  0.00     0.004 A 
ATOM     28  C   UNL     1       6.127 -12.638  -4.544  1.00  0.00     0.000 A 
ATOM     29  C   UNL     1       5.051 -12.448  -6.695  1.00  0.00     0.000 A 
ATOM     30  C   UNL     1       6.211 -12.568  -5.932  1.00  0.00     0.000 A 
ENDBRANCH  24  25
ENDBRANCH  23  24
BRANCH  23  31
ATOM     31  C   UNL     1      -0.133 -11.623  -4.088  1.00  0.00     0.243 C 
ATOM     32  O   UNL     1      -1.034 -12.213  -4.678  1.00  0.00    -0.273 OA
ATOM     33  N   UNL     1      -0.370 -10.884  -2.942  1.00  0.00    -0.341 N 
ATOM     34  H   UNL     1       0.420 -10.409  -2.498  1.00  0.00     0.164 HD
BRANCH  33  35
ATOM     35  C   UNL     1      -1.689 -10.794  -2.308  1.00  0.00     0.194 C 
BRANCH  35  36
ATOM     36  C   UNL     1      -2.458 -12.144  -2.249  1.00  0.00     0.017 C 
ATOM     37  C   UNL     1      -3.867 -12.011  -2.853  1.00  0.00     0.010 C 
ATOM     38  C   UNL     1      -2.619 -12.685  -0.823  1.00  0.00     0.010 C 
ENDBRANCH  35  36
BRANCH  35  39
ATOM     39  C   UNL     1      -2.562  -9.654  -2.903  1.00  0.00     0.329 C 
ATOM     40  O   UNL     1      -2.963  -9.630  -4.061  1.00  0.00    -0.250 OA
BRANCH  39  41
ATOM     41  O   UNL     1      -2.907  -8.720  -1.966  1.00  0.00    -0.458 OA
BRANCH  41  42
ATOM     42  C   UNL     1      -4.098  -8.998  -1.193  1.00  0.00     0.205 CG0
ATOM     43  C   UNL     1      -5.287  -8.442  -1.973  1.00  0.00     0.056 C 
ATOM     44  G   UNL     1      -3.947  -8.345   0.196  1.00  0.00     0.000 G0
ENDBRANCH  41  42
ENDBRANCH  39  41
ENDBRANCH  35  39
ENDBRANCH  33  35
ENDBRANCH  23  31
ENDBRANCH  21  23
ENDBRANCH  19  21
ENDBRANCH  14  19
ENDBRANCH   7  14
ENDBRANCH   2   5
BRANCH   3  45
ATOM     45  C   UNL     1      -0.855  -6.110  -0.122  1.00  0.00     0.171 C 
BRANCH  45  46
ATOM     46  N   UNL     1      -2.210  -6.645  -0.100  1.00  0.00    -0.342 N 
ATOM     47  C   UNL     1      -2.501  -7.896   0.382  1.00  0.00     0.247 C 
ATOM     48  O   UNL     1      -1.653  -8.628   0.896  1.00  0.00    -0.273 OA
ATOM     49  H   UNL     1      -2.952  -6.049  -0.465  1.00  0.00     0.164 HD
BRANCH  47  50
ATOM     50  C   UNL     1      -3.961  -8.336   0.210  1.00  0.00     0.212 CG0
ATOM     51  G   UNL     1      -4.085  -9.018  -1.168  1.00  0.00     0.000 G0
BRANCH  50  52
ATOM     52  N   UNL     1      -4.230  -9.239   1.326  1.00  0.00    -0.339 N 
ATOM     53  C   UNL     1      -5.082  -8.930   2.359  1.00  0.00     0.243 C 
ATOM     54  O   UNL     1      -5.645  -7.843   2.450  1.00  0.00    -0.273 OA
ATOM     55  H   UNL     1      -3.708 -10.111   1.365  1.00  0.00     0.164 HD
BRANCH  53  56
ATOM     56  C   UNL     1      -5.140 -10.002   3.466  1.00  0.00     0.182 C 
BRANCH  56  57
ATOM     57  N   UNL     1      -4.894  -9.410   4.785  1.00  0.00    -0.344 N 
ATOM     58  C   UNL     1      -5.912  -9.082   5.646  1.00  0.00     0.220 C 
ATOM     59  O   UNL     1      -7.096  -9.191   5.346  1.00  0.00    -0.275 OA
ATOM     60  H   UNL     1      -3.931  -9.398   5.112  1.00  0.00     0.164 HD
BRANCH  58  61
ATOM     61  C   UNL     1      -5.424  -8.539   6.976  1.00  0.00     0.100 C 
BRANCH  61  62
ATOM     62  C   UNL     1      -5.366  -7.012   7.035  1.00  0.00     0.010 C 
BRANCH  62  63
ATOM     63  C   UNL     1      -6.312  -6.387   8.068  1.00  0.00     0.000 C 
BRANCH  63  64
ATOM     64  C   UNL     1      -7.299  -7.373   8.691  1.00  0.00    -0.003 C 
ATOM     65  C   UNL     1      -7.534  -7.068  10.163  1.00  0.00     0.004 C 
ENDBRANCH  63  64
ENDBRANCH  62  63
ENDBRANCH  61  62
ENDBRANCH  58  61
ENDBRANCH  56  57
BRANCH  56  66
ATOM     66  C   UNL     1      -4.194 -11.165   3.170  1.00  0.00     0.157 C 
BRANCH  66  67
ATOM     67  C   UNL     1      -4.151 -12.136   4.315  1.00  0.00     0.305 C 
ATOM     68  O   UNL     1      -4.961 -13.017   4.559  1.00  0.00    -0.252 OA
BRANCH  67  69
ATOM     69  O   UNL     1      -3.050 -11.982   5.075  1.00  0.00    -0.481 OA
ATOM     70  H   UNL     1      -2.673 -12.883   5.155  1.00  0.00     0.296 HD
ENDBRANCH  67  69
ENDBRANCH  66  67
ENDBRANCH  56  66
ENDBRANCH  53  56
ENDBRANCH  50  52
ENDBRANCH  47  50
ENDBRANCH  45  46
BRANCH  45  71
ATOM     71  C   UNL     1      -0.661  -5.018   0.936  1.00  0.00     0.037 C 
BRANCH  71  72
ATOM     72  C   UNL     1      -1.542  -5.245   2.166  1.00  0.00     0.026 C 
BRANCH  72  73
ATOM     73  C   UNL     1      -1.984  -3.923   2.790  1.00  0.00     0.146 C 
BRANCH  73  74
ATOM     74  N   UNL     1      -0.796  -3.094   2.969  1.00  0.00    -0.254 NA
ATOM     75  C   UNL     1      -0.338  -2.951   4.157  1.00  0.00     0.185 C 
ATOM     76  N   UNL     1       0.754  -2.195   4.353  1.00  0.00    -0.370 N 
ATOM     77  N   UNL     1      -0.803  -3.466   5.309  1.00  0.00    -0.370 N 
ATOM     78  H   UNL     1       1.164  -1.763   3.538  1.00  0.00     0.159 HD
ATOM     79  H   UNL     1       1.082  -1.921   5.263  1.00  0.00     0.159 HD
ATOM     80  H   UNL     1      -1.619  -4.059   5.314  1.00  0.00     0.159 HD
ATOM     81  H   UNL     1      -0.291  -3.378   6.171  1.00  0.00     0.159 HD
ENDBRANCH  73  74
ENDBRANCH  72  73
ENDBRANCH  71  72
ENDBRANCH  45  71
ENDBRANCH   3  45
TORSDOF 20
ENDMDL
MODEL 43
REMARK VINA RESULT:    -3.801      3.100      8.634
REMARK INTER + INTRA:         -16.703
REMARK INTER:                 -14.858
REMARK INTRA:                  -1.846
REMARK UNBOUND:                -5.791
REMARK SMILES CCCCCC(=O)N[C@H](CC(=O)O)C(=O)N[C@H]1C(=O)N[C@H](CCCN=C(N)N)C(=O)N[C@@H]2CC[C@H](O)N(C2=O)[C@@H](CC(C)C)C(=O)N(C)[C@@H](Cc2ccccc2)C(=O)N[C@H](C(C)C)C(=O)O[C@@H]1C
REMARK SMILES IDX 30 1 31 2 29 3 32 5 35 6 37 7 34 8 38 9 33 10 39 11 36 12
REMARK SMILES IDX 40 14 41 15 42 16 43 17 44 18 45 19 46 20 47 21 48 22 49 23
REMARK SMILES IDX 50 24 51 25 52 26 56 27 53 28 55 29 54 30 57 31 58 32 59 33
REMARK SMILES IDX 60 35 61 36 62 37 63 38 64 39 65 40 66 41 67 42 68 43 21 45
REMARK SMILES IDX 20 46 18 47 19 48 17 50 16 52 14 53 15 54 9 56 8 57 6 58
REMARK SMILES IDX 7 59 5 61 4 62 3 63 2 64 1 65 10 66 11 67 12 68 13 69 22 71
REMARK SMILES IDX 23 72 24 73 25 74 26 75 27 76 28 77
REMARK H PARENT 31 4 36 13 59 34 20 49 16 55 8 60 13 70 27 78 27 79 28 80
REMARK H PARENT 28 81
REMARK Flexibility Score:  259.900
ROOT
ATOM      1  O   UNL     1       0.422  -2.451  -0.348  1.00  0.00    -0.273 OA
ATOM      2  N   UNL     1       0.757  -4.691  -0.668  1.00  0.00    -0.343 N 
ATOM      3  C   UNL     1       1.038  -3.362  -0.903  1.00  0.00     0.243 C 
ATOM      4  H   UNL     1       1.295  -5.413  -1.131  1.00  0.00     0.164 HD
ENDROOT
BRANCH   2   5
ATOM      5  C   UNL     1      -0.375  -5.074   0.168  1.00  0.00     0.171 C 
ATOM      6  C   UNL     1      -1.160  -7.589   1.379  1.00  0.00     0.214 C 
ATOM      7  N   UNL     1      -1.649  -7.251   0.063  1.00  0.00    -0.303 N 
ATOM      8  C   UNL     1      -0.902  -6.374   2.256  1.00  0.00     0.057 C 
ATOM      9  C   UNL     1      -1.273  -6.090  -0.594  1.00  0.00     0.247 C 
ATOM     10  C   UNL     1       0.086  -5.451   1.575  1.00  0.00     0.040 C 
ATOM     11  O   UNL     1      -1.628  -5.849  -1.755  1.00  0.00    -0.272 OA
BRANCH   6  12
ATOM     12  O   UNL     1       0.022  -8.340   1.219  1.00  0.00    -0.373 OA
ATOM     13  H   UNL     1      -0.228  -9.176   0.769  1.00  0.00     0.213 HD
ENDBRANCH   6  12
BRANCH   7  14
ATOM     14  C   UNL     1      -2.463  -8.270  -0.632  1.00  0.00     0.177 C 
BRANCH  14  15
ATOM     15  C   UNL     1      -3.884  -7.820  -1.023  1.00  0.00     0.038 C 
BRANCH  15  16
ATOM     16  C   UNL     1      -4.371  -8.012  -2.477  1.00  0.00    -0.015 C 
ATOM     17  C   UNL     1      -4.422  -6.694  -3.255  1.00  0.00     0.007 C 
ATOM     18  C   UNL     1      -5.777  -8.625  -2.477  1.00  0.00     0.007 C 
ENDBRANCH  15  16
ENDBRANCH  14  15
BRANCH  14  19
ATOM     19  C   UNL     1      -1.544  -9.213  -1.483  1.00  0.00     0.245 C 
ATOM     20  O   UNL     1      -0.389  -8.814  -1.707  1.00  0.00    -0.272 OA
BRANCH  19  21
ATOM     21  N   UNL     1      -1.980 -10.383  -2.079  1.00  0.00    -0.332 N 
ATOM     22  C   UNL     1      -2.974 -11.288  -1.530  1.00  0.00     0.147 C 
BRANCH  21  23
ATOM     23  C   UNL     1      -1.379 -10.764  -3.387  1.00  0.00     0.178 C 
BRANCH  23  24
ATOM     24  C   UNL     1      -2.063 -11.956  -4.088  1.00  0.00     0.070 C 
BRANCH  24  25
ATOM     25  C   UNL     1      -2.415 -11.786  -5.548  1.00  0.00    -0.045 A 
ATOM     26  C   UNL     1      -1.574 -12.283  -6.552  1.00  0.00     0.004 A 
ATOM     27  C   UNL     1      -3.593 -11.120  -5.918  1.00  0.00     0.004 A 
ATOM     28  C   UNL     1      -1.898 -12.106  -7.898  1.00  0.00     0.000 A 
ATOM     29  C   UNL     1      -3.916 -10.945  -7.265  1.00  0.00     0.000 A 
ATOM     30  C   UNL     1      -3.066 -11.436  -8.254  1.00  0.00     0.000 A 
ENDBRANCH  24  25
ENDBRANCH  23  24
BRANCH  23  31
ATOM     31  C   UNL     1      -1.096  -9.547  -4.299  1.00  0.00     0.243 C 
ATOM     32  O   UNL     1      -1.938  -8.705  -4.601  1.00  0.00    -0.273 OA
ATOM     33  N   UNL     1       0.150  -9.585  -4.901  1.00  0.00    -0.341 N 
ATOM     34  H   UNL     1       0.806 -10.314  -4.613  1.00  0.00     0.164 HD
BRANCH  33  35
ATOM     35  C   UNL     1       0.587  -8.600  -5.895  1.00  0.00     0.194 C 
BRANCH  35  36
ATOM     36  C   UNL     1       1.585  -9.160  -6.948  1.00  0.00     0.017 C 
ATOM     37  C   UNL     1       2.682 -10.008  -6.282  1.00  0.00     0.010 C 
ATOM     38  C   UNL     1       2.282  -8.064  -7.762  1.00  0.00     0.010 C 
ENDBRANCH  35  36
BRANCH  35  39
ATOM     39  C   UNL     1       1.105  -7.286  -5.246  1.00  0.00     0.329 C 
ATOM     40  O   UNL     1       0.508  -6.217  -5.291  1.00  0.00    -0.250 OA
BRANCH  39  41
ATOM     41  O   UNL     1       2.262  -7.475  -4.542  1.00  0.00    -0.458 OA
BRANCH  41  42
ATOM     42  C   UNL     1       2.992  -6.279  -4.175  1.00  0.00     0.205 CG0
ATOM     43  C   UNL     1       3.965  -5.974  -5.312  1.00  0.00     0.056 C 
ATOM     44  G   UNL     1       3.711  -6.534  -2.836  1.00  0.00     0.000 G0
ENDBRANCH  41  42
ENDBRANCH  39  41
ENDBRANCH  35  39
ENDBRANCH  33  35
ENDBRANCH  23  31
ENDBRANCH  21  23
ENDBRANCH  19  21
ENDBRANCH  14  19
ENDBRANCH   7  14
ENDBRANCH   2   5
BRANCH   3  45
ATOM     45  C   UNL     1       2.185  -3.096  -1.886  1.00  0.00     0.171 C 
BRANCH  45  46
ATOM     46  N   UNL     1       2.488  -4.384  -2.496  1.00  0.00    -0.342 N 
ATOM     47  C   UNL     1       3.412  -5.250  -1.967  1.00  0.00     0.247 C 
ATOM     48  O   UNL     1       3.998  -5.035  -0.905  1.00  0.00    -0.273 OA
ATOM     49  H   UNL     1       1.984  -4.627  -3.347  1.00  0.00     0.164 HD
BRANCH  47  50
ATOM     50  C   UNL     1       3.689  -6.501  -2.812  1.00  0.00     0.212 CG0
ATOM     51  G   UNL     1       3.025  -6.293  -4.188  1.00  0.00     0.000 G0
BRANCH  50  52
ATOM     52  N   UNL     1       5.144  -6.609  -2.884  1.00  0.00    -0.339 N 
ATOM     53  C   UNL     1       5.822  -7.795  -2.737  1.00  0.00     0.243 C 
ATOM     54  O   UNL     1       5.256  -8.854  -2.480  1.00  0.00    -0.273 OA
ATOM     55  H   UNL     1       5.677  -5.748  -2.984  1.00  0.00     0.164 HD
BRANCH  53  56
ATOM     56  C   UNL     1       7.357  -7.647  -2.765  1.00  0.00     0.182 C 
BRANCH  56  57
ATOM     57  N   UNL     1       7.788  -6.845  -3.914  1.00  0.00    -0.344 N 
ATOM     58  C   UNL     1       7.415  -7.144  -5.202  1.00  0.00     0.220 C 
ATOM     59  O   UNL     1       6.760  -8.140  -5.489  1.00  0.00    -0.275 OA
ATOM     60  H   UNL     1       8.244  -5.959  -3.712  1.00  0.00     0.164 HD
BRANCH  58  61
ATOM     61  C   UNL     1       7.928  -6.145  -6.223  1.00  0.00     0.100 C 
BRANCH  61  62
ATOM     62  C   UNL     1       7.555  -4.696  -5.909  1.00  0.00     0.010 C 
BRANCH  62  63
ATOM     63  C   UNL     1       6.453  -4.123  -6.809  1.00  0.00     0.000 C 
BRANCH  63  64
ATOM     64  C   UNL     1       6.149  -2.645  -6.564  1.00  0.00    -0.003 C 
ATOM     65  C   UNL     1       7.060  -1.747  -7.389  1.00  0.00     0.004 C 
ENDBRANCH  63  64
ENDBRANCH  62  63
ENDBRANCH  61  62
ENDBRANCH  58  61
ENDBRANCH  56  57
BRANCH  56  66
ATOM     66  C   UNL     1       8.051  -9.008  -2.719  1.00  0.00     0.157 C 
BRANCH  66  67
ATOM     67  C   UNL     1       8.037  -9.578  -1.330  1.00  0.00     0.305 C 
ATOM     68  O   UNL     1       7.922 -10.755  -1.022  1.00  0.00    -0.252 OA
BRANCH  67  69
ATOM     69  O   UNL     1       8.223  -8.635  -0.387  1.00  0.00    -0.481 OA
ATOM     70  H   UNL     1       7.319  -8.380  -0.107  1.00  0.00     0.296 HD
ENDBRANCH  67  69
ENDBRANCH  66  67
ENDBRANCH  56  66
ENDBRANCH  53  56
ENDBRANCH  50  52
ENDBRANCH  47  50
ENDBRANCH  45  46
BRANCH  45  71
ATOM     71  C   UNL     1       3.399  -2.520  -1.148  1.00  0.00     0.037 C 
BRANCH  71  72
ATOM     72  C   UNL     1       4.127  -1.460  -1.978  1.00  0.00     0.026 C 
BRANCH  72  73
ATOM     73  C   UNL     1       5.639  -1.534  -1.778  1.00  0.00     0.146 C 
BRANCH  73  74
ATOM     74  N   UNL     1       5.932  -2.751  -1.028  1.00  0.00    -0.254 NA
ATOM     75  C   UNL     1       6.866  -3.514  -1.464  1.00  0.00     0.185 C 
ATOM     76  N   UNL     1       7.159  -4.641  -0.796  1.00  0.00    -0.370 N 
ATOM     77  N   UNL     1       7.646  -3.359  -2.548  1.00  0.00    -0.370 N 
ATOM     78  H   UNL     1       6.612  -4.838   0.031  1.00  0.00     0.159 HD
ATOM     79  H   UNL     1       7.771  -5.353  -1.153  1.00  0.00     0.159 HD
ATOM     80  H   UNL     1       7.540  -2.553  -3.146  1.00  0.00     0.159 HD
ATOM     81  H   UNL     1       8.427  -3.967  -2.728  1.00  0.00     0.159 HD
ENDBRANCH  73  74
ENDBRANCH  72  73
ENDBRANCH  71  72
ENDBRANCH  45  71
ENDBRANCH   3  45
TORSDOF 20
ENDMDL
