MODEL 1
REMARK VINA RESULT:    -6.986      0.000      0.000
REMARK INTER + INTRA:         -14.663
REMARK INTER:                 -12.500
REMARK INTRA:                  -2.163
REMARK UNBOUND:                -2.163
REMARK SMILES CC[C@H](C)[C@H]1NC(=O)c2coc(n2)[C@H](C(C)C)NC(=O)[C@H]([C@@H](C)O)NC(=O)[C@H](C)NC(=O)c2csc1n2
REMARK SMILES IDX 11 1 13 2 12 3 9 4 10 5 7 6 6 7 8 8 5 10 36 11 35 12 34 13
REMARK SMILES IDX 37 14 33 15 31 16 32 17 30 18 28 20 29 21 3 23 4 24 2 25
REMARK SMILES IDX 1 26 14 27 18 28 19 29 20 30 21 32 25 33 26 34 27 35 22 38
REMARK SMILES IDX 23 39 24 40 15 42 16 43 17 44
REMARK H PARENT 6 9 30 19 18 31 25 36 24 41
REMARK Flexibility Score:   94.900
ROOT
ATOM      1  O   UNL     1      -4.317  -0.594   5.783  1.00  0.00    -0.446 OA
ATOM      2  N   UNL     1      -2.357   0.252   6.505  1.00  0.00    -0.207 NA
ATOM      3  C   UNL     1      -3.078  -0.838   6.314  1.00  0.00     0.217 A 
ATOM      4  C   UNL     1      -3.164   1.278   6.045  1.00  0.00     0.167 A 
ATOM      5  C   UNL     1      -4.356   0.756   5.606  1.00  0.00     0.231 A 
ENDROOT
BRANCH   4   6
ATOM      6  C   UNL     1      -2.768   2.675   6.079  1.00  0.00     0.273 C 
ATOM      7  N   UNL     1      -1.633   2.865   6.826  1.00  0.00    -0.341 N 
ATOM      8  O   UNL     1      -3.394   3.571   5.525  1.00  0.00    -0.267 OA
ATOM      9  H   UNL     1      -1.276   2.042   7.303  1.00  0.00     0.164 HD
BRANCH   7  10
ATOM     10  C   UNL     1      -1.161   4.175   7.230  1.00  0.00     0.145 C 
BRANCH  10  11
ATOM     11  C   UNL     1      -1.221   4.238   8.749  1.00  0.00     0.116 A 
ATOM     12  S   UNL     1      -0.564   5.601   9.575  1.00  0.00    -0.124 S 
ATOM     13  C   UNL     1      -1.052   4.923  11.066  1.00  0.00     0.101 A 
ATOM     14  N   UNL     1      -1.765   3.315   9.525  1.00  0.00    -0.234 NA
ATOM     15  C   UNL     1      -1.686   3.712  10.862  1.00  0.00     0.139 A 
BRANCH  15  16
ATOM     16  C   UNL     1      -2.246   2.896  11.942  1.00  0.00     0.271 C 
ATOM     17  O   UNL     1      -2.467   3.339  13.064  1.00  0.00    -0.267 OA
ATOM     18  N   UNL     1      -2.497   1.592  11.573  1.00  0.00    -0.339 N 
ATOM     19  H   UNL     1      -2.167   1.320  10.650  1.00  0.00     0.164 HD
BRANCH  18  20
ATOM     20  C   UNL     1      -2.992   0.617  12.535  1.00  0.00     0.168 CG0
ATOM     21  C   UNL     1      -4.521   0.589  12.564  1.00  0.00     0.041 C 
ATOM     22  G   UNL     1      -2.501  -0.810  12.242  1.00  0.00     0.000 G0
ENDBRANCH  18  20
ENDBRANCH  15  16
ENDBRANCH  10  11
BRANCH  10  23
ATOM     23  C   UNL     1       0.258   4.482   6.681  1.00  0.00     0.015 C 
ATOM     24  C   UNL     1       0.894   3.293   5.941  1.00  0.00     0.010 C 
BRANCH  23  25
ATOM     25  C   UNL     1       0.286   5.716   5.752  1.00  0.00     0.002 C 
ATOM     26  C   UNL     1      -1.088   6.302   5.460  1.00  0.00     0.004 C 
ENDBRANCH  23  25
ENDBRANCH  10  23
ENDBRANCH   7  10
ENDBRANCH   4   6
BRANCH   3  27
ATOM     27  C   UNL     1      -2.697  -2.250   6.662  1.00  0.00     0.171 C 
BRANCH  27  28
ATOM     28  N   UNL     1      -2.837  -2.407   8.106  1.00  0.00    -0.342 N 
ATOM     29  C   UNL     1      -1.759  -2.462   8.960  1.00  0.00     0.245 C 
ATOM     30  O   UNL     1      -0.596  -2.367   8.570  1.00  0.00    -0.273 OA
ATOM     31  H   UNL     1      -3.771  -2.378   8.513  1.00  0.00     0.164 HD
BRANCH  29  32
ATOM     32  C   UNL     1      -2.109  -2.500  10.463  1.00  0.00     0.200 C 
BRANCH  32  33
ATOM     33  N   UNL     1      -2.439  -1.137  10.894  1.00  0.00    -0.340 N 
ATOM     34  C   UNL     1      -2.504  -0.804  12.231  1.00  0.00     0.243 CG0
ATOM     35  O   UNL     1      -2.352  -1.643  13.117  1.00  0.00    -0.273 OA
ATOM     36  H   UNL     1      -2.600  -0.430  10.186  1.00  0.00     0.164 HD
ATOM     37  G   UNL     1      -2.994   0.619  12.541  1.00  0.00     0.000 G0
ENDBRANCH  32  33
BRANCH  32  38
ATOM     38  C   UNL     1      -3.238  -3.516  10.754  1.00  0.00     0.143 C 
ATOM     39  C   UNL     1      -4.642  -2.969  10.521  1.00  0.00     0.041 C 
BRANCH  38  40
ATOM     40  O   UNL     1      -3.057  -4.698   9.951  1.00  0.00    -0.391 OA
ATOM     41  H   UNL     1      -3.532  -5.420  10.406  1.00  0.00     0.211 HD
ENDBRANCH  38  40
ENDBRANCH  32  38
ENDBRANCH  29  32
ENDBRANCH  27  28
BRANCH  27  42
ATOM     42  C   UNL     1      -3.408  -3.391   5.893  1.00  0.00     0.015 C 
ATOM     43  C   UNL     1      -2.511  -4.558   5.465  1.00  0.00     0.010 C 
ATOM     44  C   UNL     1      -4.634  -3.913   6.648  1.00  0.00     0.010 C 
ENDBRANCH  27  42
ENDBRANCH   3  27
TORSDOF 5
ENDMDL
MODEL 2
REMARK VINA RESULT:    -6.461      4.040      6.685
REMARK INTER + INTRA:         -13.723
REMARK INTER:                 -11.762
REMARK INTRA:                  -1.962
REMARK UNBOUND:                -2.163
REMARK SMILES CC[C@H](C)[C@H]1NC(=O)c2coc(n2)[C@H](C(C)C)NC(=O)[C@H]([C@@H](C)O)NC(=O)[C@H](C)NC(=O)c2csc1n2
REMARK SMILES IDX 11 1 13 2 12 3 9 4 10 5 7 6 6 7 8 8 5 10 36 11 35 12 34 13
REMARK SMILES IDX 37 14 33 15 31 16 32 17 30 18 28 20 29 21 3 23 4 24 2 25
REMARK SMILES IDX 1 26 14 27 18 28 19 29 20 30 21 32 25 33 26 34 27 35 22 38
REMARK SMILES IDX 23 39 24 40 15 42 16 43 17 44
REMARK H PARENT 6 9 30 19 18 31 25 36 24 41
REMARK Flexibility Score:   94.900
ROOT
ATOM      1  O   UNL     1      -7.456  -0.578   6.339  1.00  0.00    -0.446 OA
ATOM      2  N   UNL     1      -6.869  -2.003   7.983  1.00  0.00    -0.207 NA
ATOM      3  C   UNL     1      -6.566  -1.513   6.795  1.00  0.00     0.217 A 
ATOM      4  C   UNL     1      -8.022  -1.327   8.345  1.00  0.00     0.167 A 
ATOM      5  C   UNL     1      -8.373  -0.460   7.339  1.00  0.00     0.231 A 
ENDROOT
BRANCH   4   6
ATOM      6  C   UNL     1      -8.723  -1.567   9.594  1.00  0.00     0.273 C 
ATOM      7  N   UNL     1      -9.017  -0.396  10.246  1.00  0.00    -0.341 N 
ATOM      8  O   UNL     1      -8.992  -2.684  10.017  1.00  0.00    -0.267 OA
ATOM      9  H   UNL     1      -8.650   0.450   9.820  1.00  0.00     0.164 HD
BRANCH   7  10
ATOM     10  C   UNL     1      -9.486  -0.349  11.617  1.00  0.00     0.145 C 
BRANCH  10  11
ATOM     11  C   UNL     1      -8.264  -0.280  12.520  1.00  0.00     0.116 A 
ATOM     12  S   UNL     1      -8.452   0.134  14.183  1.00  0.00    -0.124 S 
ATOM     13  C   UNL     1      -6.768  -0.052  14.412  1.00  0.00     0.101 A 
ATOM     14  N   UNL     1      -7.023  -0.531  12.137  1.00  0.00    -0.234 NA
ATOM     15  C   UNL     1      -6.157  -0.418  13.228  1.00  0.00     0.139 A 
BRANCH  15  16
ATOM     16  C   UNL     1      -4.721  -0.680  13.102  1.00  0.00     0.271 C 
ATOM     17  O   UNL     1      -3.933  -0.525  14.028  1.00  0.00    -0.267 OA
ATOM     18  N   UNL     1      -4.350  -1.117  11.848  1.00  0.00    -0.339 N 
ATOM     19  H   UNL     1      -5.076  -1.098  11.137  1.00  0.00     0.164 HD
BRANCH  18  20
ATOM     20  C   UNL     1      -2.952  -1.363  11.518  1.00  0.00     0.168 CG0
ATOM     21  C   UNL     1      -2.685  -2.855  11.305  1.00  0.00     0.041 C 
ATOM     22  G   UNL     1      -2.501  -0.619  10.250  1.00  0.00     0.000 G0
ENDBRANCH  18  20
ENDBRANCH  15  16
ENDBRANCH  10  11
BRANCH  10  23
ATOM     23  C   UNL     1     -10.469   0.828  11.860  1.00  0.00     0.015 C 
ATOM     24  C   UNL     1      -9.923   2.184  11.383  1.00  0.00     0.010 C 
BRANCH  23  25
ATOM     25  C   UNL     1     -11.852   0.595  11.212  1.00  0.00     0.002 C 
ATOM     26  C   UNL     1     -12.105   1.443   9.973  1.00  0.00     0.004 C 
ENDBRANCH  23  25
ENDBRANCH  10  23
ENDBRANCH   7  10
ENDBRANCH   4   6
BRANCH   3  27
ATOM     27  C   UNL     1      -5.412  -1.912   5.917  1.00  0.00     0.171 C 
BRANCH  27  28
ATOM     28  N   UNL     1      -4.191  -1.807   6.709  1.00  0.00    -0.342 N 
ATOM     29  C   UNL     1      -3.459  -0.644   6.804  1.00  0.00     0.245 C 
ATOM     30  O   UNL     1      -3.790   0.397   6.240  1.00  0.00    -0.273 OA
ATOM     31  H   UNL     1      -3.917  -2.595   7.295  1.00  0.00     0.164 HD
BRANCH  29  32
ATOM     32  C   UNL     1      -2.273  -0.690   7.789  1.00  0.00     0.200 C 
BRANCH  32  33
ATOM     33  N   UNL     1      -2.749  -1.256   9.058  1.00  0.00    -0.340 N 
ATOM     34  C   UNL     1      -2.522  -0.614  10.258  1.00  0.00     0.243 CG0
ATOM     35  O   UNL     1      -1.862   0.420  10.327  1.00  0.00    -0.273 OA
ATOM     36  H   UNL     1      -3.270  -2.124   9.036  1.00  0.00     0.164 HD
ATOM     37  G   UNL     1      -2.953  -1.384  11.517  1.00  0.00     0.000 G0
ENDBRANCH  32  33
BRANCH  32  38
ATOM     38  C   UNL     1      -1.074  -1.466   7.195  1.00  0.00     0.143 C 
ATOM     39  C   UNL     1      -0.242  -0.661   6.203  1.00  0.00     0.041 C 
BRANCH  38  40
ATOM     40  O   UNL     1      -0.216  -1.933   8.254  1.00  0.00    -0.391 OA
ATOM     41  H   UNL     1      -0.784  -2.421   8.880  1.00  0.00     0.211 HD
ENDBRANCH  38  40
ENDBRANCH  32  38
ENDBRANCH  29  32
ENDBRANCH  27  28
BRANCH  27  42
ATOM     42  C   UNL     1      -5.505  -3.278   5.193  1.00  0.00     0.015 C 
ATOM     43  C   UNL     1      -5.951  -3.220   3.728  1.00  0.00     0.010 C 
ATOM     44  C   UNL     1      -4.209  -4.085   5.323  1.00  0.00     0.010 C 
ENDBRANCH  27  42
ENDBRANCH   3  27
TORSDOF 5
ENDMDL
MODEL 3
REMARK VINA RESULT:    -6.047      2.468      6.810
REMARK INTER + INTRA:         -12.983
REMARK INTER:                 -10.683
REMARK INTRA:                  -2.300
REMARK UNBOUND:                -2.163
REMARK SMILES CC[C@H](C)[C@H]1NC(=O)c2coc(n2)[C@H](C(C)C)NC(=O)[C@H]([C@@H](C)O)NC(=O)[C@H](C)NC(=O)c2csc1n2
REMARK SMILES IDX 11 1 13 2 12 3 9 4 10 5 7 6 6 7 8 8 5 10 36 11 35 12 34 13
REMARK SMILES IDX 37 14 33 15 31 16 32 17 30 18 28 20 29 21 3 23 4 24 2 25
REMARK SMILES IDX 1 26 14 27 18 28 19 29 20 30 21 32 25 33 26 34 27 35 22 38
REMARK SMILES IDX 23 39 24 40 15 42 16 43 17 44
REMARK H PARENT 6 9 30 19 18 31 25 36 24 41
REMARK Flexibility Score:   94.900
ROOT
ATOM      1  O   UNL     1      -2.378   2.417   5.445  1.00  0.00    -0.446 OA
ATOM      2  N   UNL     1      -1.487   1.631   7.361  1.00  0.00    -0.207 NA
ATOM      3  C   UNL     1      -1.906   2.696   6.700  1.00  0.00     0.217 A 
ATOM      4  C   UNL     1      -1.723   0.579   6.493  1.00  0.00     0.167 A 
ATOM      5  C   UNL     1      -2.267   1.064   5.329  1.00  0.00     0.231 A 
ENDROOT
BRANCH   4   6
ATOM      6  C   UNL     1      -1.395  -0.800   6.810  1.00  0.00     0.273 C 
ATOM      7  N   UNL     1      -2.489  -1.622   6.705  1.00  0.00    -0.341 N 
ATOM      8  O   UNL     1      -0.278  -1.169   7.153  1.00  0.00    -0.267 OA
ATOM      9  H   UNL     1      -3.370  -1.158   6.501  1.00  0.00     0.164 HD
BRANCH   7  10
ATOM     10  C   UNL     1      -2.506  -2.985   7.198  1.00  0.00     0.145 C 
BRANCH  10  11
ATOM     11  C   UNL     1      -2.556  -2.924   8.718  1.00  0.00     0.116 A 
ATOM     12  S   UNL     1      -1.843  -4.188   9.647  1.00  0.00    -0.124 S 
ATOM     13  C   UNL     1      -2.280  -3.369  11.082  1.00  0.00     0.101 A 
ATOM     14  N   UNL     1      -3.105  -1.947   9.420  1.00  0.00    -0.234 NA
ATOM     15  C   UNL     1      -2.935  -2.189  10.785  1.00  0.00     0.139 A 
BRANCH  15  16
ATOM     16  C   UNL     1      -3.413  -1.247  11.799  1.00  0.00     0.271 C 
ATOM     17  O   UNL     1      -3.734  -1.595  12.931  1.00  0.00    -0.267 OA
ATOM     18  N   UNL     1      -3.463   0.058  11.359  1.00  0.00    -0.339 N 
ATOM     19  H   UNL     1      -3.278   0.201  10.369  1.00  0.00     0.164 HD
BRANCH  18  20
ATOM     20  C   UNL     1      -3.978   1.123  12.210  1.00  0.00     0.168 CG0
ATOM     21  C   UNL     1      -2.847   1.839  12.951  1.00  0.00     0.041 C 
ATOM     22  G   UNL     1      -4.769   2.181  11.424  1.00  0.00     0.000 G0
ENDBRANCH  18  20
ENDBRANCH  15  16
ENDBRANCH  10  11
BRANCH  10  23
ATOM     23  C   UNL     1      -3.676  -3.810   6.599  1.00  0.00     0.015 C 
ATOM     24  C   UNL     1      -4.895  -2.952   6.223  1.00  0.00     0.010 C 
BRANCH  23  25
ATOM     25  C   UNL     1      -3.254  -4.639   5.365  1.00  0.00     0.002 C 
ATOM     26  C   UNL     1      -1.749  -4.690   5.140  1.00  0.00     0.004 C 
ENDBRANCH  23  25
ENDBRANCH  10  23
ENDBRANCH   7  10
ENDBRANCH   4   6
BRANCH   3  27
ATOM     27  C   UNL     1      -1.861   4.126   7.164  1.00  0.00     0.171 C 
BRANCH  27  28
ATOM     28  N   UNL     1      -2.599   4.212   8.419  1.00  0.00    -0.342 N 
ATOM     29  C   UNL     1      -3.974   4.177   8.480  1.00  0.00     0.245 C 
ATOM     30  O   UNL     1      -4.682   4.054   7.482  1.00  0.00    -0.273 OA
ATOM     31  H   UNL     1      -2.079   4.200   9.296  1.00  0.00     0.164 HD
BRANCH  29  32
ATOM     32  C   UNL     1      -4.571   4.150   9.904  1.00  0.00     0.200 C 
BRANCH  32  33
ATOM     33  N   UNL     1      -3.981   3.018  10.629  1.00  0.00    -0.340 N 
ATOM     34  C   UNL     1      -4.755   2.188  11.413  1.00  0.00     0.243 CG0
ATOM     35  O   UNL     1      -5.954   2.394  11.590  1.00  0.00    -0.273 OA
ATOM     36  H   UNL     1      -2.988   2.841  10.527  1.00  0.00     0.164 HD
ATOM     37  G   UNL     1      -3.989   1.129  12.223  1.00  0.00     0.000 G0
ENDBRANCH  32  33
BRANCH  32  38
ATOM     38  C   UNL     1      -4.367   5.501  10.627  1.00  0.00     0.143 C 
ATOM     39  C   UNL     1      -3.238   5.496  11.651  1.00  0.00     0.041 C 
BRANCH  38  40
ATOM     40  O   UNL     1      -4.120   6.544   9.664  1.00  0.00    -0.391 OA
ATOM     41  H   UNL     1      -4.982   6.762   9.262  1.00  0.00     0.211 HD
ENDBRANCH  38  40
ENDBRANCH  32  38
ENDBRANCH  29  32
ENDBRANCH  27  28
BRANCH  27  42
ATOM     42  C   UNL     1      -0.469   4.796   7.275  1.00  0.00     0.015 C 
ATOM     43  C   UNL     1       0.198   5.158   5.943  1.00  0.00     0.010 C 
ATOM     44  C   UNL     1      -0.492   6.013   8.205  1.00  0.00     0.010 C 
ENDBRANCH  27  42
ENDBRANCH   3  27
TORSDOF 5
ENDMDL
MODEL 4
REMARK VINA RESULT:    -6.018      2.412      3.222
REMARK INTER + INTRA:         -12.931
REMARK INTER:                 -10.561
REMARK INTRA:                  -2.370
REMARK UNBOUND:                -2.163
REMARK SMILES CC[C@H](C)[C@H]1NC(=O)c2coc(n2)[C@H](C(C)C)NC(=O)[C@H]([C@@H](C)O)NC(=O)[C@H](C)NC(=O)c2csc1n2
REMARK SMILES IDX 11 1 13 2 12 3 9 4 10 5 7 6 6 7 8 8 5 10 36 11 35 12 34 13
REMARK SMILES IDX 37 14 33 15 31 16 32 17 30 18 28 20 29 21 3 23 4 24 2 25
REMARK SMILES IDX 1 26 14 27 18 28 19 29 20 30 21 32 25 33 26 34 27 35 22 38
REMARK SMILES IDX 23 39 24 40 15 42 16 43 17 44
REMARK H PARENT 6 9 30 19 18 31 25 36 24 41
REMARK Flexibility Score:   94.900
ROOT
ATOM      1  O   UNL     1      -0.275  -0.994   8.071  1.00  0.00    -0.446 OA
ATOM      2  N   UNL     1      -1.950   0.293   8.858  1.00  0.00    -0.207 NA
ATOM      3  C   UNL     1      -1.394  -0.906   8.855  1.00  0.00     0.217 A 
ATOM      4  C   UNL     1      -1.128   1.050   8.042  1.00  0.00     0.167 A 
ATOM      5  C   UNL     1      -0.109   0.260   7.566  1.00  0.00     0.231 A 
ENDROOT
BRANCH   4   6
ATOM      6  C   UNL     1      -1.375   2.450   7.746  1.00  0.00     0.273 C 
ATOM      7  N   UNL     1      -1.403   3.215   8.885  1.00  0.00    -0.341 N 
ATOM      8  O   UNL     1      -1.560   2.881   6.614  1.00  0.00    -0.267 OA
ATOM      9  H   UNL     1      -1.326   2.704   9.760  1.00  0.00     0.164 HD
BRANCH   7  10
ATOM     10  C   UNL     1      -1.872   4.586   8.906  1.00  0.00     0.145 C 
BRANCH  10  11
ATOM     11  C   UNL     1      -2.951   4.688   9.974  1.00  0.00     0.116 A 
ATOM     12  S   UNL     1      -4.129   5.943   9.882  1.00  0.00    -0.124 S 
ATOM     13  C   UNL     1      -4.877   5.334  11.293  1.00  0.00     0.101 A 
ATOM     14  N   UNL     1      -3.084   3.861  10.998  1.00  0.00    -0.234 NA
ATOM     15  C   UNL     1      -4.204   4.219  11.754  1.00  0.00     0.139 A 
BRANCH  15  16
ATOM     16  C   UNL     1      -4.614   3.451  12.932  1.00  0.00     0.271 C 
ATOM     17  O   UNL     1      -4.285   3.756  14.073  1.00  0.00    -0.267 OA
ATOM     18  N   UNL     1      -5.403   2.361  12.631  1.00  0.00    -0.339 N 
ATOM     19  H   UNL     1      -5.512   2.151  11.642  1.00  0.00     0.164 HD
BRANCH  18  20
ATOM     20  C   UNL     1      -5.850   1.442  13.670  1.00  0.00     0.168 CG0
ATOM     21  C   UNL     1      -7.293   1.733  14.086  1.00  0.00     0.041 C 
ATOM     22  G   UNL     1      -5.773  -0.030  13.234  1.00  0.00     0.000 G0
ENDBRANCH  18  20
ENDBRANCH  15  16
ENDBRANCH  10  11
BRANCH  10  23
ATOM     23  C   UNL     1      -0.716   5.596   9.136  1.00  0.00     0.015 C 
ATOM     24  C   UNL     1       0.229   5.191  10.279  1.00  0.00     0.010 C 
BRANCH  23  25
ATOM     25  C   UNL     1       0.125   5.843   7.863  1.00  0.00     0.002 C 
ATOM     26  C   UNL     1      -0.701   6.220   6.640  1.00  0.00     0.004 C 
ENDBRANCH  23  25
ENDBRANCH  10  23
ENDBRANCH   7  10
ENDBRANCH   4   6
BRANCH   3  27
ATOM     27  C   UNL     1      -1.890  -2.137   9.562  1.00  0.00     0.171 C 
BRANCH  27  28
ATOM     28  N   UNL     1      -3.277  -1.902   9.949  1.00  0.00    -0.342 N 
ATOM     29  C   UNL     1      -3.732  -2.066  11.238  1.00  0.00     0.245 C 
ATOM     30  O   UNL     1      -2.998  -2.410  12.163  1.00  0.00    -0.273 OA
ATOM     31  H   UNL     1      -3.917  -1.505   9.261  1.00  0.00     0.164 HD
BRANCH  29  32
ATOM     32  C   UNL     1      -5.197  -1.646  11.480  1.00  0.00     0.200 C 
BRANCH  32  33
ATOM     33  N   UNL     1      -5.200  -0.289  12.042  1.00  0.00    -0.340 N 
ATOM     34  C   UNL     1      -5.783  -0.022  13.264  1.00  0.00     0.243 CG0
ATOM     35  O   UNL     1      -6.377  -0.888  13.903  1.00  0.00    -0.273 OA
ATOM     36  H   UNL     1      -4.744   0.452  11.523  1.00  0.00     0.164 HD
ATOM     37  G   UNL     1      -5.835   1.460  13.667  1.00  0.00     0.000 G0
ENDBRANCH  32  33
BRANCH  32  38
ATOM     38  C   UNL     1      -6.040  -1.765  10.188  1.00  0.00     0.143 C 
ATOM     39  C   UNL     1      -6.538  -3.176   9.898  1.00  0.00     0.041 C 
BRANCH  38  40
ATOM     40  O   UNL     1      -7.171  -0.875  10.254  1.00  0.00    -0.391 OA
ATOM     41  H   UNL     1      -6.827  -0.007  10.539  1.00  0.00     0.211 HD
ENDBRANCH  38  40
ENDBRANCH  32  38
ENDBRANCH  29  32
ENDBRANCH  27  28
BRANCH  27  42
ATOM     42  C   UNL     1      -1.725  -3.493   8.834  1.00  0.00     0.015 C 
ATOM     43  C   UNL     1      -1.837  -4.738   9.721  1.00  0.00     0.010 C 
ATOM     44  C   UNL     1      -2.662  -3.614   7.628  1.00  0.00     0.010 C 
ENDBRANCH  27  42
ENDBRANCH   3  27
TORSDOF 5
ENDMDL
MODEL 5
REMARK VINA RESULT:    -5.957      4.098      6.816
REMARK INTER + INTRA:         -12.821
REMARK INTER:                 -10.646
REMARK INTRA:                  -2.175
REMARK UNBOUND:                -2.163
REMARK SMILES CC[C@H](C)[C@H]1NC(=O)c2coc(n2)[C@H](C(C)C)NC(=O)[C@H]([C@@H](C)O)NC(=O)[C@H](C)NC(=O)c2csc1n2
REMARK SMILES IDX 11 1 13 2 12 3 9 4 10 5 7 6 6 7 8 8 5 10 36 11 35 12 34 13
REMARK SMILES IDX 37 14 33 15 31 16 32 17 30 18 28 20 29 21 3 23 4 24 2 25
REMARK SMILES IDX 1 26 14 27 18 28 19 29 20 30 21 32 25 33 26 34 27 35 22 38
REMARK SMILES IDX 23 39 24 40 15 42 16 43 17 44
REMARK H PARENT 6 9 30 19 18 31 25 36 24 41
REMARK Flexibility Score:   94.900
ROOT
ATOM      1  O   UNL     1      -9.034  -2.473   9.636  1.00  0.00    -0.446 OA
ATOM      2  N   UNL     1      -7.989  -0.540   9.135  1.00  0.00    -0.207 NA
ATOM      3  C   UNL     1      -8.880  -1.139   9.905  1.00  0.00     0.217 A 
ATOM      4  C   UNL     1      -7.506  -1.552   8.324  1.00  0.00     0.167 A 
ATOM      5  C   UNL     1      -8.145  -2.727   8.635  1.00  0.00     0.231 A 
ENDROOT
BRANCH   4   6
ATOM      6  C   UNL     1      -6.500  -1.335   7.299  1.00  0.00     0.273 C 
ATOM      7  N   UNL     1      -5.388  -2.114   7.502  1.00  0.00    -0.341 N 
ATOM      8  O   UNL     1      -6.629  -0.533   6.382  1.00  0.00    -0.267 OA
ATOM      9  H   UNL     1      -5.386  -2.663   8.357  1.00  0.00     0.164 HD
BRANCH   7  10
ATOM     10  C   UNL     1      -4.145  -1.922   6.782  1.00  0.00     0.145 C 
BRANCH  10  11
ATOM     11  C   UNL     1      -3.139  -1.320   7.752  1.00  0.00     0.116 A 
ATOM     12  S   UNL     1      -1.472  -1.247   7.319  1.00  0.00    -0.124 S 
ATOM     13  C   UNL     1      -1.128  -0.473   8.804  1.00  0.00     0.101 A 
ATOM     14  N   UNL     1      -3.438  -0.814   8.937  1.00  0.00    -0.234 NA
ATOM     15  C   UNL     1      -2.285  -0.308   9.542  1.00  0.00     0.139 A 
BRANCH  15  16
ATOM     16  C   UNL     1      -2.326   0.347  10.851  1.00  0.00     0.271 C 
ATOM     17  O   UNL     1      -1.315   0.666  11.468  1.00  0.00    -0.267 OA
ATOM     18  N   UNL     1      -3.605   0.569  11.316  1.00  0.00    -0.339 N 
ATOM     19  H   UNL     1      -4.355   0.160  10.765  1.00  0.00     0.164 HD
BRANCH  18  20
ATOM     20  C   UNL     1      -3.841   1.150  12.631  1.00  0.00     0.168 CG0
ATOM     21  C   UNL     1      -4.356   2.586  12.520  1.00  0.00     0.041 C 
ATOM     22  G   UNL     1      -4.856   0.348  13.461  1.00  0.00     0.000 G0
ENDBRANCH  18  20
ENDBRANCH  15  16
ENDBRANCH  10  11
BRANCH  10  23
ATOM     23  C   UNL     1      -3.632  -3.238   6.139  1.00  0.00     0.015 C 
ATOM     24  C   UNL     1      -3.178  -4.284   7.171  1.00  0.00     0.010 C 
BRANCH  23  25
ATOM     25  C   UNL     1      -4.671  -3.889   5.199  1.00  0.00     0.002 C 
ATOM     26  C   UNL     1      -4.059  -4.745   4.099  1.00  0.00     0.004 C 
ENDBRANCH  23  25
ENDBRANCH  10  23
ENDBRANCH   7  10
ENDBRANCH   4   6
BRANCH   3  27
ATOM     27  C   UNL     1      -9.739  -0.503  10.963  1.00  0.00     0.171 C 
BRANCH  27  28
ATOM     28  N   UNL     1      -8.858  -0.014  12.018  1.00  0.00    -0.342 N 
ATOM     29  C   UNL     1      -8.248  -0.848  12.928  1.00  0.00     0.245 C 
ATOM     30  O   UNL     1      -8.389  -2.070  12.909  1.00  0.00    -0.273 OA
ATOM     31  H   UNL     1      -8.604   0.973  12.027  1.00  0.00     0.164 HD
BRANCH  29  32
ATOM     32  C   UNL     1      -7.253  -0.163  13.887  1.00  0.00     0.200 C 
BRANCH  32  33
ATOM     33  N   UNL     1      -6.176   0.432  13.086  1.00  0.00    -0.340 N 
ATOM     34  C   UNL     1      -4.857   0.346  13.483  1.00  0.00     0.243 CG0
ATOM     35  O   UNL     1      -4.532  -0.171  14.550  1.00  0.00    -0.273 OA
ATOM     36  H   UNL     1      -6.416   0.892  12.216  1.00  0.00     0.164 HD
ATOM     37  G   UNL     1      -3.851   1.129  12.624  1.00  0.00     0.000 G0
ENDBRANCH  32  33
BRANCH  32  38
ATOM     38  C   UNL     1      -7.962   0.864  14.800  1.00  0.00     0.143 C 
ATOM     39  C   UNL     1      -7.853   2.306  14.317  1.00  0.00     0.041 C 
BRANCH  38  40
ATOM     40  O   UNL     1      -9.355   0.522  14.937  1.00  0.00    -0.391 OA
ATOM     41  H   UNL     1      -9.401  -0.208  15.582  1.00  0.00     0.211 HD
ENDBRANCH  38  40
ENDBRANCH  32  38
ENDBRANCH  29  32
ENDBRANCH  27  28
BRANCH  27  42
ATOM     42  C   UNL     1     -10.741   0.587  10.508  1.00  0.00     0.015 C 
ATOM     43  C   UNL     1     -12.187   0.115  10.314  1.00  0.00     0.010 C 
ATOM     44  C   UNL     1     -10.701   1.818  11.418  1.00  0.00     0.010 C 
ENDBRANCH  27  42
ENDBRANCH   3  27
TORSDOF 5
ENDMDL
MODEL 6
REMARK VINA RESULT:    -5.861      3.869      7.216
REMARK INTER + INTRA:         -12.650
REMARK INTER:                 -10.571
REMARK INTRA:                  -2.079
REMARK UNBOUND:                -2.163
REMARK SMILES CC[C@H](C)[C@H]1NC(=O)c2coc(n2)[C@H](C(C)C)NC(=O)[C@H]([C@@H](C)O)NC(=O)[C@H](C)NC(=O)c2csc1n2
REMARK SMILES IDX 11 1 13 2 12 3 9 4 10 5 7 6 6 7 8 8 5 10 36 11 35 12 34 13
REMARK SMILES IDX 37 14 33 15 31 16 32 17 30 18 28 20 29 21 3 23 4 24 2 25
REMARK SMILES IDX 1 26 14 27 18 28 19 29 20 30 21 32 25 33 26 34 27 35 22 38
REMARK SMILES IDX 23 39 24 40 15 42 16 43 17 44
REMARK H PARENT 6 9 30 19 18 31 25 36 24 41
REMARK Flexibility Score:   94.900
ROOT
ATOM      1  O   UNL     1      -5.839   2.944   6.036  1.00  0.00    -0.446 OA
ATOM      2  N   UNL     1      -5.606   1.647   7.865  1.00  0.00    -0.207 NA
ATOM      3  C   UNL     1      -5.055   2.568   7.094  1.00  0.00     0.217 A 
ATOM      4  C   UNL     1      -6.845   1.421   7.291  1.00  0.00     0.167 A 
ATOM      5  C   UNL     1      -6.981   2.214   6.178  1.00  0.00     0.231 A 
ENDROOT
BRANCH   4   6
ATOM      6  C   UNL     1      -7.797   0.456   7.814  1.00  0.00     0.273 C 
ATOM      7  N   UNL     1      -8.009   0.627   9.158  1.00  0.00    -0.341 N 
ATOM      8  O   UNL     1      -8.322  -0.415   7.132  1.00  0.00    -0.267 OA
ATOM      9  H   UNL     1      -7.434   1.332   9.609  1.00  0.00     0.164 HD
BRANCH   7  10
ATOM     10  C   UNL     1      -8.712  -0.341   9.978  1.00  0.00     0.145 C 
BRANCH  10  11
ATOM     11  C   UNL     1      -7.667  -1.187  10.691  1.00  0.00     0.116 A 
ATOM     12  S   UNL     1      -8.106  -2.084  12.095  1.00  0.00    -0.124 S 
ATOM     13  C   UNL     1      -6.514  -2.697  12.192  1.00  0.00     0.101 A 
ATOM     14  N   UNL     1      -6.406  -1.314  10.310  1.00  0.00    -0.234 NA
ATOM     15  C   UNL     1      -5.740  -2.197  11.163  1.00  0.00     0.139 A 
BRANCH  15  16
ATOM     16  C   UNL     1      -4.335  -2.555  10.954  1.00  0.00     0.271 C 
ATOM     17  O   UNL     1      -3.649  -3.086  11.821  1.00  0.00    -0.267 OA
ATOM     18  N   UNL     1      -3.867  -2.240   9.696  1.00  0.00    -0.339 N 
ATOM     19  H   UNL     1      -4.499  -1.703   9.109  1.00  0.00     0.164 HD
BRANCH  18  20
ATOM     20  C   UNL     1      -2.474  -2.461   9.332  1.00  0.00     0.168 CG0
ATOM     21  C   UNL     1      -2.359  -3.223   8.010  1.00  0.00     0.041 C 
ATOM     22  G   UNL     1      -1.681  -1.152   9.191  1.00  0.00     0.000 G0
ENDBRANCH  18  20
ENDBRANCH  15  16
ENDBRANCH  10  11
BRANCH  10  23
ATOM     23  C   UNL     1      -9.700   0.335  10.965  1.00  0.00     0.015 C 
ATOM     24  C   UNL     1      -9.497   1.855  11.084  1.00  0.00     0.010 C 
BRANCH  23  25
ATOM     25  C   UNL     1     -11.179   0.059  10.615  1.00  0.00     0.002 C 
ATOM     26  C   UNL     1     -11.923   1.272  10.074  1.00  0.00     0.004 C 
ENDBRANCH  23  25
ENDBRANCH  10  23
ENDBRANCH   7  10
ENDBRANCH   4   6
BRANCH   3  27
ATOM     27  C   UNL     1      -3.685   3.171   7.239  1.00  0.00     0.171 C 
BRANCH  27  28
ATOM     28  N   UNL     1      -2.706   2.105   7.057  1.00  0.00    -0.342 N 
ATOM     29  C   UNL     1      -1.701   1.851   7.963  1.00  0.00     0.245 C 
ATOM     30  O   UNL     1      -1.563   2.495   9.001  1.00  0.00    -0.273 OA
ATOM     31  H   UNL     1      -2.826   1.457   6.279  1.00  0.00     0.164 HD
BRANCH  29  32
ATOM     32  C   UNL     1      -0.843   0.603   7.664  1.00  0.00     0.200 C 
BRANCH  32  33
ATOM     33  N   UNL     1      -1.653  -0.590   7.942  1.00  0.00    -0.340 N 
ATOM     34  C   UNL     1      -1.684  -1.156   9.200  1.00  0.00     0.243 CG0
ATOM     35  O   UNL     1      -0.990  -0.731  10.121  1.00  0.00    -0.273 OA
ATOM     36  H   UNL     1      -2.212  -0.982   7.194  1.00  0.00     0.164 HD
ATOM     37  G   UNL     1      -2.461  -2.477   9.317  1.00  0.00     0.000 G0
ENDBRANCH  32  33
BRANCH  32  38
ATOM     38  C   UNL     1      -0.288   0.631   6.221  1.00  0.00     0.143 C 
ATOM     39  C   UNL     1       0.875   1.596   6.020  1.00  0.00     0.041 C 
BRANCH  38  40
ATOM     40  O   UNL     1       0.129  -0.691   5.828  1.00  0.00    -0.391 OA
ATOM     41  H   UNL     1      -0.567  -1.040   5.240  1.00  0.00     0.211 HD
ENDBRANCH  38  40
ENDBRANCH  32  38
ENDBRANCH  29  32
ENDBRANCH  27  28
BRANCH  27  42
ATOM     42  C   UNL     1      -3.353   4.405   6.364  1.00  0.00     0.015 C 
ATOM     43  C   UNL     1      -3.633   5.767   7.009  1.00  0.00     0.010 C 
ATOM     44  C   UNL     1      -1.919   4.356   5.827  1.00  0.00     0.010 C 
ENDBRANCH  27  42
ENDBRANCH   3  27
TORSDOF 5
ENDMDL
MODEL 7
REMARK VINA RESULT:    -5.616      5.842      7.896
REMARK INTER + INTRA:         -12.211
REMARK INTER:                  -9.692
REMARK INTRA:                  -2.519
REMARK UNBOUND:                -2.163
REMARK SMILES CC[C@H](C)[C@H]1NC(=O)c2coc(n2)[C@H](C(C)C)NC(=O)[C@H]([C@@H](C)O)NC(=O)[C@H](C)NC(=O)c2csc1n2
REMARK SMILES IDX 11 1 13 2 12 3 9 4 10 5 7 6 6 7 8 8 5 10 36 11 35 12 34 13
REMARK SMILES IDX 37 14 33 15 31 16 32 17 30 18 28 20 29 21 3 23 4 24 2 25
REMARK SMILES IDX 1 26 14 27 18 28 19 29 20 30 21 32 25 33 26 34 27 35 22 38
REMARK SMILES IDX 23 39 24 40 15 42 16 43 17 44
REMARK H PARENT 6 9 30 19 18 31 25 36 24 41
REMARK Flexibility Score:   94.900
ROOT
ATOM      1  O   UNL     1      -8.384  -1.983  11.035  1.00  0.00    -0.446 OA
ATOM      2  N   UNL     1      -8.112   0.244  10.815  1.00  0.00    -0.207 NA
ATOM      3  C   UNL     1      -8.951  -0.737  11.093  1.00  0.00     0.217 A 
ATOM      4  C   UNL     1      -6.906  -0.396  10.585  1.00  0.00     0.167 A 
ATOM      5  C   UNL     1      -7.079  -1.751  10.721  1.00  0.00     0.231 A 
ENDROOT
BRANCH   4   6
ATOM      6  C   UNL     1      -5.689   0.311  10.226  1.00  0.00     0.273 C 
ATOM      7  N   UNL     1      -4.846   0.452  11.300  1.00  0.00    -0.341 N 
ATOM      8  O   UNL     1      -5.464   0.746   9.104  1.00  0.00    -0.267 OA
ATOM      9  H   UNL     1      -5.207   0.121  12.190  1.00  0.00     0.164 HD
BRANCH   7  10
ATOM     10  C   UNL     1      -3.687   1.322  11.288  1.00  0.00     0.145 C 
BRANCH  10  11
ATOM     11  C   UNL     1      -4.102   2.651  11.903  1.00  0.00     0.116 A 
ATOM     12  S   UNL     1      -3.128   4.050  11.653  1.00  0.00    -0.124 S 
ATOM     13  C   UNL     1      -4.241   4.978  12.559  1.00  0.00     0.101 A 
ATOM     14  N   UNL     1      -5.190   2.842  12.630  1.00  0.00    -0.234 NA
ATOM     15  C   UNL     1      -5.285   4.187  12.997  1.00  0.00     0.139 A 
BRANCH  15  16
ATOM     16  C   UNL     1      -6.417   4.693  13.778  1.00  0.00     0.271 C 
ATOM     17  O   UNL     1      -6.362   5.727  14.434  1.00  0.00    -0.267 OA
ATOM     18  N   UNL     1      -7.540   3.897  13.699  1.00  0.00    -0.339 N 
ATOM     19  H   UNL     1      -7.424   3.011  13.215  1.00  0.00     0.164 HD
BRANCH  18  20
ATOM     20  C   UNL     1      -8.740   4.209  14.464  1.00  0.00     0.168 CG0
ATOM     21  C   UNL     1      -9.807   4.863  13.584  1.00  0.00     0.041 C 
ATOM     22  G   UNL     1      -9.367   2.967  15.118  1.00  0.00     0.000 G0
ENDBRANCH  18  20
ENDBRANCH  15  16
ENDBRANCH  10  11
BRANCH  10  23
ATOM     23  C   UNL     1      -2.470   0.688  12.013  1.00  0.00     0.015 C 
ATOM     24  C   UNL     1      -2.846  -0.514  12.895  1.00  0.00     0.010 C 
BRANCH  23  25
ATOM     25  C   UNL     1      -1.351   0.256  11.038  1.00  0.00     0.002 C 
ATOM     26  C   UNL     1      -1.736   0.363   9.569  1.00  0.00     0.004 C 
ENDBRANCH  23  25
ENDBRANCH  10  23
ENDBRANCH   7  10
ENDBRANCH   4   6
BRANCH   3  27
ATOM     27  C   UNL     1     -10.419  -0.616  11.399  1.00  0.00     0.171 C 
BRANCH  27  28
ATOM     28  N   UNL     1     -10.568   0.322  12.507  1.00  0.00    -0.342 N 
ATOM     29  C   UNL     1     -10.921  -0.072  13.778  1.00  0.00     0.245 C 
ATOM     30  O   UNL     1     -11.122  -1.248  14.078  1.00  0.00    -0.273 OA
ATOM     31  H   UNL     1     -10.306   1.297  12.362  1.00  0.00     0.164 HD
BRANCH  29  32
ATOM     32  C   UNL     1     -10.902   1.044  14.844  1.00  0.00     0.200 C 
BRANCH  32  33
ATOM     33  N   UNL     1     -10.152   2.185  14.303  1.00  0.00    -0.340 N 
ATOM     34  C   UNL     1      -9.343   2.956  15.111  1.00  0.00     0.243 CG0
ATOM     35  O   UNL     1      -9.263   2.766  16.323  1.00  0.00    -0.273 OA
ATOM     36  H   UNL     1     -10.221   2.385  13.313  1.00  0.00     0.164 HD
ATOM     37  G   UNL     1      -8.726   4.197  14.446  1.00  0.00     0.000 G0
ENDBRANCH  32  33
BRANCH  32  38
ATOM     38  C   UNL     1     -12.333   1.422  15.292  1.00  0.00     0.143 C 
ATOM     39  C   UNL     1     -13.123   2.210  14.253  1.00  0.00     0.041 C 
BRANCH  38  40
ATOM     40  O   UNL     1     -13.071   0.233  15.637  1.00  0.00    -0.391 OA
ATOM     41  H   UNL     1     -12.418  -0.419  15.954  1.00  0.00     0.211 HD
ENDBRANCH  38  40
ENDBRANCH  32  38
ENDBRANCH  29  32
ENDBRANCH  27  28
BRANCH  27  42
ATOM     42  C   UNL     1     -11.366  -0.266  10.225  1.00  0.00     0.015 C 
ATOM     43  C   UNL     1     -11.962   1.146  10.255  1.00  0.00     0.010 C 
ATOM     44  C   UNL     1     -10.717  -0.541   8.865  1.00  0.00     0.010 C 
ENDBRANCH  27  42
ENDBRANCH   3  27
TORSDOF 5
ENDMDL
MODEL 8
REMARK VINA RESULT:    -5.498      2.276      3.414
REMARK INTER + INTRA:         -12.001
REMARK INTER:                 -10.041
REMARK INTRA:                  -1.960
REMARK UNBOUND:                -2.163
REMARK SMILES CC[C@H](C)[C@H]1NC(=O)c2coc(n2)[C@H](C(C)C)NC(=O)[C@H]([C@@H](C)O)NC(=O)[C@H](C)NC(=O)c2csc1n2
REMARK SMILES IDX 11 1 13 2 12 3 9 4 10 5 7 6 6 7 8 8 5 10 36 11 35 12 34 13
REMARK SMILES IDX 37 14 33 15 31 16 32 17 30 18 28 20 29 21 3 23 4 24 2 25
REMARK SMILES IDX 1 26 14 27 18 28 19 29 20 30 21 32 25 33 26 34 27 35 22 38
REMARK SMILES IDX 23 39 24 40 15 42 16 43 17 44
REMARK H PARENT 6 9 30 19 18 31 25 36 24 41
REMARK Flexibility Score:   94.900
ROOT
ATOM      1  O   UNL     1      -2.953  -1.896   7.574  1.00  0.00    -0.446 OA
ATOM      2  N   UNL     1      -2.271   0.114   8.333  1.00  0.00    -0.207 NA
ATOM      3  C   UNL     1      -2.544  -1.142   8.641  1.00  0.00     0.217 A 
ATOM      4  C   UNL     1      -2.490   0.183   6.968  1.00  0.00     0.167 A 
ATOM      5  C   UNL     1      -2.904  -1.044   6.512  1.00  0.00     0.231 A 
ENDROOT
BRANCH   4   6
ATOM      6  C   UNL     1      -2.322   1.404   6.199  1.00  0.00     0.273 C 
ATOM      7  N   UNL     1      -1.468   2.283   6.817  1.00  0.00    -0.341 N 
ATOM      8  O   UNL     1      -2.898   1.622   5.140  1.00  0.00    -0.267 OA
ATOM      9  H   UNL     1      -1.138   2.003   7.736  1.00  0.00     0.164 HD
BRANCH   7  10
ATOM     10  C   UNL     1      -1.315   3.663   6.400  1.00  0.00     0.145 C 
BRANCH  10  11
ATOM     11  C   UNL     1      -2.230   4.511   7.271  1.00  0.00     0.116 A 
ATOM     12  S   UNL     1      -3.223   5.718   6.545  1.00  0.00    -0.124 S 
ATOM     13  C   UNL     1      -3.870   6.099   8.080  1.00  0.00     0.101 A 
ATOM     14  N   UNL     1      -2.351   4.394   8.583  1.00  0.00    -0.234 NA
ATOM     15  C   UNL     1      -3.308   5.296   9.054  1.00  0.00     0.139 A 
BRANCH  15  16
ATOM     16  C   UNL     1      -3.675   5.360  10.470  1.00  0.00     0.271 C 
ATOM     17  O   UNL     1      -3.320   6.271  11.209  1.00  0.00    -0.267 OA
ATOM     18  N   UNL     1      -4.455   4.301  10.885  1.00  0.00    -0.339 N 
ATOM     19  H   UNL     1      -4.589   3.555  10.208  1.00  0.00     0.164 HD
BRANCH  18  20
ATOM     20  C   UNL     1      -4.860   4.162  12.278  1.00  0.00     0.168 CG0
ATOM     21  C   UNL     1      -6.361   4.402  12.448  1.00  0.00     0.041 C 
ATOM     22  G   UNL     1      -4.537   2.774  12.854  1.00  0.00     0.000 G0
ENDBRANCH  18  20
ENDBRANCH  15  16
ENDBRANCH  10  11
BRANCH  10  23
ATOM     23  C   UNL     1       0.163   4.132   6.463  1.00  0.00     0.015 C 
ATOM     24  C   UNL     1       1.073   3.414   5.453  1.00  0.00     0.010 C 
BRANCH  23  25
ATOM     25  C   UNL     1       0.314   5.658   6.267  1.00  0.00     0.002 C 
ATOM     26  C   UNL     1       0.215   6.108   4.816  1.00  0.00     0.004 C 
ENDBRANCH  23  25
ENDBRANCH  10  23
ENDBRANCH   7  10
ENDBRANCH   4   6
BRANCH   3  27
ATOM     27  C   UNL     1      -2.498  -1.771  10.007  1.00  0.00     0.171 C 
BRANCH  27  28
ATOM     28  N   UNL     1      -3.562  -1.175  10.808  1.00  0.00    -0.342 N 
ATOM     29  C   UNL     1      -3.318  -0.283  11.829  1.00  0.00     0.245 C 
ATOM     30  O   UNL     1      -2.186   0.090  12.130  1.00  0.00    -0.273 OA
ATOM     31  H   UNL     1      -4.531  -1.347  10.543  1.00  0.00     0.164 HD
BRANCH  29  32
ATOM     32  C   UNL     1      -4.574   0.338  12.476  1.00  0.00     0.200 C 
BRANCH  32  33
ATOM     33  N   UNL     1      -4.703   1.720  12.000  1.00  0.00    -0.340 N 
ATOM     34  C   UNL     1      -4.547   2.790  12.857  1.00  0.00     0.243 CG0
ATOM     35  O   UNL     1      -4.359   2.635  14.062  1.00  0.00    -0.273 OA
ATOM     36  H   UNL     1      -4.888   1.880  11.017  1.00  0.00     0.164 HD
ATOM     37  G   UNL     1      -4.843   4.174  12.257  1.00  0.00     0.000 G0
ENDBRANCH  32  33
BRANCH  32  38
ATOM     38  C   UNL     1      -5.834  -0.515  12.197  1.00  0.00     0.143 C 
ATOM     39  C   UNL     1      -6.544  -1.006  13.454  1.00  0.00     0.041 C 
BRANCH  38  40
ATOM     40  O   UNL     1      -6.768   0.233  11.395  1.00  0.00    -0.391 OA
ATOM     41  H   UNL     1      -6.737  -0.151  10.498  1.00  0.00     0.211 HD
ENDBRANCH  38  40
ENDBRANCH  32  38
ENDBRANCH  29  32
ENDBRANCH  27  28
BRANCH  27  42
ATOM     42  C   UNL     1      -2.527  -3.317  10.081  1.00  0.00     0.015 C 
ATOM     43  C   UNL     1      -2.121  -3.922  11.430  1.00  0.00     0.010 C 
ATOM     44  C   UNL     1      -3.875  -3.887   9.628  1.00  0.00     0.010 C 
ENDBRANCH  27  42
ENDBRANCH   3  27
TORSDOF 5
ENDMDL
MODEL 9
REMARK VINA RESULT:    -5.455      4.975      7.573
REMARK INTER + INTRA:         -11.923
REMARK INTER:                  -9.677
REMARK INTRA:                  -2.245
REMARK UNBOUND:                -2.163
REMARK SMILES CC[C@H](C)[C@H]1NC(=O)c2coc(n2)[C@H](C(C)C)NC(=O)[C@H]([C@@H](C)O)NC(=O)[C@H](C)NC(=O)c2csc1n2
REMARK SMILES IDX 11 1 13 2 12 3 9 4 10 5 7 6 6 7 8 8 5 10 36 11 35 12 34 13
REMARK SMILES IDX 37 14 33 15 31 16 32 17 30 18 28 20 29 21 3 23 4 24 2 25
REMARK SMILES IDX 1 26 14 27 18 28 19 29 20 30 21 32 25 33 26 34 27 35 22 38
REMARK SMILES IDX 23 39 24 40 15 42 16 43 17 44
REMARK H PARENT 6 9 30 19 18 31 25 36 24 41
REMARK Flexibility Score:   94.900
ROOT
ATOM      1  O   UNL     1      -3.828   6.303   9.543  1.00  0.00    -0.446 OA
ATOM      2  N   UNL     1      -4.924   4.987  11.008  1.00  0.00    -0.207 NA
ATOM      3  C   UNL     1      -3.763   5.279  10.450  1.00  0.00     0.217 A 
ATOM      4  C   UNL     1      -5.807   5.895  10.451  1.00  0.00     0.167 A 
ATOM      5  C   UNL     1      -5.133   6.694   9.559  1.00  0.00     0.231 A 
ENDROOT
BRANCH   4   6
ATOM      6  C   UNL     1      -7.223   5.927  10.774  1.00  0.00     0.273 C 
ATOM      7  N   UNL     1      -7.435   6.049  12.124  1.00  0.00    -0.341 N 
ATOM      8  O   UNL     1      -8.111   5.830   9.937  1.00  0.00    -0.267 OA
ATOM      9  H   UNL     1      -6.601   6.026  12.705  1.00  0.00     0.164 HD
BRANCH   7  10
ATOM     10  C   UNL     1      -8.732   5.859  12.742  1.00  0.00     0.145 C 
BRANCH  10  11
ATOM     11  C   UNL     1      -8.621   4.674  13.690  1.00  0.00     0.116 A 
ATOM     12  S   UNL     1      -9.159   4.830  15.320  1.00  0.00    -0.124 S 
ATOM     13  C   UNL     1      -8.745   3.196  15.605  1.00  0.00     0.101 A 
ATOM     14  N   UNL     1      -8.144   3.484  13.363  1.00  0.00    -0.234 NA
ATOM     15  C   UNL     1      -8.229   2.621  14.459  1.00  0.00     0.139 A 
BRANCH  15  16
ATOM     16  C   UNL     1      -7.806   1.222  14.371  1.00  0.00     0.271 C 
ATOM     17  O   UNL     1      -8.101   0.384  15.216  1.00  0.00    -0.267 OA
ATOM     18  N   UNL     1      -7.049   0.945  13.252  1.00  0.00    -0.339 N 
ATOM     19  H   UNL     1      -6.780   1.746  12.688  1.00  0.00     0.164 HD
BRANCH  18  20
ATOM     20  C   UNL     1      -6.484  -0.380  13.033  1.00  0.00     0.168 CG0
ATOM     21  C   UNL     1      -7.156  -1.083  11.852  1.00  0.00     0.041 C 
ATOM     22  G   UNL     1      -4.972  -0.342  12.760  1.00  0.00     0.000 G0
ENDBRANCH  18  20
ENDBRANCH  15  16
ENDBRANCH  10  11
BRANCH  10  23
ATOM     23  C   UNL     1      -9.234   7.142  13.456  1.00  0.00     0.015 C 
ATOM     24  C   UNL     1      -8.258   8.325  13.342  1.00  0.00     0.010 C 
BRANCH  23  25
ATOM     25  C   UNL     1     -10.624   7.599  12.957  1.00  0.00     0.002 C 
ATOM     26  C   UNL     1     -10.705   7.803  11.451  1.00  0.00     0.004 C 
ENDBRANCH  23  25
ENDBRANCH  10  23
ENDBRANCH   7  10
ENDBRANCH   4   6
BRANCH   3  27
ATOM     27  C   UNL     1      -2.449   4.583  10.674  1.00  0.00     0.171 C 
BRANCH  27  28
ATOM     28  N   UNL     1      -2.707   3.148  10.731  1.00  0.00    -0.342 N 
ATOM     29  C   UNL     1      -2.665   2.428  11.903  1.00  0.00     0.245 C 
ATOM     30  O   UNL     1      -2.421   2.943  12.993  1.00  0.00    -0.273 OA
ATOM     31  H   UNL     1      -3.028   2.674   9.887  1.00  0.00     0.164 HD
BRANCH  29  32
ATOM     32  C   UNL     1      -3.093   0.950  11.785  1.00  0.00     0.200 C 
BRANCH  32  33
ATOM     33  N   UNL     1      -4.487   0.836  12.232  1.00  0.00    -0.340 N 
ATOM     34  C   UNL     1      -4.979  -0.344  12.751  1.00  0.00     0.243 CG0
ATOM     35  O   UNL     1      -4.297  -1.365  12.802  1.00  0.00    -0.273 OA
ATOM     36  H   UNL     1      -5.083   1.653  12.173  1.00  0.00     0.164 HD
ATOM     37  G   UNL     1      -6.487  -0.363  13.050  1.00  0.00     0.000 G0
ENDBRANCH  32  33
BRANCH  32  38
ATOM     38  C   UNL     1      -2.874   0.411  10.352  1.00  0.00     0.143 C 
ATOM     39  C   UNL     1      -1.921  -0.777  10.273  1.00  0.00     0.041 C 
BRANCH  38  40
ATOM     40  O   UNL     1      -4.137   0.036   9.768  1.00  0.00    -0.391 OA
ATOM     41  H   UNL     1      -4.804   0.651  10.127  1.00  0.00     0.211 HD
ENDBRANCH  38  40
ENDBRANCH  32  38
ENDBRANCH  29  32
ENDBRANCH  27  28
BRANCH  27  42
ATOM     42  C   UNL     1      -1.291   4.914   9.700  1.00  0.00     0.015 C 
ATOM     43  C   UNL     1       0.042   5.285  10.360  1.00  0.00     0.010 C 
ATOM     44  C   UNL     1      -1.081   3.807   8.662  1.00  0.00     0.010 C 
ENDBRANCH  27  42
ENDBRANCH   3  27
TORSDOF 5
ENDMDL
MODEL 10
REMARK VINA RESULT:    -5.412      3.019      6.960
REMARK INTER + INTRA:         -11.847
REMARK INTER:                  -9.666
REMARK INTRA:                  -2.181
REMARK UNBOUND:                -2.163
REMARK SMILES CC[C@H](C)[C@H]1NC(=O)c2coc(n2)[C@H](C(C)C)NC(=O)[C@H]([C@@H](C)O)NC(=O)[C@H](C)NC(=O)c2csc1n2
REMARK SMILES IDX 11 1 13 2 12 3 9 4 10 5 7 6 6 7 8 8 5 10 36 11 35 12 34 13
REMARK SMILES IDX 37 14 33 15 31 16 32 17 30 18 28 20 29 21 3 23 4 24 2 25
REMARK SMILES IDX 1 26 14 27 18 28 19 29 20 30 21 32 25 33 26 34 27 35 22 38
REMARK SMILES IDX 23 39 24 40 15 42 16 43 17 44
REMARK H PARENT 6 9 30 19 18 31 25 36 24 41
REMARK Flexibility Score:   94.900
ROOT
ATOM      1  O   UNL     1       0.246  -0.425   7.972  1.00  0.00    -0.446 OA
ATOM      2  N   UNL     1      -1.966  -0.043   8.178  1.00  0.00    -0.207 NA
ATOM      3  C   UNL     1      -0.819   0.384   7.679  1.00  0.00     0.217 A 
ATOM      4  C   UNL     1      -1.638  -1.225   8.820  1.00  0.00     0.167 A 
ATOM      5  C   UNL     1      -0.289  -1.452   8.690  1.00  0.00     0.231 A 
ENDROOT
BRANCH   4   6
ATOM      6  C   UNL     1      -2.609  -2.038   9.531  1.00  0.00     0.273 C 
ATOM      7  N   UNL     1      -3.850  -1.976   8.949  1.00  0.00    -0.341 N 
ATOM      8  O   UNL     1      -2.346  -2.677  10.543  1.00  0.00    -0.267 OA
ATOM      9  H   UNL     1      -3.939  -1.331   8.169  1.00  0.00     0.164 HD
BRANCH   7  10
ATOM     10  C   UNL     1      -5.049  -2.484   9.585  1.00  0.00     0.145 C 
BRANCH  10  11
ATOM     11  C   UNL     1      -5.481  -1.469  10.633  1.00  0.00     0.116 A 
ATOM     12  S   UNL     1      -5.918  -2.003  12.212  1.00  0.00    -0.124 S 
ATOM     13  C   UNL     1      -6.189  -0.380  12.677  1.00  0.00     0.101 A 
ATOM     14  N   UNL     1      -5.541  -0.161  10.441  1.00  0.00    -0.234 NA
ATOM     15  C   UNL     1      -5.933   0.474  11.622  1.00  0.00     0.139 A 
BRANCH  15  16
ATOM     16  C   UNL     1      -6.047   1.932  11.711  1.00  0.00     0.271 C 
ATOM     17  O   UNL     1      -7.029   2.494  12.182  1.00  0.00    -0.267 OA
ATOM     18  N   UNL     1      -4.947   2.601  11.218  1.00  0.00    -0.339 N 
ATOM     19  H   UNL     1      -4.248   2.027  10.755  1.00  0.00     0.164 HD
BRANCH  18  20
ATOM     20  C   UNL     1      -4.911   4.056  11.163  1.00  0.00     0.168 CG0
ATOM     21  C   UNL     1      -4.278   4.646  12.425  1.00  0.00     0.041 C 
ATOM     22  G   UNL     1      -4.126   4.586   9.952  1.00  0.00     0.000 G0
ENDBRANCH  18  20
ENDBRANCH  15  16
ENDBRANCH  10  11
BRANCH  10  23
ATOM     23  C   UNL     1      -6.172  -2.790   8.559  1.00  0.00     0.015 C 
ATOM     24  C   UNL     1      -7.549  -3.002   9.209  1.00  0.00     0.010 C 
BRANCH  23  25
ATOM     25  C   UNL     1      -6.301  -1.699   7.471  1.00  0.00     0.002 C 
ATOM     26  C   UNL     1      -5.971  -2.185   6.067  1.00  0.00     0.004 C 
ENDBRANCH  23  25
ENDBRANCH  10  23
ENDBRANCH   7  10
ENDBRANCH   4   6
BRANCH   3  27
ATOM     27  C   UNL     1      -0.584   1.649   6.901  1.00  0.00     0.171 C 
BRANCH  27  28
ATOM     28  N   UNL     1      -0.769   2.774   7.811  1.00  0.00    -0.342 N 
ATOM     29  C   UNL     1      -1.814   3.664   7.698  1.00  0.00     0.245 C 
ATOM     30  O   UNL     1      -2.679   3.566   6.829  1.00  0.00    -0.273 OA
ATOM     31  H   UNL     1      -0.158   2.853   8.624  1.00  0.00     0.164 HD
BRANCH  29  32
ATOM     32  C   UNL     1      -1.916   4.710   8.828  1.00  0.00     0.200 C 
BRANCH  32  33
ATOM     33  N   UNL     1      -2.809   4.181   9.866  1.00  0.00    -0.340 N 
ATOM     34  C   UNL     1      -4.124   4.587   9.955  1.00  0.00     0.243 CG0
ATOM     35  O   UNL     1      -4.588   5.452   9.215  1.00  0.00    -0.273 OA
ATOM     36  H   UNL     1      -2.446   3.488  10.511  1.00  0.00     0.164 HD
ATOM     37  G   UNL     1      -4.904   4.059  11.170  1.00  0.00     0.000 G0
ENDBRANCH  32  33
BRANCH  32  38
ATOM     38  C   UNL     1      -0.520   5.093   9.371  1.00  0.00     0.143 C 
ATOM     39  C   UNL     1       0.110   6.294   8.676  1.00  0.00     0.041 C 
BRANCH  38  40
ATOM     40  O   UNL     1      -0.597   5.359  10.785  1.00  0.00    -0.391 OA
ATOM     41  H   UNL     1      -0.589   4.492  11.233  1.00  0.00     0.211 HD
ENDBRANCH  38  40
ENDBRANCH  32  38
ENDBRANCH  29  32
ENDBRANCH  27  28
BRANCH  27  42
ATOM     42  C   UNL     1       0.744   1.766   6.114  1.00  0.00     0.015 C 
ATOM     43  C   UNL     1       0.874   0.844   4.896  1.00  0.00     0.010 C 
ATOM     44  C   UNL     1       1.050   3.214   5.719  1.00  0.00     0.010 C 
ENDBRANCH  27  42
ENDBRANCH   3  27
TORSDOF 5
ENDMDL
