MODEL 1
REMARK VINA RESULT:    -0.717      0.000      0.000
REMARK INTER + INTRA:           8.363
REMARK INTER:                  -2.059
REMARK INTRA:                  10.422
REMARK UNBOUND:                10.422
REMARK SMILES CCCCCC(=O)N[C@H](CC(=O)O)C(=O)N[C@H]1C(=O)N[C@H](CCCN=C(N)N)C(=O)N[C@@H]2CC[C@H](O)N(C2=O)[C@@H](CC(C)C)C(=O)N(C)[C@@H](Cc2ccccc2)C(=O)N[C@H](C(C)C)C(=O)O[C@@H]1C
REMARK SMILES IDX 30 1 31 2 29 3 32 5 35 6 37 7 34 8 38 9 33 10 39 11 36 12
REMARK SMILES IDX 40 14 41 15 42 16 43 17 44 18 45 19 46 20 47 21 48 22 49 23
REMARK SMILES IDX 50 24 51 25 52 26 56 27 53 28 55 29 54 30 57 31 58 32 59 33
REMARK SMILES IDX 60 35 61 36 62 37 63 38 64 39 65 40 66 41 67 42 68 43 21 45
REMARK SMILES IDX 20 46 18 47 19 48 17 50 16 52 14 53 15 54 9 56 8 57 6 58
REMARK SMILES IDX 7 59 5 61 4 62 3 63 2 64 1 65 10 66 11 67 12 68 13 69 22 71
REMARK SMILES IDX 23 72 24 73 25 74 26 75 27 76 28 77
REMARK H PARENT 31 4 36 13 59 34 20 49 16 55 8 60 13 70 27 78 27 79 28 80
REMARK H PARENT 28 81
REMARK Flexibility Score:  259.900
ROOT
ATOM      1  O   UNL     1       8.271   5.417  16.235  1.00  0.00    -0.273 OA
ATOM      2  N   UNL     1       9.376   4.154  14.682  1.00  0.00    -0.343 N 
ATOM      3  C   UNL     1       8.499   5.149  15.055  1.00  0.00     0.243 C 
ATOM      4  H   UNL     1       9.551   3.972  13.701  1.00  0.00     0.164 HD
ENDROOT
BRANCH   2   5
ATOM      5  C   UNL     1       9.987   3.288  15.684  1.00  0.00     0.171 C 
ATOM      6  C   UNL     1      11.879   3.789  17.823  1.00  0.00     0.214 C 
ATOM      7  N   UNL     1      12.367   3.404  16.519  1.00  0.00    -0.303 N 
ATOM      8  C   UNL     1      10.506   3.220  18.144  1.00  0.00     0.057 C 
ATOM      9  C   UNL     1      11.521   3.199  15.441  1.00  0.00     0.247 C 
ATOM     10  C   UNL     1       9.512   3.655  17.089  1.00  0.00     0.040 C 
ATOM     11  O   UNL     1      11.952   2.955  14.306  1.00  0.00    -0.272 OA
BRANCH   6  12
ATOM     12  O   UNL     1      11.854   5.197  17.874  1.00  0.00    -0.373 OA
ATOM     13  H   UNL     1      12.477   5.470  18.581  1.00  0.00     0.213 HD
ENDBRANCH   6  12
BRANCH   7  14
ATOM     14  C   UNL     1      13.833   3.377  16.332  1.00  0.00     0.177 C 
BRANCH  14  15
ATOM     15  C   UNL     1      14.307   3.278  14.869  1.00  0.00     0.038 C 
BRANCH  15  16
ATOM     16  C   UNL     1      15.408   2.262  14.493  1.00  0.00    -0.015 C 
ATOM     17  C   UNL     1      16.177   1.755  15.716  1.00  0.00     0.007 C 
ATOM     18  C   UNL     1      16.409   2.914  13.531  1.00  0.00     0.007 C 
ENDBRANCH  15  16
ENDBRANCH  14  15
BRANCH  14  19
ATOM     19  C   UNL     1      14.540   4.206  17.460  1.00  0.00     0.245 C 
ATOM     20  O   UNL     1      14.310   3.864  18.632  1.00  0.00    -0.272 OA
BRANCH  19  21
ATOM     21  N   UNL     1      15.296   5.340  17.224  1.00  0.00    -0.332 N 
ATOM     22  C   UNL     1      16.741   5.376  17.089  1.00  0.00     0.147 C 
BRANCH  21  23
ATOM     23  C   UNL     1      14.582   6.641  17.109  1.00  0.00     0.178 C 
BRANCH  23  24
ATOM     24  C   UNL     1      14.271   7.329  18.454  1.00  0.00     0.070 C 
BRANCH  24  25
ATOM     25  C   UNL     1      13.396   8.560  18.412  1.00  0.00    -0.045 A 
ATOM     26  C   UNL     1      13.950   9.839  18.546  1.00  0.00     0.004 A 
ATOM     27  C   UNL     1      12.008   8.436  18.243  1.00  0.00     0.004 A 
ATOM     28  C   UNL     1      13.132  10.971  18.523  1.00  0.00     0.000 A 
ATOM     29  C   UNL     1      11.192   9.568  18.219  1.00  0.00     0.000 A 
ATOM     30  C   UNL     1      11.755  10.835  18.362  1.00  0.00     0.000 A 
ENDBRANCH  24  25
ENDBRANCH  23  24
BRANCH  23  31
ATOM     31  C   UNL     1      15.187   7.569  16.028  1.00  0.00     0.243 C 
ATOM     32  O   UNL     1      15.458   8.753  16.212  1.00  0.00    -0.273 OA
ATOM     33  N   UNL     1      15.227   6.996  14.768  1.00  0.00    -0.341 N 
ATOM     34  H   UNL     1      14.983   6.007  14.676  1.00  0.00     0.164 HD
BRANCH  33  35
ATOM     35  C   UNL     1      15.649   7.729  13.571  1.00  0.00     0.194 C 
BRANCH  35  36
ATOM     36  C   UNL     1      16.964   8.539  13.753  1.00  0.00     0.017 C 
ATOM     37  C   UNL     1      16.876   9.910  13.062  1.00  0.00     0.010 C 
ATOM     38  C   UNL     1      18.198   7.821  13.193  1.00  0.00     0.010 C 
ENDBRANCH  35  36
BRANCH  35  39
ATOM     39  C   UNL     1      14.510   8.599  12.970  1.00  0.00     0.329 C 
ATOM     40  O   UNL     1      14.587   9.811  12.804  1.00  0.00    -0.250 OA
BRANCH  39  41
ATOM     41  O   UNL     1      13.441   7.849  12.564  1.00  0.00    -0.458 OA
BRANCH  41  42
ATOM     42  C   UNL     1      12.175   8.138  13.204  1.00  0.00     0.205 CG0
ATOM     43  C   UNL     1      12.286   7.681  14.657  1.00  0.00     0.056 C 
ATOM     44  G   UNL     1      11.058   7.402  12.438  1.00  0.00     0.000 G0
ENDBRANCH  41  42
ENDBRANCH  39  41
ENDBRANCH  35  39
ENDBRANCH  33  35
ENDBRANCH  23  31
ENDBRANCH  21  23
ENDBRANCH  19  21
ENDBRANCH  14  19
ENDBRANCH   7  14
ENDBRANCH   2   5
BRANCH   3  45
ATOM     45  C   UNL     1       7.843   5.915  13.899  1.00  0.00     0.171 C 
BRANCH  45  46
ATOM     46  N   UNL     1       8.936   6.323  13.026  1.00  0.00    -0.342 N 
ATOM     47  C   UNL     1      10.075   6.921  13.504  1.00  0.00     0.247 C 
ATOM     48  O   UNL     1      10.288   7.090  14.705  1.00  0.00    -0.273 OA
ATOM     49  H   UNL     1       8.825   6.150  12.029  1.00  0.00     0.164 HD
BRANCH  47  50
ATOM     50  C   UNL     1      11.061   7.394  12.426  1.00  0.00     0.212 CG0
ATOM     51  G   UNL     1      12.249   8.068  13.143  1.00  0.00     0.000 G0
BRANCH  50  52
ATOM     52  N   UNL     1      11.439   6.192  11.689  1.00  0.00    -0.339 N 
ATOM     53  C   UNL     1      12.196   5.180  12.229  1.00  0.00     0.243 C 
ATOM     54  O   UNL     1      12.660   5.235  13.365  1.00  0.00    -0.273 OA
ATOM     55  H   UNL     1      11.178   6.138  10.706  1.00  0.00     0.164 HD
BRANCH  53  56
ATOM     56  C   UNL     1      12.540   4.054  11.234  1.00  0.00     0.182 C 
BRANCH  56  57
ATOM     57  N   UNL     1      13.268   2.968  11.899  1.00  0.00    -0.344 N 
ATOM     58  C   UNL     1      12.791   1.681  11.941  1.00  0.00     0.220 C 
ATOM     59  O   UNL     1      11.694   1.364  11.493  1.00  0.00    -0.275 OA
ATOM     60  H   UNL     1      14.221   3.164  12.192  1.00  0.00     0.164 HD
BRANCH  58  61
ATOM     61  C   UNL     1      13.735   0.712  12.629  1.00  0.00     0.100 C 
BRANCH  61  62
ATOM     62  C   UNL     1      13.082  -0.614  13.018  1.00  0.00     0.010 C 
BRANCH  62  63
ATOM     63  C   UNL     1      13.376  -1.767  12.050  1.00  0.00     0.000 C 
BRANCH  63  64
ATOM     64  C   UNL     1      14.811  -1.794  11.526  1.00  0.00    -0.003 C 
ATOM     65  C   UNL     1      15.584  -2.979  12.085  1.00  0.00     0.004 C 
ENDBRANCH  63  64
ENDBRANCH  62  63
ENDBRANCH  61  62
ENDBRANCH  58  61
ENDBRANCH  56  57
BRANCH  56  66
ATOM     66  C   UNL     1      13.292   4.592  10.018  1.00  0.00     0.157 C 
BRANCH  66  67
ATOM     67  C   UNL     1      14.722   4.131  10.015  1.00  0.00     0.305 C 
ATOM     68  O   UNL     1      15.670   4.683  10.551  1.00  0.00    -0.252 OA
BRANCH  67  69
ATOM     69  O   UNL     1      14.880   2.958   9.373  1.00  0.00    -0.481 OA
ATOM     70  H   UNL     1      13.984   2.562   9.351  1.00  0.00     0.296 HD
ENDBRANCH  67  69
ENDBRANCH  66  67
ENDBRANCH  56  66
ENDBRANCH  53  56
ENDBRANCH  50  52
ENDBRANCH  47  50
ENDBRANCH  45  46
BRANCH  45  71
ATOM     71  C   UNL     1       7.064   7.123  14.432  1.00  0.00     0.037 C 
BRANCH  71  72
ATOM     72  C   UNL     1       6.923   7.090  15.956  1.00  0.00     0.026 C 
BRANCH  72  73
ATOM     73  C   UNL     1       7.952   7.992  16.633  1.00  0.00     0.146 C 
BRANCH  73  74
ATOM     74  N   UNL     1       7.410   9.347  16.660  1.00  0.00    -0.254 NA
ATOM     75  C   UNL     1       6.376   9.564  17.386  1.00  0.00     0.185 C 
ATOM     76  N   UNL     1       5.855  10.801  17.432  1.00  0.00    -0.370 N 
ATOM     77  N   UNL     1       5.689   8.703  18.157  1.00  0.00    -0.370 N 
ATOM     78  H   UNL     1       6.309  11.510  16.874  1.00  0.00     0.159 HD
ATOM     79  H   UNL     1       4.971  11.013  17.859  1.00  0.00     0.159 HD
ATOM     80  H   UNL     1       5.969   7.737  18.223  1.00  0.00     0.159 HD
ATOM     81  H   UNL     1       4.959   9.015  18.776  1.00  0.00     0.159 HD
ENDBRANCH  73  74
ENDBRANCH  72  73
ENDBRANCH  71  72
ENDBRANCH  45  71
ENDBRANCH   3  45
TORSDOF 20
ENDMDL
MODEL 2
REMARK VINA RESULT:     0.496      1.882      2.299
REMARK INTER + INTRA:          11.844
REMARK INTER:                  -8.086
REMARK INTRA:                  19.931
REMARK UNBOUND:                10.422
REMARK SMILES CCCCCC(=O)N[C@H](CC(=O)O)C(=O)N[C@H]1C(=O)N[C@H](CCCN=C(N)N)C(=O)N[C@@H]2CC[C@H](O)N(C2=O)[C@@H](CC(C)C)C(=O)N(C)[C@@H](Cc2ccccc2)C(=O)N[C@H](C(C)C)C(=O)O[C@@H]1C
REMARK SMILES IDX 30 1 31 2 29 3 32 5 35 6 37 7 34 8 38 9 33 10 39 11 36 12
REMARK SMILES IDX 40 14 41 15 42 16 43 17 44 18 45 19 46 20 47 21 48 22 49 23
REMARK SMILES IDX 50 24 51 25 52 26 56 27 53 28 55 29 54 30 57 31 58 32 59 33
REMARK SMILES IDX 60 35 61 36 62 37 63 38 64 39 65 40 66 41 67 42 68 43 21 45
REMARK SMILES IDX 20 46 18 47 19 48 17 50 16 52 14 53 15 54 9 56 8 57 6 58
REMARK SMILES IDX 7 59 5 61 4 62 3 63 2 64 1 65 10 66 11 67 12 68 13 69 22 71
REMARK SMILES IDX 23 72 24 73 25 74 26 75 27 76 28 77
REMARK H PARENT 31 4 36 13 59 34 20 49 16 55 8 60 13 70 27 78 27 79 28 80
REMARK H PARENT 28 81
REMARK Flexibility Score:  259.900
ROOT
ATOM      1  O   UNL     1       9.399   5.087  16.265  1.00  0.00    -0.273 OA
ATOM      2  N   UNL     1      10.308   3.532  14.856  1.00  0.00    -0.343 N 
ATOM      3  C   UNL     1       9.466   4.584  15.143  1.00  0.00     0.243 C 
ATOM      4  H   UNL     1      10.348   3.153  13.917  1.00  0.00     0.164 HD
ENDROOT
BRANCH   2   5
ATOM      5  C   UNL     1      11.077   2.886  15.914  1.00  0.00     0.171 C 
ATOM      6  C   UNL     1      12.837   3.920  17.973  1.00  0.00     0.214 C 
ATOM      7  N   UNL     1      13.389   3.531  16.696  1.00  0.00    -0.303 N 
ATOM      8  C   UNL     1      11.601   3.123  18.362  1.00  0.00     0.057 C 
ATOM      9  C   UNL     1      12.599   3.078  15.652  1.00  0.00     0.247 C 
ATOM     10  C   UNL     1      10.541   3.268  17.292  1.00  0.00     0.040 C 
ATOM     11  O   UNL     1      13.068   2.830  14.534  1.00  0.00    -0.272 OA
BRANCH   6  12
ATOM     12  O   UNL     1      12.537   5.295  17.912  1.00  0.00    -0.373 OA
ATOM     13  H   UNL     1      11.983   5.503  18.694  1.00  0.00     0.213 HD
ENDBRANCH   6  12
BRANCH   7  14
ATOM     14  C   UNL     1      14.832   3.775  16.488  1.00  0.00     0.177 C 
BRANCH  14  15
ATOM     15  C   UNL     1      15.385   3.314  15.126  1.00  0.00     0.038 C 
BRANCH  15  16
ATOM     16  C   UNL     1      16.565   2.318  15.081  1.00  0.00    -0.015 C 
ATOM     17  C   UNL     1      16.229   0.984  15.756  1.00  0.00     0.007 C 
ATOM     18  C   UNL     1      17.782   2.923  15.791  1.00  0.00     0.007 C 
ENDBRANCH  15  16
ENDBRANCH  14  15
BRANCH  14  19
ATOM     19  C   UNL     1      15.284   5.061  17.262  1.00  0.00     0.245 C 
ATOM     20  O   UNL     1      15.145   5.049  18.497  1.00  0.00    -0.272 OA
BRANCH  19  21
ATOM     21  N   UNL     1      15.711   6.223  16.644  1.00  0.00    -0.332 N 
ATOM     22  C   UNL     1      17.095   6.579  16.384  1.00  0.00     0.147 C 
BRANCH  21  23
ATOM     23  C   UNL     1      14.677   7.204  16.214  1.00  0.00     0.178 C 
BRANCH  23  24
ATOM     24  C   UNL     1      13.895   7.865  17.368  1.00  0.00     0.070 C 
BRANCH  24  25
ATOM     25  C   UNL     1      12.587   8.536  17.018  1.00  0.00    -0.045 A 
ATOM     26  C   UNL     1      12.506   9.431  15.943  1.00  0.00     0.004 A 
ATOM     27  C   UNL     1      11.433   8.274  17.771  1.00  0.00     0.004 A 
ATOM     28  C   UNL     1      11.298  10.061  15.636  1.00  0.00     0.000 A 
ATOM     29  C   UNL     1      10.226   8.904  17.462  1.00  0.00     0.000 A 
ATOM     30  C   UNL     1      10.160   9.799  16.397  1.00  0.00     0.000 A 
ENDBRANCH  24  25
ENDBRANCH  23  24
BRANCH  23  31
ATOM     31  C   UNL     1      15.186   8.182  15.129  1.00  0.00     0.243 C 
ATOM     32  O   UNL     1      15.483   9.354  15.345  1.00  0.00    -0.273 OA
ATOM     33  N   UNL     1      15.104   7.674  13.844  1.00  0.00    -0.341 N 
ATOM     34  H   UNL     1      14.845   6.691  13.726  1.00  0.00     0.164 HD
BRANCH  33  35
ATOM     35  C   UNL     1      15.419   8.464  12.650  1.00  0.00     0.194 C 
BRANCH  35  36
ATOM     36  C   UNL     1      16.775   9.221  12.730  1.00  0.00     0.017 C 
ATOM     37  C   UNL     1      17.685   8.624  13.817  1.00  0.00     0.010 C 
ATOM     38  C   UNL     1      16.615  10.715  13.034  1.00  0.00     0.010 C 
ENDBRANCH  35  36
BRANCH  35  39
ATOM     39  C   UNL     1      14.254   9.403  12.230  1.00  0.00     0.329 C 
ATOM     40  O   UNL     1      14.368  10.614  12.082  1.00  0.00    -0.250 OA
BRANCH  39  41
ATOM     41  O   UNL     1      13.104   8.714  11.958  1.00  0.00    -0.458 OA
BRANCH  41  42
ATOM     42  C   UNL     1      12.728   7.692  12.911  1.00  0.00     0.205 CG0
ATOM     43  C   UNL     1      13.985   6.887  13.234  1.00  0.00     0.056 C 
ATOM     44  G   UNL     1      11.616   6.824  12.289  1.00  0.00     0.000 G0
ENDBRANCH  41  42
ENDBRANCH  39  41
ENDBRANCH  35  39
ENDBRANCH  33  35
ENDBRANCH  23  31
ENDBRANCH  21  23
ENDBRANCH  19  21
ENDBRANCH  14  19
ENDBRANCH   7  14
ENDBRANCH   2   5
BRANCH   3  45
ATOM     45  C   UNL     1       8.633   5.100  13.962  1.00  0.00     0.171 C 
BRANCH  45  46
ATOM     46  N   UNL     1       9.596   5.617  12.997  1.00  0.00    -0.342 N 
ATOM     47  C   UNL     1      10.770   6.216  13.378  1.00  0.00     0.247 C 
ATOM     48  O   UNL     1      11.130   6.295  14.553  1.00  0.00    -0.273 OA
ATOM     49  H   UNL     1       9.363   5.521  12.010  1.00  0.00     0.164 HD
BRANCH  47  50
ATOM     50  C   UNL     1      11.598   6.810  12.230  1.00  0.00     0.212 CG0
ATOM     51  G   UNL     1      12.717   7.667  12.855  1.00  0.00     0.000 G0
BRANCH  50  52
ATOM     52  N   UNL     1      12.101   5.663  11.478  1.00  0.00    -0.339 N 
ATOM     53  C   UNL     1      13.128   4.864  11.917  1.00  0.00     0.243 C 
ATOM     54  O   UNL     1      13.741   5.085  12.958  1.00  0.00    -0.273 OA
ATOM     55  H   UNL     1      11.708   5.494  10.555  1.00  0.00     0.164 HD
BRANCH  53  56
ATOM     56  C   UNL     1      13.543   3.768  10.914  1.00  0.00     0.182 C 
BRANCH  56  57
ATOM     57  N   UNL     1      14.646   2.960  11.444  1.00  0.00    -0.344 N 
ATOM     58  C   UNL     1      14.594   1.588  11.498  1.00  0.00     0.220 C 
ATOM     59  O   UNL     1      13.598   0.949  11.178  1.00  0.00    -0.275 OA
ATOM     60  H   UNL     1      15.524   3.441  11.624  1.00  0.00     0.164 HD
BRANCH  58  61
ATOM     61  C   UNL     1      15.869   0.959  12.027  1.00  0.00     0.100 C 
BRANCH  61  62
ATOM     62  C   UNL     1      16.867   0.574  10.934  1.00  0.00     0.010 C 
BRANCH  62  63
ATOM     63  C   UNL     1      16.573  -0.773  10.262  1.00  0.00     0.000 C 
BRANCH  63  64
ATOM     64  C   UNL     1      17.490  -1.100   9.085  1.00  0.00    -0.003 C 
ATOM     65  C   UNL     1      17.811  -2.586   9.026  1.00  0.00     0.004 C 
ENDBRANCH  63  64
ENDBRANCH  62  63
ENDBRANCH  61  62
ENDBRANCH  58  61
ENDBRANCH  56  57
BRANCH  56  66
ATOM     66  C   UNL     1      13.866   4.357   9.543  1.00  0.00     0.157 C 
BRANCH  66  67
ATOM     67  C   UNL     1      14.926   3.556   8.843  1.00  0.00     0.305 C 
ATOM     68  O   UNL     1      16.050   3.930   8.544  1.00  0.00    -0.252 OA
BRANCH  67  69
ATOM     69  O   UNL     1      14.533   2.292   8.596  1.00  0.00    -0.481 OA
ATOM     70  H   UNL     1      13.889   2.369   7.860  1.00  0.00     0.296 HD
ENDBRANCH  67  69
ENDBRANCH  66  67
ENDBRANCH  56  66
ENDBRANCH  53  56
ENDBRANCH  50  52
ENDBRANCH  47  50
ENDBRANCH  45  46
BRANCH  45  71
ATOM     71  C   UNL     1       7.661   6.189  14.429  1.00  0.00     0.037 C 
BRANCH  71  72
ATOM     72  C   UNL     1       7.742   6.423  15.940  1.00  0.00     0.026 C 
BRANCH  72  73
ATOM     73  C   UNL     1       6.625   5.692  16.681  1.00  0.00     0.146 C 
BRANCH  73  74
ATOM     74  N   UNL     1       6.642   4.297  16.252  1.00  0.00    -0.254 NA
ATOM     75  C   UNL     1       6.100   3.427  17.021  1.00  0.00     0.185 C 
ATOM     76  N   UNL     1       6.098   2.136  16.652  1.00  0.00    -0.370 N 
ATOM     77  N   UNL     1       5.495   3.609  18.208  1.00  0.00    -0.370 N 
ATOM     78  H   UNL     1       6.541   1.911  15.773  1.00  0.00     0.159 HD
ATOM     79  H   UNL     1       5.825   1.386  17.263  1.00  0.00     0.159 HD
ATOM     80  H   UNL     1       5.418   4.531  18.609  1.00  0.00     0.159 HD
ATOM     81  H   UNL     1       5.002   2.862  18.669  1.00  0.00     0.159 HD
ENDBRANCH  73  74
ENDBRANCH  72  73
ENDBRANCH  71  72
ENDBRANCH  45  71
ENDBRANCH   3  45
TORSDOF 20
ENDMDL
MODEL 3
REMARK VINA RESULT:     1.530      3.269      5.645
REMARK INTER + INTRA:          14.814
REMARK INTER:                   1.493
REMARK INTRA:                  13.321
REMARK UNBOUND:                10.422
REMARK SMILES CCCCCC(=O)N[C@H](CC(=O)O)C(=O)N[C@H]1C(=O)N[C@H](CCCN=C(N)N)C(=O)N[C@@H]2CC[C@H](O)N(C2=O)[C@@H](CC(C)C)C(=O)N(C)[C@@H](Cc2ccccc2)C(=O)N[C@H](C(C)C)C(=O)O[C@@H]1C
REMARK SMILES IDX 30 1 31 2 29 3 32 5 35 6 37 7 34 8 38 9 33 10 39 11 36 12
REMARK SMILES IDX 40 14 41 15 42 16 43 17 44 18 45 19 46 20 47 21 48 22 49 23
REMARK SMILES IDX 50 24 51 25 52 26 56 27 53 28 55 29 54 30 57 31 58 32 59 33
REMARK SMILES IDX 60 35 61 36 62 37 63 38 64 39 65 40 66 41 67 42 68 43 21 45
REMARK SMILES IDX 20 46 18 47 19 48 17 50 16 52 14 53 15 54 9 56 8 57 6 58
REMARK SMILES IDX 7 59 5 61 4 62 3 63 2 64 1 65 10 66 11 67 12 68 13 69 22 71
REMARK SMILES IDX 23 72 24 73 25 74 26 75 27 76 28 77
REMARK H PARENT 31 4 36 13 59 34 20 49 16 55 8 60 13 70 27 78 27 79 28 80
REMARK H PARENT 28 81
REMARK Flexibility Score:  259.900
ROOT
ATOM      1  O   UNL     1      11.750   3.592  16.268  1.00  0.00    -0.273 OA
ATOM      2  N   UNL     1      10.080   5.151  16.162  1.00  0.00    -0.343 N 
ATOM      3  C   UNL     1      10.646   3.935  15.845  1.00  0.00     0.243 C 
ATOM      4  H   UNL     1       9.163   5.393  15.807  1.00  0.00     0.164 HD
ENDROOT
BRANCH   2   5
ATOM      5  C   UNL     1      10.830   6.142  16.925  1.00  0.00     0.171 C 
ATOM      6  C   UNL     1      10.371   8.949  17.485  1.00  0.00     0.214 C 
ATOM      7  N   UNL     1      11.147   8.574  16.326  1.00  0.00    -0.303 N 
ATOM      8  C   UNL     1      10.483   7.957  18.632  1.00  0.00     0.057 C 
ATOM      9  C   UNL     1      11.361   7.252  15.973  1.00  0.00     0.247 C 
ATOM     10  C   UNL     1      10.052   6.583  18.164  1.00  0.00     0.040 C 
ATOM     11  O   UNL     1      11.952   6.938  14.931  1.00  0.00    -0.272 OA
BRANCH   6  12
ATOM     12  O   UNL     1       9.029   9.084  17.080  1.00  0.00    -0.373 OA
ATOM     13  H   UNL     1       8.472   8.933  17.874  1.00  0.00     0.213 HD
ENDBRANCH   6  12
BRANCH   7  14
ATOM     14  C   UNL     1      11.589   9.666  15.433  1.00  0.00     0.177 C 
BRANCH  14  15
ATOM     15  C   UNL     1      10.620  10.859  15.327  1.00  0.00     0.038 C 
BRANCH  15  16
ATOM     16  C   UNL     1       9.649  10.947  14.129  1.00  0.00    -0.015 C 
ATOM     17  C   UNL     1       8.743   9.717  14.020  1.00  0.00     0.007 C 
ATOM     18  C   UNL     1      10.445  11.074  12.824  1.00  0.00     0.007 C 
ENDBRANCH  15  16
ENDBRANCH  14  15
BRANCH  14  19
ATOM     19  C   UNL     1      13.153   9.764  15.429  1.00  0.00     0.245 C 
ATOM     20  O   UNL     1      13.686  10.258  16.437  1.00  0.00    -0.272 OA
BRANCH  19  21
ATOM     21  N   UNL     1      13.943   9.442  14.339  1.00  0.00    -0.332 N 
ATOM     22  C   UNL     1      13.494   9.385  12.960  1.00  0.00     0.147 C 
BRANCH  21  23
ATOM     23  C   UNL     1      15.374   9.113  14.590  1.00  0.00     0.178 C 
BRANCH  23  24
ATOM     24  C   UNL     1      15.817   9.239  16.062  1.00  0.00     0.070 C 
BRANCH  24  25
ATOM     25  C   UNL     1      16.269   7.974  16.755  1.00  0.00    -0.045 A 
ATOM     26  C   UNL     1      17.623   7.619  16.787  1.00  0.00     0.004 A 
ATOM     27  C   UNL     1      15.332   7.133  17.374  1.00  0.00     0.004 A 
ATOM     28  C   UNL     1      18.031   6.440  17.415  1.00  0.00     0.000 A 
ATOM     29  C   UNL     1      15.741   5.956  18.002  1.00  0.00     0.000 A 
ATOM     30  C   UNL     1      17.090   5.608  18.019  1.00  0.00     0.000 A 
ENDBRANCH  24  25
ENDBRANCH  23  24
BRANCH  23  31
ATOM     31  C   UNL     1      15.828   7.815  13.881  1.00  0.00     0.243 C 
ATOM     32  O   UNL     1      16.520   7.792  12.867  1.00  0.00    -0.273 OA
ATOM     33  N   UNL     1      15.230   6.672  14.385  1.00  0.00    -0.341 N 
ATOM     34  H   UNL     1      14.659   6.755  15.230  1.00  0.00     0.164 HD
BRANCH  33  35
ATOM     35  C   UNL     1      15.420   5.345  13.793  1.00  0.00     0.194 C 
BRANCH  35  36
ATOM     36  C   UNL     1      16.894   5.019  13.422  1.00  0.00     0.017 C 
ATOM     37  C   UNL     1      17.856   6.093  13.960  1.00  0.00     0.010 C 
ATOM     38  C   UNL     1      17.126   4.911  11.910  1.00  0.00     0.010 C 
ENDBRANCH  35  36
BRANCH  35  39
ATOM     39  C   UNL     1      14.450   5.074  12.609  1.00  0.00     0.329 C 
ATOM     40  O   UNL     1      14.617   5.503  11.474  1.00  0.00    -0.250 OA
BRANCH  39  41
ATOM     41  O   UNL     1      13.431   4.229  12.954  1.00  0.00    -0.458 OA
BRANCH  41  42
ATOM     42  C   UNL     1      13.516   2.879  12.439  1.00  0.00     0.205 CG0
ATOM     43  C   UNL     1      14.460   2.909  11.238  1.00  0.00     0.056 C 
ATOM     44  G   UNL     1      12.098   2.406  12.063  1.00  0.00     0.000 G0
ENDBRANCH  41  42
ENDBRANCH  39  41
ENDBRANCH  35  39
ENDBRANCH  33  35
ENDBRANCH  23  31
ENDBRANCH  21  23
ENDBRANCH  19  21
ENDBRANCH  14  19
ENDBRANCH   7  14
ENDBRANCH   2   5
BRANCH   3  45
ATOM     45  C   UNL     1       9.795   3.029  14.945  1.00  0.00     0.171 C 
BRANCH  45  46
ATOM     46  N   UNL     1      10.710   2.492  13.948  1.00  0.00    -0.342 N 
ATOM     47  C   UNL     1      11.640   3.271  13.307  1.00  0.00     0.247 C 
ATOM     48  O   UNL     1      11.818   4.459  13.578  1.00  0.00    -0.273 OA
ATOM     49  H   UNL     1      10.635   1.499  13.733  1.00  0.00     0.164 HD
BRANCH  47  50
ATOM     50  C   UNL     1      12.432   2.560  12.199  1.00  0.00     0.212 CG0
ATOM     51  G   UNL     1      13.679   3.414  11.895  1.00  0.00     0.000 G0
BRANCH  50  52
ATOM     52  N   UNL     1      12.752   1.240  12.735  1.00  0.00    -0.339 N 
ATOM     53  C   UNL     1      13.173   1.030  14.026  1.00  0.00     0.243 C 
ATOM     54  O   UNL     1      13.364   1.949  14.817  1.00  0.00    -0.273 OA
ATOM     55  H   UNL     1      12.720   0.449  12.095  1.00  0.00     0.164 HD
BRANCH  53  56
ATOM     56  C   UNL     1      13.535  -0.436  14.337  1.00  0.00     0.182 C 
BRANCH  56  57
ATOM     57  N   UNL     1      13.399  -0.719  15.770  1.00  0.00    -0.344 N 
ATOM     58  C   UNL     1      13.322  -1.998  16.263  1.00  0.00     0.220 C 
ATOM     59  O   UNL     1      13.288  -2.988  15.540  1.00  0.00    -0.275 OA
ATOM     60  H   UNL     1      13.526   0.063  16.407  1.00  0.00     0.164 HD
BRANCH  58  61
ATOM     61  C   UNL     1      13.245  -2.055  17.778  1.00  0.00     0.100 C 
BRANCH  61  62
ATOM     62  C   UNL     1      13.556  -3.435  18.359  1.00  0.00     0.010 C 
BRANCH  62  63
ATOM     63  C   UNL     1      12.478  -4.490  18.081  1.00  0.00     0.000 C 
BRANCH  63  64
ATOM     64  C   UNL     1      13.020  -5.809  17.533  1.00  0.00    -0.003 C 
ATOM     65  C   UNL     1      13.687  -6.632  18.625  1.00  0.00     0.004 C 
ENDBRANCH  63  64
ENDBRANCH  62  63
ENDBRANCH  61  62
ENDBRANCH  58  61
ENDBRANCH  56  57
BRANCH  56  66
ATOM     66  C   UNL     1      14.922  -0.795  13.808  1.00  0.00     0.157 C 
BRANCH  66  67
ATOM     67  C   UNL     1      15.897  -1.000  14.931  1.00  0.00     0.305 C 
ATOM     68  O   UNL     1      16.811  -0.255  15.253  1.00  0.00    -0.252 OA
BRANCH  67  69
ATOM     69  O   UNL     1      15.639  -2.118  15.635  1.00  0.00    -0.481 OA
ATOM     70  H   UNL     1      14.962  -2.594  15.110  1.00  0.00     0.296 HD
ENDBRANCH  67  69
ENDBRANCH  66  67
ENDBRANCH  56  66
ENDBRANCH  53  56
ENDBRANCH  50  52
ENDBRANCH  47  50
ENDBRANCH  45  46
BRANCH  45  71
ATOM     71  C   UNL     1       8.661   3.832  14.298  1.00  0.00     0.037 C 
BRANCH  71  72
ATOM     72  C   UNL     1       7.509   4.091  15.272  1.00  0.00     0.026 C 
BRANCH  72  73
ATOM     73  C   UNL     1       6.179   3.590  14.713  1.00  0.00     0.146 C 
BRANCH  73  74
ATOM     74  N   UNL     1       5.913   2.280  15.299  1.00  0.00    -0.254 NA
ATOM     75  C   UNL     1       5.164   2.229  16.338  1.00  0.00     0.185 C 
ATOM     76  N   UNL     1       4.900   1.038  16.899  1.00  0.00    -0.370 N 
ATOM     77  N   UNL     1       4.564   3.236  16.997  1.00  0.00    -0.370 N 
ATOM     78  H   UNL     1       5.319   0.227  16.468  1.00  0.00     0.159 HD
ATOM     79  H   UNL     1       4.446   0.934  17.789  1.00  0.00     0.159 HD
ATOM     80  H   UNL     1       4.671   4.190  16.685  1.00  0.00     0.159 HD
ATOM     81  H   UNL     1       3.903   3.064  17.736  1.00  0.00     0.159 HD
ENDBRANCH  73  74
ENDBRANCH  72  73
ENDBRANCH  71  72
ENDBRANCH  45  71
ENDBRANCH   3  45
TORSDOF 20
ENDMDL
MODEL 4
REMARK VINA RESULT:     2.163      2.562      5.398
REMARK INTER + INTRA:          16.631
REMARK INTER:                 -10.036
REMARK INTRA:                  26.667
REMARK UNBOUND:                10.422
REMARK SMILES CCCCCC(=O)N[C@H](CC(=O)O)C(=O)N[C@H]1C(=O)N[C@H](CCCN=C(N)N)C(=O)N[C@@H]2CC[C@H](O)N(C2=O)[C@@H](CC(C)C)C(=O)N(C)[C@@H](Cc2ccccc2)C(=O)N[C@H](C(C)C)C(=O)O[C@@H]1C
REMARK SMILES IDX 30 1 31 2 29 3 32 5 35 6 37 7 34 8 38 9 33 10 39 11 36 12
REMARK SMILES IDX 40 14 41 15 42 16 43 17 44 18 45 19 46 20 47 21 48 22 49 23
REMARK SMILES IDX 50 24 51 25 52 26 56 27 53 28 55 29 54 30 57 31 58 32 59 33
REMARK SMILES IDX 60 35 61 36 62 37 63 38 64 39 65 40 66 41 67 42 68 43 21 45
REMARK SMILES IDX 20 46 18 47 19 48 17 50 16 52 14 53 15 54 9 56 8 57 6 58
REMARK SMILES IDX 7 59 5 61 4 62 3 63 2 64 1 65 10 66 11 67 12 68 13 69 22 71
REMARK SMILES IDX 23 72 24 73 25 74 26 75 27 76 28 77
REMARK H PARENT 31 4 36 13 59 34 20 49 16 55 8 60 13 70 27 78 27 79 28 80
REMARK H PARENT 28 81
REMARK Flexibility Score:  259.900
ROOT
ATOM      1  O   UNL     1      11.657   3.738  16.369  1.00  0.00    -0.273 OA
ATOM      2  N   UNL     1      10.360   5.612  16.168  1.00  0.00    -0.343 N 
ATOM      3  C   UNL     1      10.695   4.311  15.857  1.00  0.00     0.243 C 
ATOM      4  H   UNL     1       9.553   6.046  15.738  1.00  0.00     0.164 HD
ENDROOT
BRANCH   2   5
ATOM      5  C   UNL     1      11.216   6.410  17.039  1.00  0.00     0.171 C 
ATOM      6  C   UNL     1      12.035   9.190  16.975  1.00  0.00     0.214 C 
ATOM      7  N   UNL     1      12.847   8.195  16.314  1.00  0.00    -0.303 N 
ATOM      8  C   UNL     1      11.284   8.649  18.182  1.00  0.00     0.057 C 
ATOM      9  C   UNL     1      12.487   6.858  16.263  1.00  0.00     0.247 C 
ATOM     10  C   UNL     1      10.409   7.488  17.762  1.00  0.00     0.040 C 
ATOM     11  O   UNL     1      13.142   6.027  15.621  1.00  0.00    -0.272 OA
BRANCH   6  12
ATOM     12  O   UNL     1      11.133   9.710  16.026  1.00  0.00    -0.373 OA
ATOM     13  H   UNL     1      10.358  10.049  16.522  1.00  0.00     0.213 HD
ENDBRANCH   6  12
BRANCH   7  14
ATOM     14  C   UNL     1      14.019   8.682  15.556  1.00  0.00     0.177 C 
BRANCH  14  15
ATOM     15  C   UNL     1      14.092  10.210  15.371  1.00  0.00     0.038 C 
BRANCH  15  16
ATOM     16  C   UNL     1      13.607  10.840  14.047  1.00  0.00    -0.015 C 
ATOM     17  C   UNL     1      12.154  10.479  13.725  1.00  0.00     0.007 C 
ATOM     18  C   UNL     1      14.490  10.357  12.889  1.00  0.00     0.007 C 
ENDBRANCH  15  16
ENDBRANCH  14  15
BRANCH  14  19
ATOM     19  C   UNL     1      15.248   7.737  15.790  1.00  0.00     0.245 C 
ATOM     20  O   UNL     1      15.806   7.808  16.897  1.00  0.00    -0.272 OA
BRANCH  19  21
ATOM     21  N   UNL     1      15.797   6.930  14.809  1.00  0.00    -0.332 N 
ATOM     22  C   UNL     1      15.569   7.065  13.381  1.00  0.00     0.147 C 
BRANCH  21  23
ATOM     23  C   UNL     1      16.691   5.821  15.241  1.00  0.00     0.178 C 
BRANCH  23  24
ATOM     24  C   UNL     1      16.409   5.279  16.657  1.00  0.00     0.070 C 
BRANCH  24  25
ATOM     25  C   UNL     1      15.868   3.872  16.761  1.00  0.00    -0.045 A 
ATOM     26  C   UNL     1      14.565   3.572  16.342  1.00  0.00     0.004 A 
ATOM     27  C   UNL     1      16.665   2.843  17.285  1.00  0.00     0.004 A 
ATOM     28  C   UNL     1      14.066   2.272  16.456  1.00  0.00     0.000 A 
ATOM     29  C   UNL     1      16.166   1.545  17.398  1.00  0.00     0.000 A 
ATOM     30  C   UNL     1      14.865   1.261  16.986  1.00  0.00     0.000 A 
ENDBRANCH  24  25
ENDBRANCH  23  24
BRANCH  23  31
ATOM     31  C   UNL     1      16.876   4.736  14.153  1.00  0.00     0.243 C 
ATOM     32  O   UNL     1      17.940   4.509  13.583  1.00  0.00    -0.273 OA
ATOM     33  N   UNL     1      15.687   4.160  13.739  1.00  0.00    -0.341 N 
ATOM     34  H   UNL     1      14.832   4.392  14.249  1.00  0.00     0.164 HD
BRANCH  33  35
ATOM     35  C   UNL     1      15.608   3.196  12.638  1.00  0.00     0.194 C 
BRANCH  35  36
ATOM     36  C   UNL     1      16.580   1.991  12.777  1.00  0.00     0.017 C 
ATOM     37  C   UNL     1      17.848   2.383  13.556  1.00  0.00     0.010 C 
ATOM     38  C   UNL     1      17.030   1.418  11.428  1.00  0.00     0.010 C 
ENDBRANCH  35  36
BRANCH  35  39
ATOM     39  C   UNL     1      15.717   3.872  11.242  1.00  0.00     0.329 C 
ATOM     40  O   UNL     1      16.703   3.795  10.518  1.00  0.00    -0.250 OA
BRANCH  39  41
ATOM     41  O   UNL     1      14.556   4.492  10.873  1.00  0.00    -0.458 OA
BRANCH  41  42
ATOM     42  C   UNL     1      13.566   4.673  11.913  1.00  0.00     0.205 CG0
ATOM     43  C   UNL     1      14.070   3.936  13.152  1.00  0.00     0.056 C 
ATOM     44  G   UNL     1      12.217   4.124  11.409  1.00  0.00     0.000 G0
ENDBRANCH  41  42
ENDBRANCH  39  41
ENDBRANCH  35  39
ENDBRANCH  33  35
ENDBRANCH  23  31
ENDBRANCH  21  23
ENDBRANCH  19  21
ENDBRANCH  14  19
ENDBRANCH   7  14
ENDBRANCH   2   5
BRANCH   3  45
ATOM     45  C   UNL     1       9.771   3.620  14.845  1.00  0.00     0.171 C 
BRANCH  45  46
ATOM     46  N   UNL     1      10.578   3.419  13.649  1.00  0.00    -0.342 N 
ATOM     47  C   UNL     1      11.530   4.321  13.243  1.00  0.00     0.247 C 
ATOM     48  O   UNL     1      11.822   5.324  13.895  1.00  0.00    -0.273 OA
ATOM     49  H   UNL     1      10.408   2.573  13.108  1.00  0.00     0.164 HD
BRANCH  47  50
ATOM     50  C   UNL     1      12.192   4.005  11.894  1.00  0.00     0.212 CG0
ATOM     51  G   UNL     1      13.540   4.751  11.848  1.00  0.00     0.000 G0
BRANCH  50  52
ATOM     52  N   UNL     1      12.335   2.552  11.862  1.00  0.00    -0.339 N 
ATOM     53  C   UNL     1      12.951   1.831  12.856  1.00  0.00     0.243 C 
ATOM     54  O   UNL     1      13.477   2.362  13.830  1.00  0.00    -0.273 OA
ATOM     55  H   UNL     1      12.018   2.064  11.027  1.00  0.00     0.164 HD
BRANCH  53  56
ATOM     56  C   UNL     1      13.060   0.321  12.561  1.00  0.00     0.182 C 
BRANCH  56  57
ATOM     57  N   UNL     1      13.767  -0.376  13.640  1.00  0.00    -0.344 N 
ATOM     58  C   UNL     1      13.706  -1.739  13.800  1.00  0.00     0.220 C 
ATOM     59  O   UNL     1      13.001  -2.458  13.100  1.00  0.00    -0.275 OA
ATOM     60  H   UNL     1      14.440   0.166  14.176  1.00  0.00     0.164 HD
BRANCH  58  61
ATOM     61  C   UNL     1      14.562  -2.250  14.944  1.00  0.00     0.100 C 
BRANCH  61  62
ATOM     62  C   UNL     1      14.696  -3.772  14.982  1.00  0.00     0.010 C 
BRANCH  62  63
ATOM     63  C   UNL     1      15.967  -4.273  15.678  1.00  0.00     0.000 C 
BRANCH  63  64
ATOM     64  C   UNL     1      15.740  -5.447  16.629  1.00  0.00    -0.003 C 
ATOM     65  C   UNL     1      15.559  -6.752  15.866  1.00  0.00     0.004 C 
ENDBRANCH  63  64
ENDBRANCH  62  63
ENDBRANCH  61  62
ENDBRANCH  58  61
ENDBRANCH  56  57
BRANCH  56  66
ATOM     66  C   UNL     1      13.692   0.062  11.195  1.00  0.00     0.157 C 
BRANCH  66  67
ATOM     67  C   UNL     1      14.250  -1.330  11.109  1.00  0.00     0.305 C 
ATOM     68  O   UNL     1      15.427  -1.644  11.027  1.00  0.00    -0.252 OA
BRANCH  67  69
ATOM     69  O   UNL     1      13.289  -2.271  11.183  1.00  0.00    -0.481 OA
ATOM     70  H   UNL     1      13.579  -2.973  10.563  1.00  0.00     0.296 HD
ENDBRANCH  67  69
ENDBRANCH  66  67
ENDBRANCH  56  66
ENDBRANCH  53  56
ENDBRANCH  50  52
ENDBRANCH  47  50
ENDBRANCH  45  46
BRANCH  45  71
ATOM     71  C   UNL     1       8.544   4.491  14.560  1.00  0.00     0.037 C 
BRANCH  71  72
ATOM     72  C   UNL     1       7.524   4.442  15.700  1.00  0.00     0.026 C 
BRANCH  72  73
ATOM     73  C   UNL     1       6.135   4.059  15.194  1.00  0.00     0.146 C 
BRANCH  73  74
ATOM     74  N   UNL     1       5.974   2.620  15.375  1.00  0.00    -0.254 NA
ATOM     75  C   UNL     1       5.466   2.207  16.477  1.00  0.00     0.185 C 
ATOM     76  N   UNL     1       5.304   0.889  16.672  1.00  0.00    -0.370 N 
ATOM     77  N   UNL     1       5.042   2.924  17.533  1.00  0.00    -0.370 N 
ATOM     78  H   UNL     1       5.605   0.276  15.928  1.00  0.00     0.159 HD
ATOM     79  H   UNL     1       5.050   0.487  17.558  1.00  0.00     0.159 HD
ATOM     80  H   UNL     1       5.099   3.932  17.525  1.00  0.00     0.159 HD
ATOM     81  H   UNL     1       4.552   2.496  18.300  1.00  0.00     0.159 HD
ENDBRANCH  73  74
ENDBRANCH  72  73
ENDBRANCH  71  72
ENDBRANCH  45  71
ENDBRANCH   3  45
TORSDOF 20
ENDMDL
