MODEL 1
REMARK VINA RESULT:    -5.404      0.000      0.000
REMARK INTER + INTRA:         -10.961
REMARK INTER:                  -9.196
REMARK INTRA:                  -1.765
REMARK UNBOUND:                -1.765
REMARK SMILES CC[C@H](C)[C@@H]1NC(=O)[C@H]2CSC(=N2)[C@@H]([C@@H](C)CC)NC(=O)c2csc(n2)CNC(=O)[C@H]2N=C1O[C@@H]2C
REMARK SMILES IDX 27 1 25 2 22 3 26 4 23 5 24 6 20 7 19 8 21 9 14 11 12 12
REMARK SMILES IDX 11 13 10 14 13 15 9 16 15 18 16 19 17 20 18 21 28 22 29 23
REMARK SMILES IDX 30 24 31 26 32 27 35 28 33 29 34 30 36 31 5 32 6 33 7 34
REMARK SMILES IDX 8 35 3 38 4 39 2 40 1 41
REMARK H PARENT 19 10 28 25 6 36
REMARK Flexibility Score:   91.900
ROOT
ATOM      1  C   UNL     1      -1.755   5.637   6.752  1.00  0.00     0.183 C 
ENDROOT
BRANCH   1   2
ATOM      2  C   UNL     1      -2.667   4.702   7.493  1.00  0.00     0.113 A 
ATOM      3  C   UNL     1      -3.405   3.347   9.101  1.00  0.00     0.139 A 
ATOM      4  N   UNL     1      -2.449   4.295   8.730  1.00  0.00    -0.234 NA
ATOM      5  C   UNL     1      -4.368   3.101   8.143  1.00  0.00     0.101 A 
ATOM      6  S   UNL     1      -4.066   4.048   6.744  1.00  0.00    -0.125 S 
BRANCH   3   7
ATOM      7  C   UNL     1      -3.306   2.677  10.400  1.00  0.00     0.271 C 
ATOM      8  N   UNL     1      -4.262   3.130  11.276  1.00  0.00    -0.341 N 
ATOM      9  O   UNL     1      -2.452   1.843  10.673  1.00  0.00    -0.267 OA
ATOM     10  H   UNL     1      -4.920   3.810  10.897  1.00  0.00     0.164 HD
BRANCH   8  11
ATOM     11  C   UNL     1      -4.301   2.792  12.689  1.00  0.00     0.140 C 
BRANCH  11  12
ATOM     12  C   UNL     1      -4.211   4.096  13.487  1.00  0.00     0.091 C 
ATOM     13  S   UNL     1      -5.422   4.490  14.684  1.00  0.00    -0.106 SA
ATOM     14  C   UNL     1      -4.393   5.839  15.300  1.00  0.00     0.113 C 
ATOM     15  N   UNL     1      -3.291   4.980  13.257  1.00  0.00    -0.267 NA
ATOM     16  C   UNL     1      -3.516   6.190  14.108  1.00  0.00     0.205 CG0
ATOM     17  G   UNL     1      -4.145   7.328  13.288  1.00  0.00     0.000 G0
ENDBRANCH  11  12
BRANCH  11  18
ATOM     18  C   UNL     1      -5.450   1.826  13.075  1.00  0.00     0.015 C 
ATOM     19  C   UNL     1      -6.516   1.794  11.972  1.00  0.00     0.010 C 
BRANCH  18  20
ATOM     20  C   UNL     1      -4.995   0.404  13.461  1.00  0.00     0.002 C 
ATOM     21  C   UNL     1      -3.528   0.339  13.871  1.00  0.00     0.004 C 
ENDBRANCH  18  20
ENDBRANCH  11  18
ENDBRANCH   8  11
ENDBRANCH   3   7
ENDBRANCH   1   2
BRANCH   1  22
ATOM     22  N   UNL     1      -1.700   6.872   7.501  1.00  0.00    -0.348 N 
ATOM     23  C   UNL     1      -2.497   7.961   7.269  1.00  0.00     0.249 C 
ATOM     24  O   UNL     1      -3.405   7.966   6.447  1.00  0.00    -0.272 OA
ATOM     25  H   UNL     1      -0.964   6.985   8.197  1.00  0.00     0.163 HD
BRANCH  23  26
ATOM     26  C   UNL     1      -2.168   9.146   8.190  1.00  0.00     0.238 C 
ATOM     27  N   UNL     1      -3.333   9.415   9.078  1.00  0.00    -0.236 NA
ATOM     28  C   UNL     1      -1.009   8.838   9.122  1.00  0.00     0.206 C 
ATOM     29  C   UNL     1      -2.900   9.062  10.252  1.00  0.00     0.208 C 
ATOM     30  O   UNL     1      -1.631   8.603  10.384  1.00  0.00    -0.474 OA
ATOM     31  C   UNL     1      -0.047  10.010   9.265  1.00  0.00     0.056 C 
BRANCH  29  32
ATOM     32  C   UNL     1      -3.705   9.054  11.548  1.00  0.00     0.171 C 
BRANCH  32  33
ATOM     33  N   UNL     1      -3.278   7.970  12.419  1.00  0.00    -0.342 N 
ATOM     34  C   UNL     1      -4.130   7.346  13.298  1.00  0.00     0.246 CG0
ATOM     35  O   UNL     1      -5.307   7.671  13.435  1.00  0.00    -0.273 OA
ATOM     36  H   UNL     1      -2.312   7.659  12.433  1.00  0.00     0.164 HD
ATOM     37  G   UNL     1      -3.497   6.187  14.084  1.00  0.00     0.000 G0
ENDBRANCH  32  33
BRANCH  32  38
ATOM     38  C   UNL     1      -3.629  10.440  12.242  1.00  0.00     0.017 C 
ATOM     39  C   UNL     1      -2.215  11.019  12.108  1.00  0.00     0.010 C 
BRANCH  38  40
ATOM     40  C   UNL     1      -4.700  11.430  11.730  1.00  0.00     0.002 C 
ATOM     41  C   UNL     1      -4.138  12.530  10.839  1.00  0.00     0.004 C 
ENDBRANCH  38  40
ENDBRANCH  32  38
ENDBRANCH  29  32
ENDBRANCH  23  26
ENDBRANCH   1  22
TORSDOF 4
ENDMDL
MODEL 2
REMARK VINA RESULT:    -4.456      3.806      7.299
REMARK INTER + INTRA:          -9.346
REMARK INTER:                  -7.756
REMARK INTRA:                  -1.591
REMARK UNBOUND:                -1.765
REMARK SMILES CC[C@H](C)[C@@H]1NC(=O)[C@H]2CSC(=N2)[C@@H]([C@@H](C)CC)NC(=O)c2csc(n2)CNC(=O)[C@H]2N=C1O[C@@H]2C
REMARK SMILES IDX 27 1 25 2 22 3 26 4 23 5 24 6 20 7 19 8 21 9 14 11 12 12
REMARK SMILES IDX 11 13 10 14 13 15 9 16 15 18 16 19 17 20 18 21 28 22 29 23
REMARK SMILES IDX 30 24 31 26 32 27 35 28 33 29 34 30 36 31 5 32 6 33 7 34
REMARK SMILES IDX 8 35 3 38 4 39 2 40 1 41
REMARK H PARENT 19 10 28 25 6 36
REMARK Flexibility Score:   91.900
ROOT
ATOM      1  C   UNL     1      -0.082   1.950   9.865  1.00  0.00     0.183 C 
ENDROOT
BRANCH   1   2
ATOM      2  C   UNL     1       0.916   2.738   9.066  1.00  0.00     0.113 A 
ATOM      3  C   UNL     1       1.795   4.430   7.912  1.00  0.00     0.139 A 
ATOM      4  N   UNL     1       0.761   4.011   8.753  1.00  0.00    -0.234 NA
ATOM      5  C   UNL     1       2.749   3.466   7.655  1.00  0.00     0.101 A 
ATOM      6  S   UNL     1       2.341   2.002   8.454  1.00  0.00    -0.125 S 
BRANCH   3   7
ATOM      7  C   UNL     1       1.781   5.783   7.352  1.00  0.00     0.271 C 
ATOM      8  N   UNL     1       2.600   6.631   8.056  1.00  0.00    -0.341 N 
ATOM      9  O   UNL     1       1.093   6.116   6.395  1.00  0.00    -0.267 OA
ATOM     10  H   UNL     1       3.129   6.203   8.815  1.00  0.00     0.164 HD
BRANCH   8  11
ATOM     11  C   UNL     1       2.653   8.070   7.856  1.00  0.00     0.140 C 
BRANCH  11  12
ATOM     12  C   UNL     1       1.921   8.733   9.026  1.00  0.00     0.091 C 
ATOM     13  S   UNL     1       2.819   9.513  10.307  1.00  0.00    -0.106 SA
ATOM     14  C   UNL     1       1.299  10.254  10.939  1.00  0.00     0.113 C 
ATOM     15  N   UNL     1       0.632   8.679   9.149  1.00  0.00    -0.267 NA
ATOM     16  C   UNL     1       0.211   9.317  10.436  1.00  0.00     0.205 CG0
ATOM     17  G   UNL     1      -0.120   8.252  11.494  1.00  0.00     0.000 G0
ENDBRANCH  11  12
BRANCH  11  18
ATOM     18  C   UNL     1       4.070   8.610   7.534  1.00  0.00     0.015 C 
ATOM     19  C   UNL     1       5.139   7.593   7.955  1.00  0.00     0.010 C 
BRANCH  18  20
ATOM     20  C   UNL     1       4.269   9.066   6.074  1.00  0.00     0.002 C 
ATOM     21  C   UNL     1       3.021   8.884   5.218  1.00  0.00     0.004 C 
ENDBRANCH  18  20
ENDBRANCH  11  18
ENDBRANCH   8  11
ENDBRANCH   3   7
ENDBRANCH   1   2
BRANCH   1  22
ATOM     22  N   UNL     1      -1.178   2.839  10.184  1.00  0.00    -0.348 N 
ATOM     23  C   UNL     1      -2.471   2.440  10.386  1.00  0.00     0.249 C 
ATOM     24  O   UNL     1      -2.818   1.264  10.400  1.00  0.00    -0.272 OA
ATOM     25  H   UNL     1      -1.005   3.843  10.177  1.00  0.00     0.163 HD
BRANCH  23  26
ATOM     26  C   UNL     1      -3.422   3.616  10.654  1.00  0.00     0.238 C 
ATOM     27  N   UNL     1      -2.972   4.344  11.873  1.00  0.00    -0.236 NA
ATOM     28  C   UNL     1      -3.388   4.641   9.533  1.00  0.00     0.206 C 
ATOM     29  C   UNL     1      -2.547   5.478  11.402  1.00  0.00     0.208 C 
ATOM     30  O   UNL     1      -2.620   5.717  10.070  1.00  0.00    -0.474 OA
ATOM     31  C   UNL     1      -4.774   5.163   9.176  1.00  0.00     0.056 C 
BRANCH  29  32
ATOM     32  C   UNL     1      -1.898   6.603  12.203  1.00  0.00     0.171 C 
BRANCH  32  33
ATOM     33  N   UNL     1      -1.379   7.637  11.321  1.00  0.00    -0.342 N 
ATOM     34  C   UNL     1      -0.168   8.252  11.531  1.00  0.00     0.246 CG0
ATOM     35  O   UNL     1       0.556   7.996  12.490  1.00  0.00    -0.273 OA
ATOM     36  H   UNL     1      -1.919   7.970  10.529  1.00  0.00     0.164 HD
ATOM     37  G   UNL     1       0.223   9.274  10.451  1.00  0.00     0.000 G0
ENDBRANCH  32  33
BRANCH  32  38
ATOM     38  C   UNL     1      -2.891   7.163  13.256  1.00  0.00     0.017 C 
ATOM     39  C   UNL     1      -2.178   8.165  14.172  1.00  0.00     0.010 C 
BRANCH  38  40
ATOM     40  C   UNL     1      -4.160   7.776  12.620  1.00  0.00     0.002 C 
ATOM     41  C   UNL     1      -4.495   9.165  13.147  1.00  0.00     0.004 C 
ENDBRANCH  38  40
ENDBRANCH  32  38
ENDBRANCH  29  32
ENDBRANCH  23  26
ENDBRANCH   1  22
TORSDOF 4
ENDMDL
MODEL 3
REMARK VINA RESULT:    -4.336      2.818      4.424
REMARK INTER + INTRA:          -9.143
REMARK INTER:                  -7.624
REMARK INTRA:                  -1.519
REMARK UNBOUND:                -1.765
REMARK SMILES CC[C@H](C)[C@@H]1NC(=O)[C@H]2CSC(=N2)[C@@H]([C@@H](C)CC)NC(=O)c2csc(n2)CNC(=O)[C@H]2N=C1O[C@@H]2C
REMARK SMILES IDX 27 1 25 2 22 3 26 4 23 5 24 6 20 7 19 8 21 9 14 11 12 12
REMARK SMILES IDX 11 13 10 14 13 15 9 16 15 18 16 19 17 20 18 21 28 22 29 23
REMARK SMILES IDX 30 24 31 26 32 27 35 28 33 29 34 30 36 31 5 32 6 33 7 34
REMARK SMILES IDX 8 35 3 38 4 39 2 40 1 41
REMARK H PARENT 19 10 28 25 6 36
REMARK Flexibility Score:   91.900
ROOT
ATOM      1  C   UNL     1      -1.649   0.230   7.613  1.00  0.00     0.183 C 
ENDROOT
BRANCH   1   2
ATOM      2  C   UNL     1      -1.247  -0.124   9.016  1.00  0.00     0.113 A 
ATOM      3  C   UNL     1      -1.391  -0.376  11.225  1.00  0.00     0.139 A 
ATOM      4  N   UNL     1      -2.081  -0.115  10.039  1.00  0.00    -0.234 NA
ATOM      5  C   UNL     1      -0.045  -0.635  11.059  1.00  0.00     0.101 A 
ATOM      6  S   UNL     1       0.376  -0.529   9.398  1.00  0.00    -0.125 S 
BRANCH   3   7
ATOM      7  C   UNL     1      -2.094  -0.319  12.509  1.00  0.00     0.271 C 
ATOM      8  N   UNL     1      -3.358   0.198  12.372  1.00  0.00    -0.341 N 
ATOM      9  O   UNL     1      -1.594  -0.661  13.574  1.00  0.00    -0.267 OA
ATOM     10  H   UNL     1      -3.644   0.416  11.418  1.00  0.00     0.164 HD
BRANCH   8  11
ATOM     11  C   UNL     1      -4.223   0.549  13.486  1.00  0.00     0.140 C 
BRANCH  11  12
ATOM     12  C   UNL     1      -3.951   2.011  13.850  1.00  0.00     0.091 C 
ATOM     13  S   UNL     1      -4.913   2.817  15.066  1.00  0.00    -0.106 SA
ATOM     14  C   UNL     1      -3.750   4.197  15.091  1.00  0.00     0.113 C 
ATOM     15  N   UNL     1      -3.062   2.719  13.228  1.00  0.00    -0.267 NA
ATOM     16  C   UNL     1      -3.093   4.132  13.721  1.00  0.00     0.205 CG0
ATOM     17  G   UNL     1      -3.825   5.045  12.723  1.00  0.00     0.000 G0
ENDBRANCH  11  12
BRANCH  11  18
ATOM     18  C   UNL     1      -5.708   0.155  13.280  1.00  0.00     0.015 C 
ATOM     19  C   UNL     1      -6.275   0.839  12.029  1.00  0.00     0.010 C 
BRANCH  18  20
ATOM     20  C   UNL     1      -5.976  -1.364  13.261  1.00  0.00     0.002 C 
ATOM     21  C   UNL     1      -6.833  -1.803  12.079  1.00  0.00     0.004 C 
ENDBRANCH  18  20
ENDBRANCH  11  18
ENDBRANCH   8  11
ENDBRANCH   3   7
ENDBRANCH   1   2
BRANCH   1  22
ATOM     22  N   UNL     1      -2.794   1.109   7.699  1.00  0.00    -0.348 N 
ATOM     23  C   UNL     1      -2.830   2.392   7.224  1.00  0.00     0.249 C 
ATOM     24  O   UNL     1      -1.910   2.902   6.595  1.00  0.00    -0.272 OA
ATOM     25  H   UNL     1      -3.609   0.792   8.224  1.00  0.00     0.163 HD
BRANCH  23  26
ATOM     26  C   UNL     1      -4.165   3.095   7.512  1.00  0.00     0.238 C 
ATOM     27  N   UNL     1      -4.266   3.381   8.970  1.00  0.00    -0.236 NA
ATOM     28  C   UNL     1      -4.254   4.448   6.826  1.00  0.00     0.206 C 
ATOM     29  C   UNL     1      -4.173   4.676   9.027  1.00  0.00     0.208 C 
ATOM     30  O   UNL     1      -4.041   5.386   7.880  1.00  0.00    -0.474 OA
ATOM     31  C   UNL     1      -5.626   4.705   6.216  1.00  0.00     0.056 C 
BRANCH  29  32
ATOM     32  C   UNL     1      -4.142   5.525  10.295  1.00  0.00     0.171 C 
BRANCH  32  33
ATOM     33  N   UNL     1      -3.532   4.795  11.395  1.00  0.00    -0.342 N 
ATOM     34  C   UNL     1      -3.819   5.062  12.712  1.00  0.00     0.246 CG0
ATOM     35  O   UNL     1      -4.591   5.951  13.062  1.00  0.00    -0.273 OA
ATOM     36  H   UNL     1      -2.835   4.077  11.225  1.00  0.00     0.164 HD
ATOM     37  G   UNL     1      -3.114   4.138  13.718  1.00  0.00     0.000 G0
ENDBRANCH  32  33
BRANCH  32  38
ATOM     38  C   UNL     1      -3.442   6.882  10.021  1.00  0.00     0.017 C 
ATOM     39  C   UNL     1      -4.197   8.016  10.726  1.00  0.00     0.010 C 
BRANCH  38  40
ATOM     40  C   UNL     1      -1.943   6.875  10.401  1.00  0.00     0.002 C 
ATOM     41  C   UNL     1      -1.117   7.906   9.643  1.00  0.00     0.004 C 
ENDBRANCH  38  40
ENDBRANCH  32  38
ENDBRANCH  29  32
ENDBRANCH  23  26
ENDBRANCH   1  22
TORSDOF 4
ENDMDL
MODEL 4
REMARK VINA RESULT:    -3.871      4.233      7.471
REMARK INTER + INTRA:          -8.352
REMARK INTER:                  -7.079
REMARK INTRA:                  -1.273
REMARK UNBOUND:                -1.765
REMARK SMILES CC[C@H](C)[C@@H]1NC(=O)[C@H]2CSC(=N2)[C@@H]([C@@H](C)CC)NC(=O)c2csc(n2)CNC(=O)[C@H]2N=C1O[C@@H]2C
REMARK SMILES IDX 27 1 25 2 22 3 26 4 23 5 24 6 20 7 19 8 21 9 14 11 12 12
REMARK SMILES IDX 11 13 10 14 13 15 9 16 15 18 16 19 17 20 18 21 28 22 29 23
REMARK SMILES IDX 30 24 31 26 32 27 35 28 33 29 34 30 36 31 5 32 6 33 7 34
REMARK SMILES IDX 8 35 3 38 4 39 2 40 1 41
REMARK H PARENT 19 10 28 25 6 36
REMARK Flexibility Score:   91.900
ROOT
ATOM      1  C   UNL     1      -0.207   2.744   9.838  1.00  0.00     0.183 C 
ENDROOT
BRANCH   1   2
ATOM      2  C   UNL     1       0.964   2.939   8.919  1.00  0.00     0.113 A 
ATOM      3  C   UNL     1       2.374   3.957   7.525  1.00  0.00     0.139 A 
ATOM      4  N   UNL     1       1.326   4.113   8.434  1.00  0.00    -0.234 NA
ATOM      5  C   UNL     1       2.822   2.658   7.386  1.00  0.00     0.101 A 
ATOM      6  S   UNL     1       1.907   1.607   8.388  1.00  0.00    -0.125 S 
BRANCH   3   7
ATOM      7  C   UNL     1       2.878   5.114   6.782  1.00  0.00     0.271 C 
ATOM      8  N   UNL     1       2.950   6.232   7.575  1.00  0.00    -0.341 N 
ATOM      9  O   UNL     1       3.165   5.086   5.592  1.00  0.00    -0.267 OA
ATOM     10  H   UNL     1       2.700   6.095   8.554  1.00  0.00     0.164 HD
BRANCH   8  11
ATOM     11  C   UNL     1       3.234   7.569   7.080  1.00  0.00     0.140 C 
BRANCH  11  12
ATOM     12  C   UNL     1       2.662   8.574   8.084  1.00  0.00     0.091 C 
ATOM     13  S   UNL     1       3.601   9.077   9.469  1.00  0.00    -0.106 SA
ATOM     14  C   UNL     1       2.419  10.399   9.807  1.00  0.00     0.113 C 
ATOM     15  N   UNL     1       1.451   9.026   7.989  1.00  0.00    -0.267 NA
ATOM     16  C   UNL     1       1.135   9.901   9.161  1.00  0.00     0.205 CG0
ATOM     17  G   UNL     1       0.267   9.153  10.186  1.00  0.00     0.000 G0
ENDBRANCH  11  12
BRANCH  11  18
ATOM     18  C   UNL     1       4.709   7.784   6.655  1.00  0.00     0.015 C 
ATOM     19  C   UNL     1       4.929   9.232   6.198  1.00  0.00     0.010 C 
BRANCH  18  20
ATOM     20  C   UNL     1       5.752   7.361   7.709  1.00  0.00     0.002 C 
ATOM     21  C   UNL     1       6.894   8.361   7.852  1.00  0.00     0.004 C 
ENDBRANCH  18  20
ENDBRANCH  11  18
ENDBRANCH   8  11
ENDBRANCH   3   7
ENDBRANCH   1   2
BRANCH   1  22
ATOM     22  N   UNL     1      -1.164   3.789   9.547  1.00  0.00    -0.348 N 
ATOM     23  C   UNL     1      -2.376   3.930  10.166  1.00  0.00     0.249 C 
ATOM     24  O   UNL     1      -2.740   3.224  11.100  1.00  0.00    -0.272 OA
ATOM     25  H   UNL     1      -0.971   4.420   8.770  1.00  0.00     0.163 HD
BRANCH  23  26
ATOM     26  C   UNL     1      -3.198   5.100   9.605  1.00  0.00     0.238 C 
ATOM     27  N   UNL     1      -3.214   6.209  10.599  1.00  0.00    -0.236 NA
ATOM     28  C   UNL     1      -2.572   5.686   8.352  1.00  0.00     0.206 C 
ATOM     29  C   UNL     1      -2.493   7.129  10.030  1.00  0.00     0.208 C 
ATOM     30  O   UNL     1      -1.972   6.901   8.799  1.00  0.00    -0.474 OA
ATOM     31  C   UNL     1      -3.604   6.018   7.283  1.00  0.00     0.056 C 
BRANCH  29  32
ATOM     32  C   UNL     1      -2.106   8.477  10.633  1.00  0.00     0.171 C 
BRANCH  32  33
ATOM     33  N   UNL     1      -1.094   9.136   9.823  1.00  0.00    -0.342 N 
ATOM     34  C   UNL     1       0.231   9.184  10.186  1.00  0.00     0.246 CG0
ATOM     35  O   UNL     1       0.657   8.698  11.230  1.00  0.00    -0.273 OA
ATOM     36  H   UNL     1      -1.342   9.623   8.968  1.00  0.00     0.164 HD
ATOM     37  G   UNL     1       1.147   9.876   9.163  1.00  0.00     0.000 G0
ENDBRANCH  32  33
BRANCH  32  38
ATOM     38  C   UNL     1      -3.364   9.358  10.846  1.00  0.00     0.017 C 
ATOM     39  C   UNL     1      -3.872   9.212  12.286  1.00  0.00     0.010 C 
BRANCH  38  40
ATOM     40  C   UNL     1      -3.133  10.840  10.472  1.00  0.00     0.002 C 
ATOM     41  C   UNL     1      -3.257  11.793  11.654  1.00  0.00     0.004 C 
ENDBRANCH  38  40
ENDBRANCH  32  38
ENDBRANCH  29  32
ENDBRANCH  23  26
ENDBRANCH   1  22
TORSDOF 4
ENDMDL
MODEL 5
REMARK VINA RESULT:    -3.673     17.208     21.174
REMARK INTER + INTRA:          -8.015
REMARK INTER:                  -6.984
REMARK INTRA:                  -1.031
REMARK UNBOUND:                -1.765
REMARK SMILES CC[C@H](C)[C@@H]1NC(=O)[C@H]2CSC(=N2)[C@@H]([C@@H](C)CC)NC(=O)c2csc(n2)CNC(=O)[C@H]2N=C1O[C@@H]2C
REMARK SMILES IDX 27 1 25 2 22 3 26 4 23 5 24 6 20 7 19 8 21 9 14 11 12 12
REMARK SMILES IDX 11 13 10 14 13 15 9 16 15 18 16 19 17 20 18 21 28 22 29 23
REMARK SMILES IDX 30 24 31 26 32 27 35 28 33 29 34 30 36 31 5 32 6 33 7 34
REMARK SMILES IDX 8 35 3 38 4 39 2 40 1 41
REMARK H PARENT 19 10 28 25 6 36
REMARK Flexibility Score:   91.900
ROOT
ATOM      1  C   UNL     1       6.069   0.174  -7.729  1.00  0.00     0.183 C 
ENDROOT
BRANCH   1   2
ATOM      2  C   UNL     1       5.186   1.105  -6.948  1.00  0.00     0.113 A 
ATOM      3  C   UNL     1       3.390   1.857  -5.863  1.00  0.00     0.139 A 
ATOM      4  N   UNL     1       4.026   0.749  -6.428  1.00  0.00    -0.234 NA
ATOM      5  C   UNL     1       4.122   3.026  -5.919  1.00  0.00     0.101 A 
ATOM      6  S   UNL     1       5.619   2.750  -6.712  1.00  0.00    -0.125 S 
BRANCH   3   7
ATOM      7  C   UNL     1       2.040   1.724  -5.312  1.00  0.00     0.271 C 
ATOM      8  N   UNL     1       1.873   0.525  -4.665  1.00  0.00    -0.341 N 
ATOM      9  O   UNL     1       1.164   2.570  -5.446  1.00  0.00    -0.267 OA
ATOM     10  H   UNL     1       2.701  -0.068  -4.614  1.00  0.00     0.164 HD
BRANCH   8  11
ATOM     11  C   UNL     1       0.595   0.029  -4.180  1.00  0.00     0.140 C 
BRANCH  11  12
ATOM     12  C   UNL     1       0.499  -1.456  -4.544  1.00  0.00     0.091 C 
ATOM     13  S   UNL     1       0.967  -2.684  -3.392  1.00  0.00    -0.106 SA
ATOM     14  C   UNL     1       0.225  -3.960  -4.431  1.00  0.00     0.113 C 
ATOM     15  N   UNL     1       0.143  -1.851  -5.725  1.00  0.00    -0.267 NA
ATOM     16  C   UNL     1       0.244  -3.342  -5.820  1.00  0.00     0.205 CG0
ATOM     17  G   UNL     1       1.511  -3.758  -6.584  1.00  0.00     0.000 G0
ENDBRANCH  11  12
BRANCH  11  18
ATOM     18  C   UNL     1       0.295   0.398  -2.704  1.00  0.00     0.015 C 
ATOM     19  C   UNL     1      -1.033  -0.228  -2.256  1.00  0.00     0.010 C 
BRANCH  18  20
ATOM     20  C   UNL     1       1.433   0.075  -1.715  1.00  0.00     0.002 C 
ATOM     21  C   UNL     1       0.942  -0.110  -0.283  1.00  0.00     0.004 C 
ENDBRANCH  18  20
ENDBRANCH  11  18
ENDBRANCH   8  11
ENDBRANCH   3   7
ENDBRANCH   1   2
BRANCH   1  22
ATOM     22  N   UNL     1       5.234  -0.505  -8.694  1.00  0.00    -0.348 N 
ATOM     23  C   UNL     1       4.972  -0.047  -9.957  1.00  0.00     0.249 C 
ATOM     24  O   UNL     1       5.493   0.957 -10.430  1.00  0.00    -0.272 OA
ATOM     25  H   UNL     1       4.732  -1.341  -8.398  1.00  0.00     0.163 HD
BRANCH  23  26
ATOM     26  C   UNL     1       4.006  -0.956 -10.731  1.00  0.00     0.238 C 
ATOM     27  N   UNL     1       4.128  -2.350 -10.222  1.00  0.00    -0.236 NA
ATOM     28  C   UNL     1       2.554  -0.567 -10.506  1.00  0.00     0.206 C 
ATOM     29  C   UNL     1       2.996  -2.546  -9.616  1.00  0.00     0.208 C 
ATOM     30  O   UNL     1       2.065  -1.560  -9.606  1.00  0.00    -0.474 OA
ATOM     31  C   UNL     1       1.730  -0.621 -11.785  1.00  0.00     0.056 C 
BRANCH  29  32
ATOM     32  C   UNL     1       2.592  -3.794  -8.835  1.00  0.00     0.171 C 
BRANCH  32  33
ATOM     33  N   UNL     1       1.479  -3.511  -7.942  1.00  0.00    -0.342 N 
ATOM     34  C   UNL     1       1.526  -3.774  -6.594  1.00  0.00     0.246 CG0
ATOM     35  O   UNL     1       2.496  -4.291  -6.045  1.00  0.00    -0.273 OA
ATOM     36  H   UNL     1       0.605  -3.138  -8.296  1.00  0.00     0.164 HD
ATOM     37  G   UNL     1       0.270  -3.346  -5.818  1.00  0.00     0.000 G0
ENDBRANCH  32  33
BRANCH  32  38
ATOM     38  C   UNL     1       2.291  -4.967  -9.805  1.00  0.00     0.017 C 
ATOM     39  C   UNL     1       2.357  -6.303  -9.053  1.00  0.00     0.010 C 
BRANCH  38  40
ATOM     40  C   UNL     1       0.949  -4.802 -10.555  1.00  0.00     0.002 C 
ATOM     41  C   UNL     1       0.949  -5.417 -11.948  1.00  0.00     0.004 C 
ENDBRANCH  38  40
ENDBRANCH  32  38
ENDBRANCH  29  32
ENDBRANCH  23  26
ENDBRANCH   1  22
TORSDOF 4
ENDMDL
MODEL 6
REMARK VINA RESULT:    -3.606     16.258     20.195
REMARK INTER + INTRA:          -7.901
REMARK INTER:                  -7.206
REMARK INTRA:                  -0.695
REMARK UNBOUND:                -1.765
REMARK SMILES CC[C@H](C)[C@@H]1NC(=O)[C@H]2CSC(=N2)[C@@H]([C@@H](C)CC)NC(=O)c2csc(n2)CNC(=O)[C@H]2N=C1O[C@@H]2C
REMARK SMILES IDX 27 1 25 2 22 3 26 4 23 5 24 6 20 7 19 8 21 9 14 11 12 12
REMARK SMILES IDX 11 13 10 14 13 15 9 16 15 18 16 19 17 20 18 21 28 22 29 23
REMARK SMILES IDX 30 24 31 26 32 27 35 28 33 29 34 30 36 31 5 32 6 33 7 34
REMARK SMILES IDX 8 35 3 38 4 39 2 40 1 41
REMARK H PARENT 19 10 28 25 6 36
REMARK Flexibility Score:   91.900
ROOT
ATOM      1  C   UNL     1      -1.164  -7.571  -5.022  1.00  0.00     0.183 C 
ENDROOT
BRANCH   1   2
ATOM      2  C   UNL     1      -0.152  -7.197  -6.067  1.00  0.00     0.113 A 
ATOM      3  C   UNL     1       1.117  -5.917  -7.377  1.00  0.00     0.139 A 
ATOM      4  N   UNL     1       0.269  -5.962  -6.268  1.00  0.00    -0.234 NA
ATOM      5  C   UNL     1       1.364  -7.145  -7.958  1.00  0.00     0.101 A 
ATOM      6  S   UNL     1       0.506  -8.376  -7.126  1.00  0.00    -0.125 S 
BRANCH   3   7
ATOM      7  C   UNL     1       1.631  -4.631  -7.854  1.00  0.00     0.271 C 
ATOM      8  N   UNL     1       0.654  -3.666  -7.858  1.00  0.00    -0.341 N 
ATOM      9  O   UNL     1       2.783  -4.457  -8.232  1.00  0.00    -0.267 OA
ATOM     10  H   UNL     1      -0.252  -3.954  -7.492  1.00  0.00     0.164 HD
BRANCH   8  11
ATOM     11  C   UNL     1       0.811  -2.347  -8.450  1.00  0.00     0.140 C 
BRANCH  11  12
ATOM     12  C   UNL     1       1.274  -1.390  -7.349  1.00  0.00     0.091 C 
ATOM     13  S   UNL     1       2.954  -1.330  -6.872  1.00  0.00    -0.106 SA
ATOM     14  C   UNL     1       2.645   0.174  -5.922  1.00  0.00     0.113 C 
ATOM     15  N   UNL     1       0.440  -0.652  -6.686  1.00  0.00    -0.267 NA
ATOM     16  C   UNL     1       1.160   0.096  -5.607  1.00  0.00     0.205 CG0
ATOM     17  G   UNL     1       0.929  -0.562  -4.237  1.00  0.00     0.000 G0
ENDBRANCH  11  12
BRANCH  11  18
ATOM     18  C   UNL     1       1.638  -2.340  -9.762  1.00  0.00     0.015 C 
ATOM     19  C   UNL     1       0.841  -2.987 -10.901  1.00  0.00     0.010 C 
BRANCH  18  20
ATOM     20  C   UNL     1       2.185  -0.957 -10.171  1.00  0.00     0.002 C 
ATOM     21  C   UNL     1       1.956  -0.639 -11.644  1.00  0.00     0.004 C 
ENDBRANCH  18  20
ENDBRANCH  11  18
ENDBRANCH   8  11
ENDBRANCH   3   7
ENDBRANCH   1   2
BRANCH   1  22
ATOM     22  N   UNL     1      -1.829  -6.355  -4.609  1.00  0.00    -0.348 N 
ATOM     23  C   UNL     1      -2.186  -6.061  -3.321  1.00  0.00     0.249 C 
ATOM     24  O   UNL     1      -1.899  -6.772  -2.365  1.00  0.00    -0.272 OA
ATOM     25  H   UNL     1      -2.134  -5.701  -5.329  1.00  0.00     0.163 HD
BRANCH  23  26
ATOM     26  C   UNL     1      -2.928  -4.721  -3.200  1.00  0.00     0.238 C 
ATOM     27  N   UNL     1      -2.137  -3.798  -2.339  1.00  0.00    -0.236 NA
ATOM     28  C   UNL     1      -3.053  -4.017  -4.541  1.00  0.00     0.206 C 
ATOM     29  C   UNL     1      -1.722  -2.893  -3.174  1.00  0.00     0.208 C 
ATOM     30  O   UNL     1      -2.079  -2.977  -4.479  1.00  0.00    -0.474 OA
ATOM     31  C   UNL     1      -4.425  -3.387  -4.744  1.00  0.00     0.056 C 
BRANCH  29  32
ATOM     32  C   UNL     1      -0.796  -1.723  -2.853  1.00  0.00     0.171 C 
BRANCH  32  33
ATOM     33  N   UNL     1      -0.371  -1.048  -4.070  1.00  0.00    -0.342 N 
ATOM     34  C   UNL     1       0.895  -0.538  -4.230  1.00  0.00     0.246 CG0
ATOM     35  O   UNL     1       1.754  -0.588  -3.353  1.00  0.00    -0.273 OA
ATOM     36  H   UNL     1      -1.016  -0.897  -4.838  1.00  0.00     0.164 HD
ATOM     37  G   UNL     1       1.161   0.083  -5.611  1.00  0.00     0.000 G0
ENDBRANCH  32  33
BRANCH  32  38
ATOM     38  C   UNL     1      -1.472  -0.758  -1.843  1.00  0.00     0.017 C 
ATOM     39  C   UNL     1      -2.966  -1.081  -1.725  1.00  0.00     0.010 C 
BRANCH  38  40
ATOM     40  C   UNL     1      -0.779  -0.751  -0.461  1.00  0.00     0.002 C 
ATOM     41  C   UNL     1      -0.901  -2.072   0.288  1.00  0.00     0.004 C 
ENDBRANCH  38  40
ENDBRANCH  32  38
ENDBRANCH  29  32
ENDBRANCH  23  26
ENDBRANCH   1  22
TORSDOF 4
ENDMDL
MODEL 7
REMARK VINA RESULT:    -3.577      9.270     13.065
REMARK INTER + INTRA:          -7.852
REMARK INTER:                  -5.996
REMARK INTRA:                  -1.856
REMARK UNBOUND:                -1.765
REMARK SMILES CC[C@H](C)[C@@H]1NC(=O)[C@H]2CSC(=N2)[C@@H]([C@@H](C)CC)NC(=O)c2csc(n2)CNC(=O)[C@H]2N=C1O[C@@H]2C
REMARK SMILES IDX 27 1 25 2 22 3 26 4 23 5 24 6 20 7 19 8 21 9 14 11 12 12
REMARK SMILES IDX 11 13 10 14 13 15 9 16 15 18 16 19 17 20 18 21 28 22 29 23
REMARK SMILES IDX 30 24 31 26 32 27 35 28 33 29 34 30 36 31 5 32 6 33 7 34
REMARK SMILES IDX 8 35 3 38 4 39 2 40 1 41
REMARK H PARENT 19 10 28 25 6 36
REMARK Flexibility Score:   91.900
ROOT
ATOM      1  C   UNL     1       8.552   3.965   3.517  1.00  0.00     0.183 C 
ENDROOT
BRANCH   1   2
ATOM      2  C   UNL     1       7.913   3.907   2.159  1.00  0.00     0.113 A 
ATOM      3  C   UNL     1       6.661   4.507   0.416  1.00  0.00     0.139 A 
ATOM      4  N   UNL     1       7.222   4.901   1.632  1.00  0.00    -0.234 NA
ATOM      5  C   UNL     1       6.993   3.226   0.021  1.00  0.00     0.101 A 
ATOM      6  S   UNL     1       8.004   2.488   1.196  1.00  0.00    -0.125 S 
BRANCH   3   7
ATOM      7  C   UNL     1       5.767   5.414  -0.307  1.00  0.00     0.271 C 
ATOM      8  N   UNL     1       5.628   6.614   0.346  1.00  0.00    -0.341 N 
ATOM      9  O   UNL     1       5.191   5.117  -1.346  1.00  0.00    -0.267 OA
ATOM     10  H   UNL     1       6.190   6.725   1.190  1.00  0.00     0.164 HD
BRANCH   8  11
ATOM     11  C   UNL     1       4.668   7.641  -0.026  1.00  0.00     0.140 C 
BRANCH  11  12
ATOM     12  C   UNL     1       3.479   7.541   0.934  1.00  0.00     0.091 C 
ATOM     13  S   UNL     1       2.160   8.684   0.834  1.00  0.00    -0.106 SA
ATOM     14  C   UNL     1       1.173   7.661   1.948  1.00  0.00     0.113 C 
ATOM     15  N   UNL     1       3.440   6.667   1.891  1.00  0.00    -0.267 NA
ATOM     16  C   UNL     1       2.217   6.876   2.728  1.00  0.00     0.205 CG0
ATOM     17  G   UNL     1       2.567   7.593   4.041  1.00  0.00     0.000 G0
ENDBRANCH  11  12
BRANCH  11  18
ATOM     18  C   UNL     1       5.290   9.049  -0.209  1.00  0.00     0.015 C 
ATOM     19  C   UNL     1       6.155   9.414   1.005  1.00  0.00     0.010 C 
BRANCH  18  20
ATOM     20  C   UNL     1       6.061   9.246  -1.530  1.00  0.00     0.002 C 
ATOM     21  C   UNL     1       7.057  10.399  -1.471  1.00  0.00     0.004 C 
ENDBRANCH  18  20
ENDBRANCH  11  18
ENDBRANCH   8  11
ENDBRANCH   3   7
ENDBRANCH   1   2
BRANCH   1  22
ATOM     22  N   UNL     1       8.200   5.238   4.106  1.00  0.00    -0.348 N 
ATOM     23  C   UNL     1       8.117   5.479   5.450  1.00  0.00     0.249 C 
ATOM     24  O   UNL     1       8.418   4.649   6.302  1.00  0.00    -0.272 OA
ATOM     25  H   UNL     1       7.909   5.994   3.487  1.00  0.00     0.163 HD
BRANCH  23  26
ATOM     26  C   UNL     1       7.666   6.912   5.772  1.00  0.00     0.238 C 
ATOM     27  N   UNL     1       6.350   7.170   5.125  1.00  0.00    -0.236 NA
ATOM     28  C   UNL     1       7.435   7.115   7.260  1.00  0.00     0.206 C 
ATOM     29  C   UNL     1       5.533   7.247   6.133  1.00  0.00     0.208 C 
ATOM     30  O   UNL     1       6.014   7.112   7.393  1.00  0.00    -0.474 OA
ATOM     31  C   UNL     1       7.967   8.452   7.757  1.00  0.00     0.056 C 
BRANCH  29  32
ATOM     32  C   UNL     1       4.019   7.431   6.058  1.00  0.00     0.171 C 
BRANCH  32  33
ATOM     33  N   UNL     1       3.493   6.903   4.809  1.00  0.00    -0.342 N 
ATOM     34  C   UNL     1       2.578   7.585   4.043  1.00  0.00     0.246 CG0
ATOM     35  O   UNL     1       2.116   8.677   4.365  1.00  0.00    -0.273 OA
ATOM     36  H   UNL     1       3.760   5.983   4.475  1.00  0.00     0.164 HD
ATOM     37  G   UNL     1       2.194   6.881   2.732  1.00  0.00     0.000 G0
ENDBRANCH  32  33
BRANCH  32  38
ATOM     38  C   UNL     1       3.335   6.807   7.303  1.00  0.00     0.017 C 
ATOM     39  C   UNL     1       2.352   7.809   7.921  1.00  0.00     0.010 C 
BRANCH  38  40
ATOM     40  C   UNL     1       2.654   5.453   7.000  1.00  0.00     0.002 C 
ATOM     41  C   UNL     1       1.177   5.418   7.371  1.00  0.00     0.004 C 
ENDBRANCH  38  40
ENDBRANCH  32  38
ENDBRANCH  29  32
ENDBRANCH  23  26
ENDBRANCH   1  22
TORSDOF 4
ENDMDL
MODEL 8
REMARK VINA RESULT:    -3.568     12.308     15.149
REMARK INTER + INTRA:          -7.837
REMARK INTER:                  -5.847
REMARK INTRA:                  -1.990
REMARK UNBOUND:                -1.765
REMARK SMILES CC[C@H](C)[C@@H]1NC(=O)[C@H]2CSC(=N2)[C@@H]([C@@H](C)CC)NC(=O)c2csc(n2)CNC(=O)[C@H]2N=C1O[C@@H]2C
REMARK SMILES IDX 27 1 25 2 22 3 26 4 23 5 24 6 20 7 19 8 21 9 14 11 12 12
REMARK SMILES IDX 11 13 10 14 13 15 9 16 15 18 16 19 17 20 18 21 28 22 29 23
REMARK SMILES IDX 30 24 31 26 32 27 35 28 33 29 34 30 36 31 5 32 6 33 7 34
REMARK SMILES IDX 8 35 3 38 4 39 2 40 1 41
REMARK H PARENT 19 10 28 25 6 36
REMARK Flexibility Score:   91.900
ROOT
ATOM      1  C   UNL     1      -5.123  -8.999   1.683  1.00  0.00     0.183 C 
ENDROOT
BRANCH   1   2
ATOM      2  C   UNL     1      -4.183  -9.130   2.847  1.00  0.00     0.113 A 
ATOM      3  C   UNL     1      -2.337  -8.893   4.074  1.00  0.00     0.139 A 
ATOM      4  N   UNL     1      -3.038  -8.479   2.939  1.00  0.00    -0.234 NA
ATOM      5  C   UNL     1      -3.006  -9.817   4.853  1.00  0.00     0.101 A 
ATOM      6  S   UNL     1      -4.524 -10.197   4.148  1.00  0.00    -0.125 S 
BRANCH   3   7
ATOM      7  C   UNL     1      -0.990  -8.380   4.331  1.00  0.00     0.271 C 
ATOM      8  N   UNL     1      -0.991  -7.434   5.326  1.00  0.00    -0.341 N 
ATOM      9  O   UNL     1       0.003  -8.733   3.708  1.00  0.00    -0.267 OA
ATOM     10  H   UNL     1      -1.892  -7.261   5.770  1.00  0.00     0.164 HD
BRANCH   8  11
ATOM     11  C   UNL     1       0.158  -6.614   5.674  1.00  0.00     0.140 C 
BRANCH  11  12
ATOM     12  C   UNL     1      -0.119  -5.187   5.190  1.00  0.00     0.091 C 
ATOM     13  S   UNL     1      -0.515  -3.924   6.332  1.00  0.00    -0.106 SA
ATOM     14  C   UNL     1      -0.303  -2.676   5.044  1.00  0.00     0.113 C 
ATOM     15  N   UNL     1      -0.144  -4.882   3.931  1.00  0.00    -0.267 NA
ATOM     16  C   UNL     1      -0.544  -3.450   3.757  1.00  0.00     0.205 CG0
ATOM     17  G   UNL     1      -2.015  -3.341   3.323  1.00  0.00     0.000 G0
ENDBRANCH  11  12
BRANCH  11  18
ATOM     18  C   UNL     1       0.616  -6.764   7.148  1.00  0.00     0.015 C 
ATOM     19  C   UNL     1      -0.286  -7.759   7.890  1.00  0.00     0.010 C 
BRANCH  18  20
ATOM     20  C   UNL     1       2.108  -7.115   7.326  1.00  0.00     0.002 C 
ATOM     21  C   UNL     1       2.483  -8.454   6.700  1.00  0.00     0.004 C 
ENDBRANCH  18  20
ENDBRANCH  11  18
ENDBRANCH   8  11
ENDBRANCH   3   7
ENDBRANCH   1   2
BRANCH   1  22
ATOM     22  N   UNL     1      -4.678  -7.873   0.892  1.00  0.00    -0.348 N 
ATOM     23  C   UNL     1      -5.466  -7.176   0.017  1.00  0.00     0.249 C 
ATOM     24  O   UNL     1      -6.666  -7.387  -0.123  1.00  0.00    -0.272 OA
ATOM     25  H   UNL     1      -3.690  -7.624   0.916  1.00  0.00     0.163 HD
BRANCH  23  26
ATOM     26  C   UNL     1      -4.700  -6.067  -0.720  1.00  0.00     0.238 C 
ATOM     27  N   UNL     1      -4.980  -4.759  -0.065  1.00  0.00    -0.236 NA
ATOM     28  C   UNL     1      -3.196  -6.256  -0.626  1.00  0.00     0.206 C 
ATOM     29  C   UNL     1      -3.843  -4.453   0.486  1.00  0.00     0.208 C 
ATOM     30  O   UNL     1      -2.785  -5.287   0.338  1.00  0.00    -0.474 OA
ATOM     31  C   UNL     1      -2.487  -5.964  -1.941  1.00  0.00     0.056 C 
BRANCH  29  32
ATOM     32  C   UNL     1      -3.561  -3.235   1.362  1.00  0.00     0.171 C 
BRANCH  32  33
ATOM     33  N   UNL     1      -2.235  -3.317   1.953  1.00  0.00    -0.342 N 
ATOM     34  C   UNL     1      -2.027  -3.301   3.312  1.00  0.00     0.246 CG0
ATOM     35  O   UNL     1      -2.938  -3.192   4.128  1.00  0.00    -0.273 OA
ATOM     36  H   UNL     1      -1.404  -3.351   1.373  1.00  0.00     0.164 HD
ATOM     37  G   UNL     1      -0.557  -3.457   3.733  1.00  0.00     0.000 G0
ENDBRANCH  32  33
BRANCH  32  38
ATOM     38  C   UNL     1      -3.774  -1.926   0.556  1.00  0.00     0.017 C 
ATOM     39  C   UNL     1      -4.289  -0.817   1.482  1.00  0.00     0.010 C 
BRANCH  38  40
ATOM     40  C   UNL     1      -2.511  -1.483  -0.217  1.00  0.00     0.002 C 
ATOM     41  C   UNL     1      -2.673  -1.538  -1.730  1.00  0.00     0.004 C 
ENDBRANCH  38  40
ENDBRANCH  32  38
ENDBRANCH  29  32
ENDBRANCH  23  26
ENDBRANCH   1  22
TORSDOF 4
ENDMDL
MODEL 9
REMARK VINA RESULT:    -3.422      9.983     10.944
REMARK INTER + INTRA:          -7.588
REMARK INTER:                  -6.400
REMARK INTRA:                  -1.188
REMARK UNBOUND:                -1.765
REMARK SMILES CC[C@H](C)[C@@H]1NC(=O)[C@H]2CSC(=N2)[C@@H]([C@@H](C)CC)NC(=O)c2csc(n2)CNC(=O)[C@H]2N=C1O[C@@H]2C
REMARK SMILES IDX 27 1 25 2 22 3 26 4 23 5 24 6 20 7 19 8 21 9 14 11 12 12
REMARK SMILES IDX 11 13 10 14 13 15 9 16 15 18 16 19 17 20 18 21 28 22 29 23
REMARK SMILES IDX 30 24 31 26 32 27 35 28 33 29 34 30 36 31 5 32 6 33 7 34
REMARK SMILES IDX 8 35 3 38 4 39 2 40 1 41
REMARK H PARENT 19 10 28 25 6 36
REMARK Flexibility Score:   91.900
ROOT
ATOM      1  C   UNL     1       0.602  -2.010   4.885  1.00  0.00     0.183 C 
ENDROOT
BRANCH   1   2
ATOM      2  C   UNL     1      -0.673  -2.414   5.567  1.00  0.00     0.113 A 
ATOM      3  C   UNL     1      -2.079  -2.952   7.211  1.00  0.00     0.139 A 
ATOM      4  N   UNL     1      -0.831  -2.422   6.878  1.00  0.00    -0.234 NA
ATOM      5  C   UNL     1      -2.868  -3.282   6.127  1.00  0.00     0.101 A 
ATOM      6  S   UNL     1      -2.032  -2.951   4.665  1.00  0.00    -0.125 S 
BRANCH   3   7
ATOM      7  C   UNL     1      -2.439  -3.152   8.617  1.00  0.00     0.271 C 
ATOM      8  N   UNL     1      -1.796  -4.240   9.153  1.00  0.00    -0.341 N 
ATOM      9  O   UNL     1      -3.241  -2.451   9.220  1.00  0.00    -0.267 OA
ATOM     10  H   UNL     1      -1.138  -4.713   8.535  1.00  0.00     0.164 HD
BRANCH   8  11
ATOM     11  C   UNL     1      -2.089  -4.799  10.463  1.00  0.00     0.140 C 
BRANCH  11  12
ATOM     12  C   UNL     1      -1.243  -4.048  11.495  1.00  0.00     0.091 C 
ATOM     13  S   UNL     1      -1.928  -2.726  12.411  1.00  0.00    -0.106 SA
ATOM     14  C   UNL     1      -0.495  -2.728  13.510  1.00  0.00     0.113 C 
ATOM     15  N   UNL     1       0.014  -4.308  11.673  1.00  0.00    -0.267 NA
ATOM     16  C   UNL     1       0.603  -3.349  12.660  1.00  0.00     0.205 CG0
ATOM     17  G   UNL     1       1.420  -2.260  11.947  1.00  0.00     0.000 G0
ENDBRANCH  11  12
BRANCH  11  18
ATOM     18  C   UNL     1      -3.603  -4.921  10.771  1.00  0.00     0.015 C 
ATOM     19  C   UNL     1      -4.301  -5.771   9.700  1.00  0.00     0.010 C 
BRANCH  18  20
ATOM     20  C   UNL     1      -3.934  -5.423  12.192  1.00  0.00     0.002 C 
ATOM     21  C   UNL     1      -3.869  -6.942  12.317  1.00  0.00     0.004 C 
ENDBRANCH  18  20
ENDBRANCH  11  18
ENDBRANCH   8  11
ENDBRANCH   3   7
ENDBRANCH   1   2
BRANCH   1  22
ATOM     22  N   UNL     1       1.697  -2.435   5.727  1.00  0.00    -0.348 N 
ATOM     23  C   UNL     1       2.660  -1.605   6.233  1.00  0.00     0.249 C 
ATOM     24  O   UNL     1       2.641  -0.388   6.089  1.00  0.00    -0.272 OA
ATOM     25  H   UNL     1       1.821  -3.433   5.894  1.00  0.00     0.163 HD
BRANCH  23  26
ATOM     26  C   UNL     1       3.725  -2.354   7.047  1.00  0.00     0.238 C 
ATOM     27  N   UNL     1       4.065  -1.560   8.261  1.00  0.00    -0.236 NA
ATOM     28  C   UNL     1       3.212  -3.688   7.564  1.00  0.00     0.206 C 
ATOM     29  C   UNL     1       3.576  -2.275   9.230  1.00  0.00     0.208 C 
ATOM     30  O   UNL     1       2.960  -3.449   8.948  1.00  0.00    -0.474 OA
ATOM     31  C   UNL     1       4.247  -4.799   7.443  1.00  0.00     0.056 C 
BRANCH  29  32
ATOM     32  C   UNL     1       3.568  -1.905  10.711  1.00  0.00     0.171 C 
BRANCH  32  33
ATOM     33  N   UNL     1       2.644  -2.749  11.452  1.00  0.00    -0.342 N 
ATOM     34  C   UNL     1       1.454  -2.282  11.955  1.00  0.00     0.246 CG0
ATOM     35  O   UNL     1       1.091  -1.114  11.840  1.00  0.00    -0.273 OA
ATOM     36  H   UNL     1       2.868  -3.717  11.657  1.00  0.00     0.164 HD
ATOM     37  G   UNL     1       0.595  -3.348  12.655  1.00  0.00     0.000 G0
ENDBRANCH  32  33
BRANCH  32  38
ATOM     38  C   UNL     1       5.007  -1.949  11.288  1.00  0.00     0.017 C 
ATOM     39  C   UNL     1       5.117  -1.015  12.500  1.00  0.00     0.010 C 
BRANCH  38  40
ATOM     40  C   UNL     1       5.477  -3.382  11.630  1.00  0.00     0.002 C 
ATOM     41  C   UNL     1       6.485  -3.946  10.638  1.00  0.00     0.004 C 
ENDBRANCH  38  40
ENDBRANCH  32  38
ENDBRANCH  29  32
ENDBRANCH  23  26
ENDBRANCH   1  22
TORSDOF 4
ENDMDL
MODEL 10
REMARK VINA RESULT:    -3.350      7.365     10.300
REMARK INTER + INTRA:          -7.465
REMARK INTER:                  -5.577
REMARK INTRA:                  -1.888
REMARK UNBOUND:                -1.765
REMARK SMILES CC[C@H](C)[C@@H]1NC(=O)[C@H]2CSC(=N2)[C@@H]([C@@H](C)CC)NC(=O)c2csc(n2)CNC(=O)[C@H]2N=C1O[C@@H]2C
REMARK SMILES IDX 27 1 25 2 22 3 26 4 23 5 24 6 20 7 19 8 21 9 14 11 12 12
REMARK SMILES IDX 11 13 10 14 13 15 9 16 15 18 16 19 17 20 18 21 28 22 29 23
REMARK SMILES IDX 30 24 31 26 32 27 35 28 33 29 34 30 36 31 5 32 6 33 7 34
REMARK SMILES IDX 8 35 3 38 4 39 2 40 1 41
REMARK H PARENT 19 10 28 25 6 36
REMARK Flexibility Score:   91.900
ROOT
ATOM      1  C   UNL     1      -2.134  -0.598   8.174  1.00  0.00     0.183 C 
ENDROOT
BRANCH   1   2
ATOM      2  C   UNL     1      -2.943  -1.672   7.506  1.00  0.00     0.113 A 
ATOM      3  C   UNL     1      -4.319  -3.410   7.281  1.00  0.00     0.139 A 
ATOM      4  N   UNL     1      -3.813  -2.434   8.142  1.00  0.00    -0.234 NA
ATOM      5  C   UNL     1      -3.856  -3.324   5.983  1.00  0.00     0.101 A 
ATOM      6  S   UNL     1      -2.750  -2.019   5.836  1.00  0.00    -0.125 S 
BRANCH   3   7
ATOM      7  C   UNL     1      -5.230  -4.437   7.792  1.00  0.00     0.271 C 
ATOM      8  N   UNL     1      -5.547  -4.222   9.110  1.00  0.00    -0.341 N 
ATOM      9  O   UNL     1      -5.628  -5.385   7.127  1.00  0.00    -0.267 OA
ATOM     10  H   UNL     1      -5.158  -3.375   9.524  1.00  0.00     0.164 HD
BRANCH   8  11
ATOM     11  C   UNL     1      -6.276  -5.167   9.940  1.00  0.00     0.140 C 
BRANCH  11  12
ATOM     12  C   UNL     1      -5.315  -5.690  11.011  1.00  0.00     0.091 C 
ATOM     13  S   UNL     1      -5.930  -6.421  12.475  1.00  0.00    -0.106 SA
ATOM     14  C   UNL     1      -4.276  -7.015  12.889  1.00  0.00     0.113 C 
ATOM     15  N   UNL     1      -4.031  -5.547  10.911  1.00  0.00    -0.267 NA
ATOM     16  C   UNL     1      -3.359  -6.055  12.148  1.00  0.00     0.205 CG0
ATOM     17  G   UNL     1      -2.937  -4.892  13.061  1.00  0.00     0.000 G0
ENDBRANCH  11  12
BRANCH  11  18
ATOM     18  C   UNL     1      -7.645  -4.640  10.441  1.00  0.00     0.015 C 
ATOM     19  C   UNL     1      -7.619  -3.110  10.561  1.00  0.00     0.010 C 
BRANCH  18  20
ATOM     20  C   UNL     1      -8.860  -5.120   9.621  1.00  0.00     0.002 C 
ATOM     21  C   UNL     1      -8.634  -6.475   8.960  1.00  0.00     0.004 C 
ENDBRANCH  18  20
ENDBRANCH  11  18
ENDBRANCH   8  11
ENDBRANCH   3   7
ENDBRANCH   1   2
BRANCH   1  22
ATOM     22  N   UNL     1      -2.513  -0.575   9.569  1.00  0.00    -0.348 N 
ATOM     23  C   UNL     1      -3.539   0.168  10.086  1.00  0.00     0.249 C 
ATOM     24  O   UNL     1      -4.302   0.833   9.394  1.00  0.00    -0.272 OA
ATOM     25  H   UNL     1      -1.930  -1.077  10.238  1.00  0.00     0.163 HD
BRANCH  23  26
ATOM     26  C   UNL     1      -3.665   0.030  11.610  1.00  0.00     0.238 C 
ATOM     27  N   UNL     1      -3.549  -1.407  11.984  1.00  0.00    -0.236 NA
ATOM     28  C   UNL     1      -2.534   0.733  12.341  1.00  0.00     0.206 C 
ATOM     29  C   UNL     1      -2.407  -1.462  12.601  1.00  0.00     0.208 C 
ATOM     30  O   UNL     1      -1.680  -0.329  12.760  1.00  0.00    -0.474 OA
ATOM     31  C   UNL     1      -3.014   1.487  13.574  1.00  0.00     0.056 C 
BRANCH  29  32
ATOM     32  C   UNL     1      -1.733  -2.719  13.147  1.00  0.00     0.171 C 
BRANCH  32  33
ATOM     33  N   UNL     1      -2.202  -3.905  12.447  1.00  0.00    -0.342 N 
ATOM     34  C   UNL     1      -2.919  -4.898  13.070  1.00  0.00     0.246 CG0
ATOM     35  O   UNL     1      -3.197  -4.874  14.266  1.00  0.00    -0.273 OA
ATOM     36  H   UNL     1      -1.980  -4.058  11.469  1.00  0.00     0.164 HD
ATOM     37  G   UNL     1      -3.370  -6.036  12.141  1.00  0.00     0.000 G0
ENDBRANCH  32  33
BRANCH  32  38
ATOM     38  C   UNL     1      -0.190  -2.571  13.099  1.00  0.00     0.017 C 
ATOM     39  C   UNL     1       0.415  -2.923  14.464  1.00  0.00     0.010 C 
BRANCH  38  40
ATOM     40  C   UNL     1       0.459  -3.392  11.961  1.00  0.00     0.002 C 
ATOM     41  C   UNL     1       1.193  -2.537  10.936  1.00  0.00     0.004 C 
ENDBRANCH  38  40
ENDBRANCH  32  38
ENDBRANCH  29  32
ENDBRANCH  23  26
ENDBRANCH   1  22
TORSDOF 4
ENDMDL
