MODEL 1
REMARK VINA RESULT:    -6.179      0.000      0.000
REMARK INTER + INTRA:         -20.476
REMARK INTER:                 -15.391
REMARK INTRA:                  -5.085
REMARK UNBOUND:                -5.085
REMARK SMILES CCCCCCC[C@H](N)[C@H](O)C(=O)N[C@H](C)C(=O)N(C)[C@H](CC(C)C)C(=O)N[C@@H](Cc1ccc(O)cc1)C(=O)N[C@@H](Cc1ccc(O)cc1)C(=O)O
REMARK SMILES IDX 18 1 17 2 15 3 16 4 14 5 12 6 13 7 10 9 11 10 8 12 9 13 7 16
REMARK SMILES IDX 6 17 5 18 4 19 3 20 2 21 1 22 19 23 20 24 21 25 22 26 23 27
REMARK SMILES IDX 24 28 25 29 26 30 27 31 28 32 29 34 30 35 31 36 32 37 37 38
REMARK SMILES IDX 33 39 36 40 34 41 35 42 38 44 39 45 40 46 41 48 42 49 43 50
REMARK SMILES IDX 44 51 49 52 45 53 48 54 46 55 47 56 50 58 51 59 52 60
REMARK H PARENT 14 8 11 11 9 14 9 15 28 33 35 43 40 47 47 57 52 61
ROOT
ATOM      1  O   UNL     1      13.833   2.508  12.840  1.00  0.00    -0.272 OA
ATOM      2  C   UNL     1      14.095   3.329  11.948  1.00  0.00     0.245 C 
ENDROOT
BRANCH   2   3
ATOM      3  C   UNL     1      15.489   3.274  11.276  1.00  0.00     0.168 C 
ATOM      4  C   UNL     1      16.597   3.333  12.322  1.00  0.00     0.041 C 
BRANCH   3   5
ATOM      5  N   UNL     1      15.678   2.169  10.349  1.00  0.00    -0.342 N 
ATOM      6  C   UNL     1      15.611   2.345   8.983  1.00  0.00     0.251 C 
ATOM      7  O   UNL     1      15.351   3.420   8.452  1.00  0.00    -0.272 OA
ATOM      8  H   UNL     1      15.865   1.223  10.673  1.00  0.00     0.164 HD
BRANCH   6   9
ATOM      9  C   UNL     1      15.982   1.075   8.201  1.00  0.00     0.219 C 
BRANCH   9  10
ATOM     10  O   UNL     1      15.375   1.028   6.904  1.00  0.00    -0.382 OA
ATOM     11  H   UNL     1      16.033   1.471   6.324  1.00  0.00     0.211 HD
ENDBRANCH   9  10
BRANCH   9  12
ATOM     12  C   UNL     1      17.513   0.846   8.101  1.00  0.00     0.089 C 
BRANCH  12  13
ATOM     13  N   UNL     1      18.199   1.993   8.739  1.00  0.00    -0.325 NA
ATOM     14  H   UNL     1      17.886   2.860   8.297  1.00  0.00     0.119 HD
ATOM     15  H   UNL     1      19.199   1.936   8.534  1.00  0.00     0.119 HD
ENDBRANCH  12  13
BRANCH  12  16
ATOM     16  C   UNL     1      18.040  -0.483   8.692  1.00  0.00     0.022 C 
BRANCH  16  17
ATOM     17  C   UNL     1      17.037  -1.500   9.253  1.00  0.00     0.002 C 
BRANCH  17  18
ATOM     18  C   UNL     1      17.022  -1.618  10.776  1.00  0.00     0.000 C 
BRANCH  18  19
ATOM     19  C   UNL     1      15.710  -2.173  11.347  1.00  0.00    -0.000 C 
BRANCH  19  20
ATOM     20  C   UNL     1      14.445  -1.756  10.593  1.00  0.00    -0.000 C 
BRANCH  20  21
ATOM     21  C   UNL     1      13.510  -0.878  11.430  1.00  0.00    -0.003 C 
ATOM     22  C   UNL     1      13.650  -1.177  12.914  1.00  0.00     0.004 C 
ENDBRANCH  20  21
ENDBRANCH  19  20
ENDBRANCH  18  19
ENDBRANCH  17  18
ENDBRANCH  16  17
ENDBRANCH  12  16
ENDBRANCH   9  12
ENDBRANCH   6   9
ENDBRANCH   3   5
ENDBRANCH   2   3
BRANCH   2  23
ATOM     23  N   UNL     1      13.107   4.193  11.486  1.00  0.00    -0.332 N 
ATOM     24  C   UNL     1      12.615   4.228  10.117  1.00  0.00     0.147 C 
BRANCH  23  25
ATOM     25  C   UNL     1      12.381   5.080  12.436  1.00  0.00     0.174 C 
BRANCH  25  26
ATOM     26  C   UNL     1      13.319   6.055  13.186  1.00  0.00     0.038 C 
BRANCH  26  27
ATOM     27  C   UNL     1      12.760   7.460  13.503  1.00  0.00    -0.015 C 
ATOM     28  C   UNL     1      13.154   7.945  14.898  1.00  0.00     0.007 C 
ATOM     29  C   UNL     1      13.115   8.507  12.450  1.00  0.00     0.007 C 
ENDBRANCH  26  27
ENDBRANCH  25  26
BRANCH  25  30
ATOM     30  C   UNL     1      11.484   4.237  13.371  1.00  0.00     0.243 C 
ATOM     31  O   UNL     1      10.510   3.615  12.950  1.00  0.00    -0.273 OA
ATOM     32  N   UNL     1      11.843   4.236  14.695  1.00  0.00    -0.342 N 
ATOM     33  H   UNL     1      12.741   4.659  14.942  1.00  0.00     0.164 HD
BRANCH  32  34
ATOM     34  C   UNL     1      11.093   3.516  15.728  1.00  0.00     0.175 C 
BRANCH  34  35
ATOM     35  C   UNL     1      11.986   3.175  16.930  1.00  0.00     0.070 C 
BRANCH  35  36
ATOM     36  C   UNL     1      13.286   3.948  16.932  1.00  0.00    -0.045 A 
ATOM     37  C   UNL     1      13.386   5.150  17.648  1.00  0.00     0.007 A 
ATOM     38  C   UNL     1      14.394   3.492  16.206  1.00  0.00     0.007 A 
ATOM     39  C   UNL     1      14.577   5.877  17.644  1.00  0.00     0.046 A 
ATOM     40  C   UNL     1      15.586   4.220  16.200  1.00  0.00     0.046 A 
ATOM     41  C   UNL     1      15.667   5.407  16.921  1.00  0.00     0.115 A 
BRANCH  41  42
ATOM     42  O   UNL     1      16.811   6.149  16.941  1.00  0.00    -0.508 OA
ATOM     43  H   UNL     1      17.342   5.910  16.163  1.00  0.00     0.293 HD
ENDBRANCH  41  42
ENDBRANCH  35  36
ENDBRANCH  34  35
BRANCH  34  44
ATOM     44  C   UNL     1       9.883   4.386  16.135  1.00  0.00     0.243 C 
ATOM     45  O   UNL     1       9.896   5.209  17.047  1.00  0.00    -0.273 OA
ATOM     46  N   UNL     1       8.724   4.065  15.461  1.00  0.00    -0.341 N 
ATOM     47  H   UNL     1       8.736   3.295  14.796  1.00  0.00     0.164 HD
BRANCH  46  48
ATOM     48  C   UNL     1       7.434   4.706  15.725  1.00  0.00     0.196 C 
BRANCH  48  49
ATOM     49  C   UNL     1       7.000   5.595  14.548  1.00  0.00     0.072 C 
BRANCH  49  50
ATOM     50  C   UNL     1       7.848   6.840  14.415  1.00  0.00    -0.045 A 
ATOM     51  C   UNL     1       7.951   7.734  15.491  1.00  0.00     0.007 A 
ATOM     52  C   UNL     1       8.521   7.129  13.221  1.00  0.00     0.007 A 
ATOM     53  C   UNL     1       8.720   8.892  15.375  1.00  0.00     0.046 A 
ATOM     54  C   UNL     1       9.290   8.289  13.104  1.00  0.00     0.046 A 
ATOM     55  C   UNL     1       9.384   9.161  14.184  1.00  0.00     0.115 A 
BRANCH  55  56
ATOM     56  O   UNL     1      10.123  10.304  14.111  1.00  0.00    -0.508 OA
ATOM     57  H   UNL     1       9.516  11.061  14.104  1.00  0.00     0.293 HD
ENDBRANCH  55  56
ENDBRANCH  49  50
ENDBRANCH  48  49
BRANCH  48  58
ATOM     58  C   UNL     1       6.377   3.620  15.967  1.00  0.00     0.326 C 
ATOM     59  O   UNL     1       6.001   3.181  17.042  1.00  0.00    -0.250 OA
BRANCH  58  60
ATOM     60  O   UNL     1       5.822   3.140  14.826  1.00  0.00    -0.480 OA
ATOM     61  H   UNL     1       4.872   3.368  14.922  1.00  0.00     0.296 HD
ENDBRANCH  58  60
ENDBRANCH  48  58
ENDBRANCH  46  48
ENDBRANCH  34  44
ENDBRANCH  32  34
ENDBRANCH  25  30
ENDBRANCH  23  25
ENDBRANCH   2  23
TORSDOF 28
ENDMDL
MODEL 2
REMARK VINA RESULT:    -5.991      2.315     10.378
REMARK INTER + INTRA:         -20.007
REMARK INTER:                 -15.390
REMARK INTRA:                  -4.617
REMARK UNBOUND:                -5.085
REMARK SMILES CCCCCCC[C@H](N)[C@H](O)C(=O)N[C@H](C)C(=O)N(C)[C@H](CC(C)C)C(=O)N[C@@H](Cc1ccc(O)cc1)C(=O)N[C@@H](Cc1ccc(O)cc1)C(=O)O
REMARK SMILES IDX 18 1 17 2 15 3 16 4 14 5 12 6 13 7 10 9 11 10 8 12 9 13 7 16
REMARK SMILES IDX 6 17 5 18 4 19 3 20 2 21 1 22 19 23 20 24 21 25 22 26 23 27
REMARK SMILES IDX 24 28 25 29 26 30 27 31 28 32 29 34 30 35 31 36 32 37 37 38
REMARK SMILES IDX 33 39 36 40 34 41 35 42 38 44 39 45 40 46 41 48 42 49 43 50
REMARK SMILES IDX 44 51 49 52 45 53 48 54 46 55 47 56 50 58 51 59 52 60
REMARK H PARENT 14 8 11 11 9 14 9 15 28 33 35 43 40 47 47 57 52 61
ROOT
ATOM      1  O   UNL     1       9.053   3.644  16.473  1.00  0.00    -0.272 OA
ATOM      2  C   UNL     1       8.911   3.972  15.286  1.00  0.00     0.245 C 
ENDROOT
BRANCH   2   3
ATOM      3  C   UNL     1       7.511   4.428  14.806  1.00  0.00     0.168 C 
ATOM      4  C   UNL     1       6.557   3.242  14.714  1.00  0.00     0.041 C 
BRANCH   3   5
ATOM      5  N   UNL     1       6.934   5.529  15.561  1.00  0.00    -0.342 N 
ATOM      6  C   UNL     1       6.230   5.322  16.728  1.00  0.00     0.251 C 
ATOM      7  O   UNL     1       6.002   4.209  17.192  1.00  0.00    -0.272 OA
ATOM      8  H   UNL     1       7.028   6.496  15.257  1.00  0.00     0.164 HD
BRANCH   6   9
ATOM      9  C   UNL     1       5.839   6.633  17.428  1.00  0.00     0.219 C 
BRANCH   9  10
ATOM     10  O   UNL     1       4.633   6.513  18.193  1.00  0.00    -0.382 OA
ATOM     11  H   UNL     1       4.953   6.451  19.120  1.00  0.00     0.211 HD
ENDBRANCH   9  10
BRANCH   9  12
ATOM     12  C   UNL     1       6.982   7.228  18.292  1.00  0.00     0.089 C 
BRANCH  12  13
ATOM     13  N   UNL     1       8.106   6.264  18.306  1.00  0.00    -0.325 NA
ATOM     14  H   UNL     1       8.760   6.522  19.047  1.00  0.00     0.119 HD
ATOM     15  H   UNL     1       8.635   6.360  17.436  1.00  0.00     0.119 HD
ENDBRANCH  12  13
BRANCH  12  16
ATOM     16  C   UNL     1       7.488   8.629  17.874  1.00  0.00     0.022 C 
BRANCH  16  17
ATOM     17  C   UNL     1       7.795   8.903  16.396  1.00  0.00     0.002 C 
BRANCH  17  18
ATOM     18  C   UNL     1       8.240  10.330  16.083  1.00  0.00     0.000 C 
BRANCH  18  19
ATOM     19  C   UNL     1       8.529  10.583  14.597  1.00  0.00    -0.000 C 
BRANCH  19  20
ATOM     20  C   UNL     1       9.844   9.992  14.081  1.00  0.00    -0.000 C 
BRANCH  20  21
ATOM     21  C   UNL     1       9.654   9.069  12.874  1.00  0.00    -0.003 C 
ATOM     22  C   UNL     1       8.956   7.777  13.269  1.00  0.00     0.004 C 
ENDBRANCH  20  21
ENDBRANCH  19  20
ENDBRANCH  18  19
ENDBRANCH  17  18
ENDBRANCH  16  17
ENDBRANCH  12  16
ENDBRANCH   9  12
ENDBRANCH   6   9
ENDBRANCH   3   5
ENDBRANCH   2   3
BRANCH   2  23
ATOM     23  N   UNL     1      10.018   4.044  14.447  1.00  0.00    -0.332 N 
ATOM     24  C   UNL     1       9.962   3.942  12.996  1.00  0.00     0.147 C 
BRANCH  23  25
ATOM     25  C   UNL     1      11.361   4.368  15.001  1.00  0.00     0.174 C 
BRANCH  25  26
ATOM     26  C   UNL     1      11.960   5.665  14.409  1.00  0.00     0.038 C 
BRANCH  26  27
ATOM     27  C   UNL     1      12.285   6.803  15.403  1.00  0.00    -0.015 C 
ATOM     28  C   UNL     1      12.895   8.023  14.714  1.00  0.00     0.007 C 
ATOM     29  C   UNL     1      11.095   7.213  16.267  1.00  0.00     0.007 C 
ENDBRANCH  26  27
ENDBRANCH  25  26
BRANCH  25  30
ATOM     30  C   UNL     1      12.295   3.142  14.882  1.00  0.00     0.243 C 
ATOM     31  O   UNL     1      12.149   2.142  15.585  1.00  0.00    -0.273 OA
ATOM     32  N   UNL     1      13.296   3.246  13.951  1.00  0.00    -0.342 N 
ATOM     33  H   UNL     1      13.267   4.044  13.311  1.00  0.00     0.164 HD
BRANCH  32  34
ATOM     34  C   UNL     1      14.290   2.194  13.721  1.00  0.00     0.175 C 
BRANCH  34  35
ATOM     35  C   UNL     1      13.647   0.944  13.100  1.00  0.00     0.070 C 
BRANCH  35  36
ATOM     36  C   UNL     1      14.266  -0.341  13.602  1.00  0.00    -0.045 A 
ATOM     37  C   UNL     1      15.490  -0.311  14.286  1.00  0.00     0.007 A 
ATOM     38  C   UNL     1      13.643  -1.575  13.373  1.00  0.00     0.007 A 
ATOM     39  C   UNL     1      16.075  -1.493  14.741  1.00  0.00     0.046 A 
ATOM     40  C   UNL     1      14.229  -2.760  13.826  1.00  0.00     0.046 A 
ATOM     41  C   UNL     1      15.441  -2.707  14.508  1.00  0.00     0.115 A 
BRANCH  41  42
ATOM     42  O   UNL     1      16.047  -3.839  14.966  1.00  0.00    -0.508 OA
ATOM     43  H   UNL     1      15.394  -4.353  15.469  1.00  0.00     0.293 HD
ENDBRANCH  41  42
ENDBRANCH  35  36
ENDBRANCH  34  35
BRANCH  34  44
ATOM     44  C   UNL     1      15.404   2.777  12.822  1.00  0.00     0.243 C 
ATOM     45  O   UNL     1      16.121   3.724  13.132  1.00  0.00    -0.273 OA
ATOM     46  N   UNL     1      15.443   2.217  11.563  1.00  0.00    -0.341 N 
ATOM     47  H   UNL     1      14.751   1.515  11.313  1.00  0.00     0.164 HD
BRANCH  46  48
ATOM     48  C   UNL     1      16.368   2.653  10.515  1.00  0.00     0.196 C 
BRANCH  48  49
ATOM     49  C   UNL     1      17.311   1.515  10.090  1.00  0.00     0.072 C 
BRANCH  49  50
ATOM     50  C   UNL     1      16.634   0.163  10.107  1.00  0.00    -0.045 A 
ATOM     51  C   UNL     1      17.136  -0.860  10.926  1.00  0.00     0.007 A 
ATOM     52  C   UNL     1      15.521  -0.096   9.298  1.00  0.00     0.007 A 
ATOM     53  C   UNL     1      16.528  -2.115  10.939  1.00  0.00     0.046 A 
ATOM     54  C   UNL     1      14.913  -1.354   9.310  1.00  0.00     0.046 A 
ATOM     55  C   UNL     1      15.422  -2.353  10.133  1.00  0.00     0.115 A 
BRANCH  55  56
ATOM     56  O   UNL     1      14.858  -3.594  10.174  1.00  0.00    -0.508 OA
ATOM     57  H   UNL     1      14.798  -3.872  11.102  1.00  0.00     0.293 HD
ENDBRANCH  55  56
ENDBRANCH  49  50
ENDBRANCH  48  49
BRANCH  48  58
ATOM     58  C   UNL     1      15.559   3.131   9.301  1.00  0.00     0.326 C 
ATOM     59  O   UNL     1      14.406   3.531   9.293  1.00  0.00    -0.250 OA
BRANCH  58  60
ATOM     60  O   UNL     1      16.256   3.095   8.138  1.00  0.00    -0.480 OA
ATOM     61  H   UNL     1      16.955   2.429   8.314  1.00  0.00     0.296 HD
ENDBRANCH  58  60
ENDBRANCH  48  58
ENDBRANCH  46  48
ENDBRANCH  34  44
ENDBRANCH  32  34
ENDBRANCH  25  30
ENDBRANCH  23  25
ENDBRANCH   2  23
TORSDOF 28
ENDMDL
MODEL 3
REMARK VINA RESULT:    -5.861      1.507      2.330
REMARK INTER + INTRA:         -19.683
REMARK INTER:                 -15.056
REMARK INTRA:                  -4.627
REMARK UNBOUND:                -5.085
REMARK SMILES CCCCCCC[C@H](N)[C@H](O)C(=O)N[C@H](C)C(=O)N(C)[C@H](CC(C)C)C(=O)N[C@@H](Cc1ccc(O)cc1)C(=O)N[C@@H](Cc1ccc(O)cc1)C(=O)O
REMARK SMILES IDX 18 1 17 2 15 3 16 4 14 5 12 6 13 7 10 9 11 10 8 12 9 13 7 16
REMARK SMILES IDX 6 17 5 18 4 19 3 20 2 21 1 22 19 23 20 24 21 25 22 26 23 27
REMARK SMILES IDX 24 28 25 29 26 30 27 31 28 32 29 34 30 35 31 36 32 37 37 38
REMARK SMILES IDX 33 39 36 40 34 41 35 42 38 44 39 45 40 46 41 48 42 49 43 50
REMARK SMILES IDX 44 51 49 52 45 53 48 54 46 55 47 56 50 58 51 59 52 60
REMARK H PARENT 14 8 11 11 9 14 9 15 28 33 35 43 40 47 47 57 52 61
ROOT
ATOM      1  O   UNL     1      13.722   2.283  12.529  1.00  0.00    -0.272 OA
ATOM      2  C   UNL     1      13.970   3.000  11.549  1.00  0.00     0.245 C 
ENDROOT
BRANCH   2   3
ATOM      3  C   UNL     1      15.127   2.589  10.604  1.00  0.00     0.168 C 
ATOM      4  C   UNL     1      16.397   3.367  10.932  1.00  0.00     0.041 C 
BRANCH   3   5
ATOM      5  N   UNL     1      15.374   1.157  10.527  1.00  0.00    -0.342 N 
ATOM      6  C   UNL     1      15.604   0.522   9.325  1.00  0.00     0.251 C 
ATOM      7  O   UNL     1      15.578   1.095   8.241  1.00  0.00    -0.272 OA
ATOM      8  H   UNL     1      15.385   0.569  11.357  1.00  0.00     0.164 HD
BRANCH   6   9
ATOM      9  C   UNL     1      15.980  -0.958   9.497  1.00  0.00     0.219 C 
BRANCH   9  10
ATOM     10  O   UNL     1      17.350  -1.140   9.879  1.00  0.00    -0.382 OA
ATOM     11  H   UNL     1      17.313  -1.876  10.528  1.00  0.00     0.211 HD
ENDBRANCH   9  10
BRANCH   9  12
ATOM     12  C   UNL     1      15.034  -1.719  10.463  1.00  0.00     0.089 C 
BRANCH  12  13
ATOM     13  N   UNL     1      14.768  -3.061   9.896  1.00  0.00    -0.325 NA
ATOM     14  H   UNL     1      14.765  -3.000   8.876  1.00  0.00     0.119 HD
ATOM     15  H   UNL     1      13.819  -3.344  10.149  1.00  0.00     0.119 HD
ENDBRANCH  12  13
BRANCH  12  16
ATOM     16  C   UNL     1      15.520  -1.847  11.927  1.00  0.00     0.022 C 
BRANCH  16  17
ATOM     17  C   UNL     1      14.594  -1.393  13.063  1.00  0.00     0.002 C 
BRANCH  17  18
ATOM     18  C   UNL     1      14.069  -2.516  13.955  1.00  0.00     0.000 C 
BRANCH  18  19
ATOM     19  C   UNL     1      13.521  -2.037  15.306  1.00  0.00    -0.000 C 
BRANCH  19  20
ATOM     20  C   UNL     1      14.561  -1.921  16.424  1.00  0.00    -0.000 C 
BRANCH  20  21
ATOM     21  C   UNL     1      14.943  -0.472  16.739  1.00  0.00    -0.003 C 
ATOM     22  C   UNL     1      16.288  -0.108  16.132  1.00  0.00     0.004 C 
ENDBRANCH  20  21
ENDBRANCH  19  20
ENDBRANCH  18  19
ENDBRANCH  17  18
ENDBRANCH  16  17
ENDBRANCH  12  16
ENDBRANCH   9  12
ENDBRANCH   6   9
ENDBRANCH   3   5
ENDBRANCH   2   3
BRANCH   2  23
ATOM     23  N   UNL     1      13.143   4.076  11.247  1.00  0.00    -0.332 N 
ATOM     24  C   UNL     1      12.622   4.371   9.920  1.00  0.00     0.147 C 
BRANCH  23  25
ATOM     25  C   UNL     1      12.620   4.950  12.333  1.00  0.00     0.174 C 
BRANCH  25  26
ATOM     26  C   UNL     1      13.740   5.689  13.102  1.00  0.00     0.038 C 
BRANCH  26  27
ATOM     27  C   UNL     1      13.511   7.187  13.404  1.00  0.00    -0.015 C 
ATOM     28  C   UNL     1      12.758   7.900  12.282  1.00  0.00     0.007 C 
ATOM     29  C   UNL     1      12.836   7.438  14.750  1.00  0.00     0.007 C 
ENDBRANCH  26  27
ENDBRANCH  25  26
BRANCH  25  30
ATOM     30  C   UNL     1      11.664   4.149  13.246  1.00  0.00     0.243 C 
ATOM     31  O   UNL     1      10.649   3.609  12.809  1.00  0.00    -0.273 OA
ATOM     32  N   UNL     1      12.018   4.088  14.569  1.00  0.00    -0.342 N 
ATOM     33  H   UNL     1      12.944   4.440  14.828  1.00  0.00     0.164 HD
BRANCH  32  34
ATOM     34  C   UNL     1      11.217   3.397  15.583  1.00  0.00     0.175 C 
BRANCH  34  35
ATOM     35  C   UNL     1      12.073   3.000  16.796  1.00  0.00     0.070 C 
BRANCH  35  36
ATOM     36  C   UNL     1      13.399   3.725  16.838  1.00  0.00    -0.045 A 
ATOM     37  C   UNL     1      13.509   4.946  17.520  1.00  0.00     0.007 A 
ATOM     38  C   UNL     1      14.524   3.206  16.184  1.00  0.00     0.007 A 
ATOM     39  C   UNL     1      14.725   5.630  17.554  1.00  0.00     0.046 A 
ATOM     40  C   UNL     1      15.741   3.890  16.216  1.00  0.00     0.046 A 
ATOM     41  C   UNL     1      15.831   5.096  16.902  1.00  0.00     0.115 A 
BRANCH  41  42
ATOM     42  O   UNL     1      17.000   5.796  16.956  1.00  0.00    -0.508 OA
ATOM     43  H   UNL     1      16.835   6.690  16.613  1.00  0.00     0.293 HD
ENDBRANCH  41  42
ENDBRANCH  35  36
ENDBRANCH  34  35
BRANCH  34  44
ATOM     44  C   UNL     1      10.046   4.323  15.981  1.00  0.00     0.243 C 
ATOM     45  O   UNL     1      10.152   5.295  16.723  1.00  0.00    -0.273 OA
ATOM     46  N   UNL     1       8.820   3.884  15.527  1.00  0.00    -0.341 N 
ATOM     47  H   UNL     1       8.769   3.008  15.013  1.00  0.00     0.164 HD
BRANCH  46  48
ATOM     48  C   UNL     1       7.558   4.559  15.835  1.00  0.00     0.196 C 
BRANCH  48  49
ATOM     49  C   UNL     1       7.054   5.379  14.636  1.00  0.00     0.072 C 
BRANCH  49  50
ATOM     50  C   UNL     1       7.786   6.693  14.481  1.00  0.00    -0.045 A 
ATOM     51  C   UNL     1       7.749   7.640  15.514  1.00  0.00     0.007 A 
ATOM     52  C   UNL     1       8.489   6.992  13.307  1.00  0.00     0.007 A 
ATOM     53  C   UNL     1       8.410   8.861  15.377  1.00  0.00     0.046 A 
ATOM     54  C   UNL     1       9.150   8.215  13.169  1.00  0.00     0.046 A 
ATOM     55  C   UNL     1       9.105   9.139  14.206  1.00  0.00     0.115 A 
BRANCH  55  56
ATOM     56  O   UNL     1       9.736  10.344  14.111  1.00  0.00    -0.508 OA
ATOM     57  H   UNL     1       9.171  10.946  13.601  1.00  0.00     0.293 HD
ENDBRANCH  55  56
ENDBRANCH  49  50
ENDBRANCH  48  49
BRANCH  48  58
ATOM     58  C   UNL     1       6.508   3.505  16.216  1.00  0.00     0.326 C 
ATOM     59  O   UNL     1       5.477   3.241  15.619  1.00  0.00    -0.250 OA
BRANCH  58  60
ATOM     60  O   UNL     1       6.819   2.813  17.340  1.00  0.00    -0.480 OA
ATOM     61  H   UNL     1       6.638   3.456  18.059  1.00  0.00     0.296 HD
ENDBRANCH  58  60
ENDBRANCH  48  58
ENDBRANCH  46  48
ENDBRANCH  34  44
ENDBRANCH  32  34
ENDBRANCH  25  30
ENDBRANCH  23  25
ENDBRANCH   2  23
TORSDOF 28
ENDMDL
MODEL 4
REMARK VINA RESULT:    -5.834      2.399      5.509
REMARK INTER + INTRA:         -19.617
REMARK INTER:                 -14.561
REMARK INTRA:                  -5.056
REMARK UNBOUND:                -5.085
REMARK SMILES CCCCCCC[C@H](N)[C@H](O)C(=O)N[C@H](C)C(=O)N(C)[C@H](CC(C)C)C(=O)N[C@@H](Cc1ccc(O)cc1)C(=O)N[C@@H](Cc1ccc(O)cc1)C(=O)O
REMARK SMILES IDX 18 1 17 2 15 3 16 4 14 5 12 6 13 7 10 9 11 10 8 12 9 13 7 16
REMARK SMILES IDX 6 17 5 18 4 19 3 20 2 21 1 22 19 23 20 24 21 25 22 26 23 27
REMARK SMILES IDX 24 28 25 29 26 30 27 31 28 32 29 34 30 35 31 36 32 37 37 38
REMARK SMILES IDX 33 39 36 40 34 41 35 42 38 44 39 45 40 46 41 48 42 49 43 50
REMARK SMILES IDX 44 51 49 52 45 53 48 54 46 55 47 56 50 58 51 59 52 60
REMARK H PARENT 14 8 11 11 9 14 9 15 28 33 35 43 40 47 47 57 52 61
ROOT
ATOM      1  O   UNL     1      13.658   3.249  10.193  1.00  0.00    -0.272 OA
ATOM      2  C   UNL     1      14.730   2.753  10.570  1.00  0.00     0.245 C 
ENDROOT
BRANCH   2   3
ATOM      3  C   UNL     1      15.588   1.973   9.543  1.00  0.00     0.168 C 
ATOM      4  C   UNL     1      16.595   2.897   8.866  1.00  0.00     0.041 C 
BRANCH   3   5
ATOM      5  N   UNL     1      16.220   0.770  10.063  1.00  0.00    -0.342 N 
ATOM      6  C   UNL     1      15.886  -0.485   9.601  1.00  0.00     0.251 C 
ATOM      7  O   UNL     1      15.016  -0.687   8.761  1.00  0.00    -0.272 OA
ATOM      8  H   UNL     1      16.933   0.810  10.787  1.00  0.00     0.164 HD
BRANCH   6   9
ATOM      9  C   UNL     1      16.779  -1.591  10.187  1.00  0.00     0.219 C 
BRANCH   9  10
ATOM     10  O   UNL     1      17.832  -1.073  11.008  1.00  0.00    -0.382 OA
ATOM     11  H   UNL     1      18.400  -1.857  11.177  1.00  0.00     0.211 HD
ENDBRANCH   9  10
BRANCH   9  12
ATOM     12  C   UNL     1      15.978  -2.684  10.942  1.00  0.00     0.089 C 
BRANCH  12  13
ATOM     13  N   UNL     1      14.960  -3.238  10.020  1.00  0.00    -0.325 NA
ATOM     14  H   UNL     1      14.511  -2.472   9.516  1.00  0.00     0.119 HD
ATOM     15  H   UNL     1      14.214  -3.669  10.570  1.00  0.00     0.119 HD
ENDBRANCH  12  13
BRANCH  12  16
ATOM     16  C   UNL     1      16.813  -3.829  11.562  1.00  0.00     0.022 C 
BRANCH  16  17
ATOM     17  C   UNL     1      17.102  -3.811  13.070  1.00  0.00     0.002 C 
BRANCH  17  18
ATOM     18  C   UNL     1      15.875  -3.980  13.963  1.00  0.00     0.000 C 
BRANCH  18  19
ATOM     19  C   UNL     1      16.112  -3.593  15.429  1.00  0.00    -0.000 C 
BRANCH  19  20
ATOM     20  C   UNL     1      14.914  -3.804  16.359  1.00  0.00    -0.000 C 
BRANCH  20  21
ATOM     21  C   UNL     1      13.587  -3.939  15.606  1.00  0.00    -0.003 C 
ATOM     22  C   UNL     1      13.013  -5.340  15.742  1.00  0.00     0.004 C 
ENDBRANCH  20  21
ENDBRANCH  19  20
ENDBRANCH  18  19
ENDBRANCH  17  18
ENDBRANCH  16  17
ENDBRANCH  12  16
ENDBRANCH   9  12
ENDBRANCH   6   9
ENDBRANCH   3   5
ENDBRANCH   2   3
BRANCH   2  23
ATOM     23  N   UNL     1      15.198   3.004  11.856  1.00  0.00    -0.332 N 
ATOM     24  C   UNL     1      16.294   3.907  12.174  1.00  0.00     0.147 C 
BRANCH  23  25
ATOM     25  C   UNL     1      14.493   2.434  13.036  1.00  0.00     0.174 C 
BRANCH  25  26
ATOM     26  C   UNL     1      13.770   1.103  12.722  1.00  0.00     0.038 C 
BRANCH  26  27
ATOM     27  C   UNL     1      14.164  -0.125  13.571  1.00  0.00    -0.015 C 
ATOM     28  C   UNL     1      13.550  -1.422  13.045  1.00  0.00     0.007 C 
ATOM     29  C   UNL     1      15.672  -0.280  13.752  1.00  0.00     0.007 C 
ENDBRANCH  26  27
ENDBRANCH  25  26
BRANCH  25  30
ATOM     30  C   UNL     1      13.576   3.503  13.675  1.00  0.00     0.243 C 
ATOM     31  O   UNL     1      13.928   4.159  14.655  1.00  0.00    -0.273 OA
ATOM     32  N   UNL     1      12.350   3.664  13.083  1.00  0.00    -0.342 N 
ATOM     33  H   UNL     1      12.188   3.186  12.193  1.00  0.00     0.164 HD
BRANCH  32  34
ATOM     34  C   UNL     1      11.343   4.611  13.570  1.00  0.00     0.175 C 
BRANCH  34  35
ATOM     35  C   UNL     1      10.993   4.346  15.042  1.00  0.00     0.070 C 
BRANCH  35  36
ATOM     36  C   UNL     1       9.509   4.160  15.266  1.00  0.00    -0.045 A 
ATOM     37  C   UNL     1       8.617   4.269  14.188  1.00  0.00     0.007 A 
ATOM     38  C   UNL     1       9.002   3.902  16.546  1.00  0.00     0.007 A 
ATOM     39  C   UNL     1       7.245   4.113  14.387  1.00  0.00     0.046 A 
ATOM     40  C   UNL     1       7.628   3.747  16.747  1.00  0.00     0.046 A 
ATOM     41  C   UNL     1       6.762   3.853  15.664  1.00  0.00     0.115 A 
BRANCH  41  42
ATOM     42  O   UNL     1       5.414   3.710  15.816  1.00  0.00    -0.508 OA
ATOM     43  H   UNL     1       5.111   3.014  15.209  1.00  0.00     0.293 HD
ENDBRANCH  41  42
ENDBRANCH  35  36
ENDBRANCH  34  35
BRANCH  34  44
ATOM     44  C   UNL     1      11.886   6.041  13.354  1.00  0.00     0.243 C 
ATOM     45  O   UNL     1      12.228   6.496  12.266  1.00  0.00    -0.273 OA
ATOM     46  N   UNL     1      12.082   6.737  14.528  1.00  0.00    -0.341 N 
ATOM     47  H   UNL     1      11.893   6.274  15.414  1.00  0.00     0.164 HD
BRANCH  46  48
ATOM     48  C   UNL     1      12.651   8.085  14.580  1.00  0.00     0.196 C 
BRANCH  48  49
ATOM     49  C   UNL     1      11.829   9.005  15.498  1.00  0.00     0.072 C 
BRANCH  49  50
ATOM     50  C   UNL     1      10.418   8.506  15.709  1.00  0.00    -0.045 A 
ATOM     51  C   UNL     1      10.019   8.051  16.975  1.00  0.00     0.007 A 
ATOM     52  C   UNL     1       9.500   8.469  14.652  1.00  0.00     0.007 A 
ATOM     53  C   UNL     1       8.724   7.576  17.178  1.00  0.00     0.046 A 
ATOM     54  C   UNL     1       8.203   7.992  14.855  1.00  0.00     0.046 A 
ATOM     55  C   UNL     1       7.826   7.550  16.118  1.00  0.00     0.115 A 
BRANCH  55  56
ATOM     56  O   UNL     1       6.570   7.077  16.359  1.00  0.00    -0.508 OA
ATOM     57  H   UNL     1       6.162   6.848  15.509  1.00  0.00     0.293 HD
ENDBRANCH  55  56
ENDBRANCH  49  50
ENDBRANCH  48  49
BRANCH  48  58
ATOM     58  C   UNL     1      14.094   7.998  15.097  1.00  0.00     0.326 C 
ATOM     59  O   UNL     1      14.683   8.815  15.786  1.00  0.00    -0.250 OA
BRANCH  58  60
ATOM     60  O   UNL     1      14.734   6.860  14.727  1.00  0.00    -0.480 OA
ATOM     61  H   UNL     1      15.544   6.866  15.281  1.00  0.00     0.296 HD
ENDBRANCH  58  60
ENDBRANCH  48  58
ENDBRANCH  46  48
ENDBRANCH  34  44
ENDBRANCH  32  34
ENDBRANCH  25  30
ENDBRANCH  23  25
ENDBRANCH   2  23
TORSDOF 28
ENDMDL
MODEL 5
REMARK VINA RESULT:    -5.575      1.743      3.309
REMARK INTER + INTRA:         -18.972
REMARK INTER:                 -14.110
REMARK INTRA:                  -4.862
REMARK UNBOUND:                -5.085
REMARK SMILES CCCCCCC[C@H](N)[C@H](O)C(=O)N[C@H](C)C(=O)N(C)[C@H](CC(C)C)C(=O)N[C@@H](Cc1ccc(O)cc1)C(=O)N[C@@H](Cc1ccc(O)cc1)C(=O)O
REMARK SMILES IDX 18 1 17 2 15 3 16 4 14 5 12 6 13 7 10 9 11 10 8 12 9 13 7 16
REMARK SMILES IDX 6 17 5 18 4 19 3 20 2 21 1 22 19 23 20 24 21 25 22 26 23 27
REMARK SMILES IDX 24 28 25 29 26 30 27 31 28 32 29 34 30 35 31 36 32 37 37 38
REMARK SMILES IDX 33 39 36 40 34 41 35 42 38 44 39 45 40 46 41 48 42 49 43 50
REMARK SMILES IDX 44 51 49 52 45 53 48 54 46 55 47 56 50 58 51 59 52 60
REMARK H PARENT 14 8 11 11 9 14 9 15 28 33 35 43 40 47 47 57 52 61
ROOT
ATOM      1  O   UNL     1      12.268   2.327  11.138  1.00  0.00    -0.272 OA
ATOM      2  C   UNL     1      13.041   3.139  11.667  1.00  0.00     0.245 C 
ENDROOT
BRANCH   2   3
ATOM      3  C   UNL     1      14.262   2.597  12.453  1.00  0.00     0.168 C 
ATOM      4  C   UNL     1      15.244   3.719  12.769  1.00  0.00     0.041 C 
BRANCH   3   5
ATOM      5  N   UNL     1      13.930   1.818  13.636  1.00  0.00    -0.342 N 
ATOM      6  C   UNL     1      14.859   1.014  14.262  1.00  0.00     0.251 C 
ATOM      7  O   UNL     1      16.005   0.861  13.854  1.00  0.00    -0.272 OA
ATOM      8  H   UNL     1      12.999   1.836  14.046  1.00  0.00     0.164 HD
BRANCH   6   9
ATOM      9  C   UNL     1      14.329   0.401  15.568  1.00  0.00     0.219 C 
BRANCH   9  10
ATOM     10  O   UNL     1      12.899   0.341  15.611  1.00  0.00    -0.382 OA
ATOM     11  H   UNL     1      12.716  -0.437  16.182  1.00  0.00     0.211 HD
ENDBRANCH   9  10
BRANCH   9  12
ATOM     12  C   UNL     1      14.948  -0.987  15.884  1.00  0.00     0.089 C 
BRANCH  12  13
ATOM     13  N   UNL     1      15.506  -0.948  17.255  1.00  0.00    -0.325 NA
ATOM     14  H   UNL     1      16.127  -1.749  17.387  1.00  0.00     0.119 HD
ATOM     15  H   UNL     1      14.747  -1.086  17.926  1.00  0.00     0.119 HD
ENDBRANCH  12  13
BRANCH  12  16
ATOM     16  C   UNL     1      14.002  -2.201  15.729  1.00  0.00     0.022 C 
BRANCH  16  17
ATOM     17  C   UNL     1      14.059  -3.033  14.440  1.00  0.00     0.002 C 
BRANCH  17  18
ATOM     18  C   UNL     1      14.477  -2.260  13.192  1.00  0.00     0.000 C 
BRANCH  18  19
ATOM     19  C   UNL     1      13.308  -1.607  12.441  1.00  0.00    -0.000 C 
BRANCH  19  20
ATOM     20  C   UNL     1      13.691  -0.877  11.151  1.00  0.00    -0.000 C 
BRANCH  20  21
ATOM     21  C   UNL     1      15.193  -0.925  10.858  1.00  0.00    -0.003 C 
ATOM     22  C   UNL     1      15.541  -0.126   9.612  1.00  0.00     0.004 C 
ENDBRANCH  20  21
ENDBRANCH  19  20
ENDBRANCH  18  19
ENDBRANCH  17  18
ENDBRANCH  16  17
ENDBRANCH  12  16
ENDBRANCH   9  12
ENDBRANCH   6   9
ENDBRANCH   3   5
ENDBRANCH   2   3
BRANCH   2  23
ATOM     23  N   UNL     1      12.874   4.502  11.449  1.00  0.00    -0.332 N 
ATOM     24  C   UNL     1      13.218   5.188  10.212  1.00  0.00     0.147 C 
BRANCH  23  25
ATOM     25  C   UNL     1      12.189   5.348  12.465  1.00  0.00     0.174 C 
BRANCH  25  26
ATOM     26  C   UNL     1      13.152   6.319  13.188  1.00  0.00     0.038 C 
BRANCH  26  27
ATOM     27  C   UNL     1      12.654   7.765  13.407  1.00  0.00    -0.015 C 
ATOM     28  C   UNL     1      12.660   8.168  14.881  1.00  0.00     0.007 C 
ATOM     29  C   UNL     1      13.398   8.798  12.565  1.00  0.00     0.007 C 
ENDBRANCH  26  27
ENDBRANCH  25  26
BRANCH  25  30
ATOM     30  C   UNL     1      11.363   4.461  13.425  1.00  0.00     0.243 C 
ATOM     31  O   UNL     1      10.366   3.849  13.048  1.00  0.00    -0.273 OA
ATOM     32  N   UNL     1      11.813   4.410  14.719  1.00  0.00    -0.342 N 
ATOM     33  H   UNL     1      12.724   4.830  14.921  1.00  0.00     0.164 HD
BRANCH  32  34
ATOM     34  C   UNL     1      11.140   3.644  15.772  1.00  0.00     0.175 C 
BRANCH  34  35
ATOM     35  C   UNL     1      12.064   3.422  16.979  1.00  0.00     0.070 C 
BRANCH  35  36
ATOM     36  C   UNL     1      13.229   4.385  17.008  1.00  0.00    -0.045 A 
ATOM     37  C   UNL     1      13.108   5.613  17.676  1.00  0.00     0.007 A 
ATOM     38  C   UNL     1      14.431   4.081  16.355  1.00  0.00     0.007 A 
ATOM     39  C   UNL     1      14.173   6.514  17.697  1.00  0.00     0.046 A 
ATOM     40  C   UNL     1      15.497   4.983  16.374  1.00  0.00     0.046 A 
ATOM     41  C   UNL     1      15.358   6.192  17.047  1.00  0.00     0.115 A 
BRANCH  41  42
ATOM     42  O   UNL     1      16.373   7.102  17.089  1.00  0.00    -0.508 OA
ATOM     43  H   UNL     1      17.172   6.652  17.410  1.00  0.00     0.293 HD
ENDBRANCH  41  42
ENDBRANCH  35  36
ENDBRANCH  34  35
BRANCH  34  44
ATOM     44  C   UNL     1       9.850   4.398  16.163  1.00  0.00     0.243 C 
ATOM     45  O   UNL     1       9.775   5.219  17.074  1.00  0.00    -0.273 OA
ATOM     46  N   UNL     1       8.734   3.971  15.476  1.00  0.00    -0.341 N 
ATOM     47  H   UNL     1       8.825   3.205  14.812  1.00  0.00     0.164 HD
BRANCH  46  48
ATOM     48  C   UNL     1       7.387   4.490  15.723  1.00  0.00     0.196 C 
BRANCH  48  49
ATOM     49  C   UNL     1       6.906   5.375  14.560  1.00  0.00     0.072 C 
BRANCH  49  50
ATOM     50  C   UNL     1       7.666   6.679  14.468  1.00  0.00    -0.045 A 
ATOM     51  C   UNL     1       8.395   6.982  13.309  1.00  0.00     0.007 A 
ATOM     52  C   UNL     1       7.673   7.586  15.535  1.00  0.00     0.007 A 
ATOM     53  C   UNL     1       9.112   8.176  13.218  1.00  0.00     0.046 A 
ATOM     54  C   UNL     1       8.391   8.781  15.444  1.00  0.00     0.046 A 
ATOM     55  C   UNL     1       9.104   9.066  14.285  1.00  0.00     0.115 A 
BRANCH  55  56
ATOM     56  O   UNL     1       9.818  10.220  14.157  1.00  0.00    -0.508 OA
ATOM     57  H   UNL     1       9.826  10.472  13.220  1.00  0.00     0.293 HD
ENDBRANCH  55  56
ENDBRANCH  49  50
ENDBRANCH  48  49
BRANCH  48  58
ATOM     58  C   UNL     1       6.422   3.310  15.905  1.00  0.00     0.326 C 
ATOM     59  O   UNL     1       6.140   2.740  16.946  1.00  0.00    -0.250 OA
BRANCH  58  60
ATOM     60  O   UNL     1       5.838   2.906  14.749  1.00  0.00    -0.480 OA
ATOM     61  H   UNL     1       6.538   2.370  14.317  1.00  0.00     0.296 HD
ENDBRANCH  58  60
ENDBRANCH  48  58
ENDBRANCH  46  48
ENDBRANCH  34  44
ENDBRANCH  32  34
ENDBRANCH  25  30
ENDBRANCH  23  25
ENDBRANCH   2  23
TORSDOF 28
ENDMDL
MODEL 6
REMARK VINA RESULT:    -5.447      2.749      9.997
REMARK INTER + INTRA:         -18.653
REMARK INTER:                 -14.330
REMARK INTRA:                  -4.323
REMARK UNBOUND:                -5.085
REMARK SMILES CCCCCCC[C@H](N)[C@H](O)C(=O)N[C@H](C)C(=O)N(C)[C@H](CC(C)C)C(=O)N[C@@H](Cc1ccc(O)cc1)C(=O)N[C@@H](Cc1ccc(O)cc1)C(=O)O
REMARK SMILES IDX 18 1 17 2 15 3 16 4 14 5 12 6 13 7 10 9 11 10 8 12 9 13 7 16
REMARK SMILES IDX 6 17 5 18 4 19 3 20 2 21 1 22 19 23 20 24 21 25 22 26 23 27
REMARK SMILES IDX 24 28 25 29 26 30 27 31 28 32 29 34 30 35 31 36 32 37 37 38
REMARK SMILES IDX 33 39 36 40 34 41 35 42 38 44 39 45 40 46 41 48 42 49 43 50
REMARK SMILES IDX 44 51 49 52 45 53 48 54 46 55 47 56 50 58 51 59 52 60
REMARK H PARENT 14 8 11 11 9 14 9 15 28 33 35 43 40 47 47 57 52 61
ROOT
ATOM      1  O   UNL     1      11.022   5.111  14.294  1.00  0.00    -0.272 OA
ATOM      2  C   UNL     1      10.802   6.260  13.884  1.00  0.00     0.245 C 
ENDROOT
BRANCH   2   3
ATOM      3  C   UNL     1       9.457   6.933  14.252  1.00  0.00     0.168 C 
ATOM      4  C   UNL     1       8.282   6.137  13.694  1.00  0.00     0.041 C 
BRANCH   3   5
ATOM      5  N   UNL     1       9.287   7.229  15.667  1.00  0.00    -0.342 N 
ATOM      6  C   UNL     1       8.585   8.333  16.101  1.00  0.00     0.251 C 
ATOM      7  O   UNL     1       8.091   9.161  15.343  1.00  0.00    -0.272 OA
ATOM      8  H   UNL     1       9.682   6.632  16.390  1.00  0.00     0.164 HD
BRANCH   6   9
ATOM      9  C   UNL     1       8.414   8.365  17.628  1.00  0.00     0.219 C 
BRANCH   9  10
ATOM     10  O   UNL     1       8.692   9.654  18.188  1.00  0.00    -0.382 OA
ATOM     11  H   UNL     1       9.470   9.966  17.675  1.00  0.00     0.211 HD
ENDBRANCH   9  10
BRANCH   9  12
ATOM     12  C   UNL     1       7.028   7.849  18.097  1.00  0.00     0.089 C 
BRANCH  12  13
ATOM     13  N   UNL     1       6.051   8.955  17.974  1.00  0.00    -0.325 NA
ATOM     14  H   UNL     1       5.342   8.859  18.703  1.00  0.00     0.119 HD
ATOM     15  H   UNL     1       5.544   8.851  17.092  1.00  0.00     0.119 HD
ENDBRANCH  12  13
BRANCH  12  16
ATOM     16  C   UNL     1       6.496   6.587  17.377  1.00  0.00     0.022 C 
BRANCH  16  17
ATOM     17  C   UNL     1       6.704   5.212  18.027  1.00  0.00     0.002 C 
BRANCH  17  18
ATOM     18  C   UNL     1       5.449   4.588  18.632  1.00  0.00     0.000 C 
BRANCH  18  19
ATOM     19  C   UNL     1       4.407   4.149  17.593  1.00  0.00    -0.000 C 
BRANCH  19  20
ATOM     20  C   UNL     1       4.257   2.635  17.424  1.00  0.00    -0.000 C 
BRANCH  20  21
ATOM     21  C   UNL     1       5.448   1.990  16.709  1.00  0.00    -0.003 C 
ATOM     22  C   UNL     1       5.874   2.804  15.497  1.00  0.00     0.004 C 
ENDBRANCH  20  21
ENDBRANCH  19  20
ENDBRANCH  18  19
ENDBRANCH  17  18
ENDBRANCH  16  17
ENDBRANCH  12  16
ENDBRANCH   9  12
ENDBRANCH   6   9
ENDBRANCH   3   5
ENDBRANCH   2   3
BRANCH   2  23
ATOM     23  N   UNL     1      11.799   6.963  13.216  1.00  0.00    -0.332 N 
ATOM     24  C   UNL     1      11.568   8.134  12.383  1.00  0.00     0.147 C 
BRANCH  23  25
ATOM     25  C   UNL     1      13.232   6.617  13.427  1.00  0.00     0.174 C 
BRANCH  25  26
ATOM     26  C   UNL     1      14.157   7.857  13.425  1.00  0.00     0.038 C 
BRANCH  26  27
ATOM     27  C   UNL     1      15.679   7.595  13.468  1.00  0.00    -0.015 C 
ATOM     28  C   UNL     1      16.498   8.857  13.200  1.00  0.00     0.007 C 
ATOM     29  C   UNL     1      16.143   6.917  14.756  1.00  0.00     0.007 C 
ENDBRANCH  26  27
ENDBRANCH  25  26
BRANCH  25  30
ATOM     30  C   UNL     1      13.666   5.517  12.431  1.00  0.00     0.243 C 
ATOM     31  O   UNL     1      13.786   5.740  11.228  1.00  0.00    -0.273 OA
ATOM     32  N   UNL     1      13.899   4.281  12.977  1.00  0.00    -0.342 N 
ATOM     33  H   UNL     1      13.915   4.210  13.998  1.00  0.00     0.164 HD
BRANCH  32  34
ATOM     34  C   UNL     1      14.290   3.114  12.182  1.00  0.00     0.175 C 
BRANCH  34  35
ATOM     35  C   UNL     1      15.812   2.903  12.213  1.00  0.00     0.070 C 
BRANCH  35  36
ATOM     36  C   UNL     1      16.320   2.137  11.012  1.00  0.00    -0.045 A 
ATOM     37  C   UNL     1      15.498   1.972   9.886  1.00  0.00     0.007 A 
ATOM     38  C   UNL     1      17.599   1.566  11.011  1.00  0.00     0.007 A 
ATOM     39  C   UNL     1      15.953   1.255   8.779  1.00  0.00     0.046 A 
ATOM     40  C   UNL     1      18.055   0.848   9.903  1.00  0.00     0.046 A 
ATOM     41  C   UNL     1      17.227   0.700   8.796  1.00  0.00     0.115 A 
BRANCH  41  42
ATOM     42  O   UNL     1      17.632   0.005   7.695  1.00  0.00    -0.508 OA
ATOM     43  H   UNL     1      18.403   0.458   7.315  1.00  0.00     0.293 HD
ENDBRANCH  41  42
ENDBRANCH  35  36
ENDBRANCH  34  35
BRANCH  34  44
ATOM     44  C   UNL     1      13.526   1.886  12.726  1.00  0.00     0.243 C 
ATOM     45  O   UNL     1      12.333   1.670  12.533  1.00  0.00    -0.273 OA
ATOM     46  N   UNL     1      14.280   1.101  13.572  1.00  0.00    -0.341 N 
ATOM     47  H   UNL     1      15.230   1.386  13.795  1.00  0.00     0.164 HD
BRANCH  46  48
ATOM     48  C   UNL     1      13.751  -0.078  14.262  1.00  0.00     0.196 C 
BRANCH  48  49
ATOM     49  C   UNL     1      14.783  -1.218  14.293  1.00  0.00     0.072 C 
BRANCH  49  50
ATOM     50  C   UNL     1      15.279  -1.592  12.915  1.00  0.00    -0.045 A 
ATOM     51  C   UNL     1      14.377  -1.666  11.844  1.00  0.00     0.007 A 
ATOM     52  C   UNL     1      16.630  -1.888  12.691  1.00  0.00     0.007 A 
ATOM     53  C   UNL     1      14.821  -2.022  10.570  1.00  0.00     0.046 A 
ATOM     54  C   UNL     1      17.074  -2.247  11.416  1.00  0.00     0.046 A 
ATOM     55  C   UNL     1      16.165  -2.309  10.366  1.00  0.00     0.115 A 
BRANCH  55  56
ATOM     56  O   UNL     1      16.558  -2.656   9.107  1.00  0.00    -0.508 OA
ATOM     57  H   UNL     1      16.491  -1.872   8.539  1.00  0.00     0.293 HD
ENDBRANCH  55  56
ENDBRANCH  49  50
ENDBRANCH  48  49
BRANCH  48  58
ATOM     58  C   UNL     1      13.371   0.312  15.697  1.00  0.00     0.326 C 
ATOM     59  O   UNL     1      12.446   1.027  16.048  1.00  0.00    -0.250 OA
BRANCH  58  60
ATOM     60  O   UNL     1      14.177  -0.239  16.639  1.00  0.00    -0.480 OA
ATOM     61  H   UNL     1      15.017   0.259  16.537  1.00  0.00     0.296 HD
ENDBRANCH  58  60
ENDBRANCH  48  58
ENDBRANCH  46  48
ENDBRANCH  34  44
ENDBRANCH  32  34
ENDBRANCH  25  30
ENDBRANCH  23  25
ENDBRANCH   2  23
TORSDOF 28
ENDMDL
MODEL 7
REMARK VINA RESULT:    -5.116      2.347      4.666
REMARK INTER + INTRA:         -17.828
REMARK INTER:                 -12.734
REMARK INTRA:                  -5.094
REMARK UNBOUND:                -5.085
REMARK SMILES CCCCCCC[C@H](N)[C@H](O)C(=O)N[C@H](C)C(=O)N(C)[C@H](CC(C)C)C(=O)N[C@@H](Cc1ccc(O)cc1)C(=O)N[C@@H](Cc1ccc(O)cc1)C(=O)O
REMARK SMILES IDX 18 1 17 2 15 3 16 4 14 5 12 6 13 7 10 9 11 10 8 12 9 13 7 16
REMARK SMILES IDX 6 17 5 18 4 19 3 20 2 21 1 22 19 23 20 24 21 25 22 26 23 27
REMARK SMILES IDX 24 28 25 29 26 30 27 31 28 32 29 34 30 35 31 36 32 37 37 38
REMARK SMILES IDX 33 39 36 40 34 41 35 42 38 44 39 45 40 46 41 48 42 49 43 50
REMARK SMILES IDX 44 51 49 52 45 53 48 54 46 55 47 56 50 58 51 59 52 60
REMARK H PARENT 14 8 11 11 9 14 9 15 28 33 35 43 40 47 47 57 52 61
ROOT
ATOM      1  O   UNL     1      13.166   1.484  11.166  1.00  0.00    -0.272 OA
ATOM      2  C   UNL     1      14.207   2.086  10.864  1.00  0.00     0.245 C 
ENDROOT
BRANCH   2   3
ATOM      3  C   UNL     1      15.296   1.329  10.065  1.00  0.00     0.168 C 
ATOM      4  C   UNL     1      16.566   2.166   9.953  1.00  0.00     0.041 C 
BRANCH   3   5
ATOM      5  N   UNL     1      15.575  -0.018  10.538  1.00  0.00    -0.342 N 
ATOM      6  C   UNL     1      15.196  -1.134   9.822  1.00  0.00     0.251 C 
ATOM      7  O   UNL     1      14.568  -1.082   8.770  1.00  0.00    -0.272 OA
ATOM      8  H   UNL     1      16.060  -0.189  11.416  1.00  0.00     0.164 HD
BRANCH   6   9
ATOM      9  C   UNL     1      15.719  -2.442  10.439  1.00  0.00     0.219 C 
BRANCH   9  10
ATOM     10  O   UNL     1      14.923  -3.578  10.081  1.00  0.00    -0.382 OA
ATOM     11  H   UNL     1      14.890  -3.537   9.100  1.00  0.00     0.211 HD
ENDBRANCH   9  10
BRANCH   9  12
ATOM     12  C   UNL     1      17.217  -2.701  10.135  1.00  0.00     0.089 C 
BRANCH  12  13
ATOM     13  N   UNL     1      17.692  -1.658   9.198  1.00  0.00    -0.325 NA
ATOM     14  H   UNL     1      18.461  -2.033   8.639  1.00  0.00     0.119 HD
ATOM     15  H   UNL     1      18.103  -0.892   9.736  1.00  0.00     0.119 HD
ENDBRANCH  12  13
BRANCH  12  16
ATOM     16  C   UNL     1      18.154  -2.777  11.365  1.00  0.00     0.022 C 
BRANCH  16  17
ATOM     17  C   UNL     1      17.593  -3.278  12.702  1.00  0.00     0.002 C 
BRANCH  17  18
ATOM     18  C   UNL     1      17.582  -2.244  13.825  1.00  0.00     0.000 C 
BRANCH  18  19
ATOM     19  C   UNL     1      16.363  -2.339  14.751  1.00  0.00    -0.000 C 
BRANCH  19  20
ATOM     20  C   UNL     1      15.195  -3.166  14.206  1.00  0.00    -0.000 C 
BRANCH  20  21
ATOM     21  C   UNL     1      13.869  -2.402  14.202  1.00  0.00    -0.003 C 
ATOM     22  C   UNL     1      14.018  -1.035  13.551  1.00  0.00     0.004 C 
ENDBRANCH  20  21
ENDBRANCH  19  20
ENDBRANCH  18  19
ENDBRANCH  17  18
ENDBRANCH  16  17
ENDBRANCH  12  16
ENDBRANCH   9  12
ENDBRANCH   6   9
ENDBRANCH   3   5
ENDBRANCH   2   3
BRANCH   2  23
ATOM     23  N   UNL     1      14.327   3.445  11.135  1.00  0.00    -0.332 N 
ATOM     24  C   UNL     1      14.015   4.507  10.189  1.00  0.00     0.147 C 
BRANCH  23  25
ATOM     25  C   UNL     1      14.677   3.910  12.505  1.00  0.00     0.174 C 
BRANCH  25  26
ATOM     26  C   UNL     1      15.204   2.772  13.411  1.00  0.00     0.038 C 
BRANCH  26  27
ATOM     27  C   UNL     1      16.710   2.793  13.755  1.00  0.00    -0.015 C 
ATOM     28  C   UNL     1      17.393   1.456  13.470  1.00  0.00     0.007 C 
ATOM     29  C   UNL     1      17.470   3.937  13.088  1.00  0.00     0.007 C 
ENDBRANCH  26  27
ENDBRANCH  25  26
BRANCH  25  30
ATOM     30  C   UNL     1      13.494   4.695  13.119  1.00  0.00     0.243 C 
ATOM     31  O   UNL     1      12.333   4.300  13.023  1.00  0.00    -0.273 OA
ATOM     32  N   UNL     1      13.826   5.857  13.767  1.00  0.00    -0.342 N 
ATOM     33  H   UNL     1      14.819   6.043  13.926  1.00  0.00     0.164 HD
BRANCH  32  34
ATOM     34  C   UNL     1      12.834   6.742  14.384  1.00  0.00     0.175 C 
BRANCH  34  35
ATOM     35  C   UNL     1      11.655   7.007  13.435  1.00  0.00     0.070 C 
BRANCH  35  36
ATOM     36  C   UNL     1      10.657   7.990  14.004  1.00  0.00    -0.045 A 
ATOM     37  C   UNL     1       9.293   7.663  14.043  1.00  0.00     0.007 A 
ATOM     38  C   UNL     1      11.071   9.243  14.477  1.00  0.00     0.007 A 
ATOM     39  C   UNL     1       8.363   8.569  14.553  1.00  0.00     0.046 A 
ATOM     40  C   UNL     1      10.140  10.151  14.987  1.00  0.00     0.046 A 
ATOM     41  C   UNL     1       8.793   9.804  15.021  1.00  0.00     0.115 A 
BRANCH  41  42
ATOM     42  O   UNL     1       7.852  10.662  15.509  1.00  0.00    -0.508 OA
ATOM     43  H   UNL     1       6.974  10.293  15.317  1.00  0.00     0.293 HD
ENDBRANCH  41  42
ENDBRANCH  35  36
ENDBRANCH  34  35
BRANCH  34  44
ATOM     44  C   UNL     1      12.374   6.094  15.710  1.00  0.00     0.243 C 
ATOM     45  O   UNL     1      12.878   6.325  16.805  1.00  0.00    -0.273 OA
ATOM     46  N   UNL     1      11.416   5.118  15.540  1.00  0.00    -0.341 N 
ATOM     47  H   UNL     1      11.113   4.881  14.599  1.00  0.00     0.164 HD
BRANCH  46  48
ATOM     48  C   UNL     1      10.875   4.319  16.642  1.00  0.00     0.196 C 
BRANCH  48  49
ATOM     49  C   UNL     1       9.369   4.065  16.464  1.00  0.00     0.072 C 
BRANCH  49  50
ATOM     50  C   UNL     1       8.526   5.247  16.885  1.00  0.00    -0.045 A 
ATOM     51  C   UNL     1       7.166   5.291  16.546  1.00  0.00     0.007 A 
ATOM     52  C   UNL     1       9.087   6.317  17.593  1.00  0.00     0.007 A 
ATOM     53  C   UNL     1       6.380   6.383  16.917  1.00  0.00     0.046 A 
ATOM     54  C   UNL     1       8.301   7.411  17.964  1.00  0.00     0.046 A 
ATOM     55  C   UNL     1       6.953   7.434  17.623  1.00  0.00     0.115 A 
BRANCH  55  56
ATOM     56  O   UNL     1       6.152   8.483  17.965  1.00  0.00    -0.508 OA
ATOM     57  H   UNL     1       6.648   9.305  17.823  1.00  0.00     0.293 HD
ENDBRANCH  55  56
ENDBRANCH  49  50
ENDBRANCH  48  49
BRANCH  48  58
ATOM     58  C   UNL     1      11.621   2.978  16.699  1.00  0.00     0.326 C 
ATOM     59  O   UNL     1      11.981   2.375  17.697  1.00  0.00    -0.250 OA
BRANCH  58  60
ATOM     60  O   UNL     1      11.869   2.445  15.476  1.00  0.00    -0.480 OA
ATOM     61  H   UNL     1      11.272   1.666  15.445  1.00  0.00     0.296 HD
ENDBRANCH  58  60
ENDBRANCH  48  58
ENDBRANCH  46  48
ENDBRANCH  34  44
ENDBRANCH  32  34
ENDBRANCH  25  30
ENDBRANCH  23  25
ENDBRANCH   2  23
TORSDOF 28
ENDMDL
MODEL 8
REMARK VINA RESULT:    -4.465      2.111      4.595
REMARK INTER + INTRA:         -16.206
REMARK INTER:                 -13.244
REMARK INTRA:                  -2.963
REMARK UNBOUND:                -5.085
REMARK SMILES CCCCCCC[C@H](N)[C@H](O)C(=O)N[C@H](C)C(=O)N(C)[C@H](CC(C)C)C(=O)N[C@@H](Cc1ccc(O)cc1)C(=O)N[C@@H](Cc1ccc(O)cc1)C(=O)O
REMARK SMILES IDX 18 1 17 2 15 3 16 4 14 5 12 6 13 7 10 9 11 10 8 12 9 13 7 16
REMARK SMILES IDX 6 17 5 18 4 19 3 20 2 21 1 22 19 23 20 24 21 25 22 26 23 27
REMARK SMILES IDX 24 28 25 29 26 30 27 31 28 32 29 34 30 35 31 36 32 37 37 38
REMARK SMILES IDX 33 39 36 40 34 41 35 42 38 44 39 45 40 46 41 48 42 49 43 50
REMARK SMILES IDX 44 51 49 52 45 53 48 54 46 55 47 56 50 58 51 59 52 60
REMARK H PARENT 14 8 11 11 9 14 9 15 28 33 35 43 40 47 47 57 52 61
ROOT
ATOM      1  O   UNL     1      14.417   4.768  11.540  1.00  0.00    -0.272 OA
ATOM      2  C   UNL     1      15.526   4.539  12.044  1.00  0.00     0.245 C 
ENDROOT
BRANCH   2   3
ATOM      3  C   UNL     1      16.536   3.674  11.251  1.00  0.00     0.168 C 
ATOM      4  C   UNL     1      17.597   3.091  12.178  1.00  0.00     0.041 C 
BRANCH   3   5
ATOM      5  N   UNL     1      15.935   2.653  10.406  1.00  0.00    -0.342 N 
ATOM      6  C   UNL     1      16.415   2.378   9.143  1.00  0.00     0.251 C 
ATOM      7  O   UNL     1      17.343   2.989   8.624  1.00  0.00    -0.272 OA
ATOM      8  H   UNL     1      15.137   2.103  10.715  1.00  0.00     0.164 HD
BRANCH   6   9
ATOM      9  C   UNL     1      15.721   1.170   8.494  1.00  0.00     0.219 C 
BRANCH   9  10
ATOM     10  O   UNL     1      15.739   1.226   7.062  1.00  0.00    -0.382 OA
ATOM     11  H   UNL     1      15.032   0.597   6.797  1.00  0.00     0.211 HD
ENDBRANCH   9  10
BRANCH   9  12
ATOM     12  C   UNL     1      16.267  -0.191   8.999  1.00  0.00     0.089 C 
BRANCH  12  13
ATOM     13  N   UNL     1      17.621   0.028   9.557  1.00  0.00    -0.325 NA
ATOM     14  H   UNL     1      17.728   1.014   9.803  1.00  0.00     0.119 HD
ATOM     15  H   UNL     1      18.313  -0.141   8.823  1.00  0.00     0.119 HD
ENDBRANCH  12  13
BRANCH  12  16
ATOM     16  C   UNL     1      15.383  -0.938  10.025  1.00  0.00     0.022 C 
BRANCH  16  17
ATOM     17  C   UNL     1      15.436  -2.471  10.081  1.00  0.00     0.002 C 
BRANCH  17  18
ATOM     18  C   UNL     1      16.141  -3.048  11.306  1.00  0.00     0.000 C 
BRANCH  18  19
ATOM     19  C   UNL     1      16.701  -1.986  12.262  1.00  0.00    -0.000 C 
BRANCH  19  20
ATOM     20  C   UNL     1      16.119  -2.014  13.678  1.00  0.00    -0.000 C 
BRANCH  20  21
ATOM     21  C   UNL     1      14.769  -2.732  13.757  1.00  0.00    -0.003 C 
ATOM     22  C   UNL     1      13.628  -1.747  13.962  1.00  0.00     0.004 C 
ENDBRANCH  20  21
ENDBRANCH  19  20
ENDBRANCH  18  19
ENDBRANCH  17  18
ENDBRANCH  16  17
ENDBRANCH  12  16
ENDBRANCH   9  12
ENDBRANCH   6   9
ENDBRANCH   3   5
ENDBRANCH   2   3
BRANCH   2  23
ATOM     23  N   UNL     1      15.887   5.153  13.239  1.00  0.00    -0.332 N 
ATOM     24  C   UNL     1      16.794   6.287  13.344  1.00  0.00     0.147 C 
BRANCH  23  25
ATOM     25  C   UNL     1      15.242   4.747  14.517  1.00  0.00     0.174 C 
BRANCH  25  26
ATOM     26  C   UNL     1      14.956   3.228  14.592  1.00  0.00     0.038 C 
BRANCH  26  27
ATOM     27  C   UNL     1      13.501   2.776  14.335  1.00  0.00    -0.015 C 
ATOM     28  C   UNL     1      13.387   1.822  13.146  1.00  0.00     0.007 C 
ATOM     29  C   UNL     1      12.824   2.181  15.567  1.00  0.00     0.007 C 
ENDBRANCH  26  27
ENDBRANCH  25  26
BRANCH  25  30
ATOM     30  C   UNL     1      14.000   5.626  14.790  1.00  0.00     0.243 C 
ATOM     31  O   UNL     1      13.491   6.322  13.912  1.00  0.00    -0.273 OA
ATOM     32  N   UNL     1      13.512   5.583  16.070  1.00  0.00    -0.342 N 
ATOM     33  H   UNL     1      13.899   4.878  16.702  1.00  0.00     0.164 HD
BRANCH  32  34
ATOM     34  C   UNL     1      12.359   6.371  16.516  1.00  0.00     0.175 C 
BRANCH  34  35
ATOM     35  C   UNL     1      12.715   7.861  16.640  1.00  0.00     0.070 C 
BRANCH  35  36
ATOM     36  C   UNL     1      11.516   8.724  16.961  1.00  0.00    -0.045 A 
ATOM     37  C   UNL     1      10.534   8.259  17.850  1.00  0.00     0.007 A 
ATOM     38  C   UNL     1      11.355   9.981  16.364  1.00  0.00     0.007 A 
ATOM     39  C   UNL     1       9.417   9.043  18.141  1.00  0.00     0.046 A 
ATOM     40  C   UNL     1      10.236  10.766  16.654  1.00  0.00     0.046 A 
ATOM     41  C   UNL     1       9.277  10.289  17.542  1.00  0.00     0.115 A 
BRANCH  41  42
ATOM     42  O   UNL     1       8.170  11.022  17.852  1.00  0.00    -0.508 OA
ATOM     43  H   UNL     1       7.871  11.477  17.047  1.00  0.00     0.293 HD
ENDBRANCH  41  42
ENDBRANCH  35  36
ENDBRANCH  34  35
BRANCH  34  44
ATOM     44  C   UNL     1      11.203   6.136  15.517  1.00  0.00     0.243 C 
ATOM     45  O   UNL     1      10.662   5.050  15.326  1.00  0.00    -0.273 OA
ATOM     46  N   UNL     1      10.909   7.241  14.748  1.00  0.00    -0.341 N 
ATOM     47  H   UNL     1      11.465   8.085  14.863  1.00  0.00     0.164 HD
BRANCH  46  48
ATOM     48  C   UNL     1       9.898   7.239  13.688  1.00  0.00     0.196 C 
BRANCH  48  49
ATOM     49  C   UNL     1       8.530   7.699  14.219  1.00  0.00     0.072 C 
BRANCH  49  50
ATOM     50  C   UNL     1       7.762   6.585  14.892  1.00  0.00    -0.045 A 
ATOM     51  C   UNL     1       7.501   5.395  14.196  1.00  0.00     0.007 A 
ATOM     52  C   UNL     1       7.284   6.727  16.201  1.00  0.00     0.007 A 
ATOM     53  C   UNL     1       6.783   4.365  14.802  1.00  0.00     0.046 A 
ATOM     54  C   UNL     1       6.564   5.696  16.808  1.00  0.00     0.046 A 
ATOM     55  C   UNL     1       6.320   4.522  16.103  1.00  0.00     0.115 A 
BRANCH  55  56
ATOM     56  O   UNL     1       5.620   3.492  16.659  1.00  0.00    -0.508 OA
ATOM     57  H   UNL     1       5.624   2.749  16.036  1.00  0.00     0.293 HD
ENDBRANCH  55  56
ENDBRANCH  49  50
ENDBRANCH  48  49
BRANCH  48  58
ATOM     58  C   UNL     1      10.354   8.176  12.561  1.00  0.00     0.326 C 
ATOM     59  O   UNL     1       9.756   9.141  12.114  1.00  0.00    -0.250 OA
BRANCH  58  60
ATOM     60  O   UNL     1      11.571   7.857  12.051  1.00  0.00    -0.480 OA
ATOM     61  H   UNL     1      11.993   8.731  11.910  1.00  0.00     0.296 HD
ENDBRANCH  58  60
ENDBRANCH  48  58
ENDBRANCH  46  48
ENDBRANCH  34  44
ENDBRANCH  32  34
ENDBRANCH  25  30
ENDBRANCH  23  25
ENDBRANCH   2  23
TORSDOF 28
ENDMDL
MODEL 9
REMARK VINA RESULT:    -4.450      1.937      3.973
REMARK INTER + INTRA:         -16.168
REMARK INTER:                 -13.464
REMARK INTRA:                  -2.704
REMARK UNBOUND:                -5.085
REMARK SMILES CCCCCCC[C@H](N)[C@H](O)C(=O)N[C@H](C)C(=O)N(C)[C@H](CC(C)C)C(=O)N[C@@H](Cc1ccc(O)cc1)C(=O)N[C@@H](Cc1ccc(O)cc1)C(=O)O
REMARK SMILES IDX 18 1 17 2 15 3 16 4 14 5 12 6 13 7 10 9 11 10 8 12 9 13 7 16
REMARK SMILES IDX 6 17 5 18 4 19 3 20 2 21 1 22 19 23 20 24 21 25 22 26 23 27
REMARK SMILES IDX 24 28 25 29 26 30 27 31 28 32 29 34 30 35 31 36 32 37 37 38
REMARK SMILES IDX 33 39 36 40 34 41 35 42 38 44 39 45 40 46 41 48 42 49 43 50
REMARK SMILES IDX 44 51 49 52 45 53 48 54 46 55 47 56 50 58 51 59 52 60
REMARK H PARENT 14 8 11 11 9 14 9 15 28 33 35 43 40 47 47 57 52 61
ROOT
ATOM      1  O   UNL     1      14.001   4.710  11.607  1.00  0.00    -0.272 OA
ATOM      2  C   UNL     1      15.134   4.601  12.099  1.00  0.00     0.245 C 
ENDROOT
BRANCH   2   3
ATOM      3  C   UNL     1      16.217   3.831  11.303  1.00  0.00     0.168 C 
ATOM      4  C   UNL     1      17.316   3.327  12.231  1.00  0.00     0.041 C 
BRANCH   3   5
ATOM      5  N   UNL     1      15.707   2.774  10.444  1.00  0.00    -0.342 N 
ATOM      6  C   UNL     1      16.250   2.519   9.202  1.00  0.00     0.251 C 
ATOM      7  O   UNL     1      17.163   3.177   8.715  1.00  0.00    -0.272 OA
ATOM      8  H   UNL     1      14.928   2.182  10.725  1.00  0.00     0.164 HD
BRANCH   6   9
ATOM      9  C   UNL     1      15.650   1.271   8.535  1.00  0.00     0.219 C 
BRANCH   9  10
ATOM     10  O   UNL     1      15.718   1.322   7.105  1.00  0.00    -0.382 OA
ATOM     11  H   UNL     1      15.058   0.653   6.818  1.00  0.00     0.211 HD
ENDBRANCH   9  10
BRANCH   9  12
ATOM     12  C   UNL     1      16.253  -0.055   9.069  1.00  0.00     0.089 C 
BRANCH  12  13
ATOM     13  N   UNL     1      17.579   0.239   9.659  1.00  0.00    -0.325 NA
ATOM     14  H   UNL     1      17.628   1.232   9.896  1.00  0.00     0.119 HD
ATOM     15  H   UNL     1      18.298   0.100   8.944  1.00  0.00     0.119 HD
ENDBRANCH  12  13
BRANCH  12  16
ATOM     16  C   UNL     1      15.383  -0.838  10.081  1.00  0.00     0.022 C 
BRANCH  16  17
ATOM     17  C   UNL     1      15.519  -2.364  10.159  1.00  0.00     0.002 C 
BRANCH  17  18
ATOM     18  C   UNL     1      16.240  -2.884  11.401  1.00  0.00     0.000 C 
BRANCH  18  19
ATOM     19  C   UNL     1      16.646  -1.786  12.393  1.00  0.00    -0.000 C 
BRANCH  19  20
ATOM     20  C   UNL     1      16.042  -1.919  13.794  1.00  0.00    -0.000 C 
BRANCH  20  21
ATOM     21  C   UNL     1      14.816  -2.836  13.834  1.00  0.00    -0.003 C 
ATOM     22  C   UNL     1      13.540  -2.046  14.079  1.00  0.00     0.004 C 
ENDBRANCH  20  21
ENDBRANCH  19  20
ENDBRANCH  18  19
ENDBRANCH  17  18
ENDBRANCH  16  17
ENDBRANCH  12  16
ENDBRANCH   9  12
ENDBRANCH   6   9
ENDBRANCH   3   5
ENDBRANCH   2   3
BRANCH   2  23
ATOM     23  N   UNL     1      15.446   5.265  13.281  1.00  0.00    -0.332 N 
ATOM     24  C   UNL     1      16.140   6.542  13.352  1.00  0.00     0.147 C 
BRANCH  23  25
ATOM     25  C   UNL     1      14.956   4.745  14.587  1.00  0.00     0.174 C 
BRANCH  25  26
ATOM     26  C   UNL     1      14.971   3.200  14.664  1.00  0.00     0.038 C 
BRANCH  26  27
ATOM     27  C   UNL     1      13.622   2.476  14.459  1.00  0.00    -0.015 C 
ATOM     28  C   UNL     1      13.627   1.566  13.231  1.00  0.00     0.007 C 
ATOM     29  C   UNL     1      13.151   1.710  15.692  1.00  0.00     0.007 C 
ENDBRANCH  26  27
ENDBRANCH  25  26
BRANCH  25  30
ATOM     30  C   UNL     1      13.584   5.371  14.928  1.00  0.00     0.243 C 
ATOM     31  O   UNL     1      12.888   5.915  14.073  1.00  0.00    -0.273 OA
ATOM     32  N   UNL     1      13.203   5.284  16.242  1.00  0.00    -0.342 N 
ATOM     33  H   UNL     1      13.766   4.695  16.861  1.00  0.00     0.164 HD
BRANCH  32  34
ATOM     34  C   UNL     1      11.948   5.845  16.751  1.00  0.00     0.175 C 
BRANCH  34  35
ATOM     35  C   UNL     1      12.116   7.320  17.146  1.00  0.00     0.070 C 
BRANCH  35  36
ATOM     36  C   UNL     1      13.521   7.830  16.921  1.00  0.00    -0.045 A 
ATOM     37  C   UNL     1      13.795   8.680  15.839  1.00  0.00     0.007 A 
ATOM     38  C   UNL     1      14.569   7.447  17.769  1.00  0.00     0.007 A 
ATOM     39  C   UNL     1      15.091   9.144  15.615  1.00  0.00     0.046 A 
ATOM     40  C   UNL     1      15.868   7.911  17.545  1.00  0.00     0.046 A 
ATOM     41  C   UNL     1      16.117   8.757  16.470  1.00  0.00     0.115 A 
BRANCH  41  42
ATOM     42  O   UNL     1      17.369   9.231  16.214  1.00  0.00    -0.508 OA
ATOM     43  H   UNL     1      18.007   8.523  16.405  1.00  0.00     0.293 HD
ENDBRANCH  41  42
ENDBRANCH  35  36
ENDBRANCH  34  35
BRANCH  34  44
ATOM     44  C   UNL     1      10.864   5.657  15.666  1.00  0.00     0.243 C 
ATOM     45  O   UNL     1      10.508   4.569  15.222  1.00  0.00    -0.273 OA
ATOM     46  N   UNL     1      10.410   6.844  15.133  1.00  0.00    -0.341 N 
ATOM     47  H   UNL     1      10.821   7.718  15.452  1.00  0.00     0.164 HD
BRANCH  46  48
ATOM     48  C   UNL     1       9.433   6.917  14.045  1.00  0.00     0.196 C 
BRANCH  48  49
ATOM     49  C   UNL     1       8.030   7.259  14.574  1.00  0.00     0.072 C 
BRANCH  49  50
ATOM     50  C   UNL     1       7.346   6.074  15.217  1.00  0.00    -0.045 A 
ATOM     51  C   UNL     1       7.138   4.900  14.477  1.00  0.00     0.007 A 
ATOM     52  C   UNL     1       6.894   6.134  16.542  1.00  0.00     0.007 A 
ATOM     53  C   UNL     1       6.497   3.805  15.056  1.00  0.00     0.046 A 
ATOM     54  C   UNL     1       6.251   5.038  17.121  1.00  0.00     0.046 A 
ATOM     55  C   UNL     1       6.058   3.882  16.372  1.00  0.00     0.115 A 
BRANCH  55  56
ATOM     56  O   UNL     1       5.434   2.790  16.900  1.00  0.00    -0.508 OA
ATOM     57  H   UNL     1       5.466   2.074  16.246  1.00  0.00     0.293 HD
ENDBRANCH  55  56
ENDBRANCH  49  50
ENDBRANCH  48  49
BRANCH  48  58
ATOM     58  C   UNL     1       9.880   7.990  13.042  1.00  0.00     0.326 C 
ATOM     59  O   UNL     1       9.345   9.065  12.822  1.00  0.00    -0.250 OA
BRANCH  58  60
ATOM     60  O   UNL     1      11.009   7.661  12.365  1.00  0.00    -0.480 OA
ATOM     61  H   UNL     1      11.503   8.508  12.324  1.00  0.00     0.296 HD
ENDBRANCH  58  60
ENDBRANCH  48  58
ENDBRANCH  46  48
ENDBRANCH  34  44
ENDBRANCH  32  34
ENDBRANCH  25  30
ENDBRANCH  23  25
ENDBRANCH   2  23
TORSDOF 28
ENDMDL
