MODEL 1
REMARK VINA RESULT:    -6.310      0.000      0.000
REMARK INTER + INTRA:         -21.651
REMARK INTER:                 -15.717
REMARK INTRA:                  -5.934
REMARK UNBOUND:                -5.934
REMARK SMILES CCCCCCC[C@H](N)[C@H](O)C(=O)N[C@H](C)C(=O)N(C)[C@H](CC(C)C)C(=O)N[C@@H](Cc1ccc(O)cc1)C(=O)N[C@@H](Cc1ccc(O)cc1)C(=O)O
REMARK SMILES IDX 18 1 17 2 15 3 16 4 14 5 12 6 13 7 10 9 11 10 8 12 9 13 7 16
REMARK SMILES IDX 6 17 5 18 4 19 3 20 2 21 1 22 19 23 20 24 21 25 22 26 23 27
REMARK SMILES IDX 24 28 25 29 26 30 27 31 28 32 29 34 30 35 31 36 32 37 37 38
REMARK SMILES IDX 33 39 36 40 34 41 35 42 38 44 39 45 40 46 41 48 42 49 43 50
REMARK SMILES IDX 44 51 49 52 45 53 48 54 46 55 47 56 50 58 51 59 52 60
REMARK H PARENT 14 8 11 11 9 14 9 15 28 33 35 43 40 47 47 57 52 61
ROOT
ATOM      1  O   UNL     1      -1.091 -10.625   2.024  1.00  0.00    -0.272 OA
ATOM      2  C   UNL     1      -1.721  -9.777   1.375  1.00  0.00     0.245 C 
ENDROOT
BRANCH   2   3
ATOM      3  C   UNL     1      -1.144  -9.305   0.017  1.00  0.00     0.168 C 
ATOM      4  C   UNL     1      -2.249  -9.177  -1.026  1.00  0.00     0.041 C 
BRANCH   3   5
ATOM      5  N   UNL     1      -0.321  -8.108   0.085  1.00  0.00    -0.342 N 
ATOM      6  C   UNL     1       1.047  -8.154  -0.074  1.00  0.00     0.251 C 
ATOM      7  O   UNL     1       1.674  -9.196  -0.240  1.00  0.00    -0.272 OA
ATOM      8  H   UNL     1      -0.725  -7.189   0.254  1.00  0.00     0.164 HD
BRANCH   6   9
ATOM      9  C   UNL     1       1.690  -6.758  -0.105  1.00  0.00     0.219 C 
BRANCH   9  10
ATOM     10  O   UNL     1       0.850  -5.750   0.468  1.00  0.00    -0.382 OA
ATOM     11  H   UNL     1       1.370  -4.924   0.356  1.00  0.00     0.211 HD
ENDBRANCH   9  10
BRANCH   9  12
ATOM     12  C   UNL     1       3.104  -6.724   0.532  1.00  0.00     0.089 C 
BRANCH  12  13
ATOM     13  N   UNL     1       4.084  -7.175  -0.483  1.00  0.00    -0.325 NA
ATOM     14  H   UNL     1       3.853  -8.126  -0.775  1.00  0.00     0.119 HD
ATOM     15  H   UNL     1       5.005  -7.248  -0.044  1.00  0.00     0.119 HD
ENDBRANCH  12  13
BRANCH  12  16
ATOM     16  C   UNL     1       3.545  -5.368   1.131  1.00  0.00     0.022 C 
BRANCH  16  17
ATOM     17  C   UNL     1       4.445  -4.441   0.302  1.00  0.00     0.002 C 
BRANCH  17  18
ATOM     18  C   UNL     1       4.381  -2.965   0.688  1.00  0.00     0.000 C 
BRANCH  18  19
ATOM     19  C   UNL     1       3.010  -2.515   1.212  1.00  0.00    -0.000 C 
BRANCH  19  20
ATOM     20  C   UNL     1       2.235  -1.578   0.282  1.00  0.00    -0.000 C 
BRANCH  20  21
ATOM     21  C   UNL     1       2.180  -0.136   0.794  1.00  0.00    -0.003 C 
ATOM     22  C   UNL     1       2.802  -0.014   2.176  1.00  0.00     0.004 C 
ENDBRANCH  20  21
ENDBRANCH  19  20
ENDBRANCH  18  19
ENDBRANCH  17  18
ENDBRANCH  16  17
ENDBRANCH  12  16
ENDBRANCH   9  12
ENDBRANCH   6   9
ENDBRANCH   3   5
ENDBRANCH   2   3
BRANCH   2  23
ATOM     23  N   UNL     1      -2.975  -9.360   1.807  1.00  0.00    -0.332 N 
ATOM     24  C   UNL     1      -4.238  -9.849   1.274  1.00  0.00     0.147 C 
BRANCH  23  25
ATOM     25  C   UNL     1      -3.101  -8.446   2.976  1.00  0.00     0.174 C 
BRANCH  25  26
ATOM     26  C   UNL     1      -4.544  -8.366   3.525  1.00  0.00     0.038 C 
BRANCH  26  27
ATOM     27  C   UNL     1      -4.738  -8.662   5.029  1.00  0.00    -0.015 C 
ATOM     28  C   UNL     1      -3.745  -9.699   5.553  1.00  0.00     0.007 C 
ATOM     29  C   UNL     1      -4.719  -7.410   5.902  1.00  0.00     0.007 C 
ENDBRANCH  26  27
ENDBRANCH  25  26
BRANCH  25  30
ATOM     30  C   UNL     1      -2.486  -7.068   2.641  1.00  0.00     0.243 C 
ATOM     31  O   UNL     1      -2.622  -6.546   1.535  1.00  0.00    -0.273 OA
ATOM     32  N   UNL     1      -1.777  -6.473   3.653  1.00  0.00    -0.342 N 
ATOM     33  H   UNL     1      -1.828  -6.899   4.582  1.00  0.00     0.164 HD
BRANCH  32  34
ATOM     34  C   UNL     1      -1.103  -5.179   3.507  1.00  0.00     0.175 C 
BRANCH  34  35
ATOM     35  C   UNL     1      -1.820  -4.082   4.309  1.00  0.00     0.070 C 
BRANCH  35  36
ATOM     36  C   UNL     1      -1.448  -2.689   3.855  1.00  0.00    -0.045 A 
ATOM     37  C   UNL     1      -0.892  -1.779   4.767  1.00  0.00     0.007 A 
ATOM     38  C   UNL     1      -1.672  -2.279   2.535  1.00  0.00     0.007 A 
ATOM     39  C   UNL     1      -0.559  -0.486   4.361  1.00  0.00     0.046 A 
ATOM     40  C   UNL     1      -1.340  -0.985   2.128  1.00  0.00     0.046 A 
ATOM     41  C   UNL     1      -0.784  -0.100   3.046  1.00  0.00     0.115 A 
BRANCH  41  42
ATOM     42  O   UNL     1      -0.447   1.173   2.690  1.00  0.00    -0.508 OA
ATOM     43  H   UNL     1       0.365   1.135   2.159  1.00  0.00     0.293 HD
ENDBRANCH  41  42
ENDBRANCH  35  36
ENDBRANCH  34  35
BRANCH  34  44
ATOM     44  C   UNL     1       0.366  -5.353   3.952  1.00  0.00     0.243 C 
ATOM     45  O   UNL     1       1.339  -5.141   3.233  1.00  0.00    -0.273 OA
ATOM     46  N   UNL     1       0.498  -5.901   5.211  1.00  0.00    -0.341 N 
ATOM     47  H   UNL     1      -0.339  -6.168   5.723  1.00  0.00     0.164 HD
BRANCH  46  48
ATOM     48  C   UNL     1       1.791  -6.221   5.819  1.00  0.00     0.196 C 
BRANCH  48  49
ATOM     49  C   UNL     1       2.301  -5.063   6.694  1.00  0.00     0.072 C 
BRANCH  49  50
ATOM     50  C   UNL     1       3.195  -4.110   5.934  1.00  0.00    -0.045 A 
ATOM     51  C   UNL     1       2.976  -2.727   6.020  1.00  0.00     0.007 A 
ATOM     52  C   UNL     1       4.233  -4.587   5.123  1.00  0.00     0.007 A 
ATOM     53  C   UNL     1       3.787  -1.839   5.313  1.00  0.00     0.046 A 
ATOM     54  C   UNL     1       5.044  -3.697   4.415  1.00  0.00     0.046 A 
ATOM     55  C   UNL     1       4.814  -2.330   4.516  1.00  0.00     0.115 A 
BRANCH  55  56
ATOM     56  O   UNL     1       5.583  -1.429   3.840  1.00  0.00    -0.508 OA
ATOM     57  H   UNL     1       5.872  -1.836   3.008  1.00  0.00     0.293 HD
ENDBRANCH  55  56
ENDBRANCH  49  50
ENDBRANCH  48  49
BRANCH  48  58
ATOM     58  C   UNL     1       1.641  -7.485   6.676  1.00  0.00     0.326 C 
ATOM     59  O   UNL     1       1.598  -8.641   6.286  1.00  0.00    -0.250 OA
BRANCH  58  60
ATOM     60  O   UNL     1       1.564  -7.232   8.007  1.00  0.00    -0.480 OA
ATOM     61  H   UNL     1       0.805  -6.613   8.075  1.00  0.00     0.296 HD
ENDBRANCH  58  60
ENDBRANCH  48  58
ENDBRANCH  46  48
ENDBRANCH  34  44
ENDBRANCH  32  34
ENDBRANCH  25  30
ENDBRANCH  23  25
ENDBRANCH   2  23
TORSDOF 28
ENDMDL
MODEL 2
REMARK VINA RESULT:    -6.287      3.673      8.785
REMARK INTER + INTRA:         -21.592
REMARK INTER:                 -17.191
REMARK INTRA:                  -4.401
REMARK UNBOUND:                -5.934
REMARK SMILES CCCCCCC[C@H](N)[C@H](O)C(=O)N[C@H](C)C(=O)N(C)[C@H](CC(C)C)C(=O)N[C@@H](Cc1ccc(O)cc1)C(=O)N[C@@H](Cc1ccc(O)cc1)C(=O)O
REMARK SMILES IDX 18 1 17 2 15 3 16 4 14 5 12 6 13 7 10 9 11 10 8 12 9 13 7 16
REMARK SMILES IDX 6 17 5 18 4 19 3 20 2 21 1 22 19 23 20 24 21 25 22 26 23 27
REMARK SMILES IDX 24 28 25 29 26 30 27 31 28 32 29 34 30 35 31 36 32 37 37 38
REMARK SMILES IDX 33 39 36 40 34 41 35 42 38 44 39 45 40 46 41 48 42 49 43 50
REMARK SMILES IDX 44 51 49 52 45 53 48 54 46 55 47 56 50 58 51 59 52 60
REMARK H PARENT 14 8 11 11 9 14 9 15 28 33 35 43 40 47 47 57 52 61
ROOT
ATOM      1  O   UNL     1      -4.740  -7.293   4.142  1.00  0.00    -0.272 OA
ATOM      2  C   UNL     1      -4.632  -8.503   4.392  1.00  0.00     0.245 C 
ENDROOT
BRANCH   2   3
ATOM      3  C   UNL     1      -5.073  -9.013   5.786  1.00  0.00     0.168 C 
ATOM      4  C   UNL     1      -4.100 -10.064   6.310  1.00  0.00     0.041 C 
BRANCH   3   5
ATOM      5  N   UNL     1      -5.324  -7.970   6.768  1.00  0.00    -0.342 N 
ATOM      6  C   UNL     1      -6.298  -8.099   7.735  1.00  0.00     0.251 C 
ATOM      7  O   UNL     1      -7.044  -9.069   7.818  1.00  0.00    -0.272 OA
ATOM      8  H   UNL     1      -4.791  -7.103   6.778  1.00  0.00     0.164 HD
BRANCH   6   9
ATOM      9  C   UNL     1      -6.289  -6.942   8.747  1.00  0.00     0.219 C 
BRANCH   9  10
ATOM     10  O   UNL     1      -4.977  -6.408   8.964  1.00  0.00    -0.382 OA
ATOM     11  H   UNL     1      -5.106  -5.438   8.880  1.00  0.00     0.211 HD
ENDBRANCH   9  10
BRANCH   9  12
ATOM     12  C   UNL     1      -7.291  -5.813   8.390  1.00  0.00     0.089 C 
BRANCH  12  13
ATOM     13  N   UNL     1      -7.061  -5.412   6.983  1.00  0.00    -0.325 NA
ATOM     14  H   UNL     1      -6.122  -5.019   6.895  1.00  0.00     0.119 HD
ATOM     15  H   UNL     1      -7.694  -4.644   6.750  1.00  0.00     0.119 HD
ENDBRANCH  12  13
BRANCH  12  16
ATOM     16  C   UNL     1      -8.787  -6.140   8.612  1.00  0.00     0.022 C 
BRANCH  16  17
ATOM     17  C   UNL     1      -9.674  -5.120   9.340  1.00  0.00     0.002 C 
BRANCH  17  18
ATOM     18  C   UNL     1     -11.174  -5.387   9.245  1.00  0.00     0.000 C 
BRANCH  18  19
ATOM     19  C   UNL     1     -11.628  -5.926   7.882  1.00  0.00    -0.000 C 
BRANCH  19  20
ATOM     20  C   UNL     1     -12.419  -7.236   7.931  1.00  0.00    -0.000 C 
BRANCH  20  21
ATOM     21  C   UNL     1     -11.923  -8.273   6.919  1.00  0.00    -0.003 C 
ATOM     22  C   UNL     1     -10.884  -9.197   7.536  1.00  0.00     0.004 C 
ENDBRANCH  20  21
ENDBRANCH  19  20
ENDBRANCH  18  19
ENDBRANCH  17  18
ENDBRANCH  16  17
ENDBRANCH  12  16
ENDBRANCH   9  12
ENDBRANCH   6   9
ENDBRANCH   3   5
ENDBRANCH   2   3
BRANCH   2  23
ATOM     23  N   UNL     1      -4.240  -9.387   3.392  1.00  0.00    -0.332 N 
ATOM     24  C   UNL     1      -5.036 -10.513   2.927  1.00  0.00     0.147 C 
BRANCH  23  25
ATOM     25  C   UNL     1      -2.987  -9.145   2.625  1.00  0.00     0.174 C 
BRANCH  25  26
ATOM     26  C   UNL     1      -2.935  -9.933   1.294  1.00  0.00     0.038 C 
BRANCH  26  27
ATOM     27  C   UNL     1      -3.017  -9.109  -0.010  1.00  0.00    -0.015 C 
ATOM     28  C   UNL     1      -2.990  -7.602   0.248  1.00  0.00     0.007 C 
ATOM     29  C   UNL     1      -1.959  -9.496  -1.040  1.00  0.00     0.007 C 
ENDBRANCH  26  27
ENDBRANCH  25  26
BRANCH  25  30
ATOM     30  C   UNL     1      -1.756  -9.374   3.531  1.00  0.00     0.243 C 
ATOM     31  O   UNL     1      -1.475 -10.485   3.978  1.00  0.00    -0.273 OA
ATOM     32  N   UNL     1      -1.006  -8.259   3.806  1.00  0.00    -0.342 N 
ATOM     33  H   UNL     1      -1.221  -7.404   3.286  1.00  0.00     0.164 HD
BRANCH  32  34
ATOM     34  C   UNL     1       0.179  -8.282   4.667  1.00  0.00     0.175 C 
BRANCH  34  35
ATOM     35  C   UNL     1       1.437  -8.676   3.878  1.00  0.00     0.070 C 
BRANCH  35  36
ATOM     36  C   UNL     1       1.497  -8.027   2.513  1.00  0.00    -0.045 A 
ATOM     37  C   UNL     1       1.867  -6.679   2.393  1.00  0.00     0.007 A 
ATOM     38  C   UNL     1       1.166  -8.748   1.359  1.00  0.00     0.007 A 
ATOM     39  C   UNL     1       1.912  -6.068   1.140  1.00  0.00     0.046 A 
ATOM     40  C   UNL     1       1.210  -8.137   0.104  1.00  0.00     0.046 A 
ATOM     41  C   UNL     1       1.584  -6.801   0.006  1.00  0.00     0.115 A 
BRANCH  41  42
ATOM     42  O   UNL     1       1.638  -6.165  -1.200  1.00  0.00    -0.508 OA
ATOM     43  H   UNL     1       2.400  -6.513  -1.693  1.00  0.00     0.293 HD
ENDBRANCH  41  42
ENDBRANCH  35  36
ENDBRANCH  34  35
BRANCH  34  44
ATOM     44  C   UNL     1       0.321  -6.890   5.323  1.00  0.00     0.243 C 
ATOM     45  O   UNL     1       1.297  -6.525   5.973  1.00  0.00    -0.273 OA
ATOM     46  N   UNL     1      -0.818  -6.119   5.226  1.00  0.00    -0.341 N 
ATOM     47  H   UNL     1      -1.643  -6.510   4.778  1.00  0.00     0.164 HD
BRANCH  46  48
ATOM     48  C   UNL     1      -0.946  -4.790   5.829  1.00  0.00     0.196 C 
BRANCH  48  49
ATOM     49  C   UNL     1      -1.990  -3.937   5.089  1.00  0.00     0.072 C 
BRANCH  49  50
ATOM     50  C   UNL     1      -1.417  -3.236   3.878  1.00  0.00    -0.045 A 
ATOM     51  C   UNL     1      -0.264  -3.741   3.259  1.00  0.00     0.007 A 
ATOM     52  C   UNL     1      -2.009  -2.072   3.372  1.00  0.00     0.007 A 
ATOM     53  C   UNL     1       0.281  -3.095   2.149  1.00  0.00     0.046 A 
ATOM     54  C   UNL     1      -1.462  -1.425   2.262  1.00  0.00     0.046 A 
ATOM     55  C   UNL     1      -0.321  -1.943   1.659  1.00  0.00     0.115 A 
BRANCH  55  56
ATOM     56  O   UNL     1       0.244  -1.341   0.574  1.00  0.00    -0.508 OA
ATOM     57  H   UNL     1      -0.392  -0.704   0.212  1.00  0.00     0.293 HD
ENDBRANCH  55  56
ENDBRANCH  49  50
ENDBRANCH  48  49
BRANCH  48  58
ATOM     58  C   UNL     1      -1.357  -4.947   7.299  1.00  0.00     0.326 C 
ATOM     59  O   UNL     1      -0.693  -4.672   8.286  1.00  0.00    -0.250 OA
BRANCH  58  60
ATOM     60  O   UNL     1      -2.612  -5.436   7.461  1.00  0.00    -0.480 OA
ATOM     61  H   UNL     1      -2.582  -6.295   6.987  1.00  0.00     0.296 HD
ENDBRANCH  58  60
ENDBRANCH  48  58
ENDBRANCH  46  48
ENDBRANCH  34  44
ENDBRANCH  32  34
ENDBRANCH  25  30
ENDBRANCH  23  25
ENDBRANCH   2  23
TORSDOF 28
ENDMDL
MODEL 3
REMARK VINA RESULT:    -6.251      2.238      6.343
REMARK INTER + INTRA:         -21.504
REMARK INTER:                 -14.861
REMARK INTRA:                  -6.643
REMARK UNBOUND:                -5.934
REMARK SMILES CCCCCCC[C@H](N)[C@H](O)C(=O)N[C@H](C)C(=O)N(C)[C@H](CC(C)C)C(=O)N[C@@H](Cc1ccc(O)cc1)C(=O)N[C@@H](Cc1ccc(O)cc1)C(=O)O
REMARK SMILES IDX 18 1 17 2 15 3 16 4 14 5 12 6 13 7 10 9 11 10 8 12 9 13 7 16
REMARK SMILES IDX 6 17 5 18 4 19 3 20 2 21 1 22 19 23 20 24 21 25 22 26 23 27
REMARK SMILES IDX 24 28 25 29 26 30 27 31 28 32 29 34 30 35 31 36 32 37 37 38
REMARK SMILES IDX 33 39 36 40 34 41 35 42 38 44 39 45 40 46 41 48 42 49 43 50
REMARK SMILES IDX 44 51 49 52 45 53 48 54 46 55 47 56 50 58 51 59 52 60
REMARK H PARENT 14 8 11 11 9 14 9 15 28 33 35 43 40 47 47 57 52 61
ROOT
ATOM      1  O   UNL     1      -1.622  -9.576   5.548  1.00  0.00    -0.272 OA
ATOM      2  C   UNL     1      -2.478  -9.378   4.672  1.00  0.00     0.245 C 
ENDROOT
BRANCH   2   3
ATOM      3  C   UNL     1      -3.666  -8.439   4.995  1.00  0.00     0.168 C 
ATOM      4  C   UNL     1      -4.878  -9.239   5.459  1.00  0.00     0.041 C 
BRANCH   3   5
ATOM      5  N   UNL     1      -3.354  -7.350   5.908  1.00  0.00    -0.342 N 
ATOM      6  C   UNL     1      -2.758  -6.184   5.474  1.00  0.00     0.251 C 
ATOM      7  O   UNL     1      -2.412  -5.993   4.313  1.00  0.00    -0.272 OA
ATOM      8  H   UNL     1      -3.562  -7.407   6.902  1.00  0.00     0.164 HD
BRANCH   6   9
ATOM      9  C   UNL     1      -2.654  -5.122   6.580  1.00  0.00     0.219 C 
BRANCH   9  10
ATOM     10  O   UNL     1      -3.703  -5.230   7.550  1.00  0.00    -0.382 OA
ATOM     11  H   UNL     1      -3.783  -4.318   7.907  1.00  0.00     0.211 HD
ENDBRANCH   9  10
BRANCH   9  12
ATOM     12  C   UNL     1      -1.266  -5.097   7.271  1.00  0.00     0.089 C 
BRANCH  12  13
ATOM     13  N   UNL     1      -0.495  -6.276   6.815  1.00  0.00    -0.325 NA
ATOM     14  H   UNL     1      -1.044  -6.789   6.123  1.00  0.00     0.119 HD
ATOM     15  H   UNL     1      -0.383  -6.922   7.599  1.00  0.00     0.119 HD
ENDBRANCH  12  13
BRANCH  12  16
ATOM     16  C   UNL     1      -0.433  -3.808   7.073  1.00  0.00     0.022 C 
BRANCH  16  17
ATOM     17  C   UNL     1       0.869  -3.630   7.865  1.00  0.00     0.002 C 
BRANCH  17  18
ATOM     18  C   UNL     1       2.139  -3.587   7.018  1.00  0.00     0.000 C 
BRANCH  18  19
ATOM     19  C   UNL     1       2.814  -4.952   6.834  1.00  0.00    -0.000 C 
BRANCH  19  20
ATOM     20  C   UNL     1       4.040  -4.953   5.917  1.00  0.00    -0.000 C 
BRANCH  20  21
ATOM     21  C   UNL     1       3.901  -3.997   4.729  1.00  0.00    -0.003 C 
ATOM     22  C   UNL     1       5.261  -3.532   4.230  1.00  0.00     0.004 C 
ENDBRANCH  20  21
ENDBRANCH  19  20
ENDBRANCH  18  19
ENDBRANCH  17  18
ENDBRANCH  16  17
ENDBRANCH  12  16
ENDBRANCH   9  12
ENDBRANCH   6   9
ENDBRANCH   3   5
ENDBRANCH   2   3
BRANCH   2  23
ATOM     23  N   UNL     1      -2.296  -9.895   3.394  1.00  0.00    -0.332 N 
ATOM     24  C   UNL     1      -2.502 -11.290   3.030  1.00  0.00     0.147 C 
BRANCH  23  25
ATOM     25  C   UNL     1      -1.991  -8.989   2.253  1.00  0.00     0.174 C 
BRANCH  25  26
ATOM     26  C   UNL     1      -2.267  -9.638   0.877  1.00  0.00     0.038 C 
BRANCH  26  27
ATOM     27  C   UNL     1      -1.097  -9.668  -0.131  1.00  0.00    -0.015 C 
ATOM     28  C   UNL     1      -0.455 -11.051  -0.240  1.00  0.00     0.007 C 
ATOM     29  C   UNL     1      -1.472  -9.140  -1.513  1.00  0.00     0.007 C 
ENDBRANCH  26  27
ENDBRANCH  25  26
BRANCH  25  30
ATOM     30  C   UNL     1      -0.561  -8.419   2.395  1.00  0.00     0.243 C 
ATOM     31  O   UNL     1       0.368  -9.095   2.834  1.00  0.00    -0.273 OA
ATOM     32  N   UNL     1      -0.401  -7.113   2.007  1.00  0.00    -0.342 N 
ATOM     33  H   UNL     1      -1.183  -6.664   1.523  1.00  0.00     0.164 HD
BRANCH  32  34
ATOM     34  C   UNL     1       0.876  -6.400   2.096  1.00  0.00     0.175 C 
BRANCH  34  35
ATOM     35  C   UNL     1       1.390  -5.998   0.705  1.00  0.00     0.070 C 
BRANCH  35  36
ATOM     36  C   UNL     1       2.004  -7.156  -0.049  1.00  0.00    -0.045 A 
ATOM     37  C   UNL     1       2.792  -8.097   0.631  1.00  0.00     0.007 A 
ATOM     38  C   UNL     1       1.816  -7.294  -1.430  1.00  0.00     0.007 A 
ATOM     39  C   UNL     1       3.374  -9.161  -0.059  1.00  0.00     0.046 A 
ATOM     40  C   UNL     1       2.399  -8.359  -2.122  1.00  0.00     0.046 A 
ATOM     41  C   UNL     1       3.173  -9.284  -1.429  1.00  0.00     0.115 A 
BRANCH  41  42
ATOM     42  O   UNL     1       3.762 -10.336  -2.066  1.00  0.00    -0.508 OA
ATOM     43  H   UNL     1       3.392 -10.394  -2.962  1.00  0.00     0.293 HD
ENDBRANCH  41  42
ENDBRANCH  35  36
ENDBRANCH  34  35
BRANCH  34  44
ATOM     44  C   UNL     1       0.676  -5.174   3.015  1.00  0.00     0.243 C 
ATOM     45  O   UNL     1       0.635  -5.225   4.241  1.00  0.00    -0.273 OA
ATOM     46  N   UNL     1       0.413  -4.009   2.326  1.00  0.00    -0.341 N 
ATOM     47  H   UNL     1       0.341  -4.040   1.312  1.00  0.00     0.164 HD
BRANCH  46  48
ATOM     48  C   UNL     1       0.123  -2.732   2.982  1.00  0.00     0.196 C 
BRANCH  48  49
ATOM     49  C   UNL     1       0.753  -1.555   2.220  1.00  0.00     0.072 C 
BRANCH  49  50
ATOM     50  C   UNL     1       1.823  -0.848   3.023  1.00  0.00    -0.045 A 
ATOM     51  C   UNL     1       1.900  -1.044   4.409  1.00  0.00     0.007 A 
ATOM     52  C   UNL     1       2.731   0.020   2.405  1.00  0.00     0.007 A 
ATOM     53  C   UNL     1       2.874  -0.388   5.162  1.00  0.00     0.046 A 
ATOM     54  C   UNL     1       3.706   0.679   3.159  1.00  0.00     0.046 A 
ATOM     55  C   UNL     1       3.769   0.468   4.532  1.00  0.00     0.115 A 
BRANCH  55  56
ATOM     56  O   UNL     1       4.705   1.092   5.303  1.00  0.00    -0.508 OA
ATOM     57  H   UNL     1       5.425   1.393   4.727  1.00  0.00     0.293 HD
ENDBRANCH  55  56
ENDBRANCH  49  50
ENDBRANCH  48  49
BRANCH  48  58
ATOM     58  C   UNL     1      -1.399  -2.543   3.055  1.00  0.00     0.326 C 
ATOM     59  O   UNL     1      -2.130  -2.789   4.001  1.00  0.00    -0.250 OA
BRANCH  58  60
ATOM     60  O   UNL     1      -1.935  -2.029   1.920  1.00  0.00    -0.480 OA
ATOM     61  H   UNL     1      -1.489  -1.159   1.832  1.00  0.00     0.296 HD
ENDBRANCH  58  60
ENDBRANCH  48  58
ENDBRANCH  46  48
ENDBRANCH  34  44
ENDBRANCH  32  34
ENDBRANCH  25  30
ENDBRANCH  23  25
ENDBRANCH   2  23
TORSDOF 28
ENDMDL
MODEL 4
REMARK VINA RESULT:    -6.232      3.629      8.930
REMARK INTER + INTRA:         -21.456
REMARK INTER:                 -16.233
REMARK INTRA:                  -5.223
REMARK UNBOUND:                -5.934
REMARK SMILES CCCCCCC[C@H](N)[C@H](O)C(=O)N[C@H](C)C(=O)N(C)[C@H](CC(C)C)C(=O)N[C@@H](Cc1ccc(O)cc1)C(=O)N[C@@H](Cc1ccc(O)cc1)C(=O)O
REMARK SMILES IDX 18 1 17 2 15 3 16 4 14 5 12 6 13 7 10 9 11 10 8 12 9 13 7 16
REMARK SMILES IDX 6 17 5 18 4 19 3 20 2 21 1 22 19 23 20 24 21 25 22 26 23 27
REMARK SMILES IDX 24 28 25 29 26 30 27 31 28 32 29 34 30 35 31 36 32 37 37 38
REMARK SMILES IDX 33 39 36 40 34 41 35 42 38 44 39 45 40 46 41 48 42 49 43 50
REMARK SMILES IDX 44 51 49 52 45 53 48 54 46 55 47 56 50 58 51 59 52 60
REMARK H PARENT 14 8 11 11 9 14 9 15 28 33 35 43 40 47 47 57 52 61
ROOT
ATOM      1  O   UNL     1      -0.047  -6.586   0.521  1.00  0.00    -0.272 OA
ATOM      2  C   UNL     1       0.779  -6.570   1.446  1.00  0.00     0.245 C 
ENDROOT
BRANCH   2   3
ATOM      3  C   UNL     1       1.853  -7.685   1.500  1.00  0.00     0.168 C 
ATOM      4  C   UNL     1       1.758  -8.465   2.807  1.00  0.00     0.041 C 
BRANCH   3   5
ATOM      5  N   UNL     1       1.877  -8.567   0.343  1.00  0.00    -0.342 N 
ATOM      6  C   UNL     1       2.714  -8.339  -0.728  1.00  0.00     0.251 C 
ATOM      7  O   UNL     1       3.462  -7.370  -0.809  1.00  0.00    -0.272 OA
ATOM      8  H   UNL     1       1.275  -9.385   0.280  1.00  0.00     0.164 HD
BRANCH   6   9
ATOM      9  C   UNL     1       2.673  -9.472  -1.766  1.00  0.00     0.219 C 
BRANCH   9  10
ATOM     10  O   UNL     1       3.820 -10.327  -1.697  1.00  0.00    -0.382 OA
ATOM     11  H   UNL     1       4.572  -9.720  -1.874  1.00  0.00     0.211 HD
ENDBRANCH   9  10
BRANCH   9  12
ATOM     12  C   UNL     1       1.364 -10.302  -1.710  1.00  0.00     0.089 C 
BRANCH  12  13
ATOM     13  N   UNL     1       0.218  -9.382  -1.894  1.00  0.00    -0.325 NA
ATOM     14  H   UNL     1       0.527  -8.423  -1.722  1.00  0.00     0.119 HD
ATOM     15  H   UNL     1      -0.478  -9.571  -1.169  1.00  0.00     0.119 HD
ENDBRANCH  12  13
BRANCH  12  16
ATOM     16  C   UNL     1       1.264 -11.480  -2.708  1.00  0.00     0.022 C 
BRANCH  16  17
ATOM     17  C   UNL     1       0.996 -12.893  -2.172  1.00  0.00     0.002 C 
BRANCH  17  18
ATOM     18  C   UNL     1       0.328 -13.843  -3.165  1.00  0.00     0.000 C 
BRANCH  18  19
ATOM     19  C   UNL     1       1.107 -14.026  -4.474  1.00  0.00    -0.000 C 
BRANCH  19  20
ATOM     20  C   UNL     1       0.243 -14.226  -5.722  1.00  0.00    -0.000 C 
BRANCH  20  21
ATOM     21  C   UNL     1       0.849 -13.594  -6.978  1.00  0.00    -0.003 C 
ATOM     22  C   UNL     1       2.280 -14.060  -7.198  1.00  0.00     0.004 C 
ENDBRANCH  20  21
ENDBRANCH  19  20
ENDBRANCH  18  19
ENDBRANCH  17  18
ENDBRANCH  16  17
ENDBRANCH  12  16
ENDBRANCH   9  12
ENDBRANCH   6   9
ENDBRANCH   3   5
ENDBRANCH   2   3
BRANCH   2  23
ATOM     23  N   UNL     1       0.806  -5.501   2.336  1.00  0.00    -0.332 N 
ATOM     24  C   UNL     1       1.991  -4.714   2.644  1.00  0.00     0.147 C 
BRANCH  23  25
ATOM     25  C   UNL     1      -0.455  -5.004   2.952  1.00  0.00     0.174 C 
BRANCH  25  26
ATOM     26  C   UNL     1      -0.340  -3.552   3.470  1.00  0.00     0.038 C 
BRANCH  26  27
ATOM     27  C   UNL     1      -1.508  -2.596   3.140  1.00  0.00    -0.015 C 
ATOM     28  C   UNL     1      -2.105  -1.950   4.390  1.00  0.00     0.007 C 
ATOM     29  C   UNL     1      -1.150  -1.534   2.104  1.00  0.00     0.007 C 
ENDBRANCH  26  27
ENDBRANCH  25  26
BRANCH  25  30
ATOM     30  C   UNL     1      -0.957  -6.006   4.016  1.00  0.00     0.243 C 
ATOM     31  O   UNL     1      -0.382  -6.153   5.094  1.00  0.00    -0.273 OA
ATOM     32  N   UNL     1      -2.078  -6.720   3.677  1.00  0.00    -0.342 N 
ATOM     33  H   UNL     1      -2.578  -6.441   2.829  1.00  0.00     0.164 HD
BRANCH  32  34
ATOM     34  C   UNL     1      -2.679  -7.732   4.550  1.00  0.00     0.175 C 
BRANCH  34  35
ATOM     35  C   UNL     1      -4.208  -7.760   4.403  1.00  0.00     0.070 C 
BRANCH  35  36
ATOM     36  C   UNL     1      -4.906  -8.272   5.642  1.00  0.00    -0.045 A 
ATOM     37  C   UNL     1      -5.133  -9.647   5.803  1.00  0.00     0.007 A 
ATOM     38  C   UNL     1      -5.354  -7.387   6.632  1.00  0.00     0.007 A 
ATOM     39  C   UNL     1      -5.788 -10.128   6.937  1.00  0.00     0.046 A 
ATOM     40  C   UNL     1      -6.012  -7.867   7.767  1.00  0.00     0.046 A 
ATOM     41  C   UNL     1      -6.222  -9.235   7.910  1.00  0.00     0.115 A 
BRANCH  41  42
ATOM     42  O   UNL     1      -6.860  -9.745   9.001  1.00  0.00    -0.508 OA
ATOM     43  H   UNL     1      -7.817  -9.724   8.831  1.00  0.00     0.293 HD
ENDBRANCH  41  42
ENDBRANCH  35  36
ENDBRANCH  34  35
BRANCH  34  44
ATOM     44  C   UNL     1      -2.040  -9.097   4.211  1.00  0.00     0.243 C 
ATOM     45  O   UNL     1      -1.112  -9.603   4.834  1.00  0.00    -0.273 OA
ATOM     46  N   UNL     1      -2.524  -9.655   3.046  1.00  0.00    -0.341 N 
ATOM     47  H   UNL     1      -3.212  -9.141   2.501  1.00  0.00     0.164 HD
BRANCH  46  48
ATOM     48  C   UNL     1      -2.023 -10.912   2.486  1.00  0.00     0.196 C 
BRANCH  48  49
ATOM     49  C   UNL     1      -3.124 -11.986   2.447  1.00  0.00     0.072 C 
BRANCH  49  50
ATOM     50  C   UNL     1      -3.385 -12.600   3.803  1.00  0.00    -0.045 A 
ATOM     51  C   UNL     1      -4.694 -12.938   4.177  1.00  0.00     0.007 A 
ATOM     52  C   UNL     1      -2.339 -12.820   4.708  1.00  0.00     0.007 A 
ATOM     53  C   UNL     1      -4.949 -13.494   5.431  1.00  0.00     0.046 A 
ATOM     54  C   UNL     1      -2.595 -13.375   5.964  1.00  0.00     0.046 A 
ATOM     55  C   UNL     1      -3.899 -13.709   6.314  1.00  0.00     0.115 A 
BRANCH  55  56
ATOM     56  O   UNL     1      -4.190 -14.252   7.531  1.00  0.00    -0.508 OA
ATOM     57  H   UNL     1      -5.099 -14.591   7.504  1.00  0.00     0.293 HD
ENDBRANCH  55  56
ENDBRANCH  49  50
ENDBRANCH  48  49
BRANCH  48  58
ATOM     58  C   UNL     1      -1.505 -10.654   1.064  1.00  0.00     0.326 C 
ATOM     59  O   UNL     1      -1.379 -11.468   0.164  1.00  0.00    -0.250 OA
BRANCH  58  60
ATOM     60  O   UNL     1      -1.180  -9.357   0.834  1.00  0.00    -0.480 OA
ATOM     61  H   UNL     1      -0.829  -9.055   1.700  1.00  0.00     0.296 HD
ENDBRANCH  58  60
ENDBRANCH  48  58
ENDBRANCH  46  48
ENDBRANCH  34  44
ENDBRANCH  32  34
ENDBRANCH  25  30
ENDBRANCH  23  25
ENDBRANCH   2  23
TORSDOF 28
ENDMDL
MODEL 5
REMARK VINA RESULT:    -6.208      8.021     12.624
REMARK INTER + INTRA:         -21.396
REMARK INTER:                 -14.987
REMARK INTRA:                  -6.409
REMARK UNBOUND:                -5.934
REMARK SMILES CCCCCCC[C@H](N)[C@H](O)C(=O)N[C@H](C)C(=O)N(C)[C@H](CC(C)C)C(=O)N[C@@H](Cc1ccc(O)cc1)C(=O)N[C@@H](Cc1ccc(O)cc1)C(=O)O
REMARK SMILES IDX 18 1 17 2 15 3 16 4 14 5 12 6 13 7 10 9 11 10 8 12 9 13 7 16
REMARK SMILES IDX 6 17 5 18 4 19 3 20 2 21 1 22 19 23 20 24 21 25 22 26 23 27
REMARK SMILES IDX 24 28 25 29 26 30 27 31 28 32 29 34 30 35 31 36 32 37 37 38
REMARK SMILES IDX 33 39 36 40 34 41 35 42 38 44 39 45 40 46 41 48 42 49 43 50
REMARK SMILES IDX 44 51 49 52 45 53 48 54 46 55 47 56 50 58 51 59 52 60
REMARK H PARENT 14 8 11 11 9 14 9 15 28 33 35 43 40 47 47 57 52 61
ROOT
ATOM      1  O   UNL     1      12.364   0.953  -1.558  1.00  0.00    -0.272 OA
ATOM      2  C   UNL     1      11.719   0.789  -2.604  1.00  0.00     0.245 C 
ENDROOT
BRANCH   2   3
ATOM      3  C   UNL     1      11.515   2.001  -3.547  1.00  0.00     0.168 C 
ATOM      4  C   UNL     1      12.294   1.815  -4.844  1.00  0.00     0.041 C 
BRANCH   3   5
ATOM      5  N   UNL     1      10.126   2.356  -3.795  1.00  0.00    -0.342 N 
ATOM      6  C   UNL     1       9.769   3.585  -4.309  1.00  0.00     0.251 C 
ATOM      7  O   UNL     1      10.576   4.475  -4.554  1.00  0.00    -0.272 OA
ATOM      8  H   UNL     1       9.364   1.711  -3.597  1.00  0.00     0.164 HD
BRANCH   6   9
ATOM      9  C   UNL     1       8.268   3.685  -4.621  1.00  0.00     0.219 C 
BRANCH   9  10
ATOM     10  O   UNL     1       7.522   2.573  -4.112  1.00  0.00    -0.382 OA
ATOM     11  H   UNL     1       6.640   2.957  -3.913  1.00  0.00     0.211 HD
ENDBRANCH   9  10
BRANCH   9  12
ATOM     12  C   UNL     1       7.639   5.026  -4.161  1.00  0.00     0.089 C 
BRANCH  12  13
ATOM     13  N   UNL     1       7.345   5.841  -5.362  1.00  0.00    -0.325 NA
ATOM     14  H   UNL     1       6.991   5.232  -6.102  1.00  0.00     0.119 HD
ATOM     15  H   UNL     1       8.221   6.222  -5.726  1.00  0.00     0.119 HD
ENDBRANCH  12  13
BRANCH  12  16
ATOM     16  C   UNL     1       6.376   4.914  -3.273  1.00  0.00     0.022 C 
BRANCH  16  17
ATOM     17  C   UNL     1       5.181   5.835  -3.554  1.00  0.00     0.002 C 
BRANCH  17  18
ATOM     18  C   UNL     1       3.948   5.572  -2.692  1.00  0.00     0.000 C 
BRANCH  18  19
ATOM     19  C   UNL     1       3.133   4.346  -3.126  1.00  0.00    -0.000 C 
BRANCH  19  20
ATOM     20  C   UNL     1       2.479   3.564  -1.984  1.00  0.00    -0.000 C 
BRANCH  20  21
ATOM     21  C   UNL     1       2.956   2.112  -1.901  1.00  0.00    -0.003 C 
ATOM     22  C   UNL     1       4.280   1.921  -2.625  1.00  0.00     0.004 C 
ENDBRANCH  20  21
ENDBRANCH  19  20
ENDBRANCH  18  19
ENDBRANCH  17  18
ENDBRANCH  16  17
ENDBRANCH  12  16
ENDBRANCH   9  12
ENDBRANCH   6   9
ENDBRANCH   3   5
ENDBRANCH   2   3
BRANCH   2  23
ATOM     23  N   UNL     1      11.299  -0.486  -2.970  1.00  0.00    -0.332 N 
ATOM     24  C   UNL     1      11.943  -1.307  -3.985  1.00  0.00     0.147 C 
BRANCH  23  25
ATOM     25  C   UNL     1      10.200  -1.158  -2.225  1.00  0.00     0.174 C 
BRANCH  25  26
ATOM     26  C   UNL     1       9.745  -2.480  -2.885  1.00  0.00     0.038 C 
BRANCH  26  27
ATOM     27  C   UNL     1       9.362  -3.640  -1.939  1.00  0.00    -0.015 C 
ATOM     28  C   UNL     1      10.080  -3.557  -0.593  1.00  0.00     0.007 C 
ATOM     29  C   UNL     1       7.856  -3.787  -1.737  1.00  0.00     0.007 C 
ENDBRANCH  26  27
ENDBRANCH  25  26
BRANCH  25  30
ATOM     30  C   UNL     1       9.046  -0.162  -1.967  1.00  0.00     0.243 C 
ATOM     31  O   UNL     1       8.285   0.198  -2.865  1.00  0.00    -0.273 OA
ATOM     32  N   UNL     1       8.932   0.295  -0.679  1.00  0.00    -0.342 N 
ATOM     33  H   UNL     1       9.509  -0.156   0.036  1.00  0.00     0.164 HD
BRANCH  32  34
ATOM     34  C   UNL     1       7.915   1.262  -0.258  1.00  0.00     0.175 C 
BRANCH  34  35
ATOM     35  C   UNL     1       7.186   0.791   1.009  1.00  0.00     0.070 C 
BRANCH  35  36
ATOM     36  C   UNL     1       5.845   0.160   0.712  1.00  0.00    -0.045 A 
ATOM     37  C   UNL     1       5.722  -0.768  -0.333  1.00  0.00     0.007 A 
ATOM     38  C   UNL     1       4.708   0.506   1.454  1.00  0.00     0.007 A 
ATOM     39  C   UNL     1       4.485  -1.345  -0.623  1.00  0.00     0.046 A 
ATOM     40  C   UNL     1       3.469  -0.070   1.163  1.00  0.00     0.046 A 
ATOM     41  C   UNL     1       3.370  -0.993   0.127  1.00  0.00     0.115 A 
BRANCH  41  42
ATOM     42  O   UNL     1       2.180  -1.577  -0.192  1.00  0.00    -0.508 OA
ATOM     43  H   UNL     1       2.081  -2.380   0.347  1.00  0.00     0.293 HD
ENDBRANCH  41  42
ENDBRANCH  35  36
ENDBRANCH  34  35
BRANCH  34  44
ATOM     44  C   UNL     1       8.610   2.627  -0.052  1.00  0.00     0.243 C 
ATOM     45  O   UNL     1       9.378   3.144  -0.858  1.00  0.00    -0.273 OA
ATOM     46  N   UNL     1       8.393   3.170   1.197  1.00  0.00    -0.341 N 
ATOM     47  H   UNL     1       7.843   2.647   1.874  1.00  0.00     0.164 HD
BRANCH  46  48
ATOM     48  C   UNL     1       9.002   4.423   1.648  1.00  0.00     0.196 C 
BRANCH  48  49
ATOM     49  C   UNL     1       7.938   5.503   1.903  1.00  0.00     0.072 C 
BRANCH  49  50
ATOM     50  C   UNL     1       6.533   4.943   1.923  1.00  0.00    -0.045 A 
ATOM     51  C   UNL     1       5.989   4.466   3.124  1.00  0.00     0.007 A 
ATOM     52  C   UNL     1       5.769   4.872   0.752  1.00  0.00     0.007 A 
ATOM     53  C   UNL     1       4.699   3.934   3.153  1.00  0.00     0.046 A 
ATOM     54  C   UNL     1       4.478   4.339   0.780  1.00  0.00     0.046 A 
ATOM     55  C   UNL     1       3.954   3.875   1.982  1.00  0.00     0.115 A 
BRANCH  55  56
ATOM     56  O   UNL     1       2.698   3.347   2.052  1.00  0.00    -0.508 OA
ATOM     57  H   UNL     1       2.617   2.861   2.888  1.00  0.00     0.293 HD
ENDBRANCH  55  56
ENDBRANCH  49  50
ENDBRANCH  48  49
BRANCH  48  58
ATOM     58  C   UNL     1       9.788   4.159   2.941  1.00  0.00     0.326 C 
ATOM     59  O   UNL     1      10.484   3.191   3.198  1.00  0.00    -0.250 OA
BRANCH  58  60
ATOM     60  O   UNL     1       9.670   5.152   3.858  1.00  0.00    -0.480 OA
ATOM     61  H   UNL     1       8.765   5.499   3.700  1.00  0.00     0.296 HD
ENDBRANCH  58  60
ENDBRANCH  48  58
ENDBRANCH  46  48
ENDBRANCH  34  44
ENDBRANCH  32  34
ENDBRANCH  25  30
ENDBRANCH  23  25
ENDBRANCH   2  23
TORSDOF 28
ENDMDL
MODEL 6
REMARK VINA RESULT:    -6.146      8.100     13.073
REMARK INTER + INTRA:         -21.243
REMARK INTER:                 -15.563
REMARK INTRA:                  -5.680
REMARK UNBOUND:                -5.934
REMARK SMILES CCCCCCC[C@H](N)[C@H](O)C(=O)N[C@H](C)C(=O)N(C)[C@H](CC(C)C)C(=O)N[C@@H](Cc1ccc(O)cc1)C(=O)N[C@@H](Cc1ccc(O)cc1)C(=O)O
REMARK SMILES IDX 18 1 17 2 15 3 16 4 14 5 12 6 13 7 10 9 11 10 8 12 9 13 7 16
REMARK SMILES IDX 6 17 5 18 4 19 3 20 2 21 1 22 19 23 20 24 21 25 22 26 23 27
REMARK SMILES IDX 24 28 25 29 26 30 27 31 28 32 29 34 30 35 31 36 32 37 37 38
REMARK SMILES IDX 33 39 36 40 34 41 35 42 38 44 39 45 40 46 41 48 42 49 43 50
REMARK SMILES IDX 44 51 49 52 45 53 48 54 46 55 47 56 50 58 51 59 52 60
REMARK H PARENT 14 8 11 11 9 14 9 15 28 33 35 43 40 47 47 57 52 61
ROOT
ATOM      1  O   UNL     1      11.671   1.213  -0.669  1.00  0.00    -0.272 OA
ATOM      2  C   UNL     1      11.529   0.899  -1.860  1.00  0.00     0.245 C 
ENDROOT
BRANCH   2   3
ATOM      3  C   UNL     1      11.557   2.020  -2.929  1.00  0.00     0.168 C 
ATOM      4  C   UNL     1      12.622   1.736  -3.983  1.00  0.00     0.041 C 
BRANCH   3   5
ATOM      5  N   UNL     1      10.268   2.324  -3.530  1.00  0.00    -0.342 N 
ATOM      6  C   UNL     1      10.000   3.552  -4.097  1.00  0.00     0.251 C 
ATOM      7  O   UNL     1      10.798   4.483  -4.101  1.00  0.00    -0.272 OA
ATOM      8  H   UNL     1       9.514   1.641  -3.555  1.00  0.00     0.164 HD
BRANCH   6   9
ATOM      9  C   UNL     1       8.631   3.599  -4.795  1.00  0.00     0.219 C 
BRANCH   9  10
ATOM     10  O   UNL     1       7.927   2.354  -4.715  1.00  0.00    -0.382 OA
ATOM     11  H   UNL     1       7.617   2.204  -5.635  1.00  0.00     0.211 HD
ENDBRANCH   9  10
BRANCH   9  12
ATOM     12  C   UNL     1       7.738   4.769  -4.306  1.00  0.00     0.089 C 
BRANCH  12  13
ATOM     13  N   UNL     1       7.386   5.608  -5.474  1.00  0.00    -0.325 NA
ATOM     14  H   UNL     1       7.201   5.004  -6.277  1.00  0.00     0.119 HD
ATOM     15  H   UNL     1       8.202   6.164  -5.741  1.00  0.00     0.119 HD
ENDBRANCH  12  13
BRANCH  12  16
ATOM     16  C   UNL     1       6.459   4.369  -3.534  1.00  0.00     0.022 C 
BRANCH  16  17
ATOM     17  C   UNL     1       5.748   5.420  -2.669  1.00  0.00     0.002 C 
BRANCH  17  18
ATOM     18  C   UNL     1       5.654   5.076  -1.184  1.00  0.00     0.000 C 
BRANCH  18  19
ATOM     19  C   UNL     1       4.253   4.644  -0.731  1.00  0.00    -0.000 C 
BRANCH  19  20
ATOM     20  C   UNL     1       3.942   3.155  -0.910  1.00  0.00    -0.000 C 
BRANCH  20  21
ATOM     21  C   UNL     1       2.894   2.888  -1.993  1.00  0.00    -0.003 C 
ATOM     22  C   UNL     1       2.162   4.162  -2.384  1.00  0.00     0.004 C 
ENDBRANCH  20  21
ENDBRANCH  19  20
ENDBRANCH  18  19
ENDBRANCH  17  18
ENDBRANCH  16  17
ENDBRANCH  12  16
ENDBRANCH   9  12
ENDBRANCH   6   9
ENDBRANCH   3   5
ENDBRANCH   2   3
BRANCH   2  23
ATOM     23  N   UNL     1      11.470  -0.442  -2.224  1.00  0.00    -0.332 N 
ATOM     24  C   UNL     1      12.621  -1.243  -2.612  1.00  0.00     0.147 C 
BRANCH  23  25
ATOM     25  C   UNL     1      10.191  -1.195  -2.112  1.00  0.00     0.174 C 
BRANCH  25  26
ATOM     26  C   UNL     1       9.979  -2.197  -3.271  1.00  0.00     0.038 C 
BRANCH  26  27
ATOM     27  C   UNL     1       9.801  -3.683  -2.888  1.00  0.00    -0.015 C 
ATOM     28  C   UNL     1      10.316  -3.990  -1.482  1.00  0.00     0.007 C 
ATOM     29  C   UNL     1       8.369  -4.187  -3.057  1.00  0.00     0.007 C 
ENDBRANCH  26  27
ENDBRANCH  25  26
BRANCH  25  30
ATOM     30  C   UNL     1       9.012  -0.215  -1.915  1.00  0.00     0.243 C 
ATOM     31  O   UNL     1       8.351   0.207  -2.863  1.00  0.00    -0.273 OA
ATOM     32  N   UNL     1       8.758   0.154  -0.619  1.00  0.00    -0.342 N 
ATOM     33  H   UNL     1       9.255  -0.346   0.122  1.00  0.00     0.164 HD
BRANCH  32  34
ATOM     34  C   UNL     1       7.698   1.095  -0.246  1.00  0.00     0.175 C 
BRANCH  34  35
ATOM     35  C   UNL     1       6.939   0.616   1.002  1.00  0.00     0.070 C 
BRANCH  35  36
ATOM     36  C   UNL     1       5.497   0.268   0.711  1.00  0.00    -0.045 A 
ATOM     37  C   UNL     1       4.509   0.508   1.679  1.00  0.00     0.007 A 
ATOM     38  C   UNL     1       5.129  -0.315  -0.508  1.00  0.00     0.007 A 
ATOM     39  C   UNL     1       3.177   0.177   1.425  1.00  0.00     0.046 A 
ATOM     40  C   UNL     1       3.796  -0.648  -0.762  1.00  0.00     0.046 A 
ATOM     41  C   UNL     1       2.831  -0.396   0.208  1.00  0.00     0.115 A 
BRANCH  41  42
ATOM     42  O   UNL     1       1.520  -0.707   0.001  1.00  0.00    -0.508 OA
ATOM     43  H   UNL     1       1.476  -1.424  -0.653  1.00  0.00     0.293 HD
ENDBRANCH  41  42
ENDBRANCH  35  36
ENDBRANCH  34  35
BRANCH  34  44
ATOM     44  C   UNL     1       8.343   2.483  -0.032  1.00  0.00     0.243 C 
ATOM     45  O   UNL     1       8.705   3.226  -0.940  1.00  0.00    -0.273 OA
ATOM     46  N   UNL     1       8.602   2.769   1.291  1.00  0.00    -0.341 N 
ATOM     47  H   UNL     1       8.389   2.071   1.999  1.00  0.00     0.164 HD
BRANCH  46  48
ATOM     48  C   UNL     1       9.270   3.995   1.734  1.00  0.00     0.196 C 
BRANCH  48  49
ATOM     49  C   UNL     1       8.285   5.175   1.805  1.00  0.00     0.072 C 
BRANCH  49  50
ATOM     50  C   UNL     1       8.852   6.443   1.207  1.00  0.00    -0.045 A 
ATOM     51  C   UNL     1       8.904   7.615   1.975  1.00  0.00     0.007 A 
ATOM     52  C   UNL     1       9.311   6.473  -0.116  1.00  0.00     0.007 A 
ATOM     53  C   UNL     1       9.413   8.794   1.430  1.00  0.00     0.046 A 
ATOM     54  C   UNL     1       9.820   7.654  -0.662  1.00  0.00     0.046 A 
ATOM     55  C   UNL     1       9.867   8.805   0.117  1.00  0.00     0.115 A 
BRANCH  55  56
ATOM     56  O   UNL     1      10.355   9.978  -0.379  1.00  0.00    -0.508 OA
ATOM     57  H   UNL     1      11.068   9.772  -1.004  1.00  0.00     0.293 HD
ENDBRANCH  55  56
ENDBRANCH  49  50
ENDBRANCH  48  49
BRANCH  48  58
ATOM     58  C   UNL     1       9.886   3.755   3.119  1.00  0.00     0.326 C 
ATOM     59  O   UNL     1      10.710   2.908   3.425  1.00  0.00    -0.250 OA
BRANCH  58  60
ATOM     60  O   UNL     1       9.440   4.617   4.067  1.00  0.00    -0.480 OA
ATOM     61  H   UNL     1      10.268   4.961   4.468  1.00  0.00     0.296 HD
ENDBRANCH  58  60
ENDBRANCH  48  58
ENDBRANCH  46  48
ENDBRANCH  34  44
ENDBRANCH  32  34
ENDBRANCH  25  30
ENDBRANCH  23  25
ENDBRANCH   2  23
TORSDOF 28
ENDMDL
MODEL 7
REMARK VINA RESULT:    -6.136      3.741      7.796
REMARK INTER + INTRA:         -21.216
REMARK INTER:                 -16.626
REMARK INTRA:                  -4.590
REMARK UNBOUND:                -5.934
REMARK SMILES CCCCCCC[C@H](N)[C@H](O)C(=O)N[C@H](C)C(=O)N(C)[C@H](CC(C)C)C(=O)N[C@@H](Cc1ccc(O)cc1)C(=O)N[C@@H](Cc1ccc(O)cc1)C(=O)O
REMARK SMILES IDX 18 1 17 2 15 3 16 4 14 5 12 6 13 7 10 9 11 10 8 12 9 13 7 16
REMARK SMILES IDX 6 17 5 18 4 19 3 20 2 21 1 22 19 23 20 24 21 25 22 26 23 27
REMARK SMILES IDX 24 28 25 29 26 30 27 31 28 32 29 34 30 35 31 36 32 37 37 38
REMARK SMILES IDX 33 39 36 40 34 41 35 42 38 44 39 45 40 46 41 48 42 49 43 50
REMARK SMILES IDX 44 51 49 52 45 53 48 54 46 55 47 56 50 58 51 59 52 60
REMARK H PARENT 14 8 11 11 9 14 9 15 28 33 35 43 40 47 47 57 52 61
ROOT
ATOM      1  O   UNL     1      -1.518 -10.754   2.236  1.00  0.00    -0.272 OA
ATOM      2  C   UNL     1      -1.534 -10.817   0.998  1.00  0.00     0.245 C 
ENDROOT
BRANCH   2   3
ATOM      3  C   UNL     1      -1.184 -12.166   0.320  1.00  0.00     0.168 C 
ATOM      4  C   UNL     1      -2.360 -13.133   0.398  1.00  0.00     0.041 C 
BRANCH   3   5
ATOM      5  N   UNL     1      -0.664 -12.052  -1.034  1.00  0.00    -0.342 N 
ATOM      6  C   UNL     1       0.636 -12.390  -1.345  1.00  0.00     0.251 C 
ATOM      7  O   UNL     1       1.455 -12.766  -0.514  1.00  0.00    -0.272 OA
ATOM      8  H   UNL     1      -1.240 -11.719  -1.803  1.00  0.00     0.164 HD
BRANCH   6   9
ATOM      9  C   UNL     1       0.921 -12.328  -2.855  1.00  0.00     0.219 C 
BRANCH   9  10
ATOM     10  O   UNL     1       2.049 -11.503  -3.170  1.00  0.00    -0.382 OA
ATOM     11  H   UNL     1       2.575 -11.504  -2.340  1.00  0.00     0.211 HD
ENDBRANCH   9  10
BRANCH   9  12
ATOM     12  C   UNL     1       1.062 -13.728  -3.506  1.00  0.00     0.089 C 
BRANCH  12  13
ATOM     13  N   UNL     1       0.355 -14.713  -2.656  1.00  0.00    -0.325 NA
ATOM     14  H   UNL     1      -0.576 -14.356  -2.432  1.00  0.00     0.119 HD
ATOM     15  H   UNL     1       0.838 -14.781  -1.757  1.00  0.00     0.119 HD
ENDBRANCH  12  13
BRANCH  12  16
ATOM     16  C   UNL     1       0.578 -13.846  -4.971  1.00  0.00     0.022 C 
BRANCH  16  17
ATOM     17  C   UNL     1      -0.903 -13.603  -5.290  1.00  0.00     0.002 C 
BRANCH  17  18
ATOM     18  C   UNL     1      -1.168 -12.864  -6.600  1.00  0.00     0.000 C 
BRANCH  18  19
ATOM     19  C   UNL     1      -0.288 -11.624  -6.806  1.00  0.00    -0.000 C 
BRANCH  19  20
ATOM     20  C   UNL     1       0.335 -11.493  -8.199  1.00  0.00    -0.000 C 
BRANCH  20  21
ATOM     21  C   UNL     1       0.633 -12.845  -8.852  1.00  0.00    -0.003 C 
ATOM     22  C   UNL     1       1.995 -13.375  -8.431  1.00  0.00     0.004 C 
ENDBRANCH  20  21
ENDBRANCH  19  20
ENDBRANCH  18  19
ENDBRANCH  17  18
ENDBRANCH  16  17
ENDBRANCH  12  16
ENDBRANCH   9  12
ENDBRANCH   6   9
ENDBRANCH   3   5
ENDBRANCH   2   3
BRANCH   2  23
ATOM     23  N   UNL     1      -1.977  -9.731   0.251  1.00  0.00    -0.332 N 
ATOM     24  C   UNL     1      -3.225  -9.697  -0.497  1.00  0.00     0.147 C 
BRANCH  23  25
ATOM     25  C   UNL     1      -1.229  -8.444   0.280  1.00  0.00     0.174 C 
BRANCH  25  26
ATOM     26  C   UNL     1       0.229  -8.607   0.773  1.00  0.00     0.038 C 
BRANCH  26  27
ATOM     27  C   UNL     1       1.288  -8.985  -0.287  1.00  0.00    -0.015 C 
ATOM     28  C   UNL     1       1.550  -7.855  -1.281  1.00  0.00     0.007 C 
ATOM     29  C   UNL     1       2.598  -9.485   0.316  1.00  0.00     0.007 C 
ENDBRANCH  26  27
ENDBRANCH  25  26
BRANCH  25  30
ATOM     30  C   UNL     1      -2.033  -7.378   1.059  1.00  0.00     0.243 C 
ATOM     31  O   UNL     1      -2.720  -6.535   0.485  1.00  0.00    -0.273 OA
ATOM     32  N   UNL     1      -1.923  -7.433   2.425  1.00  0.00    -0.342 N 
ATOM     33  H   UNL     1      -1.450  -8.245   2.830  1.00  0.00     0.164 HD
BRANCH  32  34
ATOM     34  C   UNL     1      -2.592  -6.487   3.322  1.00  0.00     0.175 C 
BRANCH  34  35
ATOM     35  C   UNL     1      -3.173  -7.199   4.553  1.00  0.00     0.070 C 
BRANCH  35  36
ATOM     36  C   UNL     1      -3.886  -8.486   4.202  1.00  0.00    -0.045 A 
ATOM     37  C   UNL     1      -3.574  -9.670   4.886  1.00  0.00     0.007 A 
ATOM     38  C   UNL     1      -4.846  -8.520   3.182  1.00  0.00     0.007 A 
ATOM     39  C   UNL     1      -4.216 -10.865   4.560  1.00  0.00     0.046 A 
ATOM     40  C   UNL     1      -5.489  -9.717   2.854  1.00  0.00     0.046 A 
ATOM     41  C   UNL     1      -5.169 -10.879   3.547  1.00  0.00     0.115 A 
BRANCH  41  42
ATOM     42  O   UNL     1      -5.771 -12.067   3.258  1.00  0.00    -0.508 OA
ATOM     43  H   UNL     1      -5.410 -12.394   2.417  1.00  0.00     0.293 HD
ENDBRANCH  41  42
ENDBRANCH  35  36
ENDBRANCH  34  35
BRANCH  34  44
ATOM     44  C   UNL     1      -1.571  -5.395   3.714  1.00  0.00     0.243 C 
ATOM     45  O   UNL     1      -1.860  -4.350   4.291  1.00  0.00    -0.273 OA
ATOM     46  N   UNL     1      -0.300  -5.638   3.240  1.00  0.00    -0.341 N 
ATOM     47  H   UNL     1      -0.135  -6.461   2.667  1.00  0.00     0.164 HD
BRANCH  46  48
ATOM     48  C   UNL     1       0.820  -4.712   3.428  1.00  0.00     0.196 C 
BRANCH  48  49
ATOM     49  C   UNL     1       1.964  -5.370   4.218  1.00  0.00     0.072 C 
BRANCH  49  50
ATOM     50  C   UNL     1       1.627  -6.774   4.669  1.00  0.00    -0.045 A 
ATOM     51  C   UNL     1       1.825  -7.854   3.798  1.00  0.00     0.007 A 
ATOM     52  C   UNL     1       1.098  -7.013   5.944  1.00  0.00     0.007 A 
ATOM     53  C   UNL     1       1.506  -9.152   4.198  1.00  0.00     0.046 A 
ATOM     54  C   UNL     1       0.777  -8.312   6.344  1.00  0.00     0.046 A 
ATOM     55  C   UNL     1       0.985  -9.371   5.468  1.00  0.00     0.115 A 
BRANCH  55  56
ATOM     56  O   UNL     1       0.684 -10.654   5.820  1.00  0.00    -0.508 OA
ATOM     57  H   UNL     1      -0.281 -10.744   5.852  1.00  0.00     0.293 HD
ENDBRANCH  55  56
ENDBRANCH  49  50
ENDBRANCH  48  49
BRANCH  48  58
ATOM     58  C   UNL     1       1.335  -4.266   2.052  1.00  0.00     0.326 C 
ATOM     59  O   UNL     1       2.035  -3.298   1.804  1.00  0.00    -0.250 OA
BRANCH  58  60
ATOM     60  O   UNL     1       0.950  -5.083   1.039  1.00  0.00    -0.480 OA
ATOM     61  H   UNL     1       1.746  -5.122   0.465  1.00  0.00     0.296 HD
ENDBRANCH  58  60
ENDBRANCH  48  58
ENDBRANCH  46  48
ENDBRANCH  34  44
ENDBRANCH  32  34
ENDBRANCH  25  30
ENDBRANCH  23  25
ENDBRANCH   2  23
TORSDOF 28
ENDMDL
MODEL 8
REMARK VINA RESULT:    -6.063      3.321      7.365
REMARK INTER + INTRA:         -21.037
REMARK INTER:                 -15.489
REMARK INTRA:                  -5.548
REMARK UNBOUND:                -5.934
REMARK SMILES CCCCCCC[C@H](N)[C@H](O)C(=O)N[C@H](C)C(=O)N(C)[C@H](CC(C)C)C(=O)N[C@@H](Cc1ccc(O)cc1)C(=O)N[C@@H](Cc1ccc(O)cc1)C(=O)O
REMARK SMILES IDX 18 1 17 2 15 3 16 4 14 5 12 6 13 7 10 9 11 10 8 12 9 13 7 16
REMARK SMILES IDX 6 17 5 18 4 19 3 20 2 21 1 22 19 23 20 24 21 25 22 26 23 27
REMARK SMILES IDX 24 28 25 29 26 30 27 31 28 32 29 34 30 35 31 36 32 37 37 38
REMARK SMILES IDX 33 39 36 40 34 41 35 42 38 44 39 45 40 46 41 48 42 49 43 50
REMARK SMILES IDX 44 51 49 52 45 53 48 54 46 55 47 56 50 58 51 59 52 60
REMARK H PARENT 14 8 11 11 9 14 9 15 28 33 35 43 40 47 47 57 52 61
ROOT
ATOM      1  O   UNL     1      -3.236  -7.257   2.519  1.00  0.00    -0.272 OA
ATOM      2  C   UNL     1      -2.515  -6.801   3.419  1.00  0.00     0.245 C 
ENDROOT
BRANCH   2   3
ATOM      3  C   UNL     1      -2.758  -7.275   4.874  1.00  0.00     0.168 C 
ATOM      4  C   UNL     1      -3.803  -8.384   4.916  1.00  0.00     0.041 C 
BRANCH   3   5
ATOM      5  N   UNL     1      -1.555  -7.636   5.608  1.00  0.00    -0.342 N 
ATOM      6  C   UNL     1      -0.818  -8.758   5.291  1.00  0.00     0.251 C 
ATOM      7  O   UNL     1      -1.135  -9.548   4.408  1.00  0.00    -0.272 OA
ATOM      8  H   UNL     1      -1.211  -7.076   6.384  1.00  0.00     0.164 HD
BRANCH   6   9
ATOM      9  C   UNL     1       0.484  -8.863   6.101  1.00  0.00     0.219 C 
BRANCH   9  10
ATOM     10  O   UNL     1       1.509  -9.587   5.409  1.00  0.00    -0.382 OA
ATOM     11  H   UNL     1       1.638  -9.071   4.583  1.00  0.00     0.211 HD
ENDBRANCH   9  10
BRANCH   9  12
ATOM     12  C   UNL     1       1.013  -7.487   6.585  1.00  0.00     0.089 C 
BRANCH  12  13
ATOM     13  N   UNL     1       1.552  -7.649   7.954  1.00  0.00    -0.325 NA
ATOM     14  H   UNL     1       1.389  -8.608   8.268  1.00  0.00     0.119 HD
ATOM     15  H   UNL     1       1.011  -7.063   8.595  1.00  0.00     0.119 HD
ENDBRANCH  12  13
BRANCH  12  16
ATOM     16  C   UNL     1       2.065  -6.807   5.676  1.00  0.00     0.022 C 
BRANCH  16  17
ATOM     17  C   UNL     1       2.430  -5.338   5.927  1.00  0.00     0.002 C 
BRANCH  17  18
ATOM     18  C   UNL     1       3.926  -5.059   6.058  1.00  0.00     0.000 C 
BRANCH  18  19
ATOM     19  C   UNL     1       4.526  -4.297   4.868  1.00  0.00    -0.000 C 
BRANCH  19  20
ATOM     20  C   UNL     1       3.505  -3.719   3.884  1.00  0.00    -0.000 C 
BRANCH  20  21
ATOM     21  C   UNL     1       3.933  -3.864   2.422  1.00  0.00    -0.003 C 
ATOM     22  C   UNL     1       3.075  -4.885   1.691  1.00  0.00     0.004 C 
ENDBRANCH  20  21
ENDBRANCH  19  20
ENDBRANCH  18  19
ENDBRANCH  17  18
ENDBRANCH  16  17
ENDBRANCH  12  16
ENDBRANCH   9  12
ENDBRANCH   6   9
ENDBRANCH   3   5
ENDBRANCH   2   3
BRANCH   2  23
ATOM     23  N   UNL     1      -1.438  -5.981   3.100  1.00  0.00    -0.332 N 
ATOM     24  C   UNL     1      -0.191  -6.447   2.511  1.00  0.00     0.147 C 
BRANCH  23  25
ATOM     25  C   UNL     1      -1.555  -4.503   3.232  1.00  0.00     0.174 C 
BRANCH  25  26
ATOM     26  C   UNL     1      -0.619  -3.736   2.268  1.00  0.00     0.038 C 
BRANCH  26  27
ATOM     27  C   UNL     1      -0.392  -2.235   2.559  1.00  0.00    -0.015 C 
ATOM     28  C   UNL     1       0.905  -1.711   1.944  1.00  0.00     0.007 C 
ATOM     29  C   UNL     1      -1.572  -1.354   2.157  1.00  0.00     0.007 C 
ENDBRANCH  26  27
ENDBRANCH  25  26
BRANCH  25  30
ATOM     30  C   UNL     1      -1.397  -4.087   4.713  1.00  0.00     0.243 C 
ATOM     31  O   UNL     1      -0.591  -4.639   5.461  1.00  0.00    -0.273 OA
ATOM     32  N   UNL     1      -2.217  -3.072   5.135  1.00  0.00    -0.342 N 
ATOM     33  H   UNL     1      -2.756  -2.571   4.423  1.00  0.00     0.164 HD
BRANCH  32  34
ATOM     34  C   UNL     1      -2.225  -2.567   6.510  1.00  0.00     0.175 C 
BRANCH  34  35
ATOM     35  C   UNL     1      -1.953  -1.055   6.552  1.00  0.00     0.070 C 
BRANCH  35  36
ATOM     36  C   UNL     1      -0.566  -0.697   6.066  1.00  0.00    -0.045 A 
ATOM     37  C   UNL     1       0.537  -1.467   6.465  1.00  0.00     0.007 A 
ATOM     38  C   UNL     1      -0.359   0.413   5.236  1.00  0.00     0.007 A 
ATOM     39  C   UNL     1       1.822  -1.136   6.033  1.00  0.00     0.046 A 
ATOM     40  C   UNL     1       0.927   0.745   4.805  1.00  0.00     0.046 A 
ATOM     41  C   UNL     1       2.007  -0.034   5.206  1.00  0.00     0.115 A 
BRANCH  41  42
ATOM     42  O   UNL     1       3.278   0.257   4.810  1.00  0.00    -0.508 OA
ATOM     43  H   UNL     1       3.286   0.329   3.841  1.00  0.00     0.293 HD
ENDBRANCH  41  42
ENDBRANCH  35  36
ENDBRANCH  34  35
BRANCH  34  44
ATOM     44  C   UNL     1      -3.588  -2.926   7.144  1.00  0.00     0.243 C 
ATOM     45  O   UNL     1      -4.461  -2.108   7.420  1.00  0.00    -0.273 OA
ATOM     46  N   UNL     1      -3.694  -4.253   7.502  1.00  0.00    -0.341 N 
ATOM     47  H   UNL     1      -2.897  -4.868   7.360  1.00  0.00     0.164 HD
BRANCH  46  48
ATOM     48  C   UNL     1      -4.865  -4.814   8.180  1.00  0.00     0.196 C 
BRANCH  48  49
ATOM     49  C   UNL     1      -5.022  -6.313   7.878  1.00  0.00     0.072 C 
BRANCH  49  50
ATOM     50  C   UNL     1      -6.458  -6.777   7.970  1.00  0.00    -0.045 A 
ATOM     51  C   UNL     1      -6.744  -8.143   8.111  1.00  0.00     0.007 A 
ATOM     52  C   UNL     1      -7.517  -5.864   7.896  1.00  0.00     0.007 A 
ATOM     53  C   UNL     1      -8.065  -8.585   8.183  1.00  0.00     0.046 A 
ATOM     54  C   UNL     1      -8.840  -6.306   7.967  1.00  0.00     0.046 A 
ATOM     55  C   UNL     1      -9.103  -7.663   8.112  1.00  0.00     0.115 A 
BRANCH  55  56
ATOM     56  O   UNL     1     -10.380  -8.136   8.184  1.00  0.00    -0.508 OA
ATOM     57  H   UNL     1     -10.575  -8.349   9.111  1.00  0.00     0.293 HD
ENDBRANCH  55  56
ENDBRANCH  49  50
ENDBRANCH  48  49
BRANCH  48  58
ATOM     58  C   UNL     1      -4.711  -4.607   9.694  1.00  0.00     0.326 C 
ATOM     59  O   UNL     1      -4.115  -5.324  10.481  1.00  0.00    -0.250 OA
BRANCH  58  60
ATOM     60  O   UNL     1      -5.314  -3.480  10.150  1.00  0.00    -0.480 OA
ATOM     61  H   UNL     1      -5.964  -3.820  10.803  1.00  0.00     0.296 HD
ENDBRANCH  58  60
ENDBRANCH  48  58
ENDBRANCH  46  48
ENDBRANCH  34  44
ENDBRANCH  32  34
ENDBRANCH  25  30
ENDBRANCH  23  25
ENDBRANCH   2  23
TORSDOF 28
ENDMDL
MODEL 9
REMARK VINA RESULT:    -6.035      6.144     10.645
REMARK INTER + INTRA:         -20.965
REMARK INTER:                 -16.226
REMARK INTRA:                  -4.739
REMARK UNBOUND:                -5.934
REMARK SMILES CCCCCCC[C@H](N)[C@H](O)C(=O)N[C@H](C)C(=O)N(C)[C@H](CC(C)C)C(=O)N[C@@H](Cc1ccc(O)cc1)C(=O)N[C@@H](Cc1ccc(O)cc1)C(=O)O
REMARK SMILES IDX 18 1 17 2 15 3 16 4 14 5 12 6 13 7 10 9 11 10 8 12 9 13 7 16
REMARK SMILES IDX 6 17 5 18 4 19 3 20 2 21 1 22 19 23 20 24 21 25 22 26 23 27
REMARK SMILES IDX 24 28 25 29 26 30 27 31 28 32 29 34 30 35 31 36 32 37 37 38
REMARK SMILES IDX 33 39 36 40 34 41 35 42 38 44 39 45 40 46 41 48 42 49 43 50
REMARK SMILES IDX 44 51 49 52 45 53 48 54 46 55 47 56 50 58 51 59 52 60
REMARK H PARENT 14 8 11 11 9 14 9 15 28 33 35 43 40 47 47 57 52 61
ROOT
ATOM      1  O   UNL     1       7.136  -4.165  -5.800  1.00  0.00    -0.272 OA
ATOM      2  C   UNL     1       7.892  -5.120  -6.037  1.00  0.00     0.245 C 
ENDROOT
BRANCH   2   3
ATOM      3  C   UNL     1       7.295  -6.395  -6.682  1.00  0.00     0.168 C 
ATOM      4  C   UNL     1       8.007  -7.644  -6.174  1.00  0.00     0.041 C 
BRANCH   3   5
ATOM      5  N   UNL     1       5.849  -6.514  -6.576  1.00  0.00    -0.342 N 
ATOM      6  C   UNL     1       5.014  -6.206  -7.629  1.00  0.00     0.251 C 
ATOM      7  O   UNL     1       5.413  -5.774  -8.705  1.00  0.00    -0.272 OA
ATOM      8  H   UNL     1       5.398  -6.829  -5.720  1.00  0.00     0.164 HD
BRANCH   6   9
ATOM      9  C   UNL     1       3.542  -6.542  -7.339  1.00  0.00     0.219 C 
BRANCH   9  10
ATOM     10  O   UNL     1       2.631  -5.706  -8.063  1.00  0.00    -0.382 OA
ATOM     11  H   UNL     1       1.753  -5.946  -7.693  1.00  0.00     0.211 HD
ENDBRANCH   9  10
BRANCH   9  12
ATOM     12  C   UNL     1       3.206  -8.040  -7.556  1.00  0.00     0.089 C 
BRANCH  12  13
ATOM     13  N   UNL     1       4.429  -8.731  -8.025  1.00  0.00    -0.325 NA
ATOM     14  H   UNL     1       4.897  -9.163  -7.226  1.00  0.00     0.119 HD
ATOM     15  H   UNL     1       5.089  -8.033  -8.375  1.00  0.00     0.119 HD
ENDBRANCH  12  13
BRANCH  12  16
ATOM     16  C   UNL     1       2.609  -8.784  -6.337  1.00  0.00     0.022 C 
BRANCH  16  17
ATOM     17  C   UNL     1       2.822  -8.206  -4.932  1.00  0.00     0.002 C 
BRANCH  17  18
ATOM     18  C   UNL     1       3.879  -8.923  -4.093  1.00  0.00     0.000 C 
BRANCH  18  19
ATOM     19  C   UNL     1       3.338  -9.529  -2.792  1.00  0.00    -0.000 C 
BRANCH  19  20
ATOM     20  C   UNL     1       2.490  -8.583  -1.937  1.00  0.00    -0.000 C 
BRANCH  20  21
ATOM     21  C   UNL     1       2.991  -8.468  -0.494  1.00  0.00    -0.003 C 
ATOM     22  C   UNL     1       3.254  -9.837   0.112  1.00  0.00     0.004 C 
ENDBRANCH  20  21
ENDBRANCH  19  20
ENDBRANCH  18  19
ENDBRANCH  17  18
ENDBRANCH  16  17
ENDBRANCH  12  16
ENDBRANCH   9  12
ENDBRANCH   6   9
ENDBRANCH   3   5
ENDBRANCH   2   3
BRANCH   2  23
ATOM     23  N   UNL     1       9.262  -4.988  -5.836  1.00  0.00    -0.332 N 
ATOM     24  C   UNL     1      10.249  -4.915  -6.903  1.00  0.00     0.147 C 
BRANCH  23  25
ATOM     25  C   UNL     1       9.803  -4.782  -4.465  1.00  0.00     0.174 C 
BRANCH  25  26
ATOM     26  C   UNL     1       9.435  -5.927  -3.493  1.00  0.00     0.038 C 
BRANCH  26  27
ATOM     27  C   UNL     1      10.587  -6.842  -3.021  1.00  0.00    -0.015 C 
ATOM     28  C   UNL     1      11.639  -7.065  -4.107  1.00  0.00     0.007 C 
ATOM     29  C   UNL     1      11.244  -6.373  -1.725  1.00  0.00     0.007 C 
ENDBRANCH  26  27
ENDBRANCH  25  26
BRANCH  25  30
ATOM     30  C   UNL     1       9.416  -3.378  -3.946  1.00  0.00     0.243 C 
ATOM     31  O   UNL     1      10.125  -2.393  -4.147  1.00  0.00    -0.273 OA
ATOM     32  N   UNL     1       8.240  -3.308  -3.246  1.00  0.00    -0.342 N 
ATOM     33  H   UNL     1       7.640  -4.137  -3.243  1.00  0.00     0.164 HD
BRANCH  32  34
ATOM     34  C   UNL     1       7.729  -2.066  -2.657  1.00  0.00     0.175 C 
BRANCH  34  35
ATOM     35  C   UNL     1       6.503  -1.547  -3.424  1.00  0.00     0.070 C 
BRANCH  35  36
ATOM     36  C   UNL     1       6.312  -0.054  -3.279  1.00  0.00    -0.045 A 
ATOM     37  C   UNL     1       7.422   0.779  -3.076  1.00  0.00     0.007 A 
ATOM     38  C   UNL     1       5.032   0.514  -3.321  1.00  0.00     0.007 A 
ATOM     39  C   UNL     1       7.254   2.156  -2.927  1.00  0.00     0.046 A 
ATOM     40  C   UNL     1       4.863   1.892  -3.171  1.00  0.00     0.046 A 
ATOM     41  C   UNL     1       5.977   2.702  -2.977  1.00  0.00     0.115 A 
BRANCH  41  42
ATOM     42  O   UNL     1       5.856   4.051  -2.824  1.00  0.00    -0.508 OA
ATOM     43  H   UNL     1       5.006   4.233  -2.389  1.00  0.00     0.293 HD
ENDBRANCH  41  42
ENDBRANCH  35  36
ENDBRANCH  34  35
BRANCH  34  44
ATOM     44  C   UNL     1       7.409  -2.338  -1.170  1.00  0.00     0.243 C 
ATOM     45  O   UNL     1       8.234  -2.289  -0.262  1.00  0.00    -0.273 OA
ATOM     46  N   UNL     1       6.119  -2.776  -0.958  1.00  0.00    -0.341 N 
ATOM     47  H   UNL     1       5.506  -2.913  -1.758  1.00  0.00     0.164 HD
BRANCH  46  48
ATOM     48  C   UNL     1       5.604  -3.161   0.358  1.00  0.00     0.196 C 
BRANCH  48  49
ATOM     49  C   UNL     1       4.128  -2.761   0.521  1.00  0.00     0.072 C 
BRANCH  49  50
ATOM     50  C   UNL     1       3.905  -1.276   0.347  1.00  0.00    -0.045 A 
ATOM     51  C   UNL     1       4.846  -0.364   0.847  1.00  0.00     0.007 A 
ATOM     52  C   UNL     1       2.758  -0.789  -0.292  1.00  0.00     0.007 A 
ATOM     53  C   UNL     1       4.645   1.009   0.704  1.00  0.00     0.046 A 
ATOM     54  C   UNL     1       2.555   0.585  -0.435  1.00  0.00     0.046 A 
ATOM     55  C   UNL     1       3.502   1.473   0.064  1.00  0.00     0.115 A 
BRANCH  55  56
ATOM     56  O   UNL     1       3.342   2.822  -0.054  1.00  0.00    -0.508 OA
ATOM     57  H   UNL     1       4.118   3.184  -0.510  1.00  0.00     0.293 HD
ENDBRANCH  55  56
ENDBRANCH  49  50
ENDBRANCH  48  49
BRANCH  48  58
ATOM     58  C   UNL     1       5.748  -4.680   0.525  1.00  0.00     0.326 C 
ATOM     59  O   UNL     1       4.932  -5.537   0.225  1.00  0.00    -0.250 OA
BRANCH  58  60
ATOM     60  O   UNL     1       6.937  -5.056   1.059  1.00  0.00    -0.480 OA
ATOM     61  H   UNL     1       7.509  -5.183   0.270  1.00  0.00     0.296 HD
ENDBRANCH  58  60
ENDBRANCH  48  58
ENDBRANCH  46  48
ENDBRANCH  34  44
ENDBRANCH  32  34
ENDBRANCH  25  30
ENDBRANCH  23  25
ENDBRANCH   2  23
TORSDOF 28
ENDMDL
MODEL 10
REMARK VINA RESULT:    -6.024      3.515      7.633
REMARK INTER + INTRA:         -20.938
REMARK INTER:                 -15.176
REMARK INTRA:                  -5.761
REMARK UNBOUND:                -5.934
REMARK SMILES CCCCCCC[C@H](N)[C@H](O)C(=O)N[C@H](C)C(=O)N(C)[C@H](CC(C)C)C(=O)N[C@@H](Cc1ccc(O)cc1)C(=O)N[C@@H](Cc1ccc(O)cc1)C(=O)O
REMARK SMILES IDX 18 1 17 2 15 3 16 4 14 5 12 6 13 7 10 9 11 10 8 12 9 13 7 16
REMARK SMILES IDX 6 17 5 18 4 19 3 20 2 21 1 22 19 23 20 24 21 25 22 26 23 27
REMARK SMILES IDX 24 28 25 29 26 30 27 31 28 32 29 34 30 35 31 36 32 37 37 38
REMARK SMILES IDX 33 39 36 40 34 41 35 42 38 44 39 45 40 46 41 48 42 49 43 50
REMARK SMILES IDX 44 51 49 52 45 53 48 54 46 55 47 56 50 58 51 59 52 60
REMARK H PARENT 14 8 11 11 9 14 9 15 28 33 35 43 40 47 47 57 52 61
ROOT
ATOM      1  O   UNL     1      -2.880  -7.282   2.429  1.00  0.00    -0.272 OA
ATOM      2  C   UNL     1      -2.309  -6.710   3.370  1.00  0.00     0.245 C 
ENDROOT
BRANCH   2   3
ATOM      3  C   UNL     1      -2.681  -7.114   4.818  1.00  0.00     0.168 C 
ATOM      4  C   UNL     1      -3.789  -8.161   4.820  1.00  0.00     0.041 C 
BRANCH   3   5
ATOM      5  N   UNL     1      -1.556  -7.513   5.649  1.00  0.00    -0.342 N 
ATOM      6  C   UNL     1      -0.755  -8.587   5.323  1.00  0.00     0.251 C 
ATOM      7  O   UNL     1      -0.949  -9.304   4.347  1.00  0.00    -0.272 OA
ATOM      8  H   UNL     1      -1.317  -7.015   6.504  1.00  0.00     0.164 HD
BRANCH   6   9
ATOM      9  C   UNL     1       0.452  -8.735   6.263  1.00  0.00     0.219 C 
BRANCH   9  10
ATOM     10  O   UNL     1       1.487  -9.556   5.709  1.00  0.00    -0.382 OA
ATOM     11  H   UNL     1       1.184 -10.471   5.902  1.00  0.00     0.211 HD
ENDBRANCH   9  10
BRANCH   9  12
ATOM     12  C   UNL     1       1.024  -7.375   6.739  1.00  0.00     0.089 C 
BRANCH  12  13
ATOM     13  N   UNL     1       1.619  -7.562   8.082  1.00  0.00    -0.325 NA
ATOM     14  H   UNL     1       1.453  -8.521   8.392  1.00  0.00     0.119 HD
ATOM     15  H   UNL     1       1.117  -6.974   8.752  1.00  0.00     0.119 HD
ENDBRANCH  12  13
BRANCH  12  16
ATOM     16  C   UNL     1       2.047  -6.701   5.793  1.00  0.00     0.022 C 
BRANCH  16  17
ATOM     17  C   UNL     1       3.108  -5.764   6.386  1.00  0.00     0.002 C 
BRANCH  17  18
ATOM     18  C   UNL     1       3.017  -4.312   5.923  1.00  0.00     0.000 C 
BRANCH  18  19
ATOM     19  C   UNL     1       2.602  -3.330   7.027  1.00  0.00    -0.000 C 
BRANCH  19  20
ATOM     20  C   UNL     1       1.669  -3.908   8.095  1.00  0.00    -0.000 C 
BRANCH  20  21
ATOM     21  C   UNL     1       0.749  -2.856   8.721  1.00  0.00    -0.003 C 
ATOM     22  C   UNL     1      -0.506  -3.491   9.298  1.00  0.00     0.004 C 
ENDBRANCH  20  21
ENDBRANCH  19  20
ENDBRANCH  18  19
ENDBRANCH  17  18
ENDBRANCH  16  17
ENDBRANCH  12  16
ENDBRANCH   9  12
ENDBRANCH   6   9
ENDBRANCH   3   5
ENDBRANCH   2   3
BRANCH   2  23
ATOM     23  N   UNL     1      -1.273  -5.817   3.115  1.00  0.00    -0.332 N 
ATOM     24  C   UNL     1       0.056  -6.202   2.661  1.00  0.00     0.147 C 
BRANCH  23  25
ATOM     25  C   UNL     1      -1.514  -4.350   3.175  1.00  0.00     0.174 C 
BRANCH  25  26
ATOM     26  C   UNL     1      -0.619  -3.552   2.198  1.00  0.00     0.038 C 
BRANCH  26  27
ATOM     27  C   UNL     1       0.195  -2.380   2.791  1.00  0.00    -0.015 C 
ATOM     28  C   UNL     1       1.691  -2.684   2.860  1.00  0.00     0.007 C 
ATOM     29  C   UNL     1      -0.051  -1.050   2.084  1.00  0.00     0.007 C 
ENDBRANCH  26  27
ENDBRANCH  25  26
BRANCH  25  30
ATOM     30  C   UNL     1      -1.430  -3.856   4.638  1.00  0.00     0.243 C 
ATOM     31  O   UNL     1      -0.600  -4.303   5.428  1.00  0.00    -0.273 OA
ATOM     32  N   UNL     1      -2.343  -2.897   4.994  1.00  0.00    -0.342 N 
ATOM     33  H   UNL     1      -2.904  -2.477   4.248  1.00  0.00     0.164 HD
BRANCH  32  34
ATOM     34  C   UNL     1      -2.429  -2.333   6.343  1.00  0.00     0.175 C 
BRANCH  34  35
ATOM     35  C   UNL     1      -2.285  -0.804   6.320  1.00  0.00     0.070 C 
BRANCH  35  36
ATOM     36  C   UNL     1      -0.872  -0.345   6.602  1.00  0.00    -0.045 A 
ATOM     37  C   UNL     1      -0.588   0.371   7.775  1.00  0.00     0.007 A 
ATOM     38  C   UNL     1       0.162  -0.604   5.694  1.00  0.00     0.007 A 
ATOM     39  C   UNL     1       0.710   0.810   8.038  1.00  0.00     0.046 A 
ATOM     40  C   UNL     1       1.462  -0.163   5.956  1.00  0.00     0.046 A 
ATOM     41  C   UNL     1       1.724   0.539   7.127  1.00  0.00     0.115 A 
BRANCH  41  42
ATOM     42  O   UNL     1       2.978   0.989   7.420  1.00  0.00    -0.508 OA
ATOM     43  H   UNL     1       3.549   0.820   6.652  1.00  0.00     0.293 HD
ENDBRANCH  41  42
ENDBRANCH  35  36
ENDBRANCH  34  35
BRANCH  34  44
ATOM     44  C   UNL     1      -3.774  -2.777   6.963  1.00  0.00     0.243 C 
ATOM     45  O   UNL     1      -4.750  -2.045   7.101  1.00  0.00    -0.273 OA
ATOM     46  N   UNL     1      -3.745  -4.056   7.478  1.00  0.00    -0.341 N 
ATOM     47  H   UNL     1      -2.875  -4.582   7.444  1.00  0.00     0.164 HD
BRANCH  46  48
ATOM     48  C   UNL     1      -4.878  -4.670   8.174  1.00  0.00     0.196 C 
BRANCH  48  49
ATOM     49  C   UNL     1      -4.941  -6.184   7.912  1.00  0.00     0.072 C 
BRANCH  49  50
ATOM     50  C   UNL     1      -6.352  -6.725   7.964  1.00  0.00    -0.045 A 
ATOM     51  C   UNL     1      -7.441  -5.846   7.871  1.00  0.00     0.007 A 
ATOM     52  C   UNL     1      -6.594  -8.095   8.126  1.00  0.00     0.007 A 
ATOM     53  C   UNL     1      -8.748  -6.332   7.931  1.00  0.00     0.046 A 
ATOM     54  C   UNL     1      -7.902  -8.581   8.187  1.00  0.00     0.046 A 
ATOM     55  C   UNL     1      -8.968  -7.694   8.088  1.00  0.00     0.115 A 
BRANCH  55  56
ATOM     56  O   UNL     1     -10.260  -8.128   8.143  1.00  0.00    -0.508 OA
ATOM     57  H   UNL     1     -10.290  -8.928   8.692  1.00  0.00     0.293 HD
ENDBRANCH  55  56
ENDBRANCH  49  50
ENDBRANCH  48  49
BRANCH  48  58
ATOM     58  C   UNL     1      -4.737  -4.413   9.681  1.00  0.00     0.326 C 
ATOM     59  O   UNL     1      -5.542  -3.865  10.415  1.00  0.00    -0.250 OA
BRANCH  58  60
ATOM     60  O   UNL     1      -3.575  -4.880  10.203  1.00  0.00    -0.480 OA
ATOM     61  H   UNL     1      -2.956  -4.847   9.442  1.00  0.00     0.296 HD
ENDBRANCH  58  60
ENDBRANCH  48  58
ENDBRANCH  46  48
ENDBRANCH  34  44
ENDBRANCH  32  34
ENDBRANCH  25  30
ENDBRANCH  23  25
ENDBRANCH   2  23
TORSDOF 28
ENDMDL
MODEL 11
REMARK VINA RESULT:    -5.991      3.149      9.413
REMARK INTER + INTRA:         -20.855
REMARK INTER:                 -15.273
REMARK INTRA:                  -5.582
REMARK UNBOUND:                -5.934
REMARK SMILES CCCCCCC[C@H](N)[C@H](O)C(=O)N[C@H](C)C(=O)N(C)[C@H](CC(C)C)C(=O)N[C@@H](Cc1ccc(O)cc1)C(=O)N[C@@H](Cc1ccc(O)cc1)C(=O)O
REMARK SMILES IDX 18 1 17 2 15 3 16 4 14 5 12 6 13 7 10 9 11 10 8 12 9 13 7 16
REMARK SMILES IDX 6 17 5 18 4 19 3 20 2 21 1 22 19 23 20 24 21 25 22 26 23 27
REMARK SMILES IDX 24 28 25 29 26 30 27 31 28 32 29 34 30 35 31 36 32 37 37 38
REMARK SMILES IDX 33 39 36 40 34 41 35 42 38 44 39 45 40 46 41 48 42 49 43 50
REMARK SMILES IDX 44 51 49 52 45 53 48 54 46 55 47 56 50 58 51 59 52 60
REMARK H PARENT 14 8 11 11 9 14 9 15 28 33 35 43 40 47 47 57 52 61
ROOT
ATOM      1  O   UNL     1      -1.320  -2.366   5.513  1.00  0.00    -0.272 OA
ATOM      2  C   UNL     1      -1.217  -1.612   6.492  1.00  0.00     0.245 C 
ENDROOT
BRANCH   2   3
ATOM      3  C   UNL     1      -2.401  -1.520   7.486  1.00  0.00     0.168 C 
ATOM      4  C   UNL     1      -3.355  -0.399   7.090  1.00  0.00     0.041 C 
BRANCH   3   5
ATOM      5  N   UNL     1      -3.104  -2.773   7.716  1.00  0.00    -0.342 N 
ATOM      6  C   UNL     1      -3.537  -3.145   8.971  1.00  0.00     0.251 C 
ATOM      7  O   UNL     1      -3.331  -2.482   9.982  1.00  0.00    -0.272 OA
ATOM      8  H   UNL     1      -3.302  -3.424   6.959  1.00  0.00     0.164 HD
BRANCH   6   9
ATOM      9  C   UNL     1      -4.376  -4.433   8.953  1.00  0.00     0.219 C 
BRANCH   9  10
ATOM     10  O   UNL     1      -5.602  -4.303   9.683  1.00  0.00    -0.382 OA
ATOM     11  H   UNL     1      -5.349  -4.536  10.603  1.00  0.00     0.211 HD
ENDBRANCH   9  10
BRANCH   9  12
ATOM     12  C   UNL     1      -4.641  -4.967   7.521  1.00  0.00     0.089 C 
BRANCH  12  13
ATOM     13  N   UNL     1      -3.408  -5.625   7.032  1.00  0.00    -0.325 NA
ATOM     14  H   UNL     1      -2.685  -4.919   6.887  1.00  0.00     0.119 HD
ATOM     15  H   UNL     1      -3.588  -6.018   6.105  1.00  0.00     0.119 HD
ENDBRANCH  12  13
BRANCH  12  16
ATOM     16  C   UNL     1      -5.850  -5.920   7.366  1.00  0.00     0.022 C 
BRANCH  16  17
ATOM     17  C   UNL     1      -5.684  -7.402   7.727  1.00  0.00     0.002 C 
BRANCH  17  18
ATOM     18  C   UNL     1      -5.335  -8.316   6.555  1.00  0.00     0.000 C 
BRANCH  18  19
ATOM     19  C   UNL     1      -5.662  -9.796   6.797  1.00  0.00    -0.000 C 
BRANCH  19  20
ATOM     20  C   UNL     1      -5.391 -10.724   5.609  1.00  0.00    -0.000 C 
BRANCH  20  21
ATOM     21  C   UNL     1      -4.960  -9.973   4.347  1.00  0.00    -0.003 C 
ATOM     22  C   UNL     1      -5.055 -10.859   3.115  1.00  0.00     0.004 C 
ENDBRANCH  20  21
ENDBRANCH  19  20
ENDBRANCH  18  19
ENDBRANCH  17  18
ENDBRANCH  16  17
ENDBRANCH  12  16
ENDBRANCH   9  12
ENDBRANCH   6   9
ENDBRANCH   3   5
ENDBRANCH   2   3
BRANCH   2  23
ATOM     23  N   UNL     1      -0.013  -0.963   6.746  1.00  0.00    -0.332 N 
ATOM     24  C   UNL     1       0.248   0.439   6.455  1.00  0.00     0.147 C 
BRANCH  23  25
ATOM     25  C   UNL     1       1.079  -1.665   7.476  1.00  0.00     0.174 C 
BRANCH  25  26
ATOM     26  C   UNL     1       1.587  -0.874   8.705  1.00  0.00     0.038 C 
BRANCH  26  27
ATOM     27  C   UNL     1       0.801  -1.049  10.024  1.00  0.00    -0.015 C 
ATOM     28  C   UNL     1      -0.282   0.014  10.204  1.00  0.00     0.007 C 
ATOM     29  C   UNL     1       0.217  -2.448  10.201  1.00  0.00     0.007 C 
ENDBRANCH  26  27
ENDBRANCH  25  26
BRANCH  25  30
ATOM     30  C   UNL     1       2.200  -2.074   6.493  1.00  0.00     0.243 C 
ATOM     31  O   UNL     1       3.341  -1.624   6.586  1.00  0.00    -0.273 OA
ATOM     32  N   UNL     1       1.835  -2.961   5.514  1.00  0.00    -0.342 N 
ATOM     33  H   UNL     1       0.912  -3.396   5.589  1.00  0.00     0.164 HD
BRANCH  32  34
ATOM     34  C   UNL     1       2.758  -3.438   4.481  1.00  0.00     0.175 C 
BRANCH  34  35
ATOM     35  C   UNL     1       3.553  -4.662   4.963  1.00  0.00     0.070 C 
BRANCH  35  36
ATOM     36  C   UNL     1       2.666  -5.755   5.516  1.00  0.00    -0.045 A 
ATOM     37  C   UNL     1       1.908  -6.551   4.644  1.00  0.00     0.007 A 
ATOM     38  C   UNL     1       2.570  -5.973   6.896  1.00  0.00     0.007 A 
ATOM     39  C   UNL     1       1.076  -7.553   5.146  1.00  0.00     0.046 A 
ATOM     40  C   UNL     1       1.737  -6.975   7.399  1.00  0.00     0.046 A 
ATOM     41  C   UNL     1       0.998  -7.757   6.518  1.00  0.00     0.115 A 
BRANCH  41  42
ATOM     42  O   UNL     1       0.171  -8.744   6.968  1.00  0.00    -0.508 OA
ATOM     43  H   UNL     1       0.344  -8.879   7.914  1.00  0.00     0.293 HD
ENDBRANCH  41  42
ENDBRANCH  35  36
ENDBRANCH  34  35
BRANCH  34  44
ATOM     44  C   UNL     1       1.935  -3.749   3.210  1.00  0.00     0.243 C 
ATOM     45  O   UNL     1       2.421  -4.079   2.132  1.00  0.00    -0.273 OA
ATOM     46  N   UNL     1       0.588  -3.494   3.353  1.00  0.00    -0.341 N 
ATOM     47  H   UNL     1       0.248  -3.109   4.231  1.00  0.00     0.164 HD
BRANCH  46  48
ATOM     48  C   UNL     1      -0.382  -3.648   2.266  1.00  0.00     0.196 C 
BRANCH  48  49
ATOM     49  C   UNL     1      -1.577  -4.513   2.700  1.00  0.00     0.072 C 
BRANCH  49  50
ATOM     50  C   UNL     1      -1.324  -5.991   2.508  1.00  0.00    -0.045 A 
ATOM     51  C   UNL     1      -0.336  -6.421   1.610  1.00  0.00     0.007 A 
ATOM     52  C   UNL     1      -2.079  -6.947   3.200  1.00  0.00     0.007 A 
ATOM     53  C   UNL     1      -0.103  -7.783   1.415  1.00  0.00     0.046 A 
ATOM     54  C   UNL     1      -1.847  -8.311   3.004  1.00  0.00     0.046 A 
ATOM     55  C   UNL     1      -0.859  -8.717   2.113  1.00  0.00     0.115 A 
BRANCH  55  56
ATOM     56  O   UNL     1      -0.602 -10.037   1.893  1.00  0.00    -0.508 OA
ATOM     57  H   UNL     1      -0.486 -10.171   0.938  1.00  0.00     0.293 HD
ENDBRANCH  55  56
ENDBRANCH  49  50
ENDBRANCH  48  49
BRANCH  48  58
ATOM     58  C   UNL     1      -0.879  -2.259   1.840  1.00  0.00     0.326 C 
ATOM     59  O   UNL     1      -1.902  -1.699   2.198  1.00  0.00    -0.250 OA
BRANCH  58  60
ATOM     60  O   UNL     1      -0.043  -1.625   0.980  1.00  0.00    -0.480 OA
ATOM     61  H   UNL     1      -0.046  -0.698   1.304  1.00  0.00     0.296 HD
ENDBRANCH  58  60
ENDBRANCH  48  58
ENDBRANCH  46  48
ENDBRANCH  34  44
ENDBRANCH  32  34
ENDBRANCH  25  30
ENDBRANCH  23  25
ENDBRANCH   2  23
TORSDOF 28
ENDMDL
MODEL 12
REMARK VINA RESULT:    -5.909      8.690     13.009
REMARK INTER + INTRA:         -20.651
REMARK INTER:                 -16.073
REMARK INTRA:                  -4.578
REMARK UNBOUND:                -5.934
REMARK SMILES CCCCCCC[C@H](N)[C@H](O)C(=O)N[C@H](C)C(=O)N(C)[C@H](CC(C)C)C(=O)N[C@@H](Cc1ccc(O)cc1)C(=O)N[C@@H](Cc1ccc(O)cc1)C(=O)O
REMARK SMILES IDX 18 1 17 2 15 3 16 4 14 5 12 6 13 7 10 9 11 10 8 12 9 13 7 16
REMARK SMILES IDX 6 17 5 18 4 19 3 20 2 21 1 22 19 23 20 24 21 25 22 26 23 27
REMARK SMILES IDX 24 28 25 29 26 30 27 31 28 32 29 34 30 35 31 36 32 37 37 38
REMARK SMILES IDX 33 39 36 40 34 41 35 42 38 44 39 45 40 46 41 48 42 49 43 50
REMARK SMILES IDX 44 51 49 52 45 53 48 54 46 55 47 56 50 58 51 59 52 60
REMARK H PARENT 14 8 11 11 9 14 9 15 28 33 35 43 40 47 47 57 52 61
ROOT
ATOM      1  O   UNL     1      11.147  -2.376  -1.319  1.00  0.00    -0.272 OA
ATOM      2  C   UNL     1      11.381  -1.944  -2.457  1.00  0.00     0.245 C 
ENDROOT
BRANCH   2   3
ATOM      3  C   UNL     1      10.696  -2.629  -3.666  1.00  0.00     0.168 C 
ATOM      4  C   UNL     1      11.571  -2.530  -4.911  1.00  0.00     0.041 C 
BRANCH   3   5
ATOM      5  N   UNL     1      10.250  -3.992  -3.423  1.00  0.00    -0.342 N 
ATOM      6  C   UNL     1       8.967  -4.402  -3.717  1.00  0.00     0.251 C 
ATOM      7  O   UNL     1       8.102  -3.652  -4.158  1.00  0.00    -0.272 OA
ATOM      8  H   UNL     1      10.869  -4.696  -3.027  1.00  0.00     0.164 HD
BRANCH   6   9
ATOM      9  C   UNL     1       8.763  -5.912  -3.513  1.00  0.00     0.219 C 
BRANCH   9  10
ATOM     10  O   UNL     1       7.649  -6.209  -2.664  1.00  0.00    -0.382 OA
ATOM     11  H   UNL     1       7.748  -5.574  -1.921  1.00  0.00     0.211 HD
ENDBRANCH   9  10
BRANCH   9  12
ATOM     12  C   UNL     1       8.665  -6.698  -4.846  1.00  0.00     0.089 C 
BRANCH  12  13
ATOM     13  N   UNL     1       8.919  -8.129  -4.564  1.00  0.00    -0.325 NA
ATOM     14  H   UNL     1       9.138  -8.243  -3.573  1.00  0.00     0.119 HD
ATOM     15  H   UNL     1       9.766  -8.419  -5.059  1.00  0.00     0.119 HD
ENDBRANCH  12  13
BRANCH  12  16
ATOM     16  C   UNL     1       7.341  -6.538  -5.632  1.00  0.00     0.022 C 
BRANCH  16  17
ATOM     17  C   UNL     1       7.301  -6.931  -7.115  1.00  0.00     0.002 C 
BRANCH  17  18
ATOM     18  C   UNL     1       6.434  -8.146  -7.437  1.00  0.00     0.000 C 
BRANCH  18  19
ATOM     19  C   UNL     1       5.167  -7.815  -8.236  1.00  0.00    -0.000 C 
BRANCH  19  20
ATOM     20  C   UNL     1       5.120  -6.403  -8.826  1.00  0.00    -0.000 C 
BRANCH  20  21
ATOM     21  C   UNL     1       3.777  -5.703  -8.601  1.00  0.00    -0.003 C 
ATOM     22  C   UNL     1       3.632  -5.232  -7.162  1.00  0.00     0.004 C 
ENDBRANCH  20  21
ENDBRANCH  19  20
ENDBRANCH  18  19
ENDBRANCH  17  18
ENDBRANCH  16  17
ENDBRANCH  12  16
ENDBRANCH   9  12
ENDBRANCH   6   9
ENDBRANCH   3   5
ENDBRANCH   2   3
BRANCH   2  23
ATOM     23  N   UNL     1      12.143  -0.792  -2.620  1.00  0.00    -0.332 N 
ATOM     24  C   UNL     1      13.592  -0.774  -2.759  1.00  0.00     0.147 C 
BRANCH  23  25
ATOM     25  C   UNL     1      11.480   0.530  -2.794  1.00  0.00     0.174 C 
BRANCH  25  26
ATOM     26  C   UNL     1      12.367   1.554  -3.540  1.00  0.00     0.038 C 
BRANCH  26  27
ATOM     27  C   UNL     1      12.039   1.811  -5.028  1.00  0.00    -0.015 C 
ATOM     28  C   UNL     1      12.087   3.295  -5.390  1.00  0.00     0.007 C 
ATOM     29  C   UNL     1      12.901   0.996  -5.989  1.00  0.00     0.007 C 
ENDBRANCH  26  27
ENDBRANCH  25  26
BRANCH  25  30
ATOM     30  C   UNL     1      10.948   1.041  -1.436  1.00  0.00     0.243 C 
ATOM     31  O   UNL     1      11.681   1.164  -0.455  1.00  0.00    -0.273 OA
ATOM     32  N   UNL     1       9.610   1.340  -1.397  1.00  0.00    -0.342 N 
ATOM     33  H   UNL     1       9.101   1.347  -2.285  1.00  0.00     0.164 HD
BRANCH  32  34
ATOM     34  C   UNL     1       8.928   1.811  -0.189  1.00  0.00     0.175 C 
BRANCH  34  35
ATOM     35  C   UNL     1       8.659   3.322  -0.252  1.00  0.00     0.070 C 
BRANCH  35  36
ATOM     36  C   UNL     1       8.417   3.815  -1.661  1.00  0.00    -0.045 A 
ATOM     37  C   UNL     1       7.137   3.719  -2.227  1.00  0.00     0.007 A 
ATOM     38  C   UNL     1       9.463   4.348  -2.426  1.00  0.00     0.007 A 
ATOM     39  C   UNL     1       6.907   4.158  -3.532  1.00  0.00     0.046 A 
ATOM     40  C   UNL     1       9.233   4.787  -3.732  1.00  0.00     0.046 A 
ATOM     41  C   UNL     1       7.956   4.689  -4.273  1.00  0.00     0.115 A 
BRANCH  41  42
ATOM     42  O   UNL     1       7.689   5.103  -5.544  1.00  0.00    -0.508 OA
ATOM     43  H   UNL     1       7.476   4.322  -6.081  1.00  0.00     0.293 HD
ENDBRANCH  41  42
ENDBRANCH  35  36
ENDBRANCH  34  35
BRANCH  34  44
ATOM     44  C   UNL     1       7.624   0.998  -0.028  1.00  0.00     0.243 C 
ATOM     45  O   UNL     1       6.705   1.303   0.728  1.00  0.00    -0.273 OA
ATOM     46  N   UNL     1       7.630  -0.193  -0.722  1.00  0.00    -0.341 N 
ATOM     47  H   UNL     1       8.464  -0.458  -1.242  1.00  0.00     0.164 HD
BRANCH  46  48
ATOM     48  C   UNL     1       6.534  -1.163  -0.669  1.00  0.00     0.196 C 
BRANCH  48  49
ATOM     49  C   UNL     1       5.677  -1.109  -1.945  1.00  0.00     0.072 C 
BRANCH  49  50
ATOM     50  C   UNL     1       4.729   0.068  -1.961  1.00  0.00    -0.045 A 
ATOM     51  C   UNL     1       4.771   0.985  -3.021  1.00  0.00     0.007 A 
ATOM     52  C   UNL     1       3.818   0.274  -0.917  1.00  0.00     0.007 A 
ATOM     53  C   UNL     1       3.911   2.083  -3.040  1.00  0.00     0.046 A 
ATOM     54  C   UNL     1       2.957   1.374  -0.936  1.00  0.00     0.046 A 
ATOM     55  C   UNL     1       3.011   2.269  -1.998  1.00  0.00     0.115 A 
BRANCH  55  56
ATOM     56  O   UNL     1       2.188   3.356  -2.054  1.00  0.00    -0.508 OA
ATOM     57  H   UNL     1       1.583   3.243  -2.803  1.00  0.00     0.293 HD
ENDBRANCH  55  56
ENDBRANCH  49  50
ENDBRANCH  48  49
BRANCH  48  58
ATOM     58  C   UNL     1       7.120  -2.571  -0.501  1.00  0.00     0.326 C 
ATOM     59  O   UNL     1       7.845  -2.968   0.397  1.00  0.00    -0.250 OA
BRANCH  58  60
ATOM     60  O   UNL     1       6.748  -3.433  -1.480  1.00  0.00    -0.480 OA
ATOM     61  H   UNL     1       7.343  -3.199  -2.225  1.00  0.00     0.296 HD
ENDBRANCH  58  60
ENDBRANCH  48  58
ENDBRANCH  46  48
ENDBRANCH  34  44
ENDBRANCH  32  34
ENDBRANCH  25  30
ENDBRANCH  23  25
ENDBRANCH   2  23
TORSDOF 28
ENDMDL
MODEL 13
REMARK VINA RESULT:    -5.878      7.722     12.742
REMARK INTER + INTRA:         -20.574
REMARK INTER:                 -16.660
REMARK INTRA:                  -3.914
REMARK UNBOUND:                -5.934
REMARK SMILES CCCCCCC[C@H](N)[C@H](O)C(=O)N[C@H](C)C(=O)N(C)[C@H](CC(C)C)C(=O)N[C@@H](Cc1ccc(O)cc1)C(=O)N[C@@H](Cc1ccc(O)cc1)C(=O)O
REMARK SMILES IDX 18 1 17 2 15 3 16 4 14 5 12 6 13 7 10 9 11 10 8 12 9 13 7 16
REMARK SMILES IDX 6 17 5 18 4 19 3 20 2 21 1 22 19 23 20 24 21 25 22 26 23 27
REMARK SMILES IDX 24 28 25 29 26 30 27 31 28 32 29 34 30 35 31 36 32 37 37 38
REMARK SMILES IDX 33 39 36 40 34 41 35 42 38 44 39 45 40 46 41 48 42 49 43 50
REMARK SMILES IDX 44 51 49 52 45 53 48 54 46 55 47 56 50 58 51 59 52 60
REMARK H PARENT 14 8 11 11 9 14 9 15 28 33 35 43 40 47 47 57 52 61
ROOT
ATOM      1  O   UNL     1       5.583   1.610  -1.165  1.00  0.00    -0.272 OA
ATOM      2  C   UNL     1       6.401   0.857  -1.714  1.00  0.00     0.245 C 
ENDROOT
BRANCH   2   3
ATOM      3  C   UNL     1       7.884   0.928  -1.274  1.00  0.00     0.168 C 
ATOM      4  C   UNL     1       8.793   1.188  -2.471  1.00  0.00     0.041 C 
BRANCH   3   5
ATOM      5  N   UNL     1       8.154   1.848  -0.180  1.00  0.00    -0.342 N 
ATOM      6  C   UNL     1       7.987   1.480   1.139  1.00  0.00     0.251 C 
ATOM      7  O   UNL     1       7.565   0.383   1.486  1.00  0.00    -0.272 OA
ATOM      8  H   UNL     1       8.476   2.799  -0.345  1.00  0.00     0.164 HD
BRANCH   6   9
ATOM      9  C   UNL     1       8.466   2.560   2.122  1.00  0.00     0.219 C 
BRANCH   9  10
ATOM     10  O   UNL     1       9.887   2.743   2.093  1.00  0.00    -0.382 OA
ATOM     11  H   UNL     1      10.138   2.761   3.042  1.00  0.00     0.211 HD
ENDBRANCH   9  10
BRANCH   9  12
ATOM     12  C   UNL     1       7.733   3.915   1.945  1.00  0.00     0.089 C 
BRANCH  12  13
ATOM     13  N   UNL     1       7.140   4.300   3.246  1.00  0.00    -0.325 NA
ATOM     14  H   UNL     1       7.319   5.291   3.416  1.00  0.00     0.119 HD
ATOM     15  H   UNL     1       7.634   3.807   3.993  1.00  0.00     0.119 HD
ENDBRANCH  12  13
BRANCH  12  16
ATOM     16  C   UNL     1       8.585   5.079   1.384  1.00  0.00     0.022 C 
BRANCH  16  17
ATOM     17  C   UNL     1       8.330   5.567  -0.049  1.00  0.00     0.002 C 
BRANCH  17  18
ATOM     18  C   UNL     1       7.055   5.032  -0.696  1.00  0.00     0.000 C 
BRANCH  18  19
ATOM     19  C   UNL     1       7.223   4.626  -2.166  1.00  0.00    -0.000 C 
BRANCH  19  20
ATOM     20  C   UNL     1       6.189   5.219  -3.127  1.00  0.00    -0.000 C 
BRANCH  20  21
ATOM     21  C   UNL     1       4.745   4.939  -2.702  1.00  0.00    -0.003 C 
ATOM     22  C   UNL     1       4.069   6.194  -2.174  1.00  0.00     0.004 C 
ENDBRANCH  20  21
ENDBRANCH  19  20
ENDBRANCH  18  19
ENDBRANCH  17  18
ENDBRANCH  16  17
ENDBRANCH  12  16
ENDBRANCH   9  12
ENDBRANCH   6   9
ENDBRANCH   3   5
ENDBRANCH   2   3
BRANCH   2  23
ATOM     23  N   UNL     1       5.962  -0.109  -2.612  1.00  0.00    -0.332 N 
ATOM     24  C   UNL     1       5.452   0.174  -3.946  1.00  0.00     0.147 C 
BRANCH  23  25
ATOM     25  C   UNL     1       6.115  -1.555  -2.294  1.00  0.00     0.174 C 
BRANCH  25  26
ATOM     26  C   UNL     1       5.945  -1.861  -0.787  1.00  0.00     0.038 C 
BRANCH  26  27
ATOM     27  C   UNL     1       4.501  -2.029  -0.265  1.00  0.00    -0.015 C 
ATOM     28  C   UNL     1       4.240  -3.428   0.292  1.00  0.00     0.007 C 
ATOM     29  C   UNL     1       4.094  -0.963   0.749  1.00  0.00     0.007 C 
ENDBRANCH  26  27
ENDBRANCH  25  26
BRANCH  25  30
ATOM     30  C   UNL     1       7.433  -2.096  -2.893  1.00  0.00     0.243 C 
ATOM     31  O   UNL     1       7.716  -1.949  -4.081  1.00  0.00    -0.273 OA
ATOM     32  N   UNL     1       8.257  -2.754  -2.017  1.00  0.00    -0.342 N 
ATOM     33  H   UNL     1       8.021  -2.712  -1.022  1.00  0.00     0.164 HD
BRANCH  32  34
ATOM     34  C   UNL     1       9.533  -3.356  -2.414  1.00  0.00     0.175 C 
BRANCH  34  35
ATOM     35  C   UNL     1      10.679  -2.890  -1.502  1.00  0.00     0.070 C 
BRANCH  35  36
ATOM     36  C   UNL     1      11.430  -1.705  -2.065  1.00  0.00    -0.045 A 
ATOM     37  C   UNL     1      11.832  -1.704  -3.410  1.00  0.00     0.007 A 
ATOM     38  C   UNL     1      11.756  -0.609  -1.255  1.00  0.00     0.007 A 
ATOM     39  C   UNL     1      12.538  -0.621  -3.935  1.00  0.00     0.046 A 
ATOM     40  C   UNL     1      12.464   0.474  -1.780  1.00  0.00     0.046 A 
ATOM     41  C   UNL     1      12.848   0.459  -3.117  1.00  0.00     0.115 A 
BRANCH  41  42
ATOM     42  O   UNL     1      13.542   1.495  -3.668  1.00  0.00    -0.508 OA
ATOM     43  H   UNL     1      14.368   1.144  -4.041  1.00  0.00     0.293 HD
ENDBRANCH  41  42
ENDBRANCH  35  36
ENDBRANCH  34  35
BRANCH  34  44
ATOM     44  C   UNL     1       9.365  -4.892  -2.392  1.00  0.00     0.243 C 
ATOM     45  O   UNL     1       8.296  -5.470  -2.224  1.00  0.00    -0.273 OA
ATOM     46  N   UNL     1      10.562  -5.575  -2.451  1.00  0.00    -0.341 N 
ATOM     47  H   UNL     1      11.431  -5.048  -2.472  1.00  0.00     0.164 HD
BRANCH  46  48
ATOM     48  C   UNL     1      10.660  -7.035  -2.377  1.00  0.00     0.196 C 
BRANCH  48  49
ATOM     49  C   UNL     1      11.557  -7.592  -3.495  1.00  0.00     0.072 C 
BRANCH  49  50
ATOM     50  C   UNL     1      11.088  -7.188  -4.874  1.00  0.00    -0.045 A 
ATOM     51  C   UNL     1      12.019  -6.751  -5.828  1.00  0.00     0.007 A 
ATOM     52  C   UNL     1       9.730  -7.222  -5.212  1.00  0.00     0.007 A 
ATOM     53  C   UNL     1      11.596  -6.363  -7.100  1.00  0.00     0.046 A 
ATOM     54  C   UNL     1       9.306  -6.832  -6.485  1.00  0.00     0.046 A 
ATOM     55  C   UNL     1      10.244  -6.407  -7.419  1.00  0.00     0.115 A 
BRANCH  55  56
ATOM     56  O   UNL     1       9.873  -6.017  -8.672  1.00  0.00    -0.508 OA
ATOM     57  H   UNL     1      10.223  -5.126  -8.831  1.00  0.00     0.293 HD
ENDBRANCH  55  56
ENDBRANCH  49  50
ENDBRANCH  48  49
BRANCH  48  58
ATOM     58  C   UNL     1      11.236  -7.428  -1.010  1.00  0.00     0.326 C 
ATOM     59  O   UNL     1      10.837  -8.309  -0.266  1.00  0.00    -0.250 OA
BRANCH  58  60
ATOM     60  O   UNL     1      12.314  -6.690  -0.644  1.00  0.00    -0.480 OA
ATOM     61  H   UNL     1      12.452  -6.094  -1.413  1.00  0.00     0.296 HD
ENDBRANCH  58  60
ENDBRANCH  48  58
ENDBRANCH  46  48
ENDBRANCH  34  44
ENDBRANCH  32  34
ENDBRANCH  25  30
ENDBRANCH  23  25
ENDBRANCH   2  23
TORSDOF 28
ENDMDL
MODEL 14
REMARK VINA RESULT:    -5.871      3.584      9.874
REMARK INTER + INTRA:         -20.557
REMARK INTER:                 -15.394
REMARK INTRA:                  -5.163
REMARK UNBOUND:                -5.934
REMARK SMILES CCCCCCC[C@H](N)[C@H](O)C(=O)N[C@H](C)C(=O)N(C)[C@H](CC(C)C)C(=O)N[C@@H](Cc1ccc(O)cc1)C(=O)N[C@@H](Cc1ccc(O)cc1)C(=O)O
REMARK SMILES IDX 18 1 17 2 15 3 16 4 14 5 12 6 13 7 10 9 11 10 8 12 9 13 7 16
REMARK SMILES IDX 6 17 5 18 4 19 3 20 2 21 1 22 19 23 20 24 21 25 22 26 23 27
REMARK SMILES IDX 24 28 25 29 26 30 27 31 28 32 29 34 30 35 31 36 32 37 37 38
REMARK SMILES IDX 33 39 36 40 34 41 35 42 38 44 39 45 40 46 41 48 42 49 43 50
REMARK SMILES IDX 44 51 49 52 45 53 48 54 46 55 47 56 50 58 51 59 52 60
REMARK H PARENT 14 8 11 11 9 14 9 15 28 33 35 43 40 47 47 57 52 61
ROOT
ATOM      1  O   UNL     1      -1.234  -2.369   5.473  1.00  0.00    -0.272 OA
ATOM      2  C   UNL     1      -1.200  -1.485   6.340  1.00  0.00     0.245 C 
ENDROOT
BRANCH   2   3
ATOM      3  C   UNL     1      -2.360  -1.405   7.364  1.00  0.00     0.168 C 
ATOM      4  C   UNL     1      -3.501  -0.550   6.823  1.00  0.00     0.041 C 
BRANCH   3   5
ATOM      5  N   UNL     1      -2.831  -2.691   7.855  1.00  0.00    -0.342 N 
ATOM      6  C   UNL     1      -3.197  -2.878   9.171  1.00  0.00     0.251 C 
ATOM      7  O   UNL     1      -3.116  -2.003  10.026  1.00  0.00    -0.272 OA
ATOM      8  H   UNL     1      -2.908  -3.502   7.245  1.00  0.00     0.164 HD
BRANCH   6   9
ATOM      9  C   UNL     1      -3.796  -4.270   9.429  1.00  0.00     0.219 C 
BRANCH   9  10
ATOM     10  O   UNL     1      -3.184  -4.937  10.539  1.00  0.00    -0.382 OA
ATOM     11  H   UNL     1      -3.864  -4.882  11.246  1.00  0.00     0.211 HD
ENDBRANCH   9  10
BRANCH   9  12
ATOM     12  C   UNL     1      -5.340  -4.250   9.582  1.00  0.00     0.089 C 
BRANCH  12  13
ATOM     13  N   UNL     1      -5.924  -3.675   8.348  1.00  0.00    -0.325 NA
ATOM     14  H   UNL     1      -6.377  -2.787   8.574  1.00  0.00     0.119 HD
ATOM     15  H   UNL     1      -6.678  -4.285   8.024  1.00  0.00     0.119 HD
ENDBRANCH  12  13
BRANCH  12  16
ATOM     16  C   UNL     1      -6.007  -5.609   9.903  1.00  0.00     0.022 C 
BRANCH  16  17
ATOM     17  C   UNL     1      -5.633  -6.840   9.066  1.00  0.00     0.002 C 
BRANCH  17  18
ATOM     18  C   UNL     1      -6.597  -7.163   7.927  1.00  0.00     0.000 C 
BRANCH  18  19
ATOM     19  C   UNL     1      -7.700  -8.160   8.306  1.00  0.00    -0.000 C 
BRANCH  19  20
ATOM     20  C   UNL     1      -9.129  -7.618   8.203  1.00  0.00    -0.000 C 
BRANCH  20  21
ATOM     21  C   UNL     1      -9.184  -6.095   8.063  1.00  0.00    -0.003 C 
ATOM     22  C   UNL     1      -9.819  -5.448   9.284  1.00  0.00     0.004 C 
ENDBRANCH  20  21
ENDBRANCH  19  20
ENDBRANCH  18  19
ENDBRANCH  17  18
ENDBRANCH  16  17
ENDBRANCH  12  16
ENDBRANCH   9  12
ENDBRANCH   6   9
ENDBRANCH   3   5
ENDBRANCH   2   3
BRANCH   2  23
ATOM     23  N   UNL     1      -0.080  -0.668   6.458  1.00  0.00    -0.332 N 
ATOM     24  C   UNL     1      -0.003   0.702   5.973  1.00  0.00     0.147 C 
BRANCH  23  25
ATOM     25  C   UNL     1       1.107  -1.128   7.229  1.00  0.00     0.174 C 
BRANCH  25  26
ATOM     26  C   UNL     1       1.581  -0.095   8.279  1.00  0.00     0.038 C 
BRANCH  26  27
ATOM     27  C   UNL     1       1.460  -0.502   9.764  1.00  0.00    -0.015 C 
ATOM     28  C   UNL     1       1.212   0.696  10.680  1.00  0.00     0.007 C 
ATOM     29  C   UNL     1       0.422  -1.593  10.013  1.00  0.00     0.007 C 
ENDBRANCH  26  27
ENDBRANCH  25  26
BRANCH  25  30
ATOM     30  C   UNL     1       2.223  -1.588   6.263  1.00  0.00     0.243 C 
ATOM     31  O   UNL     1       3.343  -1.078   6.273  1.00  0.00    -0.273 OA
ATOM     32  N   UNL     1       1.880  -2.594   5.396  1.00  0.00    -0.342 N 
ATOM     33  H   UNL     1       0.982  -3.061   5.544  1.00  0.00     0.164 HD
BRANCH  32  34
ATOM     34  C   UNL     1       2.801  -3.137   4.394  1.00  0.00     0.175 C 
BRANCH  34  35
ATOM     35  C   UNL     1       3.579  -4.342   4.944  1.00  0.00     0.070 C 
BRANCH  35  36
ATOM     36  C   UNL     1       2.673  -5.428   5.479  1.00  0.00    -0.045 A 
ATOM     37  C   UNL     1       2.121  -6.376   4.604  1.00  0.00     0.007 A 
ATOM     38  C   UNL     1       2.355  -5.492   6.842  1.00  0.00     0.007 A 
ATOM     39  C   UNL     1       1.273  -7.373   5.086  1.00  0.00     0.046 A 
ATOM     40  C   UNL     1       1.505  -6.489   7.325  1.00  0.00     0.046 A 
ATOM     41  C   UNL     1       0.973  -7.423   6.442  1.00  0.00     0.115 A 
BRANCH  41  42
ATOM     42  O   UNL     1       0.138  -8.411   6.872  1.00  0.00    -0.508 OA
ATOM     43  H   UNL     1       0.154  -8.422   7.844  1.00  0.00     0.293 HD
ENDBRANCH  41  42
ENDBRANCH  35  36
ENDBRANCH  34  35
BRANCH  34  44
ATOM     44  C   UNL     1       1.978  -3.505   3.138  1.00  0.00     0.243 C 
ATOM     45  O   UNL     1       2.466  -3.845   2.064  1.00  0.00    -0.273 OA
ATOM     46  N   UNL     1       0.624  -3.292   3.287  1.00  0.00    -0.341 N 
ATOM     47  H   UNL     1       0.279  -2.897   4.159  1.00  0.00     0.164 HD
BRANCH  46  48
ATOM     48  C   UNL     1      -0.348  -3.504   2.213  1.00  0.00     0.196 C 
BRANCH  48  49
ATOM     49  C   UNL     1      -1.508  -4.400   2.677  1.00  0.00     0.072 C 
BRANCH  49  50
ATOM     50  C   UNL     1      -1.217  -5.872   2.491  1.00  0.00    -0.045 A 
ATOM     51  C   UNL     1      -0.241  -6.281   1.570  1.00  0.00     0.007 A 
ATOM     52  C   UNL     1      -1.924  -6.844   3.211  1.00  0.00     0.007 A 
ATOM     53  C   UNL     1       0.027  -7.636   1.380  1.00  0.00     0.046 A 
ATOM     54  C   UNL     1      -1.656  -8.201   3.020  1.00  0.00     0.046 A 
ATOM     55  C   UNL     1      -0.681  -8.586   2.106  1.00  0.00     0.115 A 
BRANCH  55  56
ATOM     56  O   UNL     1      -0.390  -9.900   1.890  1.00  0.00    -0.508 OA
ATOM     57  H   UNL     1      -1.172 -10.428   2.117  1.00  0.00     0.293 HD
ENDBRANCH  55  56
ENDBRANCH  49  50
ENDBRANCH  48  49
BRANCH  48  58
ATOM     58  C   UNL     1      -0.897  -2.144   1.760  1.00  0.00     0.326 C 
ATOM     59  O   UNL     1      -1.928  -1.604   2.127  1.00  0.00    -0.250 OA
BRANCH  58  60
ATOM     60  O   UNL     1      -0.101  -1.510   0.863  1.00  0.00    -0.480 OA
ATOM     61  H   UNL     1      -0.125  -0.575   1.161  1.00  0.00     0.296 HD
ENDBRANCH  58  60
ENDBRANCH  48  58
ENDBRANCH  46  48
ENDBRANCH  34  44
ENDBRANCH  32  34
ENDBRANCH  25  30
ENDBRANCH  23  25
ENDBRANCH   2  23
TORSDOF 28
ENDMDL
MODEL 15
REMARK VINA RESULT:    -5.843      6.794     12.948
REMARK INTER + INTRA:         -20.488
REMARK INTER:                 -14.847
REMARK INTRA:                  -5.642
REMARK UNBOUND:                -5.934
REMARK SMILES CCCCCCC[C@H](N)[C@H](O)C(=O)N[C@H](C)C(=O)N(C)[C@H](CC(C)C)C(=O)N[C@@H](Cc1ccc(O)cc1)C(=O)N[C@@H](Cc1ccc(O)cc1)C(=O)O
REMARK SMILES IDX 18 1 17 2 15 3 16 4 14 5 12 6 13 7 10 9 11 10 8 12 9 13 7 16
REMARK SMILES IDX 6 17 5 18 4 19 3 20 2 21 1 22 19 23 20 24 21 25 22 26 23 27
REMARK SMILES IDX 24 28 25 29 26 30 27 31 28 32 29 34 30 35 31 36 32 37 37 38
REMARK SMILES IDX 33 39 36 40 34 41 35 42 38 44 39 45 40 46 41 48 42 49 43 50
REMARK SMILES IDX 44 51 49 52 45 53 48 54 46 55 47 56 50 58 51 59 52 60
REMARK H PARENT 14 8 11 11 9 14 9 15 28 33 35 43 40 47 47 57 52 61
ROOT
ATOM      1  O   UNL     1       7.822   0.470  -3.468  1.00  0.00    -0.272 OA
ATOM      2  C   UNL     1       8.427   1.480  -3.077  1.00  0.00     0.245 C 
ENDROOT
BRANCH   2   3
ATOM      3  C   UNL     1       7.847   2.873  -3.426  1.00  0.00     0.168 C 
ATOM      4  C   UNL     1       8.229   3.279  -4.845  1.00  0.00     0.041 C 
BRANCH   3   5
ATOM      5  N   UNL     1       6.419   3.018  -3.187  1.00  0.00    -0.342 N 
ATOM      6  C   UNL     1       5.891   4.146  -2.596  1.00  0.00     0.251 C 
ATOM      7  O   UNL     1       6.574   5.082  -2.194  1.00  0.00    -0.272 OA
ATOM      8  H   UNL     1       5.756   2.291  -3.446  1.00  0.00     0.164 HD
BRANCH   6   9
ATOM      9  C   UNL     1       4.354   4.142  -2.574  1.00  0.00     0.219 C 
BRANCH   9  10
ATOM     10  O   UNL     1       3.801   2.860  -2.899  1.00  0.00    -0.382 OA
ATOM     11  H   UNL     1       4.085   2.714  -3.828  1.00  0.00     0.211 HD
ENDBRANCH   9  10
BRANCH   9  12
ATOM     12  C   UNL     1       3.762   4.676  -1.244  1.00  0.00     0.089 C 
BRANCH  12  13
ATOM     13  N   UNL     1       3.682   6.153  -1.329  1.00  0.00    -0.325 NA
ATOM     14  H   UNL     1       4.445   6.498  -1.914  1.00  0.00     0.119 HD
ATOM     15  H   UNL     1       3.857   6.547  -0.402  1.00  0.00     0.119 HD
ENDBRANCH  12  13
BRANCH  12  16
ATOM     16  C   UNL     1       2.391   4.092  -0.829  1.00  0.00     0.022 C 
BRANCH  16  17
ATOM     17  C   UNL     1       2.312   3.168   0.394  1.00  0.00     0.002 C 
BRANCH  17  18
ATOM     18  C   UNL     1       1.255   3.555   1.427  1.00  0.00     0.000 C 
BRANCH  18  19
ATOM     19  C   UNL     1       0.641   2.361   2.169  1.00  0.00    -0.000 C 
BRANCH  19  20
ATOM     20  C   UNL     1       1.394   1.037   2.007  1.00  0.00    -0.000 C 
BRANCH  20  21
ATOM     21  C   UNL     1       2.062   0.565   3.301  1.00  0.00    -0.003 C 
ATOM     22  C   UNL     1       3.577   0.540   3.165  1.00  0.00     0.004 C 
ENDBRANCH  20  21
ENDBRANCH  19  20
ENDBRANCH  18  19
ENDBRANCH  17  18
ENDBRANCH  16  17
ENDBRANCH  12  16
ENDBRANCH   9  12
ENDBRANCH   6   9
ENDBRANCH   3   5
ENDBRANCH   2   3
BRANCH   2  23
ATOM     23  N   UNL     1       9.531   1.349  -2.241  1.00  0.00    -0.332 N 
ATOM     24  C   UNL     1       9.585   1.818  -0.864  1.00  0.00     0.147 C 
BRANCH  23  25
ATOM     25  C   UNL     1      10.723   0.577  -2.687  1.00  0.00     0.174 C 
BRANCH  25  26
ATOM     26  C   UNL     1      11.346   1.131  -3.990  1.00  0.00     0.038 C 
BRANCH  26  27
ATOM     27  C   UNL     1      12.733   1.802  -3.873  1.00  0.00    -0.015 C 
ATOM     28  C   UNL     1      12.707   3.047  -2.986  1.00  0.00     0.007 C 
ATOM     29  C   UNL     1      13.834   0.846  -3.423  1.00  0.00     0.007 C 
ENDBRANCH  26  27
ENDBRANCH  25  26
BRANCH  25  30
ATOM     30  C   UNL     1      10.388  -0.931  -2.751  1.00  0.00     0.243 C 
ATOM     31  O   UNL     1      10.783  -1.646  -3.671  1.00  0.00    -0.273 OA
ATOM     32  N   UNL     1       9.621  -1.412  -1.721  1.00  0.00    -0.342 N 
ATOM     33  H   UNL     1       9.453  -0.791  -0.925  1.00  0.00     0.164 HD
BRANCH  32  34
ATOM     34  C   UNL     1       9.184  -2.808  -1.631  1.00  0.00     0.175 C 
BRANCH  34  35
ATOM     35  C   UNL     1       9.881  -3.538  -0.473  1.00  0.00     0.070 C 
BRANCH  35  36
ATOM     36  C   UNL     1      10.524  -4.838  -0.903  1.00  0.00    -0.045 A 
ATOM     37  C   UNL     1      10.595  -5.168  -2.264  1.00  0.00     0.007 A 
ATOM     38  C   UNL     1      11.032  -5.736   0.044  1.00  0.00     0.007 A 
ATOM     39  C   UNL     1      11.174  -6.371  -2.670  1.00  0.00     0.046 A 
ATOM     40  C   UNL     1      11.611  -6.941  -0.360  1.00  0.00     0.046 A 
ATOM     41  C   UNL     1      11.677  -7.248  -1.716  1.00  0.00     0.115 A 
BRANCH  41  42
ATOM     42  O   UNL     1      12.231  -8.414  -2.153  1.00  0.00    -0.508 OA
ATOM     43  H   UNL     1      11.729  -9.152  -1.770  1.00  0.00     0.293 HD
ENDBRANCH  41  42
ENDBRANCH  35  36
ENDBRANCH  34  35
BRANCH  34  44
ATOM     44  C   UNL     1       7.647  -2.820  -1.480  1.00  0.00     0.243 C 
ATOM     45  O   UNL     1       6.934  -3.794  -1.708  1.00  0.00    -0.273 OA
ATOM     46  N   UNL     1       7.115  -1.582  -1.184  1.00  0.00    -0.341 N 
ATOM     47  H   UNL     1       7.737  -0.780  -1.120  1.00  0.00     0.164 HD
BRANCH  46  48
ATOM     48  C   UNL     1       5.677  -1.332  -1.059  1.00  0.00     0.196 C 
BRANCH  48  49
ATOM     49  C   UNL     1       5.206  -1.489   0.396  1.00  0.00     0.072 C 
BRANCH  49  50
ATOM     50  C   UNL     1       4.102  -2.512   0.543  1.00  0.00    -0.045 A 
ATOM     51  C   UNL     1       2.776  -2.089   0.720  1.00  0.00     0.007 A 
ATOM     52  C   UNL     1       4.384  -3.884   0.527  1.00  0.00     0.007 A 
ATOM     53  C   UNL     1       1.751  -3.023   0.870  1.00  0.00     0.046 A 
ATOM     54  C   UNL     1       3.357  -4.819   0.679  1.00  0.00     0.046 A 
ATOM     55  C   UNL     1       2.049  -4.380   0.848  1.00  0.00     0.115 A 
BRANCH  55  56
ATOM     56  O   UNL     1       1.019  -5.260   1.000  1.00  0.00    -0.508 OA
ATOM     57  H   UNL     1       1.185  -5.791   1.795  1.00  0.00     0.293 HD
ENDBRANCH  55  56
ENDBRANCH  49  50
ENDBRANCH  48  49
BRANCH  48  58
ATOM     58  C   UNL     1       5.374   0.091  -1.548  1.00  0.00     0.326 C 
ATOM     59  O   UNL     1       5.422   1.122  -0.897  1.00  0.00    -0.250 OA
BRANCH  58  60
ATOM     60  O   UNL     1       5.033   0.151  -2.860  1.00  0.00    -0.480 OA
ATOM     61  H   UNL     1       5.900   0.129  -3.320  1.00  0.00     0.296 HD
ENDBRANCH  58  60
ENDBRANCH  48  58
ENDBRANCH  46  48
ENDBRANCH  34  44
ENDBRANCH  32  34
ENDBRANCH  25  30
ENDBRANCH  23  25
ENDBRANCH   2  23
TORSDOF 28
ENDMDL
MODEL 16
REMARK VINA RESULT:    -5.827      2.820      4.422
REMARK INTER + INTRA:         -20.447
REMARK INTER:                 -14.932
REMARK INTRA:                  -5.516
REMARK UNBOUND:                -5.934
REMARK SMILES CCCCCCC[C@H](N)[C@H](O)C(=O)N[C@H](C)C(=O)N(C)[C@H](CC(C)C)C(=O)N[C@@H](Cc1ccc(O)cc1)C(=O)N[C@@H](Cc1ccc(O)cc1)C(=O)O
REMARK SMILES IDX 18 1 17 2 15 3 16 4 14 5 12 6 13 7 10 9 11 10 8 12 9 13 7 16
REMARK SMILES IDX 6 17 5 18 4 19 3 20 2 21 1 22 19 23 20 24 21 25 22 26 23 27
REMARK SMILES IDX 24 28 25 29 26 30 27 31 28 32 29 34 30 35 31 36 32 37 37 38
REMARK SMILES IDX 33 39 36 40 34 41 35 42 38 44 39 45 40 46 41 48 42 49 43 50
REMARK SMILES IDX 44 51 49 52 45 53 48 54 46 55 47 56 50 58 51 59 52 60
REMARK H PARENT 14 8 11 11 9 14 9 15 28 33 35 43 40 47 47 57 52 61
ROOT
ATOM      1  O   UNL     1      -1.459 -10.346   3.249  1.00  0.00    -0.272 OA
ATOM      2  C   UNL     1      -2.543 -10.297   2.648  1.00  0.00     0.245 C 
ENDROOT
BRANCH   2   3
ATOM      3  C   UNL     1      -2.529 -10.157   1.106  1.00  0.00     0.168 C 
ATOM      4  C   UNL     1      -3.457  -9.035   0.655  1.00  0.00     0.041 C 
BRANCH   3   5
ATOM      5  N   UNL     1      -1.205 -10.035   0.515  1.00  0.00    -0.342 N 
ATOM      6  C   UNL     1      -0.612 -11.079  -0.165  1.00  0.00     0.251 C 
ATOM      7  O   UNL     1      -1.127 -12.185  -0.287  1.00  0.00    -0.272 OA
ATOM      8  H   UNL     1      -0.666  -9.176   0.581  1.00  0.00     0.164 HD
BRANCH   6   9
ATOM      9  C   UNL     1       0.718 -10.679  -0.823  1.00  0.00     0.219 C 
BRANCH   9  10
ATOM     10  O   UNL     1       1.657 -11.760  -0.870  1.00  0.00    -0.382 OA
ATOM     11  H   UNL     1       1.545 -12.125  -1.775  1.00  0.00     0.211 HD
ENDBRANCH   9  10
BRANCH   9  12
ATOM     12  C   UNL     1       0.536 -10.046  -2.228  1.00  0.00     0.089 C 
BRANCH  12  13
ATOM     13  N   UNL     1      -0.913  -9.873  -2.478  1.00  0.00    -0.325 NA
ATOM     14  H   UNL     1      -1.149  -8.881  -2.410  1.00  0.00     0.119 HD
ATOM     15  H   UNL     1      -1.436 -10.324  -1.724  1.00  0.00     0.119 HD
ENDBRANCH  12  13
BRANCH  12  16
ATOM     16  C   UNL     1       1.281  -8.712  -2.471  1.00  0.00     0.022 C 
BRANCH  16  17
ATOM     17  C   UNL     1       1.671  -7.843  -1.268  1.00  0.00     0.002 C 
BRANCH  17  18
ATOM     18  C   UNL     1       3.126  -7.976  -0.822  1.00  0.00     0.000 C 
BRANCH  18  19
ATOM     19  C   UNL     1       3.534  -6.986   0.278  1.00  0.00    -0.000 C 
BRANCH  19  20
ATOM     20  C   UNL     1       2.728  -5.685   0.314  1.00  0.00    -0.000 C 
BRANCH  20  21
ATOM     21  C   UNL     1       3.609  -4.435   0.383  1.00  0.00    -0.003 C 
ATOM     22  C   UNL     1       4.954  -4.740   1.025  1.00  0.00     0.004 C 
ENDBRANCH  20  21
ENDBRANCH  19  20
ENDBRANCH  18  19
ENDBRANCH  17  18
ENDBRANCH  16  17
ENDBRANCH  12  16
ENDBRANCH   9  12
ENDBRANCH   6   9
ENDBRANCH   3   5
ENDBRANCH   2   3
BRANCH   2  23
ATOM     23  N   UNL     1      -3.732 -10.490   3.343  1.00  0.00    -0.332 N 
ATOM     24  C   UNL     1      -4.763 -11.446   2.965  1.00  0.00     0.147 C 
BRANCH  23  25
ATOM     25  C   UNL     1      -3.970  -9.789   4.634  1.00  0.00     0.174 C 
BRANCH  25  26
ATOM     26  C   UNL     1      -5.201 -10.332   5.397  1.00  0.00     0.038 C 
BRANCH  26  27
ATOM     27  C   UNL     1      -5.095 -10.406   6.936  1.00  0.00    -0.015 C 
ATOM     28  C   UNL     1      -6.346  -9.876   7.635  1.00  0.00     0.007 C 
ATOM     29  C   UNL     1      -4.740 -11.798   7.454  1.00  0.00     0.007 C 
ENDBRANCH  26  27
ENDBRANCH  25  26
BRANCH  25  30
ATOM     30  C   UNL     1      -4.002  -8.259   4.411  1.00  0.00     0.243 C 
ATOM     31  O   UNL     1      -4.842  -7.725   3.689  1.00  0.00    -0.273 OA
ATOM     32  N   UNL     1      -3.032  -7.544   5.066  1.00  0.00    -0.342 N 
ATOM     33  H   UNL     1      -2.462  -8.040   5.756  1.00  0.00     0.164 HD
BRANCH  32  34
ATOM     34  C   UNL     1      -2.893  -6.090   4.950  1.00  0.00     0.175 C 
BRANCH  34  35
ATOM     35  C   UNL     1      -2.644  -5.442   6.320  1.00  0.00     0.070 C 
BRANCH  35  36
ATOM     36  C   UNL     1      -3.925  -5.092   7.044  1.00  0.00    -0.045 A 
ATOM     37  C   UNL     1      -4.904  -6.075   7.253  1.00  0.00     0.007 A 
ATOM     38  C   UNL     1      -4.163  -3.786   7.492  1.00  0.00     0.007 A 
ATOM     39  C   UNL     1      -6.095  -5.758   7.907  1.00  0.00     0.046 A 
ATOM     40  C   UNL     1      -5.356  -3.467   8.146  1.00  0.00     0.046 A 
ATOM     41  C   UNL     1      -6.311  -4.458   8.349  1.00  0.00     0.115 A 
BRANCH  41  42
ATOM     42  O   UNL     1      -7.489  -4.189   8.980  1.00  0.00    -0.508 OA
ATOM     43  H   UNL     1      -8.215  -4.355   8.355  1.00  0.00     0.293 HD
ENDBRANCH  41  42
ENDBRANCH  35  36
ENDBRANCH  34  35
BRANCH  34  44
ATOM     44  C   UNL     1      -1.748  -5.796   3.955  1.00  0.00     0.243 C 
ATOM     45  O   UNL     1      -1.846  -5.051   2.984  1.00  0.00    -0.273 OA
ATOM     46  N   UNL     1      -0.619  -6.556   4.178  1.00  0.00    -0.341 N 
ATOM     47  H   UNL     1      -0.628  -7.246   4.925  1.00  0.00     0.164 HD
BRANCH  46  48
ATOM     48  C   UNL     1       0.570  -6.503   3.324  1.00  0.00     0.196 C 
BRANCH  48  49
ATOM     49  C   UNL     1       1.859  -6.660   4.149  1.00  0.00     0.072 C 
BRANCH  49  50
ATOM     50  C   UNL     1       2.259  -5.383   4.852  1.00  0.00    -0.045 A 
ATOM     51  C   UNL     1       1.976  -5.217   6.216  1.00  0.00     0.007 A 
ATOM     52  C   UNL     1       2.893  -4.345   4.157  1.00  0.00     0.007 A 
ATOM     53  C   UNL     1       2.328  -4.038   6.873  1.00  0.00     0.046 A 
ATOM     54  C   UNL     1       3.245  -3.164   4.814  1.00  0.00     0.046 A 
ATOM     55  C   UNL     1       2.960  -3.021   6.168  1.00  0.00     0.115 A 
BRANCH  55  56
ATOM     56  O   UNL     1       3.287  -1.884   6.846  1.00  0.00    -0.508 OA
ATOM     57  H   UNL     1       4.156  -2.012   7.258  1.00  0.00     0.293 HD
ENDBRANCH  55  56
ENDBRANCH  49  50
ENDBRANCH  48  49
BRANCH  48  58
ATOM     58  C   UNL     1       0.487  -7.625   2.280  1.00  0.00     0.326 C 
ATOM     59  O   UNL     1       1.112  -8.672   2.270  1.00  0.00    -0.250 OA
BRANCH  58  60
ATOM     60  O   UNL     1      -0.407  -7.377   1.290  1.00  0.00    -0.480 OA
ATOM     61  H   UNL     1       0.020  -6.658   0.775  1.00  0.00     0.296 HD
ENDBRANCH  58  60
ENDBRANCH  48  58
ENDBRANCH  46  48
ENDBRANCH  34  44
ENDBRANCH  32  34
ENDBRANCH  25  30
ENDBRANCH  23  25
ENDBRANCH   2  23
TORSDOF 28
ENDMDL
MODEL 17
REMARK VINA RESULT:    -5.821      2.499      8.820
REMARK INTER + INTRA:         -20.433
REMARK INTER:                 -14.904
REMARK INTRA:                  -5.529
REMARK UNBOUND:                -5.934
REMARK SMILES CCCCCCC[C@H](N)[C@H](O)C(=O)N[C@H](C)C(=O)N(C)[C@H](CC(C)C)C(=O)N[C@@H](Cc1ccc(O)cc1)C(=O)N[C@@H](Cc1ccc(O)cc1)C(=O)O
REMARK SMILES IDX 18 1 17 2 15 3 16 4 14 5 12 6 13 7 10 9 11 10 8 12 9 13 7 16
REMARK SMILES IDX 6 17 5 18 4 19 3 20 2 21 1 22 19 23 20 24 21 25 22 26 23 27
REMARK SMILES IDX 24 28 25 29 26 30 27 31 28 32 29 34 30 35 31 36 32 37 37 38
REMARK SMILES IDX 33 39 36 40 34 41 35 42 38 44 39 45 40 46 41 48 42 49 43 50
REMARK SMILES IDX 44 51 49 52 45 53 48 54 46 55 47 56 50 58 51 59 52 60
REMARK H PARENT 14 8 11 11 9 14 9 15 28 33 35 43 40 47 47 57 52 61
ROOT
ATOM      1  O   UNL     1       0.748  -1.271   1.077  1.00  0.00    -0.272 OA
ATOM      2  C   UNL     1       1.665  -0.757   1.734  1.00  0.00     0.245 C 
ENDROOT
BRANCH   2   3
ATOM      3  C   UNL     1       1.300   0.088   2.980  1.00  0.00     0.168 C 
ATOM      4  C   UNL     1      -0.212   0.220   3.121  1.00  0.00     0.041 C 
BRANCH   3   5
ATOM      5  N   UNL     1       1.925  -0.348   4.219  1.00  0.00    -0.342 N 
ATOM      6  C   UNL     1       1.676  -1.591   4.761  1.00  0.00     0.251 C 
ATOM      7  O   UNL     1       0.890  -2.397   4.273  1.00  0.00    -0.272 OA
ATOM      8  H   UNL     1       2.569   0.248   4.733  1.00  0.00     0.164 HD
BRANCH   6   9
ATOM      9  C   UNL     1       2.550  -1.890   5.989  1.00  0.00     0.219 C 
BRANCH   9  10
ATOM     10  O   UNL     1       3.665  -0.996   6.104  1.00  0.00    -0.382 OA
ATOM     11  H   UNL     1       4.291  -1.318   5.419  1.00  0.00     0.211 HD
ENDBRANCH   9  10
BRANCH   9  12
ATOM     12  C   UNL     1       1.745  -1.938   7.314  1.00  0.00     0.089 C 
BRANCH  12  13
ATOM     13  N   UNL     1       0.459  -1.233   7.105  1.00  0.00    -0.325 NA
ATOM     14  H   UNL     1       0.444  -0.386   7.676  1.00  0.00     0.119 HD
ATOM     15  H   UNL     1      -0.300  -1.814   7.469  1.00  0.00     0.119 HD
ENDBRANCH  12  13
BRANCH  12  16
ATOM     16  C   UNL     1       1.489  -3.347   7.900  1.00  0.00     0.022 C 
BRANCH  16  17
ATOM     17  C   UNL     1       1.752  -4.580   7.024  1.00  0.00     0.002 C 
BRANCH  17  18
ATOM     18  C   UNL     1       1.047  -5.856   7.479  1.00  0.00     0.000 C 
BRANCH  18  19
ATOM     19  C   UNL     1       1.858  -7.137   7.240  1.00  0.00    -0.000 C 
BRANCH  19  20
ATOM     20  C   UNL     1       1.117  -8.245   6.487  1.00  0.00    -0.000 C 
BRANCH  20  21
ATOM     21  C   UNL     1       1.092  -8.026   4.972  1.00  0.00    -0.003 C 
ATOM     22  C   UNL     1       0.285  -9.107   4.269  1.00  0.00     0.004 C 
ENDBRANCH  20  21
ENDBRANCH  19  20
ENDBRANCH  18  19
ENDBRANCH  17  18
ENDBRANCH  16  17
ENDBRANCH  12  16
ENDBRANCH   9  12
ENDBRANCH   6   9
ENDBRANCH   3   5
ENDBRANCH   2   3
BRANCH   2  23
ATOM     23  N   UNL     1       2.990  -1.044   1.422  1.00  0.00    -0.332 N 
ATOM     24  C   UNL     1       3.869  -0.163   0.667  1.00  0.00     0.147 C 
BRANCH  23  25
ATOM     25  C   UNL     1       3.645  -2.262   1.973  1.00  0.00     0.174 C 
BRANCH  25  26
ATOM     26  C   UNL     1       5.189  -2.194   1.914  1.00  0.00     0.038 C 
BRANCH  26  27
ATOM     27  C   UNL     1       5.967  -3.097   2.896  1.00  0.00    -0.015 C 
ATOM     28  C   UNL     1       5.099  -3.586   4.054  1.00  0.00     0.007 C 
ATOM     29  C   UNL     1       6.667  -4.272   2.216  1.00  0.00     0.007 C 
ENDBRANCH  26  27
ENDBRANCH  25  26
BRANCH  25  30
ATOM     30  C   UNL     1       3.053  -3.529   1.314  1.00  0.00     0.243 C 
ATOM     31  O   UNL     1       3.516  -3.998   0.275  1.00  0.00    -0.273 OA
ATOM     32  N   UNL     1       1.979  -4.086   1.958  1.00  0.00    -0.342 N 
ATOM     33  H   UNL     1       1.743  -3.724   2.886  1.00  0.00     0.164 HD
BRANCH  32  34
ATOM     34  C   UNL     1       1.274  -5.272   1.464  1.00  0.00     0.175 C 
BRANCH  34  35
ATOM     35  C   UNL     1       1.878  -6.562   2.041  1.00  0.00     0.070 C 
BRANCH  35  36
ATOM     36  C   UNL     1       2.332  -7.526   0.969  1.00  0.00    -0.045 A 
ATOM     37  C   UNL     1       2.847  -8.781   1.326  1.00  0.00     0.007 A 
ATOM     38  C   UNL     1       2.268  -7.176  -0.387  1.00  0.00     0.007 A 
ATOM     39  C   UNL     1       3.281  -9.672   0.344  1.00  0.00     0.046 A 
ATOM     40  C   UNL     1       2.704  -8.067  -1.370  1.00  0.00     0.046 A 
ATOM     41  C   UNL     1       3.205  -9.309  -0.995  1.00  0.00     0.115 A 
BRANCH  41  42
ATOM     42  O   UNL     1       3.643 -10.207  -1.923  1.00  0.00    -0.508 OA
ATOM     43  H   UNL     1       2.889 -10.757  -2.194  1.00  0.00     0.293 HD
ENDBRANCH  41  42
ENDBRANCH  35  36
ENDBRANCH  34  35
BRANCH  34  44
ATOM     44  C   UNL     1      -0.222  -5.124   1.823  1.00  0.00     0.243 C 
ATOM     45  O   UNL     1      -0.805  -4.050   1.934  1.00  0.00    -0.273 OA
ATOM     46  N   UNL     1      -0.831  -6.320   2.140  1.00  0.00    -0.341 N 
ATOM     47  H   UNL     1      -0.274  -7.171   2.147  1.00  0.00     0.164 HD
BRANCH  46  48
ATOM     48  C   UNL     1      -2.225  -6.423   2.577  1.00  0.00     0.196 C 
BRANCH  48  49
ATOM     49  C   UNL     1      -2.855  -7.753   2.130  1.00  0.00     0.072 C 
BRANCH  49  50
ATOM     50  C   UNL     1      -2.434  -8.156   0.735  1.00  0.00    -0.045 A 
ATOM     51  C   UNL     1      -3.274  -7.883  -0.355  1.00  0.00     0.007 A 
ATOM     52  C   UNL     1      -1.222  -8.820   0.511  1.00  0.00     0.007 A 
ATOM     53  C   UNL     1      -2.903  -8.262  -1.645  1.00  0.00     0.046 A 
ATOM     54  C   UNL     1      -0.851  -9.201  -0.781  1.00  0.00     0.046 A 
ATOM     55  C   UNL     1      -1.695  -8.917  -1.849  1.00  0.00     0.115 A 
BRANCH  55  56
ATOM     56  O   UNL     1      -1.370  -9.272  -3.125  1.00  0.00    -0.508 OA
ATOM     57  H   UNL     1      -1.078 -10.197  -3.120  1.00  0.00     0.293 HD
ENDBRANCH  55  56
ENDBRANCH  49  50
ENDBRANCH  48  49
BRANCH  48  58
ATOM     58  C   UNL     1      -2.278  -6.317   4.107  1.00  0.00     0.326 C 
ATOM     59  O   UNL     1      -2.571  -7.197   4.899  1.00  0.00    -0.250 OA
BRANCH  58  60
ATOM     60  O   UNL     1      -1.940  -5.090   4.577  1.00  0.00    -0.480 OA
ATOM     61  H   UNL     1      -1.002  -5.201   4.845  1.00  0.00     0.296 HD
ENDBRANCH  58  60
ENDBRANCH  48  58
ENDBRANCH  46  48
ENDBRANCH  34  44
ENDBRANCH  32  34
ENDBRANCH  25  30
ENDBRANCH  23  25
ENDBRANCH   2  23
TORSDOF 28
ENDMDL
MODEL 18
REMARK VINA RESULT:    -5.813      2.634      6.306
REMARK INTER + INTRA:         -20.414
REMARK INTER:                 -15.022
REMARK INTRA:                  -5.392
REMARK UNBOUND:                -5.934
REMARK SMILES CCCCCCC[C@H](N)[C@H](O)C(=O)N[C@H](C)C(=O)N(C)[C@H](CC(C)C)C(=O)N[C@@H](Cc1ccc(O)cc1)C(=O)N[C@@H](Cc1ccc(O)cc1)C(=O)O
REMARK SMILES IDX 18 1 17 2 15 3 16 4 14 5 12 6 13 7 10 9 11 10 8 12 9 13 7 16
REMARK SMILES IDX 6 17 5 18 4 19 3 20 2 21 1 22 19 23 20 24 21 25 22 26 23 27
REMARK SMILES IDX 24 28 25 29 26 30 27 31 28 32 29 34 30 35 31 36 32 37 37 38
REMARK SMILES IDX 33 39 36 40 34 41 35 42 38 44 39 45 40 46 41 48 42 49 43 50
REMARK SMILES IDX 44 51 49 52 45 53 48 54 46 55 47 56 50 58 51 59 52 60
REMARK H PARENT 14 8 11 11 9 14 9 15 28 33 35 43 40 47 47 57 52 61
ROOT
ATOM      1  O   UNL     1      -1.501 -10.298   0.199  1.00  0.00    -0.272 OA
ATOM      2  C   UNL     1      -2.511  -9.601   0.380  1.00  0.00     0.245 C 
ENDROOT
BRANCH   2   3
ATOM      3  C   UNL     1      -3.771 -10.267   0.987  1.00  0.00     0.168 C 
ATOM      4  C   UNL     1      -4.063 -11.598   0.303  1.00  0.00     0.041 C 
BRANCH   3   5
ATOM      5  N   UNL     1      -3.756 -10.395   2.436  1.00  0.00    -0.342 N 
ATOM      6  C   UNL     1      -4.911 -10.320   3.186  1.00  0.00     0.251 C 
ATOM      7  O   UNL     1      -6.017 -10.102   2.703  1.00  0.00    -0.272 OA
ATOM      8  H   UNL     1      -2.892 -10.544   2.953  1.00  0.00     0.164 HD
BRANCH   6   9
ATOM      9  C   UNL     1      -4.675 -10.624   4.674  1.00  0.00     0.219 C 
BRANCH   9  10
ATOM     10  O   UNL     1      -4.867 -12.008   4.992  1.00  0.00    -0.382 OA
ATOM     11  H   UNL     1      -5.812 -12.055   5.256  1.00  0.00     0.211 HD
ENDBRANCH   9  10
BRANCH   9  12
ATOM     12  C   UNL     1      -3.298 -10.128   5.186  1.00  0.00     0.089 C 
BRANCH  12  13
ATOM     13  N   UNL     1      -3.356  -8.655   5.329  1.00  0.00    -0.325 NA
ATOM     14  H   UNL     1      -4.171  -8.300   4.826  1.00  0.00     0.119 HD
ATOM     15  H   UNL     1      -2.549  -8.244   4.854  1.00  0.00     0.119 HD
ENDBRANCH  12  13
BRANCH  12  16
ATOM     16  C   UNL     1      -2.791 -10.770   6.499  1.00  0.00     0.022 C 
BRANCH  16  17
ATOM     17  C   UNL     1      -1.339 -11.261   6.579  1.00  0.00     0.002 C 
BRANCH  17  18
ATOM     18  C   UNL     1      -0.324 -10.394   5.838  1.00  0.00     0.000 C 
BRANCH  18  19
ATOM     19  C   UNL     1       0.059  -9.107   6.581  1.00  0.00    -0.000 C 
BRANCH  19  20
ATOM     20  C   UNL     1       1.352  -8.440   6.102  1.00  0.00    -0.000 C 
BRANCH  20  21
ATOM     21  C   UNL     1       1.275  -7.954   4.652  1.00  0.00    -0.003 C 
ATOM     22  C   UNL     1       2.133  -8.811   3.734  1.00  0.00     0.004 C 
ENDBRANCH  20  21
ENDBRANCH  19  20
ENDBRANCH  18  19
ENDBRANCH  17  18
ENDBRANCH  16  17
ENDBRANCH  12  16
ENDBRANCH   9  12
ENDBRANCH   6   9
ENDBRANCH   3   5
ENDBRANCH   2   3
BRANCH   2  23
ATOM     23  N   UNL     1      -2.460  -8.230   0.154  1.00  0.00    -0.332 N 
ATOM     24  C   UNL     1      -3.360  -7.505  -0.730  1.00  0.00     0.147 C 
BRANCH  23  25
ATOM     25  C   UNL     1      -1.523  -7.375   0.934  1.00  0.00     0.174 C 
BRANCH  25  26
ATOM     26  C   UNL     1      -0.161  -8.059   1.198  1.00  0.00     0.038 C 
BRANCH  26  27
ATOM     27  C   UNL     1       1.090  -7.386   0.591  1.00  0.00    -0.015 C 
ATOM     28  C   UNL     1       1.231  -7.657  -0.907  1.00  0.00     0.007 C 
ATOM     29  C   UNL     1       1.172  -5.888   0.876  1.00  0.00     0.007 C 
ENDBRANCH  26  27
ENDBRANCH  25  26
BRANCH  25  30
ATOM     30  C   UNL     1      -2.217  -6.856   2.214  1.00  0.00     0.243 C 
ATOM     31  O   UNL     1      -3.298  -7.303   2.594  1.00  0.00    -0.273 OA
ATOM     32  N   UNL     1      -1.552  -5.865   2.889  1.00  0.00    -0.342 N 
ATOM     33  H   UNL     1      -0.598  -5.647   2.592  1.00  0.00     0.164 HD
BRANCH  32  34
ATOM     34  C   UNL     1      -2.072  -5.236   4.106  1.00  0.00     0.175 C 
BRANCH  34  35
ATOM     35  C   UNL     1      -1.511  -5.910   5.368  1.00  0.00     0.070 C 
BRANCH  35  36
ATOM     36  C   UNL     1      -2.009  -5.270   6.644  1.00  0.00    -0.045 A 
ATOM     37  C   UNL     1      -1.093  -4.787   7.590  1.00  0.00     0.007 A 
ATOM     38  C   UNL     1      -3.381  -5.170   6.911  1.00  0.00     0.007 A 
ATOM     39  C   UNL     1      -1.543  -4.207   8.777  1.00  0.00     0.046 A 
ATOM     40  C   UNL     1      -3.832  -4.591   8.099  1.00  0.00     0.046 A 
ATOM     41  C   UNL     1      -2.907  -4.113   9.022  1.00  0.00     0.115 A 
BRANCH  41  42
ATOM     42  O   UNL     1      -3.305  -3.542  10.194  1.00  0.00    -0.508 OA
ATOM     43  H   UNL     1      -3.981  -2.874   9.994  1.00  0.00     0.293 HD
ENDBRANCH  41  42
ENDBRANCH  35  36
ENDBRANCH  34  35
BRANCH  34  44
ATOM     44  C   UNL     1      -1.725  -3.731   4.053  1.00  0.00     0.243 C 
ATOM     45  O   UNL     1      -2.483  -2.831   4.403  1.00  0.00    -0.273 OA
ATOM     46  N   UNL     1      -0.515  -3.468   3.447  1.00  0.00    -0.341 N 
ATOM     47  H   UNL     1       0.026  -4.242   3.067  1.00  0.00     0.164 HD
BRANCH  46  48
ATOM     48  C   UNL     1      -0.004  -2.115   3.221  1.00  0.00     0.196 C 
BRANCH  48  49
ATOM     49  C   UNL     1       1.533  -2.079   3.279  1.00  0.00     0.072 C 
BRANCH  49  50
ATOM     50  C   UNL     1       2.098  -3.037   4.302  1.00  0.00    -0.045 A 
ATOM     51  C   UNL     1       1.930  -2.779   5.670  1.00  0.00     0.007 A 
ATOM     52  C   UNL     1       2.811  -4.176   3.906  1.00  0.00     0.007 A 
ATOM     53  C   UNL     1       2.458  -3.650   6.624  1.00  0.00     0.046 A 
ATOM     54  C   UNL     1       3.342  -5.047   4.860  1.00  0.00     0.046 A 
ATOM     55  C   UNL     1       3.160  -4.776   6.212  1.00  0.00     0.115 A 
BRANCH  55  56
ATOM     56  O   UNL     1       3.662  -5.601   7.175  1.00  0.00    -0.508 OA
ATOM     57  H   UNL     1       4.626  -5.639   7.072  1.00  0.00     0.293 HD
ENDBRANCH  55  56
ENDBRANCH  49  50
ENDBRANCH  48  49
BRANCH  48  58
ATOM     58  C   UNL     1      -0.478  -1.625   1.845  1.00  0.00     0.326 C 
ATOM     59  O   UNL     1      -1.571  -1.162   1.562  1.00  0.00    -0.250 OA
BRANCH  58  60
ATOM     60  O   UNL     1       0.467  -1.730   0.878  1.00  0.00    -0.480 OA
ATOM     61  H   UNL     1       0.257  -2.588   0.449  1.00  0.00     0.296 HD
ENDBRANCH  58  60
ENDBRANCH  48  58
ENDBRANCH  46  48
ENDBRANCH  34  44
ENDBRANCH  32  34
ENDBRANCH  25  30
ENDBRANCH  23  25
ENDBRANCH   2  23
TORSDOF 28
ENDMDL
MODEL 19
REMARK VINA RESULT:    -5.807     11.456     15.833
REMARK INTER + INTRA:         -20.397
REMARK INTER:                 -15.530
REMARK INTRA:                  -4.867
REMARK UNBOUND:                -5.934
REMARK SMILES CCCCCCC[C@H](N)[C@H](O)C(=O)N[C@H](C)C(=O)N(C)[C@H](CC(C)C)C(=O)N[C@@H](Cc1ccc(O)cc1)C(=O)N[C@@H](Cc1ccc(O)cc1)C(=O)O
REMARK SMILES IDX 18 1 17 2 15 3 16 4 14 5 12 6 13 7 10 9 11 10 8 12 9 13 7 16
REMARK SMILES IDX 6 17 5 18 4 19 3 20 2 21 1 22 19 23 20 24 21 25 22 26 23 27
REMARK SMILES IDX 24 28 25 29 26 30 27 31 28 32 29 34 30 35 31 36 32 37 37 38
REMARK SMILES IDX 33 39 36 40 34 41 35 42 38 44 39 45 40 46 41 48 42 49 43 50
REMARK SMILES IDX 44 51 49 52 45 53 48 54 46 55 47 56 50 58 51 59 52 60
REMARK H PARENT 14 8 11 11 9 14 9 15 28 33 35 43 40 47 47 57 52 61
ROOT
ATOM      1  O   UNL     1     -13.100  -2.712  13.565  1.00  0.00    -0.272 OA
ATOM      2  C   UNL     1     -13.484  -2.023  12.609  1.00  0.00     0.245 C 
ENDROOT
BRANCH   2   3
ATOM      3  C   UNL     1     -12.920  -0.589  12.455  1.00  0.00     0.168 C 
ATOM      4  C   UNL     1     -14.024   0.449  12.625  1.00  0.00     0.041 C 
BRANCH   3   5
ATOM      5  N   UNL     1     -11.766  -0.293  13.290  1.00  0.00    -0.342 N 
ATOM      6  C   UNL     1     -10.488  -0.239  12.773  1.00  0.00     0.251 C 
ATOM      7  O   UNL     1     -10.223  -0.471  11.599  1.00  0.00    -0.272 OA
ATOM      8  H   UNL     1     -11.857  -0.117  14.288  1.00  0.00     0.164 HD
BRANCH   6   9
ATOM      9  C   UNL     1      -9.449   0.229  13.805  1.00  0.00     0.219 C 
BRANCH   9  10
ATOM     10  O   UNL     1      -8.118  -0.188  13.477  1.00  0.00    -0.382 OA
ATOM     11  H   UNL     1      -7.607   0.650  13.479  1.00  0.00     0.211 HD
ENDBRANCH   9  10
BRANCH   9  12
ATOM     12  C   UNL     1      -9.498   1.756  14.071  1.00  0.00     0.089 C 
BRANCH  12  13
ATOM     13  N   UNL     1     -10.146   2.411  12.911  1.00  0.00    -0.325 NA
ATOM     14  H   UNL     1     -10.285   1.722  12.170  1.00  0.00     0.119 HD
ATOM     15  H   UNL     1      -9.502   3.100  12.518  1.00  0.00     0.119 HD
ENDBRANCH  12  13
BRANCH  12  16
ATOM     16  C   UNL     1     -10.190   2.194  15.384  1.00  0.00     0.022 C 
BRANCH  16  17
ATOM     17  C   UNL     1      -9.339   2.793  16.512  1.00  0.00     0.002 C 
BRANCH  17  18
ATOM     18  C   UNL     1      -9.916   4.052  17.156  1.00  0.00     0.000 C 
BRANCH  18  19
ATOM     19  C   UNL     1     -11.415   4.254  16.898  1.00  0.00    -0.000 C 
BRANCH  19  20
ATOM     20  C   UNL     1     -11.962   5.630  17.290  1.00  0.00    -0.000 C 
BRANCH  20  21
ATOM     21  C   UNL     1     -13.145   6.073  16.425  1.00  0.00    -0.003 C 
ATOM     22  C   UNL     1     -14.316   5.112  16.552  1.00  0.00     0.004 C 
ENDBRANCH  20  21
ENDBRANCH  19  20
ENDBRANCH  18  19
ENDBRANCH  17  18
ENDBRANCH  16  17
ENDBRANCH  12  16
ENDBRANCH   9  12
ENDBRANCH   6   9
ENDBRANCH   3   5
ENDBRANCH   2   3
BRANCH   2  23
ATOM     23  N   UNL     1     -14.307  -2.580  11.636  1.00  0.00    -0.332 N 
ATOM     24  C   UNL     1     -15.730  -2.835  11.805  1.00  0.00     0.147 C 
BRANCH  23  25
ATOM     25  C   UNL     1     -13.782  -2.841  10.268  1.00  0.00     0.174 C 
BRANCH  25  26
ATOM     26  C   UNL     1     -14.898  -2.918   9.199  1.00  0.00     0.038 C 
BRANCH  26  27
ATOM     27  C   UNL     1     -14.633  -3.821   7.974  1.00  0.00    -0.015 C 
ATOM     28  C   UNL     1     -15.593  -5.008   7.904  1.00  0.00     0.007 C 
ATOM     29  C   UNL     1     -14.621  -3.061   6.650  1.00  0.00     0.007 C 
ENDBRANCH  26  27
ENDBRANCH  25  26
BRANCH  25  30
ATOM     30  C   UNL     1     -12.849  -4.074  10.282  1.00  0.00     0.243 C 
ATOM     31  O   UNL     1     -13.206  -5.154  10.751  1.00  0.00    -0.273 OA
ATOM     32  N   UNL     1     -11.602  -3.881   9.745  1.00  0.00    -0.342 N 
ATOM     33  H   UNL     1     -11.431  -3.002   9.249  1.00  0.00     0.164 HD
BRANCH  32  34
ATOM     34  C   UNL     1     -10.578  -4.928   9.698  1.00  0.00     0.175 C 
BRANCH  34  35
ATOM     35  C   UNL     1     -10.189  -5.265   8.251  1.00  0.00     0.070 C 
BRANCH  35  36
ATOM     36  C   UNL     1     -10.830  -6.542   7.755  1.00  0.00    -0.045 A 
ATOM     37  C   UNL     1     -12.079  -6.500   7.117  1.00  0.00     0.007 A 
ATOM     38  C   UNL     1     -10.203  -7.781   7.944  1.00  0.00     0.007 A 
ATOM     39  C   UNL     1     -12.684  -7.674   6.669  1.00  0.00     0.046 A 
ATOM     40  C   UNL     1     -10.808  -8.958   7.497  1.00  0.00     0.046 A 
ATOM     41  C   UNL     1     -12.044  -8.893   6.861  1.00  0.00     0.115 A 
BRANCH  41  42
ATOM     42  O   UNL     1     -12.670 -10.017   6.411  1.00  0.00    -0.508 OA
ATOM     43  H   UNL     1     -12.474 -10.742   7.028  1.00  0.00     0.293 HD
ENDBRANCH  41  42
ENDBRANCH  35  36
ENDBRANCH  34  35
BRANCH  34  44
ATOM     44  C   UNL     1      -9.365  -4.448  10.525  1.00  0.00     0.243 C 
ATOM     45  O   UNL     1      -9.305  -4.479  11.751  1.00  0.00    -0.273 OA
ATOM     46  N   UNL     1      -8.384  -3.849   9.764  1.00  0.00    -0.341 N 
ATOM     47  H   UNL     1      -8.532  -3.742   8.763  1.00  0.00     0.164 HD
BRANCH  46  48
ATOM     48  C   UNL     1      -7.171  -3.256  10.332  1.00  0.00     0.196 C 
BRANCH  48  49
ATOM     49  C   UNL     1      -5.908  -3.790   9.637  1.00  0.00     0.072 C 
BRANCH  49  50
ATOM     50  C   UNL     1      -6.110  -5.163   9.037  1.00  0.00    -0.045 A 
ATOM     51  C   UNL     1      -6.302  -6.271   9.875  1.00  0.00     0.007 A 
ATOM     52  C   UNL     1      -6.088  -5.353   7.649  1.00  0.00     0.007 A 
ATOM     53  C   UNL     1      -6.476  -7.544   9.333  1.00  0.00     0.046 A 
ATOM     54  C   UNL     1      -6.262  -6.629   7.106  1.00  0.00     0.046 A 
ATOM     55  C   UNL     1      -6.455  -7.714   7.954  1.00  0.00     0.115 A 
BRANCH  55  56
ATOM     56  O   UNL     1      -6.628  -8.975   7.465  1.00  0.00    -0.508 OA
ATOM     57  H   UNL     1      -5.775  -9.436   7.501  1.00  0.00     0.293 HD
ENDBRANCH  55  56
ENDBRANCH  49  50
ENDBRANCH  48  49
BRANCH  48  58
ATOM     58  C   UNL     1      -7.240  -1.731  10.175  1.00  0.00     0.326 C 
ATOM     59  O   UNL     1      -6.879  -0.888  10.981  1.00  0.00    -0.250 OA
BRANCH  58  60
ATOM     60  O   UNL     1      -7.755  -1.332   8.985  1.00  0.00    -0.480 OA
ATOM     61  H   UNL     1      -7.237  -0.525   8.774  1.00  0.00     0.296 HD
ENDBRANCH  58  60
ENDBRANCH  48  58
ENDBRANCH  46  48
ENDBRANCH  34  44
ENDBRANCH  32  34
ENDBRANCH  25  30
ENDBRANCH  23  25
ENDBRANCH   2  23
TORSDOF 28
ENDMDL
MODEL 20
REMARK VINA RESULT:    -5.765      2.526      7.623
REMARK INTER + INTRA:         -20.294
REMARK INTER:                 -14.610
REMARK INTRA:                  -5.684
REMARK UNBOUND:                -5.934
REMARK SMILES CCCCCCC[C@H](N)[C@H](O)C(=O)N[C@H](C)C(=O)N(C)[C@H](CC(C)C)C(=O)N[C@@H](Cc1ccc(O)cc1)C(=O)N[C@@H](Cc1ccc(O)cc1)C(=O)O
REMARK SMILES IDX 18 1 17 2 15 3 16 4 14 5 12 6 13 7 10 9 11 10 8 12 9 13 7 16
REMARK SMILES IDX 6 17 5 18 4 19 3 20 2 21 1 22 19 23 20 24 21 25 22 26 23 27
REMARK SMILES IDX 24 28 25 29 26 30 27 31 28 32 29 34 30 35 31 36 32 37 37 38
REMARK SMILES IDX 33 39 36 40 34 41 35 42 38 44 39 45 40 46 41 48 42 49 43 50
REMARK SMILES IDX 44 51 49 52 45 53 48 54 46 55 47 56 50 58 51 59 52 60
REMARK H PARENT 14 8 11 11 9 14 9 15 28 33 35 43 40 47 47 57 52 61
ROOT
ATOM      1  O   UNL     1       1.852  -6.310  -1.540  1.00  0.00    -0.272 OA
ATOM      2  C   UNL     1       1.640  -7.217  -0.722  1.00  0.00     0.245 C 
ENDROOT
BRANCH   2   3
ATOM      3  C   UNL     1       0.662  -8.353  -1.113  1.00  0.00     0.168 C 
ATOM      4  C   UNL     1       1.422  -9.569  -1.630  1.00  0.00     0.041 C 
BRANCH   3   5
ATOM      5  N   UNL     1      -0.299  -8.713  -0.082  1.00  0.00    -0.342 N 
ATOM      6  C   UNL     1      -1.656  -8.546  -0.261  1.00  0.00     0.251 C 
ATOM      7  O   UNL     1      -2.149  -8.050  -1.268  1.00  0.00    -0.272 OA
ATOM      8  H   UNL     1      -0.007  -9.102   0.812  1.00  0.00     0.164 HD
BRANCH   6   9
ATOM      9  C   UNL     1      -2.484  -9.125   0.897  1.00  0.00     0.219 C 
BRANCH   9  10
ATOM     10  O   UNL     1      -3.892  -9.118   0.628  1.00  0.00    -0.382 OA
ATOM     11  H   UNL     1      -4.163  -8.199   0.843  1.00  0.00     0.211 HD
ENDBRANCH   9  10
BRANCH   9  12
ATOM     12  C   UNL     1      -2.015 -10.537   1.335  1.00  0.00     0.089 C 
BRANCH  12  13
ATOM     13  N   UNL     1      -1.267 -10.407   2.607  1.00  0.00    -0.325 NA
ATOM     14  H   UNL     1      -0.706 -11.248   2.754  1.00  0.00     0.119 HD
ATOM     15  H   UNL     1      -1.933 -10.391   3.383  1.00  0.00     0.119 HD
ENDBRANCH  12  13
BRANCH  12  16
ATOM     16  C   UNL     1      -3.124 -11.606   1.478  1.00  0.00     0.022 C 
BRANCH  16  17
ATOM     17  C   UNL     1      -3.437 -12.177   2.868  1.00  0.00     0.002 C 
BRANCH  17  18
ATOM     18  C   UNL     1      -4.922 -12.370   3.167  1.00  0.00     0.000 C 
BRANCH  18  19
ATOM     19  C   UNL     1      -5.562 -11.203   3.930  1.00  0.00    -0.000 C 
BRANCH  19  20
ATOM     20  C   UNL     1      -5.286 -11.182   5.436  1.00  0.00    -0.000 C 
BRANCH  20  21
ATOM     21  C   UNL     1      -5.066  -9.770   5.986  1.00  0.00    -0.003 C 
ATOM     22  C   UNL     1      -5.917  -9.516   7.220  1.00  0.00     0.004 C 
ENDBRANCH  20  21
ENDBRANCH  19  20
ENDBRANCH  18  19
ENDBRANCH  17  18
ENDBRANCH  16  17
ENDBRANCH  12  16
ENDBRANCH   9  12
ENDBRANCH   6   9
ENDBRANCH   3   5
ENDBRANCH   2   3
BRANCH   2  23
ATOM     23  N   UNL     1       2.364  -7.267   0.465  1.00  0.00    -0.332 N 
ATOM     24  C   UNL     1       3.719  -7.784   0.584  1.00  0.00     0.147 C 
BRANCH  23  25
ATOM     25  C   UNL     1       1.815  -6.654   1.706  1.00  0.00     0.174 C 
BRANCH  25  26
ATOM     26  C   UNL     1       2.736  -5.560   2.295  1.00  0.00     0.038 C 
BRANCH  26  27
ATOM     27  C   UNL     1       2.143  -4.140   2.423  1.00  0.00    -0.015 C 
ATOM     28  C   UNL     1       2.059  -3.418   1.079  1.00  0.00     0.007 C 
ATOM     29  C   UNL     1       0.792  -4.108   3.135  1.00  0.00     0.007 C 
ENDBRANCH  26  27
ENDBRANCH  25  26
BRANCH  25  30
ATOM     30  C   UNL     1       1.432  -7.757   2.719  1.00  0.00     0.243 C 
ATOM     31  O   UNL     1       1.186  -8.909   2.365  1.00  0.00    -0.273 OA
ATOM     32  N   UNL     1       1.380  -7.364   4.032  1.00  0.00    -0.342 N 
ATOM     33  H   UNL     1       1.735  -6.432   4.262  1.00  0.00     0.164 HD
BRANCH  32  34
ATOM     34  C   UNL     1       1.009  -8.266   5.125  1.00  0.00     0.175 C 
BRANCH  34  35
ATOM     35  C   UNL     1       1.744  -7.902   6.424  1.00  0.00     0.070 C 
BRANCH  35  36
ATOM     36  C   UNL     1       1.947  -6.412   6.584  1.00  0.00    -0.045 A 
ATOM     37  C   UNL     1       1.020  -5.652   7.314  1.00  0.00     0.007 A 
ATOM     38  C   UNL     1       3.040  -5.767   5.991  1.00  0.00     0.007 A 
ATOM     39  C   UNL     1       1.191  -4.275   7.455  1.00  0.00     0.046 A 
ATOM     40  C   UNL     1       3.211  -4.388   6.130  1.00  0.00     0.046 A 
ATOM     41  C   UNL     1       2.284  -3.654   6.863  1.00  0.00     0.115 A 
BRANCH  41  42
ATOM     42  O   UNL     1       2.413  -2.306   7.023  1.00  0.00    -0.508 OA
ATOM     43  H   UNL     1       3.357  -2.083   6.977  1.00  0.00     0.293 HD
ENDBRANCH  41  42
ENDBRANCH  35  36
ENDBRANCH  34  35
BRANCH  34  44
ATOM     44  C   UNL     1      -0.525  -8.208   5.294  1.00  0.00     0.243 C 
ATOM     45  O   UNL     1      -1.237  -9.184   5.514  1.00  0.00    -0.273 OA
ATOM     46  N   UNL     1      -1.058  -6.961   5.045  1.00  0.00    -0.341 N 
ATOM     47  H   UNL     1      -0.439  -6.209   4.751  1.00  0.00     0.164 HD
BRANCH  46  48
ATOM     48  C   UNL     1      -2.494  -6.677   5.076  1.00  0.00     0.196 C 
BRANCH  48  49
ATOM     49  C   UNL     1      -2.776  -5.279   5.652  1.00  0.00     0.072 C 
BRANCH  49  50
ATOM     50  C   UNL     1      -3.522  -5.330   6.966  1.00  0.00    -0.045 A 
ATOM     51  C   UNL     1      -4.784  -5.938   7.030  1.00  0.00     0.007 A 
ATOM     52  C   UNL     1      -2.981  -4.759   8.125  1.00  0.00     0.007 A 
ATOM     53  C   UNL     1      -5.488  -5.980   8.234  1.00  0.00     0.046 A 
ATOM     54  C   UNL     1      -3.685  -4.800   9.330  1.00  0.00     0.046 A 
ATOM     55  C   UNL     1      -4.933  -5.412   9.374  1.00  0.00     0.115 A 
BRANCH  55  56
ATOM     56  O   UNL     1      -5.654  -5.472  10.531  1.00  0.00    -0.508 OA
ATOM     57  H   UNL     1      -5.706  -6.400  10.811  1.00  0.00     0.293 HD
ENDBRANCH  55  56
ENDBRANCH  49  50
ENDBRANCH  48  49
BRANCH  48  58
ATOM     58  C   UNL     1      -3.053  -6.768   3.649  1.00  0.00     0.326 C 
ATOM     59  O   UNL     1      -4.028  -7.400   3.277  1.00  0.00    -0.250 OA
BRANCH  58  60
ATOM     60  O   UNL     1      -2.353  -6.036   2.746  1.00  0.00    -0.480 OA
ATOM     61  H   UNL     1      -1.460  -5.973   3.150  1.00  0.00     0.296 HD
ENDBRANCH  58  60
ENDBRANCH  48  58
ENDBRANCH  46  48
ENDBRANCH  34  44
ENDBRANCH  32  34
ENDBRANCH  25  30
ENDBRANCH  23  25
ENDBRANCH   2  23
TORSDOF 28
ENDMDL
MODEL 21
REMARK VINA RESULT:    -5.715      3.573      7.684
REMARK INTER + INTRA:         -20.168
REMARK INTER:                 -14.823
REMARK INTRA:                  -5.344
REMARK UNBOUND:                -5.934
REMARK SMILES CCCCCCC[C@H](N)[C@H](O)C(=O)N[C@H](C)C(=O)N(C)[C@H](CC(C)C)C(=O)N[C@@H](Cc1ccc(O)cc1)C(=O)N[C@@H](Cc1ccc(O)cc1)C(=O)O
REMARK SMILES IDX 18 1 17 2 15 3 16 4 14 5 12 6 13 7 10 9 11 10 8 12 9 13 7 16
REMARK SMILES IDX 6 17 5 18 4 19 3 20 2 21 1 22 19 23 20 24 21 25 22 26 23 27
REMARK SMILES IDX 24 28 25 29 26 30 27 31 28 32 29 34 30 35 31 36 32 37 37 38
REMARK SMILES IDX 33 39 36 40 34 41 35 42 38 44 39 45 40 46 41 48 42 49 43 50
REMARK SMILES IDX 44 51 49 52 45 53 48 54 46 55 47 56 50 58 51 59 52 60
REMARK H PARENT 14 8 11 11 9 14 9 15 28 33 35 43 40 47 47 57 52 61
ROOT
ATOM      1  O   UNL     1      -6.092  -3.693   7.407  1.00  0.00    -0.272 OA
ATOM      2  C   UNL     1      -5.182  -4.427   7.819  1.00  0.00     0.245 C 
ENDROOT
BRANCH   2   3
ATOM      3  C   UNL     1      -3.755  -3.838   7.948  1.00  0.00     0.168 C 
ATOM      4  C   UNL     1      -2.702  -4.892   7.624  1.00  0.00     0.041 C 
BRANCH   3   5
ATOM      5  N   UNL     1      -3.534  -2.605   7.207  1.00  0.00    -0.342 N 
ATOM      6  C   UNL     1      -3.137  -1.442   7.832  1.00  0.00     0.251 C 
ATOM      7  O   UNL     1      -2.983  -1.344   9.044  1.00  0.00    -0.272 OA
ATOM      8  H   UNL     1      -3.664  -2.555   6.199  1.00  0.00     0.164 HD
BRANCH   6   9
ATOM      9  C   UNL     1      -2.827  -0.310   6.838  1.00  0.00     0.219 C 
BRANCH   9  10
ATOM     10  O   UNL     1      -3.065   0.990   7.391  1.00  0.00    -0.382 OA
ATOM     11  H   UNL     1      -2.719   1.600   6.703  1.00  0.00     0.211 HD
ENDBRANCH   9  10
BRANCH   9  12
ATOM     12  C   UNL     1      -1.400  -0.401   6.237  1.00  0.00     0.089 C 
BRANCH  12  13
ATOM     13  N   UNL     1      -0.507  -1.016   7.246  1.00  0.00    -0.325 NA
ATOM     14  H   UNL     1       0.431  -1.110   6.851  1.00  0.00     0.119 HD
ATOM     15  H   UNL     1      -0.818  -1.974   7.424  1.00  0.00     0.119 HD
ENDBRANCH  12  13
BRANCH  12  16
ATOM     16  C   UNL     1      -1.279  -1.153   4.890  1.00  0.00     0.022 C 
BRANCH  16  17
ATOM     17  C   UNL     1      -1.041  -2.669   4.900  1.00  0.00     0.002 C 
BRANCH  17  18
ATOM     18  C   UNL     1       0.255  -3.123   4.233  1.00  0.00     0.000 C 
BRANCH  18  19
ATOM     19  C   UNL     1       0.045  -4.004   2.994  1.00  0.00    -0.000 C 
BRANCH  19  20
ATOM     20  C   UNL     1       0.779  -5.348   3.020  1.00  0.00    -0.000 C 
BRANCH  20  21
ATOM     21  C   UNL     1       2.215  -5.257   2.498  1.00  0.00    -0.003 C 
ATOM     22  C   UNL     1       2.245  -5.025   0.995  1.00  0.00     0.004 C 
ENDBRANCH  20  21
ENDBRANCH  19  20
ENDBRANCH  18  19
ENDBRANCH  17  18
ENDBRANCH  16  17
ENDBRANCH  12  16
ENDBRANCH   9  12
ENDBRANCH   6   9
ENDBRANCH   3   5
ENDBRANCH   2   3
BRANCH   2  23
ATOM     23  N   UNL     1      -5.473  -5.711   8.269  1.00  0.00    -0.332 N 
ATOM     24  C   UNL     1      -5.110  -6.229   9.580  1.00  0.00     0.147 C 
BRANCH  23  25
ATOM     25  C   UNL     1      -6.317  -6.621   7.447  1.00  0.00     0.174 C 
BRANCH  25  26
ATOM     26  C   UNL     1      -7.584  -7.103   8.192  1.00  0.00     0.038 C 
BRANCH  26  27
ATOM     27  C   UNL     1      -8.833  -6.197   8.109  1.00  0.00    -0.015 C 
ATOM     28  C   UNL     1     -10.128  -6.997   7.971  1.00  0.00     0.007 C 
ATOM     29  C   UNL     1      -8.938  -5.200   9.260  1.00  0.00     0.007 C 
ENDBRANCH  26  27
ENDBRANCH  25  26
BRANCH  25  30
ATOM     30  C   UNL     1      -5.458  -7.771   6.874  1.00  0.00     0.243 C 
ATOM     31  O   UNL     1      -5.586  -8.932   7.259  1.00  0.00    -0.273 OA
ATOM     32  N   UNL     1      -4.544  -7.409   5.918  1.00  0.00    -0.342 N 
ATOM     33  H   UNL     1      -4.596  -6.455   5.551  1.00  0.00     0.164 HD
BRANCH  32  34
ATOM     34  C   UNL     1      -3.627  -8.360   5.284  1.00  0.00     0.175 C 
BRANCH  34  35
ATOM     35  C   UNL     1      -4.205  -8.899   3.966  1.00  0.00     0.070 C 
BRANCH  35  36
ATOM     36  C   UNL     1      -4.235 -10.410   3.915  1.00  0.00    -0.045 A 
ATOM     37  C   UNL     1      -5.440 -11.095   4.133  1.00  0.00     0.007 A 
ATOM     38  C   UNL     1      -3.067 -11.145   3.675  1.00  0.00     0.007 A 
ATOM     39  C   UNL     1      -5.476 -12.489   4.102  1.00  0.00     0.046 A 
ATOM     40  C   UNL     1      -3.101 -12.541   3.645  1.00  0.00     0.046 A 
ATOM     41  C   UNL     1      -4.307 -13.201   3.858  1.00  0.00     0.115 A 
BRANCH  41  42
ATOM     42  O   UNL     1      -4.384 -14.562   3.839  1.00  0.00    -0.508 OA
ATOM     43  H   UNL     1      -3.532 -14.911   3.530  1.00  0.00     0.293 HD
ENDBRANCH  41  42
ENDBRANCH  35  36
ENDBRANCH  34  35
BRANCH  34  44
ATOM     44  C   UNL     1      -2.271  -7.650   5.073  1.00  0.00     0.243 C 
ATOM     45  O   UNL     1      -2.125  -6.609   4.439  1.00  0.00    -0.273 OA
ATOM     46  N   UNL     1      -1.196  -8.365   5.556  1.00  0.00    -0.341 N 
ATOM     47  H   UNL     1      -1.357  -9.280   5.970  1.00  0.00     0.164 HD
BRANCH  46  48
ATOM     48  C   UNL     1       0.194  -7.927   5.412  1.00  0.00     0.196 C 
BRANCH  48  49
ATOM     49  C   UNL     1       0.827  -7.613   6.778  1.00  0.00     0.072 C 
BRANCH  49  50
ATOM     50  C   UNL     1       1.450  -6.237   6.828  1.00  0.00    -0.045 A 
ATOM     51  C   UNL     1       0.865  -5.233   7.614  1.00  0.00     0.007 A 
ATOM     52  C   UNL     1       2.597  -5.937   6.082  1.00  0.00     0.007 A 
ATOM     53  C   UNL     1       1.424  -3.955   7.658  1.00  0.00     0.046 A 
ATOM     54  C   UNL     1       3.155  -4.657   6.125  1.00  0.00     0.046 A 
ATOM     55  C   UNL     1       2.564  -3.677   6.914  1.00  0.00     0.115 A 
BRANCH  55  56
ATOM     56  O   UNL     1       3.077  -2.416   6.983  1.00  0.00    -0.508 OA
ATOM     57  H   UNL     1       3.515  -2.310   7.843  1.00  0.00     0.293 HD
ENDBRANCH  55  56
ENDBRANCH  49  50
ENDBRANCH  48  49
BRANCH  48  58
ATOM     58  C   UNL     1       0.997  -9.034   4.715  1.00  0.00     0.326 C 
ATOM     59  O   UNL     1       1.705  -8.923   3.727  1.00  0.00    -0.250 OA
BRANCH  58  60
ATOM     60  O   UNL     1       0.880 -10.246   5.313  1.00  0.00    -0.480 OA
ATOM     61  H   UNL     1      -0.058 -10.266   5.601  1.00  0.00     0.296 HD
ENDBRANCH  58  60
ENDBRANCH  48  58
ENDBRANCH  46  48
ENDBRANCH  34  44
ENDBRANCH  32  34
ENDBRANCH  25  30
ENDBRANCH  23  25
ENDBRANCH   2  23
TORSDOF 28
ENDMDL
MODEL 22
REMARK VINA RESULT:    -5.694      8.130     12.744
REMARK INTER + INTRA:         -20.116
REMARK INTER:                 -14.901
REMARK INTRA:                  -5.215
REMARK UNBOUND:                -5.934
REMARK SMILES CCCCCCC[C@H](N)[C@H](O)C(=O)N[C@H](C)C(=O)N(C)[C@H](CC(C)C)C(=O)N[C@@H](Cc1ccc(O)cc1)C(=O)N[C@@H](Cc1ccc(O)cc1)C(=O)O
REMARK SMILES IDX 18 1 17 2 15 3 16 4 14 5 12 6 13 7 10 9 11 10 8 12 9 13 7 16
REMARK SMILES IDX 6 17 5 18 4 19 3 20 2 21 1 22 19 23 20 24 21 25 22 26 23 27
REMARK SMILES IDX 24 28 25 29 26 30 27 31 28 32 29 34 30 35 31 36 32 37 37 38
REMARK SMILES IDX 33 39 36 40 34 41 35 42 38 44 39 45 40 46 41 48 42 49 43 50
REMARK SMILES IDX 44 51 49 52 45 53 48 54 46 55 47 56 50 58 51 59 52 60
REMARK H PARENT 14 8 11 11 9 14 9 15 28 33 35 43 40 47 47 57 52 61
ROOT
ATOM      1  O   UNL     1       2.715   2.235  -1.793  1.00  0.00    -0.272 OA
ATOM      2  C   UNL     1       3.769   1.616  -1.580  1.00  0.00     0.245 C 
ENDROOT
BRANCH   2   3
ATOM      3  C   UNL     1       3.925   0.860  -0.237  1.00  0.00     0.168 C 
ATOM      4  C   UNL     1       3.194  -0.477  -0.280  1.00  0.00     0.041 C 
BRANCH   3   5
ATOM      5  N   UNL     1       5.297   0.713   0.225  1.00  0.00    -0.342 N 
ATOM      6  C   UNL     1       5.882   1.630   1.072  1.00  0.00     0.251 C 
ATOM      7  O   UNL     1       5.318   2.647   1.462  1.00  0.00    -0.272 OA
ATOM      8  H   UNL     1       5.877  -0.073  -0.059  1.00  0.00     0.164 HD
BRANCH   6   9
ATOM      9  C   UNL     1       7.281   1.199   1.540  1.00  0.00     0.219 C 
BRANCH   9  10
ATOM     10  O   UNL     1       7.747   0.019   0.874  1.00  0.00    -0.382 OA
ATOM     11  H   UNL     1       6.945  -0.324   0.424  1.00  0.00     0.211 HD
ENDBRANCH   9  10
BRANCH   9  12
ATOM     12  C   UNL     1       8.332   2.335   1.447  1.00  0.00     0.089 C 
BRANCH  12  13
ATOM     13  N   UNL     1       8.354   2.839   0.055  1.00  0.00    -0.325 NA
ATOM     14  H   UNL     1       8.013   2.108  -0.572  1.00  0.00     0.119 HD
ATOM     15  H   UNL     1       9.325   2.998  -0.224  1.00  0.00     0.119 HD
ENDBRANCH  12  13
BRANCH  12  16
ATOM     16  C   UNL     1       8.147   3.512   2.435  1.00  0.00     0.022 C 
BRANCH  16  17
ATOM     17  C   UNL     1       9.297   4.510   2.631  1.00  0.00     0.002 C 
BRANCH  17  18
ATOM     18  C   UNL     1       8.944   5.966   2.333  1.00  0.00     0.000 C 
BRANCH  18  19
ATOM     19  C   UNL     1       8.865   6.296   0.837  1.00  0.00    -0.000 C 
BRANCH  19  20
ATOM     20  C   UNL     1      10.064   7.065   0.276  1.00  0.00    -0.000 C 
BRANCH  20  21
ATOM     21  C   UNL     1       9.872   8.583   0.312  1.00  0.00    -0.003 C 
ATOM     22  C   UNL     1      10.123   9.206  -1.053  1.00  0.00     0.004 C 
ENDBRANCH  20  21
ENDBRANCH  19  20
ENDBRANCH  18  19
ENDBRANCH  17  18
ENDBRANCH  16  17
ENDBRANCH  12  16
ENDBRANCH   9  12
ENDBRANCH   6   9
ENDBRANCH   3   5
ENDBRANCH   2   3
BRANCH   2  23
ATOM     23  N   UNL     1       4.728   1.511  -2.581  1.00  0.00    -0.332 N 
ATOM     24  C   UNL     1       4.584   0.697  -3.780  1.00  0.00     0.147 C 
BRANCH  23  25
ATOM     25  C   UNL     1       5.952   2.357  -2.541  1.00  0.00     0.174 C 
BRANCH  25  26
ATOM     26  C   UNL     1       5.763   3.723  -3.242  1.00  0.00     0.038 C 
BRANCH  26  27
ATOM     27  C   UNL     1       6.296   4.969  -2.501  1.00  0.00    -0.015 C 
ATOM     28  C   UNL     1       5.837   5.024  -1.044  1.00  0.00     0.007 C 
ATOM     29  C   UNL     1       7.812   5.128  -2.592  1.00  0.00     0.007 C 
ENDBRANCH  26  27
ENDBRANCH  25  26
BRANCH  25  30
ATOM     30  C   UNL     1       7.169   1.556  -3.058  1.00  0.00     0.243 C 
ATOM     31  O   UNL     1       7.673   1.777  -4.158  1.00  0.00    -0.273 OA
ATOM     32  N   UNL     1       7.642   0.584  -2.214  1.00  0.00    -0.342 N 
ATOM     33  H   UNL     1       7.263   0.557  -1.264  1.00  0.00     0.164 HD
BRANCH  32  34
ATOM     34  C   UNL     1       8.770  -0.289  -2.549  1.00  0.00     0.175 C 
BRANCH  34  35
ATOM     35  C   UNL     1      10.070   0.200  -1.891  1.00  0.00     0.070 C 
BRANCH  35  36
ATOM     36  C   UNL     1      10.881   1.099  -2.796  1.00  0.00    -0.045 A 
ATOM     37  C   UNL     1      11.761   0.540  -3.735  1.00  0.00     0.007 A 
ATOM     38  C   UNL     1      10.786   2.493  -2.697  1.00  0.00     0.007 A 
ATOM     39  C   UNL     1      12.524   1.362  -4.565  1.00  0.00     0.046 A 
ATOM     40  C   UNL     1      11.550   3.317  -3.527  1.00  0.00     0.046 A 
ATOM     41  C   UNL     1      12.412   2.743  -4.455  1.00  0.00     0.115 A 
BRANCH  41  42
ATOM     42  O   UNL     1      13.177   3.510  -5.283  1.00  0.00    -0.508 OA
ATOM     43  H   UNL     1      12.585   4.012  -5.867  1.00  0.00     0.293 HD
ENDBRANCH  41  42
ENDBRANCH  35  36
ENDBRANCH  34  35
BRANCH  34  44
ATOM     44  C   UNL     1       8.408  -1.727  -2.113  1.00  0.00     0.243 C 
ATOM     45  O   UNL     1       7.535  -2.412  -2.639  1.00  0.00    -0.273 OA
ATOM     46  N   UNL     1       9.072  -2.140  -0.978  1.00  0.00    -0.341 N 
ATOM     47  H   UNL     1       9.701  -1.492  -0.510  1.00  0.00     0.164 HD
BRANCH  46  48
ATOM     48  C   UNL     1       8.844  -3.438  -0.338  1.00  0.00     0.196 C 
BRANCH  48  49
ATOM     49  C   UNL     1      10.170  -4.106   0.062  1.00  0.00     0.072 C 
BRANCH  49  50
ATOM     50  C   UNL     1      10.595  -5.183  -0.910  1.00  0.00    -0.045 A 
ATOM     51  C   UNL     1      11.261  -6.324  -0.441  1.00  0.00     0.007 A 
ATOM     52  C   UNL     1      10.352  -5.051  -2.283  1.00  0.00     0.007 A 
ATOM     53  C   UNL     1      11.670  -7.319  -1.330  1.00  0.00     0.046 A 
ATOM     54  C   UNL     1      10.763  -6.046  -3.174  1.00  0.00     0.046 A 
ATOM     55  C   UNL     1      11.418  -7.173  -2.689  1.00  0.00     0.115 A 
BRANCH  55  56
ATOM     56  O   UNL     1      11.835  -8.166  -3.524  1.00  0.00    -0.508 OA
ATOM     57  H   UNL     1      12.561  -8.644  -3.093  1.00  0.00     0.293 HD
ENDBRANCH  55  56
ENDBRANCH  49  50
ENDBRANCH  48  49
BRANCH  48  58
ATOM     58  C   UNL     1       7.973  -3.232   0.910  1.00  0.00     0.326 C 
ATOM     59  O   UNL     1       6.823  -2.828   0.950  1.00  0.00    -0.250 OA
BRANCH  58  60
ATOM     60  O   UNL     1       8.599  -3.566   2.067  1.00  0.00    -0.480 OA
ATOM     61  H   UNL     1       9.385  -2.978   2.076  1.00  0.00     0.296 HD
ENDBRANCH  58  60
ENDBRANCH  48  58
ENDBRANCH  46  48
ENDBRANCH  34  44
ENDBRANCH  32  34
ENDBRANCH  25  30
ENDBRANCH  23  25
ENDBRANCH   2  23
TORSDOF 28
ENDMDL
MODEL 23
REMARK VINA RESULT:    -5.691      2.436      6.961
REMARK INTER + INTRA:         -20.110
REMARK INTER:                 -14.414
REMARK INTRA:                  -5.695
REMARK UNBOUND:                -5.934
REMARK SMILES CCCCCCC[C@H](N)[C@H](O)C(=O)N[C@H](C)C(=O)N(C)[C@H](CC(C)C)C(=O)N[C@@H](Cc1ccc(O)cc1)C(=O)N[C@@H](Cc1ccc(O)cc1)C(=O)O
REMARK SMILES IDX 18 1 17 2 15 3 16 4 14 5 12 6 13 7 10 9 11 10 8 12 9 13 7 16
REMARK SMILES IDX 6 17 5 18 4 19 3 20 2 21 1 22 19 23 20 24 21 25 22 26 23 27
REMARK SMILES IDX 24 28 25 29 26 30 27 31 28 32 29 34 30 35 31 36 32 37 37 38
REMARK SMILES IDX 33 39 36 40 34 41 35 42 38 44 39 45 40 46 41 48 42 49 43 50
REMARK SMILES IDX 44 51 49 52 45 53 48 54 46 55 47 56 50 58 51 59 52 60
REMARK H PARENT 14 8 11 11 9 14 9 15 28 33 35 43 40 47 47 57 52 61
ROOT
ATOM      1  O   UNL     1      -1.252  -8.729   5.453  1.00  0.00    -0.272 OA
ATOM      2  C   UNL     1      -0.522  -8.016   4.748  1.00  0.00     0.245 C 
ENDROOT
BRANCH   2   3
ATOM      3  C   UNL     1       1.010  -8.238   4.806  1.00  0.00     0.168 C 
ATOM      4  C   UNL     1       1.510  -8.904   3.529  1.00  0.00     0.041 C 
BRANCH   3   5
ATOM      5  N   UNL     1       1.787  -7.054   5.140  1.00  0.00    -0.342 N 
ATOM      6  C   UNL     1       2.133  -6.753   6.440  1.00  0.00     0.251 C 
ATOM      7  O   UNL     1       1.784  -7.424   7.406  1.00  0.00    -0.272 OA
ATOM      8  H   UNL     1       2.104  -6.402   4.426  1.00  0.00     0.164 HD
BRANCH   6   9
ATOM      9  C   UNL     1       3.071  -5.540   6.540  1.00  0.00     0.219 C 
BRANCH   9  10
ATOM     10  O   UNL     1       4.214  -5.791   7.367  1.00  0.00    -0.382 OA
ATOM     11  H   UNL     1       4.929  -5.274   6.935  1.00  0.00     0.211 HD
ENDBRANCH   9  10
BRANCH   9  12
ATOM     12  C   UNL     1       3.502  -4.988   5.156  1.00  0.00     0.089 C 
BRANCH  12  13
ATOM     13  N   UNL     1       2.459  -4.052   4.680  1.00  0.00    -0.325 NA
ATOM     14  H   UNL     1       1.552  -4.342   5.052  1.00  0.00     0.119 HD
ATOM     15  H   UNL     1       2.371  -4.142   3.665  1.00  0.00     0.119 HD
ENDBRANCH  12  13
BRANCH  12  16
ATOM     16  C   UNL     1       4.892  -4.309   5.100  1.00  0.00     0.022 C 
BRANCH  16  17
ATOM     17  C   UNL     1       5.294  -3.534   3.838  1.00  0.00     0.002 C 
BRANCH  17  18
ATOM     18  C   UNL     1       5.522  -2.038   4.045  1.00  0.00     0.000 C 
BRANCH  18  19
ATOM     19  C   UNL     1       4.375  -1.155   3.537  1.00  0.00    -0.000 C 
BRANCH  19  20
ATOM     20  C   UNL     1       3.632  -0.367   4.619  1.00  0.00    -0.000 C 
BRANCH  20  21
ATOM     21  C   UNL     1       4.207  -0.587   6.021  1.00  0.00    -0.003 C 
ATOM     22  C   UNL     1       3.210  -1.294   6.925  1.00  0.00     0.004 C 
ENDBRANCH  20  21
ENDBRANCH  19  20
ENDBRANCH  18  19
ENDBRANCH  17  18
ENDBRANCH  16  17
ENDBRANCH  12  16
ENDBRANCH   9  12
ENDBRANCH   6   9
ENDBRANCH   3   5
ENDBRANCH   2   3
BRANCH   2  23
ATOM     23  N   UNL     1      -1.086  -7.127   3.840  1.00  0.00    -0.332 N 
ATOM     24  C   UNL     1      -2.025  -7.501   2.793  1.00  0.00     0.147 C 
BRANCH  23  25
ATOM     25  C   UNL     1      -0.847  -5.664   3.974  1.00  0.00     0.174 C 
BRANCH  25  26
ATOM     26  C   UNL     1      -2.099  -4.891   4.452  1.00  0.00     0.038 C 
BRANCH  26  27
ATOM     27  C   UNL     1      -1.996  -4.164   5.812  1.00  0.00    -0.015 C 
ATOM     28  C   UNL     1      -0.611  -4.301   6.444  1.00  0.00     0.007 C 
ATOM     29  C   UNL     1      -2.416  -2.698   5.750  1.00  0.00     0.007 C 
ENDBRANCH  26  27
ENDBRANCH  25  26
BRANCH  25  30
ATOM     30  C   UNL     1      -0.230  -5.103   2.672  1.00  0.00     0.243 C 
ATOM     31  O   UNL     1      -0.706  -4.126   2.096  1.00  0.00    -0.273 OA
ATOM     32  N   UNL     1       0.872  -5.770   2.203  1.00  0.00    -0.342 N 
ATOM     33  H   UNL     1       1.290  -6.481   2.809  1.00  0.00     0.164 HD
BRANCH  32  34
ATOM     34  C   UNL     1       1.570  -5.397   0.970  1.00  0.00     0.175 C 
BRANCH  34  35
ATOM     35  C   UNL     1       3.014  -4.957   1.256  1.00  0.00     0.070 C 
BRANCH  35  36
ATOM     36  C   UNL     1       3.332  -3.590   0.692  1.00  0.00    -0.045 A 
ATOM     37  C   UNL     1       4.624  -3.307   0.224  1.00  0.00     0.007 A 
ATOM     38  C   UNL     1       2.356  -2.586   0.648  1.00  0.00     0.007 A 
ATOM     39  C   UNL     1       4.930  -2.045  -0.285  1.00  0.00     0.046 A 
ATOM     40  C   UNL     1       2.662  -1.322   0.140  1.00  0.00     0.046 A 
ATOM     41  C   UNL     1       3.948  -1.063  -0.324  1.00  0.00     0.115 A 
BRANCH  41  42
ATOM     42  O   UNL     1       4.289   0.157  -0.827  1.00  0.00    -0.508 OA
ATOM     43  H   UNL     1       4.045   0.835  -0.174  1.00  0.00     0.293 HD
ENDBRANCH  41  42
ENDBRANCH  35  36
ENDBRANCH  34  35
BRANCH  34  44
ATOM     44  C   UNL     1       1.515  -6.603   0.005  1.00  0.00     0.243 C 
ATOM     45  O   UNL     1       2.316  -6.801  -0.904  1.00  0.00    -0.273 OA
ATOM     46  N   UNL     1       0.393  -7.387   0.170  1.00  0.00    -0.341 N 
ATOM     47  H   UNL     1      -0.303  -7.115   0.861  1.00  0.00     0.164 HD
BRANCH  46  48
ATOM     48  C   UNL     1       0.088  -8.546  -0.673  1.00  0.00     0.196 C 
BRANCH  48  49
ATOM     49  C   UNL     1       0.714  -9.831  -0.106  1.00  0.00     0.072 C 
BRANCH  49  50
ATOM     50  C   UNL     1       0.857 -10.917  -1.148  1.00  0.00    -0.045 A 
ATOM     51  C   UNL     1       1.394 -10.611  -2.407  1.00  0.00     0.007 A 
ATOM     52  C   UNL     1       0.441 -12.228  -0.884  1.00  0.00     0.007 A 
ATOM     53  C   UNL     1       1.518 -11.602  -3.381  1.00  0.00     0.046 A 
ATOM     54  C   UNL     1       0.565 -13.220  -1.860  1.00  0.00     0.046 A 
ATOM     55  C   UNL     1       1.104 -12.898  -3.100  1.00  0.00     0.115 A 
BRANCH  55  56
ATOM     56  O   UNL     1       1.241 -13.837  -4.080  1.00  0.00    -0.508 OA
ATOM     57  H   UNL     1       2.188 -13.973  -4.243  1.00  0.00     0.293 HD
ENDBRANCH  55  56
ENDBRANCH  49  50
ENDBRANCH  48  49
BRANCH  48  58
ATOM     58  C   UNL     1      -1.435  -8.711  -0.762  1.00  0.00     0.326 C 
ATOM     59  O   UNL     1      -2.191  -8.182  -1.561  1.00  0.00    -0.250 OA
BRANCH  58  60
ATOM     60  O   UNL     1      -1.943  -9.561   0.166  1.00  0.00    -0.480 OA
ATOM     61  H   UNL     1      -1.171  -9.754   0.742  1.00  0.00     0.296 HD
ENDBRANCH  58  60
ENDBRANCH  48  58
ENDBRANCH  46  48
ENDBRANCH  34  44
ENDBRANCH  32  34
ENDBRANCH  25  30
ENDBRANCH  23  25
ENDBRANCH   2  23
TORSDOF 28
ENDMDL
MODEL 24
REMARK VINA RESULT:    -5.688      2.637      3.660
REMARK INTER + INTRA:         -20.100
REMARK INTER:                 -14.523
REMARK INTRA:                  -5.578
REMARK UNBOUND:                -5.934
REMARK SMILES CCCCCCC[C@H](N)[C@H](O)C(=O)N[C@H](C)C(=O)N(C)[C@H](CC(C)C)C(=O)N[C@@H](Cc1ccc(O)cc1)C(=O)N[C@@H](Cc1ccc(O)cc1)C(=O)O
REMARK SMILES IDX 18 1 17 2 15 3 16 4 14 5 12 6 13 7 10 9 11 10 8 12 9 13 7 16
REMARK SMILES IDX 6 17 5 18 4 19 3 20 2 21 1 22 19 23 20 24 21 25 22 26 23 27
REMARK SMILES IDX 24 28 25 29 26 30 27 31 28 32 29 34 30 35 31 36 32 37 37 38
REMARK SMILES IDX 33 39 36 40 34 41 35 42 38 44 39 45 40 46 41 48 42 49 43 50
REMARK SMILES IDX 44 51 49 52 45 53 48 54 46 55 47 56 50 58 51 59 52 60
REMARK H PARENT 14 8 11 11 9 14 9 15 28 33 35 43 40 47 47 57 52 61
ROOT
ATOM      1  O   UNL     1      -1.164  -9.827   2.924  1.00  0.00    -0.272 OA
ATOM      2  C   UNL     1      -2.190  -9.473   2.325  1.00  0.00     0.245 C 
ENDROOT
BRANCH   2   3
ATOM      3  C   UNL     1      -2.040  -8.720   0.980  1.00  0.00     0.168 C 
ATOM      4  C   UNL     1      -2.968  -7.511   0.929  1.00  0.00     0.041 C 
BRANCH   3   5
ATOM      5  N   UNL     1      -0.673  -8.368   0.625  1.00  0.00    -0.342 N 
ATOM      6  C   UNL     1      -0.063  -8.868  -0.506  1.00  0.00     0.251 C 
ATOM      7  O   UNL     1      -0.600  -9.667  -1.267  1.00  0.00    -0.272 OA
ATOM      8  H   UNL     1      -0.115  -7.741   1.199  1.00  0.00     0.164 HD
BRANCH   6   9
ATOM      9  C   UNL     1       1.323  -8.252  -0.756  1.00  0.00     0.219 C 
BRANCH   9  10
ATOM     10  O   UNL     1       1.291  -7.192  -1.719  1.00  0.00    -0.382 OA
ATOM     11  H   UNL     1       0.349  -7.160  -1.996  1.00  0.00     0.211 HD
ENDBRANCH   9  10
BRANCH   9  12
ATOM     12  C   UNL     1       2.028  -7.791   0.547  1.00  0.00     0.089 C 
BRANCH  12  13
ATOM     13  N   UNL     1       2.382  -8.993   1.337  1.00  0.00    -0.325 NA
ATOM     14  H   UNL     1       3.355  -9.243   1.150  1.00  0.00     0.119 HD
ATOM     15  H   UNL     1       1.833  -9.786   0.997  1.00  0.00     0.119 HD
ENDBRANCH  12  13
BRANCH  12  16
ATOM     16  C   UNL     1       3.272  -6.891   0.362  1.00  0.00     0.022 C 
BRANCH  16  17
ATOM     17  C   UNL     1       3.286  -5.495   1.000  1.00  0.00     0.002 C 
BRANCH  17  18
ATOM     18  C   UNL     1       2.065  -5.166   1.856  1.00  0.00     0.000 C 
BRANCH  18  19
ATOM     19  C   UNL     1       2.238  -5.495   3.345  1.00  0.00    -0.000 C 
BRANCH  19  20
ATOM     20  C   UNL     1       2.480  -4.287   4.254  1.00  0.00    -0.000 C 
BRANCH  20  21
ATOM     21  C   UNL     1       3.685  -4.466   5.182  1.00  0.00    -0.003 C 
ATOM     22  C   UNL     1       4.970  -3.995   4.519  1.00  0.00     0.004 C 
ENDBRANCH  20  21
ENDBRANCH  19  20
ENDBRANCH  18  19
ENDBRANCH  17  18
ENDBRANCH  16  17
ENDBRANCH  12  16
ENDBRANCH   9  12
ENDBRANCH   6   9
ENDBRANCH   3   5
ENDBRANCH   2   3
BRANCH   2  23
ATOM     23  N   UNL     1      -3.440  -9.857   2.799  1.00  0.00    -0.332 N 
ATOM     24  C   UNL     1      -4.405 -10.639   2.041  1.00  0.00     0.147 C 
BRANCH  23  25
ATOM     25  C   UNL     1      -3.824  -9.586   4.211  1.00  0.00     0.174 C 
BRANCH  25  26
ATOM     26  C   UNL     1      -5.031 -10.431   4.680  1.00  0.00     0.038 C 
BRANCH  26  27
ATOM     27  C   UNL     1      -5.064 -10.841   6.169  1.00  0.00    -0.015 C 
ATOM     28  C   UNL     1      -3.664 -11.023   6.756  1.00  0.00     0.007 C 
ATOM     29  C   UNL     1      -5.892  -9.899   7.040  1.00  0.00     0.007 C 
ENDBRANCH  26  27
ENDBRANCH  25  26
BRANCH  25  30
ATOM     30  C   UNL     1      -4.006  -8.067   4.431  1.00  0.00     0.243 C 
ATOM     31  O   UNL     1      -4.856  -7.419   3.821  1.00  0.00    -0.273 OA
ATOM     32  N   UNL     1      -3.157  -7.493   5.342  1.00  0.00    -0.342 N 
ATOM     33  H   UNL     1      -2.578  -8.118   5.908  1.00  0.00     0.164 HD
BRANCH  32  34
ATOM     34  C   UNL     1      -3.168  -6.062   5.657  1.00  0.00     0.175 C 
BRANCH  34  35
ATOM     35  C   UNL     1      -3.882  -5.788   6.989  1.00  0.00     0.070 C 
BRANCH  35  36
ATOM     36  C   UNL     1      -3.586  -4.411   7.539  1.00  0.00    -0.045 A 
ATOM     37  C   UNL     1      -3.722  -3.282   6.716  1.00  0.00     0.007 A 
ATOM     38  C   UNL     1      -3.153  -4.242   8.861  1.00  0.00     0.007 A 
ATOM     39  C   UNL     1      -3.439  -2.009   7.211  1.00  0.00     0.046 A 
ATOM     40  C   UNL     1      -2.867  -2.968   9.356  1.00  0.00     0.046 A 
ATOM     41  C   UNL     1      -3.014  -1.862   8.526  1.00  0.00     0.115 A 
BRANCH  41  42
ATOM     42  O   UNL     1      -2.744  -0.601   8.969  1.00  0.00    -0.508 OA
ATOM     43  H   UNL     1      -3.468  -0.017   8.686  1.00  0.00     0.293 HD
ENDBRANCH  41  42
ENDBRANCH  35  36
ENDBRANCH  34  35
BRANCH  34  44
ATOM     44  C   UNL     1      -1.705  -5.564   5.673  1.00  0.00     0.243 C 
ATOM     45  O   UNL     1      -1.184  -4.910   4.774  1.00  0.00    -0.273 OA
ATOM     46  N   UNL     1      -0.977  -6.035   6.745  1.00  0.00    -0.341 N 
ATOM     47  H   UNL     1      -1.421  -6.671   7.403  1.00  0.00     0.164 HD
BRANCH  46  48
ATOM     48  C   UNL     1       0.448  -5.754   6.938  1.00  0.00     0.196 C 
BRANCH  48  49
ATOM     49  C   UNL     1       0.701  -5.032   8.271  1.00  0.00     0.072 C 
BRANCH  49  50
ATOM     50  C   UNL     1       0.659  -3.527   8.135  1.00  0.00    -0.045 A 
ATOM     51  C   UNL     1       0.766  -2.718   9.276  1.00  0.00     0.007 A 
ATOM     52  C   UNL     1       0.492  -2.921   6.883  1.00  0.00     0.007 A 
ATOM     53  C   UNL     1       0.716  -1.328   9.163  1.00  0.00     0.046 A 
ATOM     54  C   UNL     1       0.440  -1.529   6.771  1.00  0.00     0.046 A 
ATOM     55  C   UNL     1       0.554  -0.745   7.913  1.00  0.00     0.115 A 
BRANCH  55  56
ATOM     56  O   UNL     1       0.507   0.616   7.847  1.00  0.00    -0.508 OA
ATOM     57  H   UNL     1       1.407   0.946   7.696  1.00  0.00     0.293 HD
ENDBRANCH  55  56
ENDBRANCH  49  50
ENDBRANCH  48  49
BRANCH  48  58
ATOM     58  C   UNL     1       1.226  -7.077   6.913  1.00  0.00     0.326 C 
ATOM     59  O   UNL     1       1.485  -7.765   5.939  1.00  0.00    -0.250 OA
BRANCH  58  60
ATOM     60  O   UNL     1       1.660  -7.472   8.137  1.00  0.00    -0.480 OA
ATOM     61  H   UNL     1       2.481  -6.948   8.265  1.00  0.00     0.296 HD
ENDBRANCH  58  60
ENDBRANCH  48  58
ENDBRANCH  46  48
ENDBRANCH  34  44
ENDBRANCH  32  34
ENDBRANCH  25  30
ENDBRANCH  23  25
ENDBRANCH   2  23
TORSDOF 28
ENDMDL
MODEL 25
REMARK VINA RESULT:    -5.687      3.905      8.579
REMARK INTER + INTRA:         -20.100
REMARK INTER:                 -14.949
REMARK INTRA:                  -5.150
REMARK UNBOUND:                -5.934
REMARK SMILES CCCCCCC[C@H](N)[C@H](O)C(=O)N[C@H](C)C(=O)N(C)[C@H](CC(C)C)C(=O)N[C@@H](Cc1ccc(O)cc1)C(=O)N[C@@H](Cc1ccc(O)cc1)C(=O)O
REMARK SMILES IDX 18 1 17 2 15 3 16 4 14 5 12 6 13 7 10 9 11 10 8 12 9 13 7 16
REMARK SMILES IDX 6 17 5 18 4 19 3 20 2 21 1 22 19 23 20 24 21 25 22 26 23 27
REMARK SMILES IDX 24 28 25 29 26 30 27 31 28 32 29 34 30 35 31 36 32 37 37 38
REMARK SMILES IDX 33 39 36 40 34 41 35 42 38 44 39 45 40 46 41 48 42 49 43 50
REMARK SMILES IDX 44 51 49 52 45 53 48 54 46 55 47 56 50 58 51 59 52 60
REMARK H PARENT 14 8 11 11 9 14 9 15 28 33 35 43 40 47 47 57 52 61
ROOT
ATOM      1  O   UNL     1      -6.006  -1.958   6.915  1.00  0.00    -0.272 OA
ATOM      2  C   UNL     1      -5.329  -1.935   7.954  1.00  0.00     0.245 C 
ENDROOT
BRANCH   2   3
ATOM      3  C   UNL     1      -5.854  -2.693   9.198  1.00  0.00     0.168 C 
ATOM      4  C   UNL     1      -7.170  -2.094   9.683  1.00  0.00     0.041 C 
BRANCH   3   5
ATOM      5  N   UNL     1      -5.941  -4.137   9.042  1.00  0.00    -0.342 N 
ATOM      6  C   UNL     1      -5.058  -4.991   9.667  1.00  0.00     0.251 C 
ATOM      7  O   UNL     1      -4.120  -4.608  10.357  1.00  0.00    -0.272 OA
ATOM      8  H   UNL     1      -6.658  -4.571   8.465  1.00  0.00     0.164 HD
BRANCH   6   9
ATOM      9  C   UNL     1      -5.426  -6.471   9.475  1.00  0.00     0.219 C 
BRANCH   9  10
ATOM     10  O   UNL     1      -6.431  -6.914  10.395  1.00  0.00    -0.382 OA
ATOM     11  H   UNL     1      -6.834  -7.688   9.943  1.00  0.00     0.211 HD
ENDBRANCH   9  10
BRANCH   9  12
ATOM     12  C   UNL     1      -5.825  -6.816   8.016  1.00  0.00     0.089 C 
BRANCH  12  13
ATOM     13  N   UNL     1      -4.723  -6.398   7.120  1.00  0.00    -0.325 NA
ATOM     14  H   UNL     1      -4.983  -6.599   6.152  1.00  0.00     0.119 HD
ATOM     15  H   UNL     1      -3.906  -6.985   7.304  1.00  0.00     0.119 HD
ENDBRANCH  12  13
BRANCH  12  16
ATOM     16  C   UNL     1      -6.199  -8.293   7.747  1.00  0.00     0.022 C 
BRANCH  16  17
ATOM     17  C   UNL     1      -5.303  -9.135   6.827  1.00  0.00     0.002 C 
BRANCH  17  18
ATOM     18  C   UNL     1      -5.508 -10.644   6.934  1.00  0.00     0.000 C 
BRANCH  18  19
ATOM     19  C   UNL     1      -5.241 -11.404   5.628  1.00  0.00    -0.000 C 
BRANCH  19  20
ATOM     20  C   UNL     1      -3.935 -12.204   5.596  1.00  0.00    -0.000 C 
BRANCH  20  21
ATOM     21  C   UNL     1      -4.159 -13.718   5.577  1.00  0.00    -0.003 C 
ATOM     22  C   UNL     1      -4.444 -14.254   6.972  1.00  0.00     0.004 C 
ENDBRANCH  20  21
ENDBRANCH  19  20
ENDBRANCH  18  19
ENDBRANCH  17  18
ENDBRANCH  16  17
ENDBRANCH  12  16
ENDBRANCH   9  12
ENDBRANCH   6   9
ENDBRANCH   3   5
ENDBRANCH   2   3
BRANCH   2  23
ATOM     23  N   UNL     1      -4.071  -1.341   7.951  1.00  0.00    -0.332 N 
ATOM     24  C   UNL     1      -3.834   0.093   7.874  1.00  0.00     0.147 C 
BRANCH  23  25
ATOM     25  C   UNL     1      -2.850  -2.167   8.162  1.00  0.00     0.174 C 
BRANCH  25  26
ATOM     26  C   UNL     1      -1.614  -1.325   8.556  1.00  0.00     0.038 C 
BRANCH  26  27
ATOM     27  C   UNL     1      -0.837  -1.769   9.815  1.00  0.00    -0.015 C 
ATOM     28  C   UNL     1      -0.669  -3.286   9.895  1.00  0.00     0.007 C 
ATOM     29  C   UNL     1       0.511  -1.070   9.975  1.00  0.00     0.007 C 
ENDBRANCH  26  27
ENDBRANCH  25  26
BRANCH  25  30
ATOM     30  C   UNL     1      -2.613  -3.088   6.943  1.00  0.00     0.243 C 
ATOM     31  O   UNL     1      -2.866  -4.291   6.978  1.00  0.00    -0.273 OA
ATOM     32  N   UNL     1      -2.099  -2.476   5.829  1.00  0.00    -0.342 N 
ATOM     33  H   UNL     1      -2.050  -1.453   5.830  1.00  0.00     0.164 HD
BRANCH  32  34
ATOM     34  C   UNL     1      -1.786  -3.195   4.591  1.00  0.00     0.175 C 
BRANCH  34  35
ATOM     35  C   UNL     1      -1.824  -2.258   3.375  1.00  0.00     0.070 C 
BRANCH  35  36
ATOM     36  C   UNL     1      -0.747  -1.197   3.420  1.00  0.00    -0.045 A 
ATOM     37  C   UNL     1       0.227  -1.142   2.411  1.00  0.00     0.007 A 
ATOM     38  C   UNL     1      -0.691  -0.274   4.472  1.00  0.00     0.007 A 
ATOM     39  C   UNL     1       1.232  -0.176   2.452  1.00  0.00     0.046 A 
ATOM     40  C   UNL     1       0.316   0.694   4.514  1.00  0.00     0.046 A 
ATOM     41  C   UNL     1       1.268   0.734   3.501  1.00  0.00     0.115 A 
BRANCH  41  42
ATOM     42  O   UNL     1       2.269   1.661   3.505  1.00  0.00    -0.508 OA
ATOM     43  H   UNL     1       1.963   2.437   4.003  1.00  0.00     0.293 HD
ENDBRANCH  41  42
ENDBRANCH  35  36
ENDBRANCH  34  35
BRANCH  34  44
ATOM     44  C   UNL     1      -0.402  -3.862   4.763  1.00  0.00     0.243 C 
ATOM     45  O   UNL     1       0.193  -4.463   3.874  1.00  0.00    -0.273 OA
ATOM     46  N   UNL     1       0.061  -3.838   6.062  1.00  0.00    -0.341 N 
ATOM     47  H   UNL     1      -0.523  -3.430   6.787  1.00  0.00     0.164 HD
BRANCH  46  48
ATOM     48  C   UNL     1       1.316  -4.466   6.481  1.00  0.00     0.196 C 
BRANCH  48  49
ATOM     49  C   UNL     1       2.115  -3.547   7.421  1.00  0.00     0.072 C 
BRANCH  49  50
ATOM     50  C   UNL     1       2.817  -2.429   6.683  1.00  0.00    -0.045 A 
ATOM     51  C   UNL     1       3.299  -2.644   5.384  1.00  0.00     0.007 A 
ATOM     52  C   UNL     1       3.013  -1.180   7.285  1.00  0.00     0.007 A 
ATOM     53  C   UNL     1       3.959  -1.624   4.698  1.00  0.00     0.046 A 
ATOM     54  C   UNL     1       3.676  -0.159   6.600  1.00  0.00     0.046 A 
ATOM     55  C   UNL     1       4.142  -0.390   5.310  1.00  0.00     0.115 A 
BRANCH  55  56
ATOM     56  O   UNL     1       4.794   0.579   4.607  1.00  0.00    -0.508 OA
ATOM     57  H   UNL     1       4.414   0.619   3.715  1.00  0.00     0.293 HD
ENDBRANCH  55  56
ENDBRANCH  49  50
ENDBRANCH  48  49
BRANCH  48  58
ATOM     58  C   UNL     1       0.998  -5.785   7.199  1.00  0.00     0.326 C 
ATOM     59  O   UNL     1       1.794  -6.621   7.595  1.00  0.00    -0.250 OA
BRANCH  58  60
ATOM     60  O   UNL     1      -0.328  -5.986   7.400  1.00  0.00    -0.480 OA
ATOM     61  H   UNL     1      -0.665  -5.086   7.601  1.00  0.00     0.296 HD
ENDBRANCH  58  60
ENDBRANCH  48  58
ENDBRANCH  46  48
ENDBRANCH  34  44
ENDBRANCH  32  34
ENDBRANCH  25  30
ENDBRANCH  23  25
ENDBRANCH   2  23
TORSDOF 28
ENDMDL
MODEL 26
REMARK VINA RESULT:    -5.683      4.483      7.509
REMARK INTER + INTRA:         -20.088
REMARK INTER:                 -15.740
REMARK INTRA:                  -4.348
REMARK UNBOUND:                -5.934
REMARK SMILES CCCCCCC[C@H](N)[C@H](O)C(=O)N[C@H](C)C(=O)N(C)[C@H](CC(C)C)C(=O)N[C@@H](Cc1ccc(O)cc1)C(=O)N[C@@H](Cc1ccc(O)cc1)C(=O)O
REMARK SMILES IDX 18 1 17 2 15 3 16 4 14 5 12 6 13 7 10 9 11 10 8 12 9 13 7 16
REMARK SMILES IDX 6 17 5 18 4 19 3 20 2 21 1 22 19 23 20 24 21 25 22 26 23 27
REMARK SMILES IDX 24 28 25 29 26 30 27 31 28 32 29 34 30 35 31 36 32 37 37 38
REMARK SMILES IDX 33 39 36 40 34 41 35 42 38 44 39 45 40 46 41 48 42 49 43 50
REMARK SMILES IDX 44 51 49 52 45 53 48 54 46 55 47 56 50 58 51 59 52 60
REMARK H PARENT 14 8 11 11 9 14 9 15 28 33 35 43 40 47 47 57 52 61
ROOT
ATOM      1  O   UNL     1      -3.389  -7.797   4.323  1.00  0.00    -0.272 OA
ATOM      2  C   UNL     1      -3.351  -9.023   4.141  1.00  0.00     0.245 C 
ENDROOT
BRANCH   2   3
ATOM      3  C   UNL     1      -3.742  -9.578   2.748  1.00  0.00     0.168 C 
ATOM      4  C   UNL     1      -5.254  -9.537   2.554  1.00  0.00     0.041 C 
BRANCH   3   5
ATOM      5  N   UNL     1      -3.035  -8.974   1.630  1.00  0.00    -0.342 N 
ATOM      6  C   UNL     1      -1.750  -9.345   1.295  1.00  0.00     0.251 C 
ATOM      7  O   UNL     1      -1.097 -10.169   1.927  1.00  0.00    -0.272 OA
ATOM      8  H   UNL     1      -3.461  -8.253   1.052  1.00  0.00     0.164 HD
BRANCH   6   9
ATOM      9  C   UNL     1      -1.258  -8.682  -0.002  1.00  0.00     0.219 C 
BRANCH   9  10
ATOM     10  O   UNL     1      -0.472  -7.509   0.241  1.00  0.00    -0.382 OA
ATOM     11  H   UNL     1      -0.215  -7.212  -0.659  1.00  0.00     0.211 HD
ENDBRANCH   9  10
BRANCH   9  12
ATOM     12  C   UNL     1      -0.509  -9.662  -0.941  1.00  0.00     0.089 C 
BRANCH  12  13
ATOM     13  N   UNL     1      -1.155 -10.991  -0.841  1.00  0.00    -0.325 NA
ATOM     14  H   UNL     1      -1.872 -10.962  -0.113  1.00  0.00     0.119 HD
ATOM     15  H   UNL     1      -0.466 -11.670  -0.511  1.00  0.00     0.119 HD
ENDBRANCH  12  13
BRANCH  12  16
ATOM     16  C   UNL     1      -0.403  -9.233  -2.424  1.00  0.00     0.022 C 
BRANCH  16  17
ATOM     17  C   UNL     1       0.986  -9.041  -3.049  1.00  0.00     0.002 C 
BRANCH  17  18
ATOM     18  C   UNL     1       1.975 -10.173  -2.782  1.00  0.00     0.000 C 
BRANCH  18  19
ATOM     19  C   UNL     1       3.127  -9.788  -1.845  1.00  0.00    -0.000 C 
BRANCH  19  20
ATOM     20  C   UNL     1       2.997  -8.411  -1.186  1.00  0.00    -0.000 C 
BRANCH  20  21
ATOM     21  C   UNL     1       3.425  -8.407   0.284  1.00  0.00    -0.003 C 
ATOM     22  C   UNL     1       2.431  -9.161   1.153  1.00  0.00     0.004 C 
ENDBRANCH  20  21
ENDBRANCH  19  20
ENDBRANCH  18  19
ENDBRANCH  17  18
ENDBRANCH  16  17
ENDBRANCH  12  16
ENDBRANCH   9  12
ENDBRANCH   6   9
ENDBRANCH   3   5
ENDBRANCH   2   3
BRANCH   2  23
ATOM     23  N   UNL     1      -2.850  -9.859   5.133  1.00  0.00    -0.332 N 
ATOM     24  C   UNL     1      -1.452  -9.917   5.535  1.00  0.00     0.147 C 
BRANCH  23  25
ATOM     25  C   UNL     1      -3.774 -10.682   5.960  1.00  0.00     0.174 C 
BRANCH  25  26
ATOM     26  C   UNL     1      -4.041 -12.080   5.354  1.00  0.00     0.038 C 
BRANCH  26  27
ATOM     27  C   UNL     1      -4.292 -13.237   6.346  1.00  0.00    -0.015 C 
ATOM     28  C   UNL     1      -3.203 -14.307   6.284  1.00  0.00     0.007 C 
ATOM     29  C   UNL     1      -4.504 -12.769   7.784  1.00  0.00     0.007 C 
ENDBRANCH  26  27
ENDBRANCH  25  26
BRANCH  25  30
ATOM     30  C   UNL     1      -5.061  -9.884   6.273  1.00  0.00     0.243 C 
ATOM     31  O   UNL     1      -6.175 -10.297   5.956  1.00  0.00    -0.273 OA
ATOM     32  N   UNL     1      -4.876  -8.689   6.920  1.00  0.00    -0.342 N 
ATOM     33  H   UNL     1      -3.939  -8.483   7.275  1.00  0.00     0.164 HD
BRANCH  32  34
ATOM     34  C   UNL     1      -5.977  -7.789   7.272  1.00  0.00     0.175 C 
BRANCH  34  35
ATOM     35  C   UNL     1      -6.474  -8.047   8.703  1.00  0.00     0.070 C 
BRANCH  35  36
ATOM     36  C   UNL     1      -7.639  -7.163   9.086  1.00  0.00    -0.045 A 
ATOM     37  C   UNL     1      -8.833  -7.217   8.351  1.00  0.00     0.007 A 
ATOM     38  C   UNL     1      -7.539  -6.266  10.158  1.00  0.00     0.007 A 
ATOM     39  C   UNL     1      -9.908  -6.395   8.688  1.00  0.00     0.046 A 
ATOM     40  C   UNL     1      -8.615  -5.441  10.495  1.00  0.00     0.046 A 
ATOM     41  C   UNL     1      -9.791  -5.515   9.757  1.00  0.00     0.115 A 
BRANCH  41  42
ATOM     42  O   UNL     1     -10.864  -4.727  10.052  1.00  0.00    -0.508 OA
ATOM     43  H   UNL     1     -11.659  -5.286  10.061  1.00  0.00     0.293 HD
ENDBRANCH  41  42
ENDBRANCH  35  36
ENDBRANCH  34  35
BRANCH  34  44
ATOM     44  C   UNL     1      -5.487  -6.336   7.084  1.00  0.00     0.243 C 
ATOM     45  O   UNL     1      -6.206  -5.399   6.751  1.00  0.00    -0.273 OA
ATOM     46  N   UNL     1      -4.119  -6.199   7.200  1.00  0.00    -0.341 N 
ATOM     47  H   UNL     1      -3.552  -7.028   7.362  1.00  0.00     0.164 HD
BRANCH  46  48
ATOM     48  C   UNL     1      -3.416  -4.931   6.996  1.00  0.00     0.196 C 
BRANCH  48  49
ATOM     49  C   UNL     1      -3.222  -4.178   8.323  1.00  0.00     0.072 C 
BRANCH  49  50
ATOM     50  C   UNL     1      -4.184  -3.022   8.482  1.00  0.00    -0.045 A 
ATOM     51  C   UNL     1      -3.915  -1.798   7.854  1.00  0.00     0.007 A 
ATOM     52  C   UNL     1      -5.336  -3.146   9.270  1.00  0.00     0.007 A 
ATOM     53  C   UNL     1      -4.788  -0.720   8.004  1.00  0.00     0.046 A 
ATOM     54  C   UNL     1      -6.209  -2.067   9.422  1.00  0.00     0.046 A 
ATOM     55  C   UNL     1      -5.928  -0.863   8.786  1.00  0.00     0.115 A 
BRANCH  55  56
ATOM     56  O   UNL     1      -6.754   0.215   8.909  1.00  0.00    -0.508 OA
ATOM     57  H   UNL     1      -7.079   0.454   8.027  1.00  0.00     0.293 HD
ENDBRANCH  55  56
ENDBRANCH  49  50
ENDBRANCH  48  49
BRANCH  48  58
ATOM     58  C   UNL     1      -2.048  -5.215   6.360  1.00  0.00     0.326 C 
ATOM     59  O   UNL     1      -1.212  -4.398   6.010  1.00  0.00    -0.250 OA
BRANCH  58  60
ATOM     60  O   UNL     1      -1.787  -6.537   6.207  1.00  0.00    -0.480 OA
ATOM     61  H   UNL     1      -2.640  -6.965   6.438  1.00  0.00     0.296 HD
ENDBRANCH  58  60
ENDBRANCH  48  58
ENDBRANCH  46  48
ENDBRANCH  34  44
ENDBRANCH  32  34
ENDBRANCH  25  30
ENDBRANCH  23  25
ENDBRANCH   2  23
TORSDOF 28
ENDMDL
MODEL 27
REMARK VINA RESULT:    -5.681      4.441      8.258
REMARK INTER + INTRA:         -20.085
REMARK INTER:                 -14.544
REMARK INTRA:                  -5.541
REMARK UNBOUND:                -5.934
REMARK SMILES CCCCCCC[C@H](N)[C@H](O)C(=O)N[C@H](C)C(=O)N(C)[C@H](CC(C)C)C(=O)N[C@@H](Cc1ccc(O)cc1)C(=O)N[C@@H](Cc1ccc(O)cc1)C(=O)O
REMARK SMILES IDX 18 1 17 2 15 3 16 4 14 5 12 6 13 7 10 9 11 10 8 12 9 13 7 16
REMARK SMILES IDX 6 17 5 18 4 19 3 20 2 21 1 22 19 23 20 24 21 25 22 26 23 27
REMARK SMILES IDX 24 28 25 29 26 30 27 31 28 32 29 34 30 35 31 36 32 37 37 38
REMARK SMILES IDX 33 39 36 40 34 41 35 42 38 44 39 45 40 46 41 48 42 49 43 50
REMARK SMILES IDX 44 51 49 52 45 53 48 54 46 55 47 56 50 58 51 59 52 60
REMARK H PARENT 14 8 11 11 9 14 9 15 28 33 35 43 40 47 47 57 52 61
ROOT
ATOM      1  O   UNL     1       5.055  -1.443   1.661  1.00  0.00    -0.272 OA
ATOM      2  C   UNL     1       5.083  -2.518   2.278  1.00  0.00     0.245 C 
ENDROOT
BRANCH   2   3
ATOM      3  C   UNL     1       5.736  -3.747   1.598  1.00  0.00     0.168 C 
ATOM      4  C   UNL     1       4.750  -4.436   0.661  1.00  0.00     0.041 C 
BRANCH   3   5
ATOM      5  N   UNL     1       7.008  -3.480   0.945  1.00  0.00    -0.342 N 
ATOM      6  C   UNL     1       8.075  -4.347   1.046  1.00  0.00     0.251 C 
ATOM      7  O   UNL     1       8.051  -5.373   1.717  1.00  0.00    -0.272 OA
ATOM      8  H   UNL     1       7.159  -2.641   0.388  1.00  0.00     0.164 HD
BRANCH   6   9
ATOM      9  C   UNL     1       9.262  -3.934   0.161  1.00  0.00     0.219 C 
BRANCH   9  10
ATOM     10  O   UNL     1      10.505  -4.490   0.609  1.00  0.00    -0.382 OA
ATOM     11  H   UNL     1      10.229  -5.252   1.166  1.00  0.00     0.211 HD
ENDBRANCH   9  10
BRANCH   9  12
ATOM     12  C   UNL     1       9.035  -4.235  -1.343  1.00  0.00     0.089 C 
BRANCH  12  13
ATOM     13  N   UNL     1       7.775  -5.002  -1.481  1.00  0.00    -0.325 NA
ATOM     14  H   UNL     1       7.034  -4.376  -1.803  1.00  0.00     0.119 HD
ATOM     15  H   UNL     1       7.476  -5.316  -0.555  1.00  0.00     0.119 HD
ENDBRANCH  12  13
BRANCH  12  16
ATOM     16  C   UNL     1       9.015  -3.007  -2.285  1.00  0.00     0.022 C 
BRANCH  16  17
ATOM     17  C   UNL     1       8.390  -1.696  -1.789  1.00  0.00     0.002 C 
BRANCH  17  18
ATOM     18  C   UNL     1       6.916  -1.509  -2.144  1.00  0.00     0.000 C 
BRANCH  18  19
ATOM     19  C   UNL     1       6.580  -0.123  -2.709  1.00  0.00    -0.000 C 
BRANCH  19  20
ATOM     20  C   UNL     1       5.121   0.071  -3.131  1.00  0.00    -0.000 C 
BRANCH  20  21
ATOM     21  C   UNL     1       4.702   1.543  -3.181  1.00  0.00    -0.003 C 
ATOM     22  C   UNL     1       5.874   2.464  -2.878  1.00  0.00     0.004 C 
ENDBRANCH  20  21
ENDBRANCH  19  20
ENDBRANCH  18  19
ENDBRANCH  17  18
ENDBRANCH  16  17
ENDBRANCH  12  16
ENDBRANCH   9  12
ENDBRANCH   6   9
ENDBRANCH   3   5
ENDBRANCH   2   3
BRANCH   2  23
ATOM     23  N   UNL     1       4.646  -2.574   3.597  1.00  0.00    -0.332 N 
ATOM     24  C   UNL     1       5.352  -1.988   4.727  1.00  0.00     0.147 C 
BRANCH  23  25
ATOM     25  C   UNL     1       3.313  -3.152   3.923  1.00  0.00     0.174 C 
BRANCH  25  26
ATOM     26  C   UNL     1       3.359  -4.681   4.149  1.00  0.00     0.038 C 
BRANCH  26  27
ATOM     27  C   UNL     1       2.533  -5.240   5.329  1.00  0.00    -0.015 C 
ATOM     28  C   UNL     1       1.824  -6.548   4.980  1.00  0.00     0.007 C 
ATOM     29  C   UNL     1       3.339  -5.393   6.616  1.00  0.00     0.007 C 
ENDBRANCH  26  27
ENDBRANCH  25  26
BRANCH  25  30
ATOM     30  C   UNL     1       2.270  -2.709   2.872  1.00  0.00     0.243 C 
ATOM     31  O   UNL     1       1.658  -3.523   2.181  1.00  0.00    -0.273 OA
ATOM     32  N   UNL     1       2.079  -1.356   2.757  1.00  0.00    -0.342 N 
ATOM     33  H   UNL     1       2.517  -0.755   3.460  1.00  0.00     0.164 HD
BRANCH  32  34
ATOM     34  C   UNL     1       1.151  -0.756   1.795  1.00  0.00     0.175 C 
BRANCH  34  35
ATOM     35  C   UNL     1       0.176   0.209   2.487  1.00  0.00     0.070 C 
BRANCH  35  36
ATOM     36  C   UNL     1      -0.699  -0.478   3.512  1.00  0.00    -0.045 A 
ATOM     37  C   UNL     1      -0.697  -0.038   4.844  1.00  0.00     0.007 A 
ATOM     38  C   UNL     1      -1.501  -1.569   3.155  1.00  0.00     0.007 A 
ATOM     39  C   UNL     1      -1.490  -0.674   5.799  1.00  0.00     0.046 A 
ATOM     40  C   UNL     1      -2.295  -2.208   4.111  1.00  0.00     0.046 A 
ATOM     41  C   UNL     1      -2.283  -1.753   5.426  1.00  0.00     0.115 A 
BRANCH  41  42
ATOM     42  O   UNL     1      -3.041  -2.348   6.390  1.00  0.00    -0.508 OA
ATOM     43  H   UNL     1      -2.481  -2.982   6.869  1.00  0.00     0.293 HD
ENDBRANCH  41  42
ENDBRANCH  35  36
ENDBRANCH  34  35
BRANCH  34  44
ATOM     44  C   UNL     1       1.985  -0.049   0.703  1.00  0.00     0.243 C 
ATOM     45  O   UNL     1       2.456  -0.611  -0.282  1.00  0.00    -0.273 OA
ATOM     46  N   UNL     1       2.273   1.267   0.997  1.00  0.00    -0.341 N 
ATOM     47  H   UNL     1       1.958   1.655   1.883  1.00  0.00     0.164 HD
BRANCH  46  48
ATOM     48  C   UNL     1       3.105   2.119   0.145  1.00  0.00     0.196 C 
BRANCH  48  49
ATOM     49  C   UNL     1       2.600   3.572   0.144  1.00  0.00     0.072 C 
BRANCH  49  50
ATOM     50  C   UNL     1       2.958   4.311  -1.125  1.00  0.00    -0.045 A 
ATOM     51  C   UNL     1       3.951   5.301  -1.102  1.00  0.00     0.007 A 
ATOM     52  C   UNL     1       2.295   4.039  -2.329  1.00  0.00     0.007 A 
ATOM     53  C   UNL     1       4.280   5.999  -2.264  1.00  0.00     0.046 A 
ATOM     54  C   UNL     1       2.624   4.738  -3.493  1.00  0.00     0.046 A 
ATOM     55  C   UNL     1       3.615   5.712  -3.450  1.00  0.00     0.115 A 
BRANCH  55  56
ATOM     56  O   UNL     1       3.965   6.418  -4.563  1.00  0.00    -0.508 OA
ATOM     57  H   UNL     1       4.649   5.920  -5.038  1.00  0.00     0.293 HD
ENDBRANCH  55  56
ENDBRANCH  49  50
ENDBRANCH  48  49
BRANCH  48  58
ATOM     58  C   UNL     1       4.551   2.077   0.657  1.00  0.00     0.326 C 
ATOM     59  O   UNL     1       5.126   2.926   1.320  1.00  0.00    -0.250 OA
BRANCH  58  60
ATOM     60  O   UNL     1       5.213   0.942   0.317  1.00  0.00    -0.480 OA
ATOM     61  H   UNL     1       5.686   0.701   1.143  1.00  0.00     0.296 HD
ENDBRANCH  58  60
ENDBRANCH  48  58
ENDBRANCH  46  48
ENDBRANCH  34  44
ENDBRANCH  32  34
ENDBRANCH  25  30
ENDBRANCH  23  25
ENDBRANCH   2  23
TORSDOF 28
ENDMDL
MODEL 28
REMARK VINA RESULT:    -5.657      4.136      8.702
REMARK INTER + INTRA:         -20.025
REMARK INTER:                 -14.467
REMARK INTRA:                  -5.558
REMARK UNBOUND:                -5.934
REMARK SMILES CCCCCCC[C@H](N)[C@H](O)C(=O)N[C@H](C)C(=O)N(C)[C@H](CC(C)C)C(=O)N[C@@H](Cc1ccc(O)cc1)C(=O)N[C@@H](Cc1ccc(O)cc1)C(=O)O
REMARK SMILES IDX 18 1 17 2 15 3 16 4 14 5 12 6 13 7 10 9 11 10 8 12 9 13 7 16
REMARK SMILES IDX 6 17 5 18 4 19 3 20 2 21 1 22 19 23 20 24 21 25 22 26 23 27
REMARK SMILES IDX 24 28 25 29 26 30 27 31 28 32 29 34 30 35 31 36 32 37 37 38
REMARK SMILES IDX 33 39 36 40 34 41 35 42 38 44 39 45 40 46 41 48 42 49 43 50
REMARK SMILES IDX 44 51 49 52 45 53 48 54 46 55 47 56 50 58 51 59 52 60
REMARK H PARENT 14 8 11 11 9 14 9 15 28 33 35 43 40 47 47 57 52 61
ROOT
ATOM      1  O   UNL     1      -2.409  -4.517   5.225  1.00  0.00    -0.272 OA
ATOM      2  C   UNL     1      -1.225  -4.616   4.872  1.00  0.00     0.245 C 
ENDROOT
BRANCH   2   3
ATOM      3  C   UNL     1      -0.914  -5.246   3.491  1.00  0.00     0.168 C 
ATOM      4  C   UNL     1       0.244  -4.522   2.814  1.00  0.00     0.041 C 
BRANCH   3   5
ATOM      5  N   UNL     1      -0.717  -6.687   3.507  1.00  0.00    -0.342 N 
ATOM      6  C   UNL     1      -1.764  -7.568   3.339  1.00  0.00     0.251 C 
ATOM      7  O   UNL     1      -2.931  -7.213   3.206  1.00  0.00    -0.272 OA
ATOM      8  H   UNL     1       0.203  -7.101   3.644  1.00  0.00     0.164 HD
BRANCH   6   9
ATOM      9  C   UNL     1      -1.303  -9.031   3.249  1.00  0.00     0.219 C 
BRANCH   9  10
ATOM     10  O   UNL     1       0.101  -9.153   2.992  1.00  0.00    -0.382 OA
ATOM     11  H   UNL     1       0.237  -8.610   2.185  1.00  0.00     0.211 HD
ENDBRANCH   9  10
BRANCH   9  12
ATOM     12  C   UNL     1      -1.713  -9.876   4.483  1.00  0.00     0.089 C 
BRANCH  12  13
ATOM     13  N   UNL     1      -2.228  -8.960   5.526  1.00  0.00    -0.325 NA
ATOM     14  H   UNL     1      -2.263  -9.454   6.420  1.00  0.00     0.119 HD
ATOM     15  H   UNL     1      -3.201  -8.728   5.311  1.00  0.00     0.119 HD
ENDBRANCH  12  13
BRANCH  12  16
ATOM     16  C   UNL     1      -2.733 -11.010   4.220  1.00  0.00     0.022 C 
BRANCH  16  17
ATOM     17  C   UNL     1      -4.229 -10.672   4.174  1.00  0.00     0.002 C 
BRANCH  17  18
ATOM     18  C   UNL     1      -4.900 -10.898   2.821  1.00  0.00     0.000 C 
BRANCH  18  19
ATOM     19  C   UNL     1      -4.636  -9.783   1.800  1.00  0.00    -0.000 C 
BRANCH  19  20
ATOM     20  C   UNL     1      -4.152 -10.260   0.427  1.00  0.00    -0.000 C 
BRANCH  20  21
ATOM     21  C   UNL     1      -2.731  -9.795   0.097  1.00  0.00    -0.003 C 
ATOM     22  C   UNL     1      -2.687  -9.044  -1.224  1.00  0.00     0.004 C 
ENDBRANCH  20  21
ENDBRANCH  19  20
ENDBRANCH  18  19
ENDBRANCH  17  18
ENDBRANCH  16  17
ENDBRANCH  12  16
ENDBRANCH   9  12
ENDBRANCH   6   9
ENDBRANCH   3   5
ENDBRANCH   2   3
BRANCH   2  23
ATOM     23  N   UNL     1      -0.217  -4.060   5.652  1.00  0.00    -0.332 N 
ATOM     24  C   UNL     1       0.286  -2.702   5.506  1.00  0.00     0.147 C 
BRANCH  23  25
ATOM     25  C   UNL     1       0.339  -4.812   6.810  1.00  0.00     0.174 C 
BRANCH  25  26
ATOM     26  C   UNL     1       0.269  -6.346   6.621  1.00  0.00     0.038 C 
BRANCH  26  27
ATOM     27  C   UNL     1       1.598  -7.077   6.327  1.00  0.00    -0.015 C 
ATOM     28  C   UNL     1       1.403  -8.576   6.099  1.00  0.00     0.007 C 
ATOM     29  C   UNL     1       2.390  -6.458   5.178  1.00  0.00     0.007 C 
ENDBRANCH  26  27
ENDBRANCH  25  26
BRANCH  25  30
ATOM     30  C   UNL     1      -0.306  -4.318   8.125  1.00  0.00     0.243 C 
ATOM     31  O   UNL     1       0.327  -3.668   8.955  1.00  0.00    -0.273 OA
ATOM     32  N   UNL     1      -1.622  -4.658   8.304  1.00  0.00    -0.342 N 
ATOM     33  H   UNL     1      -2.117  -5.074   7.511  1.00  0.00     0.164 HD
BRANCH  32  34
ATOM     34  C   UNL     1      -2.387  -4.298   9.502  1.00  0.00     0.175 C 
BRANCH  34  35
ATOM     35  C   UNL     1      -2.583  -2.778   9.604  1.00  0.00     0.070 C 
BRANCH  35  36
ATOM     36  C   UNL     1      -3.581  -2.248   8.600  1.00  0.00    -0.045 A 
ATOM     37  C   UNL     1      -4.918  -2.048   8.978  1.00  0.00     0.007 A 
ATOM     38  C   UNL     1      -3.197  -1.971   7.281  1.00  0.00     0.007 A 
ATOM     39  C   UNL     1      -5.849  -1.572   8.055  1.00  0.00     0.046 A 
ATOM     40  C   UNL     1      -4.130  -1.496   6.356  1.00  0.00     0.046 A 
ATOM     41  C   UNL     1      -5.448  -1.300   6.752  1.00  0.00     0.115 A 
BRANCH  41  42
ATOM     42  O   UNL     1      -6.390  -0.839   5.880  1.00  0.00    -0.508 OA
ATOM     43  H   UNL     1      -7.184  -1.392   5.969  1.00  0.00     0.293 HD
ENDBRANCH  41  42
ENDBRANCH  35  36
ENDBRANCH  34  35
BRANCH  34  44
ATOM     44  C   UNL     1      -3.735  -5.052   9.453  1.00  0.00     0.243 C 
ATOM     45  O   UNL     1      -4.389  -5.370  10.442  1.00  0.00    -0.273 OA
ATOM     46  N   UNL     1      -4.090  -5.461   8.184  1.00  0.00    -0.341 N 
ATOM     47  H   UNL     1      -3.457  -5.275   7.410  1.00  0.00     0.164 HD
BRANCH  46  48
ATOM     48  C   UNL     1      -5.290  -6.250   7.898  1.00  0.00     0.196 C 
BRANCH  48  49
ATOM     49  C   UNL     1      -6.465  -5.349   7.481  1.00  0.00     0.072 C 
BRANCH  49  50
ATOM     50  C   UNL     1      -7.638  -5.448   8.430  1.00  0.00    -0.045 A 
ATOM     51  C   UNL     1      -8.714  -6.295   8.127  1.00  0.00     0.007 A 
ATOM     52  C   UNL     1      -7.680  -4.687   9.605  1.00  0.00     0.007 A 
ATOM     53  C   UNL     1      -9.808  -6.384   8.988  1.00  0.00     0.046 A 
ATOM     54  C   UNL     1      -8.776  -4.775  10.467  1.00  0.00     0.046 A 
ATOM     55  C   UNL     1      -9.830  -5.624  10.151  1.00  0.00     0.115 A 
BRANCH  55  56
ATOM     56  O   UNL     1     -10.918  -5.738  10.965  1.00  0.00    -0.508 OA
ATOM     57  H   UNL     1     -10.803  -6.526  11.521  1.00  0.00     0.293 HD
ENDBRANCH  55  56
ENDBRANCH  49  50
ENDBRANCH  48  49
BRANCH  48  58
ATOM     58  C   UNL     1      -4.977  -7.243   6.770  1.00  0.00     0.326 C 
ATOM     59  O   UNL     1      -5.285  -8.423   6.718  1.00  0.00    -0.250 OA
BRANCH  58  60
ATOM     60  O   UNL     1      -4.293  -6.691   5.737  1.00  0.00    -0.480 OA
ATOM     61  H   UNL     1      -4.290  -7.403   5.061  1.00  0.00     0.296 HD
ENDBRANCH  58  60
ENDBRANCH  48  58
ENDBRANCH  46  48
ENDBRANCH  34  44
ENDBRANCH  32  34
ENDBRANCH  25  30
ENDBRANCH  23  25
ENDBRANCH   2  23
TORSDOF 28
ENDMDL
MODEL 29
REMARK VINA RESULT:    -5.657      3.971      7.486
REMARK INTER + INTRA:         -20.025
REMARK INTER:                 -16.989
REMARK INTRA:                  -3.035
REMARK UNBOUND:                -5.934
REMARK SMILES CCCCCCC[C@H](N)[C@H](O)C(=O)N[C@H](C)C(=O)N(C)[C@H](CC(C)C)C(=O)N[C@@H](Cc1ccc(O)cc1)C(=O)N[C@@H](Cc1ccc(O)cc1)C(=O)O
REMARK SMILES IDX 18 1 17 2 15 3 16 4 14 5 12 6 13 7 10 9 11 10 8 12 9 13 7 16
REMARK SMILES IDX 6 17 5 18 4 19 3 20 2 21 1 22 19 23 20 24 21 25 22 26 23 27
REMARK SMILES IDX 24 28 25 29 26 30 27 31 28 32 29 34 30 35 31 36 32 37 37 38
REMARK SMILES IDX 33 39 36 40 34 41 35 42 38 44 39 45 40 46 41 48 42 49 43 50
REMARK SMILES IDX 44 51 49 52 45 53 48 54 46 55 47 56 50 58 51 59 52 60
REMARK H PARENT 14 8 11 11 9 14 9 15 28 33 35 43 40 47 47 57 52 61
ROOT
ATOM      1  O   UNL     1      -1.638 -10.954   2.956  1.00  0.00    -0.272 OA
ATOM      2  C   UNL     1      -2.033  -9.794   2.768  1.00  0.00     0.245 C 
ENDROOT
BRANCH   2   3
ATOM      3  C   UNL     1      -1.207  -8.872   1.835  1.00  0.00     0.168 C 
ATOM      4  C   UNL     1       0.201  -8.668   2.384  1.00  0.00     0.041 C 
BRANCH   3   5
ATOM      5  N   UNL     1      -1.191  -9.274   0.437  1.00  0.00    -0.342 N 
ATOM      6  C   UNL     1      -1.751  -8.492  -0.551  1.00  0.00     0.251 C 
ATOM      7  O   UNL     1      -2.333  -7.436  -0.330  1.00  0.00    -0.272 OA
ATOM      8  H   UNL     1      -0.767 -10.148   0.135  1.00  0.00     0.164 HD
BRANCH   6   9
ATOM      9  C   UNL     1      -1.491  -9.043  -1.963  1.00  0.00     0.219 C 
BRANCH   9  10
ATOM     10  O   UNL     1      -2.245  -8.357  -2.970  1.00  0.00    -0.382 OA
ATOM     11  H   UNL     1      -3.177  -8.570  -2.746  1.00  0.00     0.211 HD
ENDBRANCH   9  10
BRANCH   9  12
ATOM     12  C   UNL     1       0.014  -9.084  -2.333  1.00  0.00     0.089 C 
BRANCH  12  13
ATOM     13  N   UNL     1       0.718  -8.048  -1.543  1.00  0.00    -0.325 NA
ATOM     14  H   UNL     1       1.307  -7.492  -2.167  1.00  0.00     0.119 HD
ATOM     15  H   UNL     1       1.369  -8.506  -0.901  1.00  0.00     0.119 HD
ENDBRANCH  12  13
BRANCH  12  16
ATOM     16  C   UNL     1       0.717 -10.452  -2.162  1.00  0.00     0.022 C 
BRANCH  16  17
ATOM     17  C   UNL     1       1.563 -11.007  -3.317  1.00  0.00     0.002 C 
BRANCH  17  18
ATOM     18  C   UNL     1       0.832 -11.123  -4.653  1.00  0.00     0.000 C 
BRANCH  18  19
ATOM     19  C   UNL     1       0.224 -12.508  -4.913  1.00  0.00    -0.000 C 
BRANCH  19  20
ATOM     20  C   UNL     1       1.059 -13.690  -4.411  1.00  0.00    -0.000 C 
BRANCH  20  21
ATOM     21  C   UNL     1       1.339 -14.731  -5.498  1.00  0.00    -0.003 C 
ATOM     22  C   UNL     1       0.416 -14.547  -6.692  1.00  0.00     0.004 C 
ENDBRANCH  20  21
ENDBRANCH  19  20
ENDBRANCH  18  19
ENDBRANCH  17  18
ENDBRANCH  16  17
ENDBRANCH  12  16
ENDBRANCH   9  12
ENDBRANCH   6   9
ENDBRANCH   3   5
ENDBRANCH   2   3
BRANCH   2  23
ATOM     23  N   UNL     1      -3.255  -9.382   3.288  1.00  0.00    -0.332 N 
ATOM     24  C   UNL     1      -4.532  -9.521   2.605  1.00  0.00     0.147 C 
BRANCH  23  25
ATOM     25  C   UNL     1      -3.343  -8.869   4.683  1.00  0.00     0.174 C 
BRANCH  25  26
ATOM     26  C   UNL     1      -4.759  -9.009   5.288  1.00  0.00     0.038 C 
BRANCH  26  27
ATOM     27  C   UNL     1      -4.977 -10.154   6.303  1.00  0.00    -0.015 C 
ATOM     28  C   UNL     1      -6.090  -9.845   7.303  1.00  0.00     0.007 C 
ATOM     29  C   UNL     1      -5.208 -11.512   5.645  1.00  0.00     0.007 C 
ENDBRANCH  26  27
ENDBRANCH  25  26
BRANCH  25  30
ATOM     30  C   UNL     1      -2.774  -7.433   4.759  1.00  0.00     0.243 C 
ATOM     31  O   UNL     1      -3.181  -6.533   4.026  1.00  0.00    -0.273 OA
ATOM     32  N   UNL     1      -1.786  -7.235   5.689  1.00  0.00    -0.342 N 
ATOM     33  H   UNL     1      -1.602  -7.991   6.353  1.00  0.00     0.164 HD
BRANCH  32  34
ATOM     34  C   UNL     1      -1.113  -5.948   5.882  1.00  0.00     0.175 C 
BRANCH  34  35
ATOM     35  C   UNL     1      -0.539  -5.414   4.560  1.00  0.00     0.070 C 
BRANCH  35  36
ATOM     36  C   UNL     1       0.924  -5.046   4.665  1.00  0.00    -0.045 A 
ATOM     37  C   UNL     1       1.423  -3.944   3.953  1.00  0.00     0.007 A 
ATOM     38  C   UNL     1       1.802  -5.805   5.449  1.00  0.00     0.007 A 
ATOM     39  C   UNL     1       2.774  -3.605   4.032  1.00  0.00     0.046 A 
ATOM     40  C   UNL     1       3.156  -5.467   5.528  1.00  0.00     0.046 A 
ATOM     41  C   UNL     1       3.629  -4.368   4.819  1.00  0.00     0.115 A 
BRANCH  41  42
ATOM     42  O   UNL     1       4.942  -4.005   4.867  1.00  0.00    -0.508 OA
ATOM     43  H   UNL     1       5.121  -3.623   5.743  1.00  0.00     0.293 HD
ENDBRANCH  41  42
ENDBRANCH  35  36
ENDBRANCH  34  35
BRANCH  34  44
ATOM     44  C   UNL     1      -2.129  -4.966   6.508  1.00  0.00     0.243 C 
ATOM     45  O   UNL     1      -2.654  -4.033   5.907  1.00  0.00    -0.273 OA
ATOM     46  N   UNL     1      -2.303  -5.148   7.864  1.00  0.00    -0.341 N 
ATOM     47  H   UNL     1      -1.757  -5.861   8.341  1.00  0.00     0.164 HD
BRANCH  46  48
ATOM     48  C   UNL     1      -3.164  -4.296   8.687  1.00  0.00     0.196 C 
BRANCH  48  49
ATOM     49  C   UNL     1      -3.675  -5.047   9.928  1.00  0.00     0.072 C 
BRANCH  49  50
ATOM     50  C   UNL     1      -5.150  -5.368   9.848  1.00  0.00    -0.045 A 
ATOM     51  C   UNL     1      -6.094  -4.436  10.303  1.00  0.00     0.007 A 
ATOM     52  C   UNL     1      -5.594  -6.597   9.343  1.00  0.00     0.007 A 
ATOM     53  C   UNL     1      -7.457  -4.726  10.246  1.00  0.00     0.046 A 
ATOM     54  C   UNL     1      -6.959  -6.888   9.287  1.00  0.00     0.046 A 
ATOM     55  C   UNL     1      -7.879  -5.949   9.739  1.00  0.00     0.115 A 
BRANCH  55  56
ATOM     56  O   UNL     1      -9.220  -6.195   9.702  1.00  0.00    -0.508 OA
ATOM     57  H   UNL     1      -9.461  -6.441   8.795  1.00  0.00     0.293 HD
ENDBRANCH  55  56
ENDBRANCH  49  50
ENDBRANCH  48  49
BRANCH  48  58
ATOM     58  C   UNL     1      -2.369  -3.058   9.126  1.00  0.00     0.326 C 
ATOM     59  O   UNL     1      -1.250  -2.732   8.763  1.00  0.00    -0.250 OA
BRANCH  58  60
ATOM     60  O   UNL     1      -3.037  -2.269  10.004  1.00  0.00    -0.480 OA
ATOM     61  H   UNL     1      -2.435  -2.234  10.779  1.00  0.00     0.296 HD
ENDBRANCH  58  60
ENDBRANCH  48  58
ENDBRANCH  46  48
ENDBRANCH  34  44
ENDBRANCH  32  34
ENDBRANCH  25  30
ENDBRANCH  23  25
ENDBRANCH   2  23
TORSDOF 28
ENDMDL
MODEL 30
REMARK VINA RESULT:    -5.657      4.043      7.874
REMARK INTER + INTRA:         -20.024
REMARK INTER:                 -13.671
REMARK INTRA:                  -6.353
REMARK UNBOUND:                -5.934
REMARK SMILES CCCCCCC[C@H](N)[C@H](O)C(=O)N[C@H](C)C(=O)N(C)[C@H](CC(C)C)C(=O)N[C@@H](Cc1ccc(O)cc1)C(=O)N[C@@H](Cc1ccc(O)cc1)C(=O)O
REMARK SMILES IDX 18 1 17 2 15 3 16 4 14 5 12 6 13 7 10 9 11 10 8 12 9 13 7 16
REMARK SMILES IDX 6 17 5 18 4 19 3 20 2 21 1 22 19 23 20 24 21 25 22 26 23 27
REMARK SMILES IDX 24 28 25 29 26 30 27 31 28 32 29 34 30 35 31 36 32 37 37 38
REMARK SMILES IDX 33 39 36 40 34 41 35 42 38 44 39 45 40 46 41 48 42 49 43 50
REMARK SMILES IDX 44 51 49 52 45 53 48 54 46 55 47 56 50 58 51 59 52 60
REMARK H PARENT 14 8 11 11 9 14 9 15 28 33 35 43 40 47 47 57 52 61
ROOT
ATOM      1  O   UNL     1      -1.608  -0.770   1.628  1.00  0.00    -0.272 OA
ATOM      2  C   UNL     1      -0.489  -0.618   2.141  1.00  0.00     0.245 C 
ENDROOT
BRANCH   2   3
ATOM      3  C   UNL     1      -0.273   0.571   3.109  1.00  0.00     0.168 C 
ATOM      4  C   UNL     1      -1.024   0.347   4.417  1.00  0.00     0.041 C 
BRANCH   3   5
ATOM      5  N   UNL     1       1.119   0.928   3.338  1.00  0.00    -0.342 N 
ATOM      6  C   UNL     1       1.625   2.156   2.968  1.00  0.00     0.251 C 
ATOM      7  O   UNL     1       0.966   3.013   2.389  1.00  0.00    -0.272 OA
ATOM      8  H   UNL     1       1.772   0.284   3.779  1.00  0.00     0.164 HD
BRANCH   6   9
ATOM      9  C   UNL     1       3.075   2.365   3.434  1.00  0.00     0.219 C 
BRANCH   9  10
ATOM     10  O   UNL     1       3.291   1.929   4.782  1.00  0.00    -0.382 OA
ATOM     11  H   UNL     1       2.423   2.084   5.216  1.00  0.00     0.211 HD
ENDBRANCH   9  10
BRANCH   9  12
ATOM     12  C   UNL     1       4.120   1.734   2.477  1.00  0.00     0.089 C 
BRANCH  12  13
ATOM     13  N   UNL     1       3.845   0.282   2.377  1.00  0.00    -0.325 NA
ATOM     14  H   UNL     1       4.676  -0.193   2.020  1.00  0.00     0.119 HD
ATOM     15  H   UNL     1       3.124   0.130   1.668  1.00  0.00     0.119 HD
ENDBRANCH  12  13
BRANCH  12  16
ATOM     16  C   UNL     1       4.208   2.357   1.063  1.00  0.00     0.022 C 
BRANCH  16  17
ATOM     17  C   UNL     1       4.685   1.487  -0.108  1.00  0.00     0.002 C 
BRANCH  17  18
ATOM     18  C   UNL     1       3.581   1.012  -1.050  1.00  0.00     0.000 C 
BRANCH  18  19
ATOM     19  C   UNL     1       3.696   1.567  -2.476  1.00  0.00    -0.000 C 
BRANCH  19  20
ATOM     20  C   UNL     1       3.802   3.091  -2.574  1.00  0.00    -0.000 C 
BRANCH  20  21
ATOM     21  C   UNL     1       2.439   3.782  -2.678  1.00  0.00    -0.003 C 
ATOM     22  C   UNL     1       2.026   4.396  -1.350  1.00  0.00     0.004 C 
ENDBRANCH  20  21
ENDBRANCH  19  20
ENDBRANCH  18  19
ENDBRANCH  17  18
ENDBRANCH  16  17
ENDBRANCH  12  16
ENDBRANCH   9  12
ENDBRANCH   6   9
ENDBRANCH   3   5
ENDBRANCH   2   3
BRANCH   2  23
ATOM     23  N   UNL     1       0.503  -1.572   1.939  1.00  0.00    -0.332 N 
ATOM     24  C   UNL     1       1.519  -1.499   0.899  1.00  0.00     0.147 C 
BRANCH  23  25
ATOM     25  C   UNL     1       0.664  -2.702   2.894  1.00  0.00     0.174 C 
BRANCH  25  26
ATOM     26  C   UNL     1      -0.614  -2.979   3.721  1.00  0.00     0.038 C 
BRANCH  26  27
ATOM     27  C   UNL     1      -0.589  -4.207   4.658  1.00  0.00    -0.015 C 
ATOM     28  C   UNL     1      -1.838  -4.298   5.534  1.00  0.00     0.007 C 
ATOM     29  C   UNL     1      -0.349  -5.525   3.925  1.00  0.00     0.007 C 
ENDBRANCH  26  27
ENDBRANCH  25  26
BRANCH  25  30
ATOM     30  C   UNL     1       1.930  -2.494   3.757  1.00  0.00     0.243 C 
ATOM     31  O   UNL     1       2.115  -1.462   4.401  1.00  0.00    -0.273 OA
ATOM     32  N   UNL     1       2.829  -3.529   3.750  1.00  0.00    -0.342 N 
ATOM     33  H   UNL     1       2.540  -4.405   3.307  1.00  0.00     0.164 HD
BRANCH  32  34
ATOM     34  C   UNL     1       4.096  -3.495   4.487  1.00  0.00     0.175 C 
BRANCH  34  35
ATOM     35  C   UNL     1       4.180  -4.643   5.505  1.00  0.00     0.070 C 
BRANCH  35  36
ATOM     36  C   UNL     1       2.982  -4.700   6.424  1.00  0.00    -0.045 A 
ATOM     37  C   UNL     1       2.231  -5.881   6.528  1.00  0.00     0.007 A 
ATOM     38  C   UNL     1       2.590  -3.576   7.164  1.00  0.00     0.007 A 
ATOM     39  C   UNL     1       1.115  -5.938   7.363  1.00  0.00     0.046 A 
ATOM     40  C   UNL     1       1.472  -3.632   8.000  1.00  0.00     0.046 A 
ATOM     41  C   UNL     1       0.745  -4.814   8.093  1.00  0.00     0.115 A 
BRANCH  41  42
ATOM     42  O   UNL     1      -0.353  -4.911   8.895  1.00  0.00    -0.508 OA
ATOM     43  H   UNL     1      -0.773  -5.772   8.734  1.00  0.00     0.293 HD
ENDBRANCH  41  42
ENDBRANCH  35  36
ENDBRANCH  34  35
BRANCH  34  44
ATOM     44  C   UNL     1       5.249  -3.548   3.460  1.00  0.00     0.243 C 
ATOM     45  O   UNL     1       6.332  -4.091   3.660  1.00  0.00    -0.273 OA
ATOM     46  N   UNL     1       5.005  -2.806   2.323  1.00  0.00    -0.341 N 
ATOM     47  H   UNL     1       4.139  -2.277   2.254  1.00  0.00     0.164 HD
BRANCH  46  48
ATOM     48  C   UNL     1       5.978  -2.650   1.239  1.00  0.00     0.196 C 
BRANCH  48  49
ATOM     49  C   UNL     1       5.303  -2.161  -0.053  1.00  0.00     0.072 C 
BRANCH  49  50
ATOM     50  C   UNL     1       6.180  -2.341  -1.271  1.00  0.00    -0.045 A 
ATOM     51  C   UNL     1       6.155  -1.386  -2.298  1.00  0.00     0.007 A 
ATOM     52  C   UNL     1       7.007  -3.464  -1.405  1.00  0.00     0.007 A 
ATOM     53  C   UNL     1       6.949  -1.548  -3.433  1.00  0.00     0.046 A 
ATOM     54  C   UNL     1       7.802  -3.627  -2.542  1.00  0.00     0.046 A 
ATOM     55  C   UNL     1       7.767  -2.666  -3.546  1.00  0.00     0.115 A 
BRANCH  55  56
ATOM     56  O   UNL     1       8.526  -2.788  -4.672  1.00  0.00    -0.508 OA
ATOM     57  H   UNL     1       7.979  -3.184  -5.369  1.00  0.00     0.293 HD
ENDBRANCH  55  56
ENDBRANCH  49  50
ENDBRANCH  48  49
BRANCH  48  58
ATOM     58  C   UNL     1       7.051  -1.641   1.673  1.00  0.00     0.326 C 
ATOM     59  O   UNL     1       8.235  -1.649   1.379  1.00  0.00    -0.250 OA
BRANCH  58  60
ATOM     60  O   UNL     1       6.570  -0.644   2.458  1.00  0.00    -0.480 OA
ATOM     61  H   UNL     1       7.058   0.147   2.143  1.00  0.00     0.296 HD
ENDBRANCH  58  60
ENDBRANCH  48  58
ENDBRANCH  46  48
ENDBRANCH  34  44
ENDBRANCH  32  34
ENDBRANCH  25  30
ENDBRANCH  23  25
ENDBRANCH   2  23
TORSDOF 28
ENDMDL
MODEL 31
REMARK VINA RESULT:    -5.653      2.957      7.778
REMARK INTER + INTRA:         -20.013
REMARK INTER:                 -13.395
REMARK INTRA:                  -6.618
REMARK UNBOUND:                -5.934
REMARK SMILES CCCCCCC[C@H](N)[C@H](O)C(=O)N[C@H](C)C(=O)N(C)[C@H](CC(C)C)C(=O)N[C@@H](Cc1ccc(O)cc1)C(=O)N[C@@H](Cc1ccc(O)cc1)C(=O)O
REMARK SMILES IDX 18 1 17 2 15 3 16 4 14 5 12 6 13 7 10 9 11 10 8 12 9 13 7 16
REMARK SMILES IDX 6 17 5 18 4 19 3 20 2 21 1 22 19 23 20 24 21 25 22 26 23 27
REMARK SMILES IDX 24 28 25 29 26 30 27 31 28 32 29 34 30 35 31 36 32 37 37 38
REMARK SMILES IDX 33 39 36 40 34 41 35 42 38 44 39 45 40 46 41 48 42 49 43 50
REMARK SMILES IDX 44 51 49 52 45 53 48 54 46 55 47 56 50 58 51 59 52 60
REMARK H PARENT 14 8 11 11 9 14 9 15 28 33 35 43 40 47 47 57 52 61
ROOT
ATOM      1  O   UNL     1       0.021  -6.676   6.677  1.00  0.00    -0.272 OA
ATOM      2  C   UNL     1       0.418  -5.501   6.695  1.00  0.00     0.245 C 
ENDROOT
BRANCH   2   3
ATOM      3  C   UNL     1       1.551  -5.088   5.722  1.00  0.00     0.168 C 
ATOM      4  C   UNL     1       2.260  -6.316   5.163  1.00  0.00     0.041 C 
BRANCH   3   5
ATOM      5  N   UNL     1       1.146  -4.169   4.669  1.00  0.00    -0.342 N 
ATOM      6  C   UNL     1       1.397  -2.816   4.747  1.00  0.00     0.251 C 
ATOM      7  O   UNL     1       1.934  -2.282   5.713  1.00  0.00    -0.272 OA
ATOM      8  H   UNL     1       0.661  -4.490   3.834  1.00  0.00     0.164 HD
BRANCH   6   9
ATOM      9  C   UNL     1       1.012  -2.064   3.463  1.00  0.00     0.219 C 
BRANCH   9  10
ATOM     10  O   UNL     1       0.522  -0.743   3.722  1.00  0.00    -0.382 OA
ATOM     11  H   UNL     1       0.616  -0.648   4.696  1.00  0.00     0.211 HD
ENDBRANCH   9  10
BRANCH   9  12
ATOM     12  C   UNL     1       2.150  -2.033   2.411  1.00  0.00     0.089 C 
BRANCH  12  13
ATOM     13  N   UNL     1       3.429  -2.329   3.096  1.00  0.00    -0.325 NA
ATOM     14  H   UNL     1       4.203  -1.980   2.529  1.00  0.00     0.119 HD
ATOM     15  H   UNL     1       3.559  -3.343   3.130  1.00  0.00     0.119 HD
ENDBRANCH  12  13
BRANCH  12  16
ATOM     16  C   UNL     1       1.972  -2.968   1.191  1.00  0.00     0.022 C 
BRANCH  16  17
ATOM     17  C   UNL     1       2.999  -4.082   0.947  1.00  0.00     0.002 C 
BRANCH  17  18
ATOM     18  C   UNL     1       2.638  -5.436   1.554  1.00  0.00     0.000 C 
BRANCH  18  19
ATOM     19  C   UNL     1       1.152  -5.798   1.433  1.00  0.00    -0.000 C 
BRANCH  19  20
ATOM     20  C   UNL     1       0.844  -6.978   0.507  1.00  0.00    -0.000 C 
BRANCH  20  21
ATOM     21  C   UNL     1       1.181  -8.335   1.132  1.00  0.00    -0.003 C 
ATOM     22  C   UNL     1       1.118  -9.451   0.101  1.00  0.00     0.004 C 
ENDBRANCH  20  21
ENDBRANCH  19  20
ENDBRANCH  18  19
ENDBRANCH  17  18
ENDBRANCH  16  17
ENDBRANCH  12  16
ENDBRANCH   9  12
ENDBRANCH   6   9
ENDBRANCH   3   5
ENDBRANCH   2   3
BRANCH   2  23
ATOM     23  N   UNL     1      -0.230  -4.559   7.486  1.00  0.00    -0.332 N 
ATOM     24  C   UNL     1       0.412  -3.778   8.533  1.00  0.00     0.147 C 
BRANCH  23  25
ATOM     25  C   UNL     1      -1.647  -4.194   7.210  1.00  0.00     0.174 C 
BRANCH  25  26
ATOM     26  C   UNL     1      -2.619  -4.682   8.310  1.00  0.00     0.038 C 
BRANCH  26  27
ATOM     27  C   UNL     1      -3.233  -3.604   9.231  1.00  0.00    -0.015 C 
ATOM     28  C   UNL     1      -3.118  -2.198   8.642  1.00  0.00     0.007 C 
ATOM     29  C   UNL     1      -4.674  -3.900   9.636  1.00  0.00     0.007 C 
ENDBRANCH  26  27
ENDBRANCH  25  26
BRANCH  25  30
ATOM     30  C   UNL     1      -2.044  -4.642   5.785  1.00  0.00     0.243 C 
ATOM     31  O   UNL     1      -1.931  -3.896   4.814  1.00  0.00    -0.273 OA
ATOM     32  N   UNL     1      -2.535  -5.918   5.680  1.00  0.00    -0.342 N 
ATOM     33  H   UNL     1      -2.466  -6.522   6.503  1.00  0.00     0.164 HD
BRANCH  32  34
ATOM     34  C   UNL     1      -2.985  -6.502   4.413  1.00  0.00     0.175 C 
BRANCH  34  35
ATOM     35  C   UNL     1      -1.869  -7.319   3.746  1.00  0.00     0.070 C 
BRANCH  35  36
ATOM     36  C   UNL     1      -2.248  -7.809   2.366  1.00  0.00    -0.045 A 
ATOM     37  C   UNL     1      -2.620  -6.890   1.373  1.00  0.00     0.007 A 
ATOM     38  C   UNL     1      -2.256  -9.177   2.066  1.00  0.00     0.007 A 
ATOM     39  C   UNL     1      -2.984  -7.333   0.101  1.00  0.00     0.046 A 
ATOM     40  C   UNL     1      -2.622  -9.622   0.793  1.00  0.00     0.046 A 
ATOM     41  C   UNL     1      -2.981  -8.694  -0.179  1.00  0.00     0.115 A 
BRANCH  41  42
ATOM     42  O   UNL     1      -3.347  -9.086  -1.433  1.00  0.00    -0.508 OA
ATOM     43  H   UNL     1      -2.603  -8.916  -2.034  1.00  0.00     0.293 HD
ENDBRANCH  41  42
ENDBRANCH  35  36
ENDBRANCH  34  35
BRANCH  34  44
ATOM     44  C   UNL     1      -4.237  -7.362   4.701  1.00  0.00     0.243 C 
ATOM     45  O   UNL     1      -5.230  -7.405   3.980  1.00  0.00    -0.273 OA
ATOM     46  N   UNL     1      -4.200  -7.991   5.928  1.00  0.00    -0.341 N 
ATOM     47  H   UNL     1      -3.405  -7.830   6.542  1.00  0.00     0.164 HD
BRANCH  46  48
ATOM     48  C   UNL     1      -5.300  -8.805   6.449  1.00  0.00     0.196 C 
BRANCH  48  49
ATOM     49  C   UNL     1      -4.840 -10.241   6.752  1.00  0.00     0.072 C 
BRANCH  49  50
ATOM     50  C   UNL     1      -4.381 -10.978   5.514  1.00  0.00    -0.045 A 
ATOM     51  C   UNL     1      -5.266 -11.160   4.441  1.00  0.00     0.007 A 
ATOM     52  C   UNL     1      -3.086 -11.504   5.427  1.00  0.00     0.007 A 
ATOM     53  C   UNL     1      -4.858 -11.850   3.299  1.00  0.00     0.046 A 
ATOM     54  C   UNL     1      -2.678 -12.196   4.284  1.00  0.00     0.046 A 
ATOM     55  C   UNL     1      -3.568 -12.362   3.229  1.00  0.00     0.115 A 
BRANCH  55  56
ATOM     56  O   UNL     1      -3.210 -13.032   2.096  1.00  0.00    -0.508 OA
ATOM     57  H   UNL     1      -2.268 -13.259   2.160  1.00  0.00     0.293 HD
ENDBRANCH  55  56
ENDBRANCH  49  50
ENDBRANCH  48  49
BRANCH  48  58
ATOM     58  C   UNL     1      -5.838  -8.155   7.732  1.00  0.00     0.326 C 
ATOM     59  O   UNL     1      -6.798  -8.513   8.395  1.00  0.00    -0.250 OA
BRANCH  58  60
ATOM     60  O   UNL     1      -5.120  -7.076   8.134  1.00  0.00    -0.480 OA
ATOM     61  H   UNL     1      -5.636  -6.732   8.894  1.00  0.00     0.296 HD
ENDBRANCH  58  60
ENDBRANCH  48  58
ENDBRANCH  46  48
ENDBRANCH  34  44
ENDBRANCH  32  34
ENDBRANCH  25  30
ENDBRANCH  23  25
ENDBRANCH   2  23
TORSDOF 28
ENDMDL
MODEL 32
REMARK VINA RESULT:    -5.647      6.126     11.267
REMARK INTER + INTRA:         -19.998
REMARK INTER:                 -16.740
REMARK INTRA:                  -3.258
REMARK UNBOUND:                -5.934
REMARK SMILES CCCCCCC[C@H](N)[C@H](O)C(=O)N[C@H](C)C(=O)N(C)[C@H](CC(C)C)C(=O)N[C@@H](Cc1ccc(O)cc1)C(=O)N[C@@H](Cc1ccc(O)cc1)C(=O)O
REMARK SMILES IDX 18 1 17 2 15 3 16 4 14 5 12 6 13 7 10 9 11 10 8 12 9 13 7 16
REMARK SMILES IDX 6 17 5 18 4 19 3 20 2 21 1 22 19 23 20 24 21 25 22 26 23 27
REMARK SMILES IDX 24 28 25 29 26 30 27 31 28 32 29 34 30 35 31 36 32 37 37 38
REMARK SMILES IDX 33 39 36 40 34 41 35 42 38 44 39 45 40 46 41 48 42 49 43 50
REMARK SMILES IDX 44 51 49 52 45 53 48 54 46 55 47 56 50 58 51 59 52 60
REMARK H PARENT 14 8 11 11 9 14 9 15 28 33 35 43 40 47 47 57 52 61
ROOT
ATOM      1  O   UNL     1       6.245  -3.599   3.637  1.00  0.00    -0.272 OA
ATOM      2  C   UNL     1       5.345  -3.771   2.802  1.00  0.00     0.245 C 
ENDROOT
BRANCH   2   3
ATOM      3  C   UNL     1       3.872  -3.665   3.267  1.00  0.00     0.168 C 
ATOM      4  C   UNL     1       3.781  -3.698   4.789  1.00  0.00     0.041 C 
BRANCH   3   5
ATOM      5  N   UNL     1       3.131  -2.547   2.704  1.00  0.00    -0.342 N 
ATOM      6  C   UNL     1       2.144  -2.730   1.758  1.00  0.00     0.251 C 
ATOM      7  O   UNL     1       1.847  -3.826   1.295  1.00  0.00    -0.272 OA
ATOM      8  H   UNL     1       3.314  -1.587   2.985  1.00  0.00     0.164 HD
BRANCH   6   9
ATOM      9  C   UNL     1       1.403  -1.428   1.414  1.00  0.00     0.219 C 
BRANCH   9  10
ATOM     10  O   UNL     1       1.072  -1.332   0.023  1.00  0.00    -0.382 OA
ATOM     11  H   UNL     1       1.876  -1.672  -0.429  1.00  0.00     0.211 HD
ENDBRANCH   9  10
BRANCH   9  12
ATOM     12  C   UNL     1       0.149  -1.190   2.295  1.00  0.00     0.089 C 
BRANCH  12  13
ATOM     13  N   UNL     1      -1.055  -1.354   1.450  1.00  0.00    -0.325 NA
ATOM     14  H   UNL     1      -1.420  -0.432   1.202  1.00  0.00     0.119 HD
ATOM     15  H   UNL     1      -1.793  -1.793   2.006  1.00  0.00     0.119 HD
ENDBRANCH  12  13
BRANCH  12  16
ATOM     16  C   UNL     1       0.033  -2.072   3.562  1.00  0.00     0.022 C 
BRANCH  16  17
ATOM     17  C   UNL     1      -1.041  -3.167   3.614  1.00  0.00     0.002 C 
BRANCH  17  18
ATOM     18  C   UNL     1      -0.507  -4.587   3.783  1.00  0.00     0.000 C 
BRANCH  18  19
ATOM     19  C   UNL     1      -0.038  -4.913   5.207  1.00  0.00    -0.000 C 
BRANCH  19  20
ATOM     20  C   UNL     1       0.949  -6.079   5.316  1.00  0.00    -0.000 C 
BRANCH  20  21
ATOM     21  C   UNL     1       0.535  -7.119   6.360  1.00  0.00    -0.003 C 
ATOM     22  C   UNL     1       1.684  -7.447   7.301  1.00  0.00     0.004 C 
ENDBRANCH  20  21
ENDBRANCH  19  20
ENDBRANCH  18  19
ENDBRANCH  17  18
ENDBRANCH  16  17
ENDBRANCH  12  16
ENDBRANCH   9  12
ENDBRANCH   6   9
ENDBRANCH   3   5
ENDBRANCH   2   3
BRANCH   2  23
ATOM     23  N   UNL     1       5.666  -3.931   1.458  1.00  0.00    -0.332 N 
ATOM     24  C   UNL     1       5.300  -5.088   0.654  1.00  0.00     0.147 C 
BRANCH  23  25
ATOM     25  C   UNL     1       6.318  -2.825   0.704  1.00  0.00     0.174 C 
BRANCH  25  26
ATOM     26  C   UNL     1       5.383  -2.178  -0.345  1.00  0.00     0.038 C 
BRANCH  26  27
ATOM     27  C   UNL     1       5.259  -0.638  -0.316  1.00  0.00    -0.015 C 
ATOM     28  C   UNL     1       4.127  -0.127  -1.207  1.00  0.00     0.007 C 
ATOM     29  C   UNL     1       5.133  -0.065   1.093  1.00  0.00     0.007 C 
ENDBRANCH  26  27
ENDBRANCH  25  26
BRANCH  25  30
ATOM     30  C   UNL     1       7.669  -3.302   0.123  1.00  0.00     0.243 C 
ATOM     31  O   UNL     1       8.565  -3.745   0.840  1.00  0.00    -0.273 OA
ATOM     32  N   UNL     1       7.801  -3.192  -1.237  1.00  0.00    -0.342 N 
ATOM     33  H   UNL     1       6.966  -2.949  -1.777  1.00  0.00     0.164 HD
BRANCH  32  34
ATOM     34  C   UNL     1       9.021  -3.569  -1.957  1.00  0.00     0.175 C 
BRANCH  34  35
ATOM     35  C   UNL     1      10.278  -3.087  -1.218  1.00  0.00     0.070 C 
BRANCH  35  36
ATOM     36  C   UNL     1      11.155  -2.199  -2.072  1.00  0.00    -0.045 A 
ATOM     37  C   UNL     1      11.194  -2.381  -3.463  1.00  0.00     0.007 A 
ATOM     38  C   UNL     1      11.952  -1.204  -1.492  1.00  0.00     0.007 A 
ATOM     39  C   UNL     1      12.011  -1.576  -4.258  1.00  0.00     0.046 A 
ATOM     40  C   UNL     1      12.771  -0.398  -2.288  1.00  0.00     0.046 A 
ATOM     41  C   UNL     1      12.791  -0.591  -3.665  1.00  0.00     0.115 A 
BRANCH  41  42
ATOM     42  O   UNL     1      13.577   0.171  -4.477  1.00  0.00    -0.508 OA
ATOM     43  H   UNL     1      14.507  -0.013  -4.262  1.00  0.00     0.293 HD
ENDBRANCH  41  42
ENDBRANCH  35  36
ENDBRANCH  34  35
BRANCH  34  44
ATOM     44  C   UNL     1       9.012  -5.103  -2.142  1.00  0.00     0.243 C 
ATOM     45  O   UNL     1       7.998  -5.777  -2.304  1.00  0.00    -0.273 OA
ATOM     46  N   UNL     1      10.253  -5.682  -1.979  1.00  0.00    -0.341 N 
ATOM     47  H   UNL     1      11.044  -5.094  -1.730  1.00  0.00     0.164 HD
BRANCH  46  48
ATOM     48  C   UNL     1      10.481  -7.128  -2.040  1.00  0.00     0.196 C 
BRANCH  48  49
ATOM     49  C   UNL     1      11.322  -7.510  -3.270  1.00  0.00     0.072 C 
BRANCH  49  50
ATOM     50  C   UNL     1      10.897  -6.770  -4.518  1.00  0.00    -0.045 A 
ATOM     51  C   UNL     1      11.655  -5.684  -4.979  1.00  0.00     0.007 A 
ATOM     52  C   UNL     1       9.740  -7.139  -5.216  1.00  0.00     0.007 A 
ATOM     53  C   UNL     1      11.266  -4.985  -6.122  1.00  0.00     0.046 A 
ATOM     54  C   UNL     1       9.350  -6.438  -6.360  1.00  0.00     0.046 A 
ATOM     55  C   UNL     1      10.117  -5.367  -6.803  1.00  0.00     0.115 A 
BRANCH  55  56
ATOM     56  O   UNL     1       9.770  -4.657  -7.915  1.00  0.00    -0.508 OA
ATOM     57  H   UNL     1      10.407  -3.934  -8.027  1.00  0.00     0.293 HD
ENDBRANCH  55  56
ENDBRANCH  49  50
ENDBRANCH  48  49
BRANCH  48  58
ATOM     58  C   UNL     1      11.206  -7.573  -0.762  1.00  0.00     0.326 C 
ATOM     59  O   UNL     1      10.831  -8.405   0.048  1.00  0.00    -0.250 OA
BRANCH  58  60
ATOM     60  O   UNL     1      12.396  -6.950  -0.570  1.00  0.00    -0.480 OA
ATOM     61  H   UNL     1      12.374  -6.710   0.382  1.00  0.00     0.296 HD
ENDBRANCH  58  60
ENDBRANCH  48  58
ENDBRANCH  46  48
ENDBRANCH  34  44
ENDBRANCH  32  34
ENDBRANCH  25  30
ENDBRANCH  23  25
ENDBRANCH   2  23
TORSDOF 28
ENDMDL
MODEL 33
REMARK VINA RESULT:    -5.630      4.827      9.596
REMARK INTER + INTRA:         -19.957
REMARK INTER:                 -12.770
REMARK INTRA:                  -7.187
REMARK UNBOUND:                -5.934
REMARK SMILES CCCCCCC[C@H](N)[C@H](O)C(=O)N[C@H](C)C(=O)N(C)[C@H](CC(C)C)C(=O)N[C@@H](Cc1ccc(O)cc1)C(=O)N[C@@H](Cc1ccc(O)cc1)C(=O)O
REMARK SMILES IDX 18 1 17 2 15 3 16 4 14 5 12 6 13 7 10 9 11 10 8 12 9 13 7 16
REMARK SMILES IDX 6 17 5 18 4 19 3 20 2 21 1 22 19 23 20 24 21 25 22 26 23 27
REMARK SMILES IDX 24 28 25 29 26 30 27 31 28 32 29 34 30 35 31 36 32 37 37 38
REMARK SMILES IDX 33 39 36 40 34 41 35 42 38 44 39 45 40 46 41 48 42 49 43 50
REMARK SMILES IDX 44 51 49 52 45 53 48 54 46 55 47 56 50 58 51 59 52 60
REMARK H PARENT 14 8 11 11 9 14 9 15 28 33 35 43 40 47 47 57 52 61
ROOT
ATOM      1  O   UNL     1       2.179  -1.109   7.135  1.00  0.00    -0.272 OA
ATOM      2  C   UNL     1       1.208  -0.874   7.869  1.00  0.00     0.245 C 
ENDROOT
BRANCH   2   3
ATOM      3  C   UNL     1      -0.019  -1.817   7.798  1.00  0.00     0.168 C 
ATOM      4  C   UNL     1       0.252  -3.115   8.551  1.00  0.00     0.041 C 
BRANCH   3   5
ATOM      5  N   UNL     1      -1.279  -1.211   8.199  1.00  0.00    -0.342 N 
ATOM      6  C   UNL     1      -2.311  -1.018   7.305  1.00  0.00     0.251 C 
ATOM      7  O   UNL     1      -2.234  -1.298   6.113  1.00  0.00    -0.272 OA
ATOM      8  H   UNL     1      -1.448  -0.906   9.155  1.00  0.00     0.164 HD
BRANCH   6   9
ATOM      9  C   UNL     1      -3.591  -0.497   7.977  1.00  0.00     0.219 C 
BRANCH   9  10
ATOM     10  O   UNL     1      -3.824   0.893   7.719  1.00  0.00    -0.382 OA
ATOM     11  H   UNL     1      -2.984   1.196   7.310  1.00  0.00     0.211 HD
ENDBRANCH   9  10
BRANCH   9  12
ATOM     12  C   UNL     1      -4.847  -1.340   7.632  1.00  0.00     0.089 C 
BRANCH  12  13
ATOM     13  N   UNL     1      -5.385  -0.867   6.337  1.00  0.00    -0.325 NA
ATOM     14  H   UNL     1      -4.623  -0.800   5.660  1.00  0.00     0.119 HD
ATOM     15  H   UNL     1      -5.726   0.090   6.449  1.00  0.00     0.119 HD
ENDBRANCH  12  13
BRANCH  12  16
ATOM     16  C   UNL     1      -4.645  -2.874   7.596  1.00  0.00     0.022 C 
BRANCH  16  17
ATOM     17  C   UNL     1      -3.959  -3.565   8.782  1.00  0.00     0.002 C 
BRANCH  17  18
ATOM     18  C   UNL     1      -3.061  -4.744   8.411  1.00  0.00     0.000 C 
BRANCH  18  19
ATOM     19  C   UNL     1      -3.078  -5.095   6.917  1.00  0.00    -0.000 C 
BRANCH  19  20
ATOM     20  C   UNL     1      -1.760  -4.850   6.177  1.00  0.00    -0.000 C 
BRANCH  20  21
ATOM     21  C   UNL     1      -1.044  -6.144   5.782  1.00  0.00    -0.003 C 
ATOM     22  C   UNL     1       0.187  -6.382   6.642  1.00  0.00     0.004 C 
ENDBRANCH  20  21
ENDBRANCH  19  20
ENDBRANCH  18  19
ENDBRANCH  17  18
ENDBRANCH  16  17
ENDBRANCH  12  16
ENDBRANCH   9  12
ENDBRANCH   6   9
ENDBRANCH   3   5
ENDBRANCH   2   3
BRANCH   2  23
ATOM     23  N   UNL     1       1.281   0.142   8.816  1.00  0.00    -0.332 N 
ATOM     24  C   UNL     1       1.432  -0.073  10.247  1.00  0.00     0.147 C 
BRANCH  23  25
ATOM     25  C   UNL     1       1.338   1.566   8.386  1.00  0.00     0.174 C 
BRANCH  25  26
ATOM     26  C   UNL     1       1.368   2.553   9.577  1.00  0.00     0.038 C 
BRANCH  26  27
ATOM     27  C   UNL     1       1.158   4.049   9.252  1.00  0.00    -0.015 C 
ATOM     28  C   UNL     1       0.194   4.729  10.224  1.00  0.00     0.007 C 
ATOM     29  C   UNL     1       2.461   4.837   9.148  1.00  0.00     0.007 C 
ENDBRANCH  26  27
ENDBRANCH  25  26
BRANCH  25  30
ATOM     30  C   UNL     1       0.216   1.859   7.364  1.00  0.00     0.243 C 
ATOM     31  O   UNL     1      -0.970   1.883   7.689  1.00  0.00    -0.273 OA
ATOM     32  N   UNL     1       0.631   2.083   6.076  1.00  0.00    -0.342 N 
ATOM     33  H   UNL     1       1.636   2.186   5.913  1.00  0.00     0.164 HD
BRANCH  32  34
ATOM     34  C   UNL     1      -0.294   2.349   4.971  1.00  0.00     0.175 C 
BRANCH  34  35
ATOM     35  C   UNL     1      -0.161   3.794   4.467  1.00  0.00     0.070 C 
BRANCH  35  36
ATOM     36  C   UNL     1      -0.508   4.817   5.525  1.00  0.00    -0.045 A 
ATOM     37  C   UNL     1       0.452   5.754   5.936  1.00  0.00     0.007 A 
ATOM     38  C   UNL     1      -1.774   4.831   6.124  1.00  0.00     0.007 A 
ATOM     39  C   UNL     1       0.146   6.693   6.922  1.00  0.00     0.046 A 
ATOM     40  C   UNL     1      -2.081   5.770   7.112  1.00  0.00     0.046 A 
ATOM     41  C   UNL     1      -1.117   6.694   7.501  1.00  0.00     0.115 A 
BRANCH  41  42
ATOM     42  O   UNL     1      -1.374   7.626   8.463  1.00  0.00    -0.508 OA
ATOM     43  H   UNL     1      -1.238   8.507   8.077  1.00  0.00     0.293 HD
ENDBRANCH  41  42
ENDBRANCH  35  36
ENDBRANCH  34  35
BRANCH  34  44
ATOM     44  C   UNL     1      -0.013   1.319   3.853  1.00  0.00     0.243 C 
ATOM     45  O   UNL     1       0.245   1.612   2.689  1.00  0.00    -0.273 OA
ATOM     46  N   UNL     1      -0.208   0.013   4.249  1.00  0.00    -0.341 N 
ATOM     47  H   UNL     1      -0.536  -0.173   5.194  1.00  0.00     0.164 HD
BRANCH  46  48
ATOM     48  C   UNL     1      -0.068  -1.132   3.347  1.00  0.00     0.196 C 
BRANCH  48  49
ATOM     49  C   UNL     1       0.225  -2.426   4.124  1.00  0.00     0.072 C 
BRANCH  49  50
ATOM     50  C   UNL     1       1.698  -2.766   4.154  1.00  0.00    -0.045 A 
ATOM     51  C   UNL     1       2.161  -3.798   4.983  1.00  0.00     0.007 A 
ATOM     52  C   UNL     1       2.619  -2.050   3.379  1.00  0.00     0.007 A 
ATOM     53  C   UNL     1       3.519  -4.112   5.029  1.00  0.00     0.046 A 
ATOM     54  C   UNL     1       3.979  -2.363   3.425  1.00  0.00     0.046 A 
ATOM     55  C   UNL     1       4.418  -3.393   4.250  1.00  0.00     0.115 A 
BRANCH  55  56
ATOM     56  O   UNL     1       5.737  -3.730   4.325  1.00  0.00    -0.508 OA
ATOM     57  H   UNL     1       6.177  -3.423   3.516  1.00  0.00     0.293 HD
ENDBRANCH  55  56
ENDBRANCH  49  50
ENDBRANCH  48  49
BRANCH  48  58
ATOM     58  C   UNL     1      -1.367  -1.296   2.545  1.00  0.00     0.326 C 
ATOM     59  O   UNL     1      -1.610  -0.855   1.433  1.00  0.00    -0.250 OA
BRANCH  58  60
ATOM     60  O   UNL     1      -2.309  -2.034   3.185  1.00  0.00    -0.480 OA
ATOM     61  H   UNL     1      -3.059  -2.040   2.552  1.00  0.00     0.296 HD
ENDBRANCH  58  60
ENDBRANCH  48  58
ENDBRANCH  46  48
ENDBRANCH  34  44
ENDBRANCH  32  34
ENDBRANCH  25  30
ENDBRANCH  23  25
ENDBRANCH   2  23
TORSDOF 28
ENDMDL
MODEL 34
REMARK VINA RESULT:    -5.621      3.040      9.732
REMARK INTER + INTRA:         -19.934
REMARK INTER:                 -15.435
REMARK INTRA:                  -4.499
REMARK UNBOUND:                -5.934
REMARK SMILES CCCCCCC[C@H](N)[C@H](O)C(=O)N[C@H](C)C(=O)N(C)[C@H](CC(C)C)C(=O)N[C@@H](Cc1ccc(O)cc1)C(=O)N[C@@H](Cc1ccc(O)cc1)C(=O)O
REMARK SMILES IDX 18 1 17 2 15 3 16 4 14 5 12 6 13 7 10 9 11 10 8 12 9 13 7 16
REMARK SMILES IDX 6 17 5 18 4 19 3 20 2 21 1 22 19 23 20 24 21 25 22 26 23 27
REMARK SMILES IDX 24 28 25 29 26 30 27 31 28 32 29 34 30 35 31 36 32 37 37 38
REMARK SMILES IDX 33 39 36 40 34 41 35 42 38 44 39 45 40 46 41 48 42 49 43 50
REMARK SMILES IDX 44 51 49 52 45 53 48 54 46 55 47 56 50 58 51 59 52 60
REMARK H PARENT 14 8 11 11 9 14 9 15 28 33 35 43 40 47 47 57 52 61
ROOT
ATOM      1  O   UNL     1      -1.882  -2.111   3.473  1.00  0.00    -0.272 OA
ATOM      2  C   UNL     1      -0.906  -2.275   4.219  1.00  0.00     0.245 C 
ENDROOT
BRANCH   2   3
ATOM      3  C   UNL     1      -1.081  -2.017   5.737  1.00  0.00     0.168 C 
ATOM      4  C   UNL     1      -1.703  -0.648   5.985  1.00  0.00     0.041 C 
BRANCH   3   5
ATOM      5  N   UNL     1      -1.781  -3.069   6.458  1.00  0.00    -0.342 N 
ATOM      6  C   UNL     1      -1.439  -3.420   7.746  1.00  0.00     0.251 C 
ATOM      7  O   UNL     1      -0.507  -2.912   8.361  1.00  0.00    -0.272 OA
ATOM      8  H   UNL     1      -2.550  -3.587   6.038  1.00  0.00     0.164 HD
BRANCH   6   9
ATOM      9  C   UNL     1      -2.401  -4.451   8.357  1.00  0.00     0.219 C 
BRANCH   9  10
ATOM     10  O   UNL     1      -2.864  -4.072   9.659  1.00  0.00    -0.382 OA
ATOM     11  H   UNL     1      -2.304  -3.298   9.887  1.00  0.00     0.211 HD
ENDBRANCH   9  10
BRANCH   9  12
ATOM     12  C   UNL     1      -3.594  -4.797   7.428  1.00  0.00     0.089 C 
BRANCH  12  13
ATOM     13  N   UNL     1      -3.185  -5.904   6.534  1.00  0.00    -0.325 NA
ATOM     14  H   UNL     1      -2.212  -6.149   6.727  1.00  0.00     0.119 HD
ATOM     15  H   UNL     1      -3.189  -5.568   5.568  1.00  0.00     0.119 HD
ENDBRANCH  12  13
BRANCH  12  16
ATOM     16  C   UNL     1      -4.925  -5.148   8.134  1.00  0.00     0.022 C 
BRANCH  16  17
ATOM     17  C   UNL     1      -5.800  -6.273   7.564  1.00  0.00     0.002 C 
BRANCH  17  18
ATOM     18  C   UNL     1      -7.279  -5.925   7.410  1.00  0.00     0.000 C 
BRANCH  18  19
ATOM     19  C   UNL     1      -7.963  -5.515   8.721  1.00  0.00    -0.000 C 
BRANCH  19  20
ATOM     20  C   UNL     1      -7.860  -6.539   9.856  1.00  0.00    -0.000 C 
BRANCH  20  21
ATOM     21  C   UNL     1      -7.211  -5.970  11.120  1.00  0.00    -0.003 C 
ATOM     22  C   UNL     1      -8.257  -5.454  12.096  1.00  0.00     0.004 C 
ENDBRANCH  20  21
ENDBRANCH  19  20
ENDBRANCH  18  19
ENDBRANCH  17  18
ENDBRANCH  16  17
ENDBRANCH  12  16
ENDBRANCH   9  12
ENDBRANCH   6   9
ENDBRANCH   3   5
ENDBRANCH   2   3
BRANCH   2  23
ATOM     23  N   UNL     1       0.279  -2.796   3.710  1.00  0.00    -0.332 N 
ATOM     24  C   UNL     1       1.021  -2.226   2.596  1.00  0.00     0.147 C 
BRANCH  23  25
ATOM     25  C   UNL     1       0.946  -3.943   4.386  1.00  0.00     0.174 C 
BRANCH  25  26
ATOM     26  C   UNL     1       2.410  -4.143   3.928  1.00  0.00     0.038 C 
BRANCH  26  27
ATOM     27  C   UNL     1       3.500  -4.082   5.021  1.00  0.00    -0.015 C 
ATOM     28  C   UNL     1       3.431  -5.269   5.982  1.00  0.00     0.007 C 
ATOM     29  C   UNL     1       4.912  -3.925   4.463  1.00  0.00     0.007 C 
ENDBRANCH  26  27
ENDBRANCH  25  26
BRANCH  25  30
ATOM     30  C   UNL     1       0.076  -5.214   4.261  1.00  0.00     0.243 C 
ATOM     31  O   UNL     1      -0.520  -5.692   5.225  1.00  0.00    -0.273 OA
ATOM     32  N   UNL     1       0.021  -5.774   3.010  1.00  0.00    -0.342 N 
ATOM     33  H   UNL     1       0.425  -5.242   2.235  1.00  0.00     0.164 HD
BRANCH  32  34
ATOM     34  C   UNL     1      -0.732  -6.995   2.711  1.00  0.00     0.175 C 
BRANCH  34  35
ATOM     35  C   UNL     1      -2.013  -6.683   1.923  1.00  0.00     0.070 C 
BRANCH  35  36
ATOM     36  C   UNL     1      -3.099  -7.713   2.139  1.00  0.00    -0.045 A 
ATOM     37  C   UNL     1      -3.772  -7.776   3.369  1.00  0.00     0.007 A 
ATOM     38  C   UNL     1      -3.431  -8.630   1.133  1.00  0.00     0.007 A 
ATOM     39  C   UNL     1      -4.765  -8.732   3.583  1.00  0.00     0.046 A 
ATOM     40  C   UNL     1      -4.425  -9.588   1.347  1.00  0.00     0.046 A 
ATOM     41  C   UNL     1      -5.084  -9.629   2.571  1.00  0.00     0.115 A 
BRANCH  41  42
ATOM     42  O   UNL     1      -6.058 -10.550   2.821  1.00  0.00    -0.508 OA
ATOM     43  H   UNL     1      -6.109 -10.686   3.782  1.00  0.00     0.293 HD
ENDBRANCH  41  42
ENDBRANCH  35  36
ENDBRANCH  34  35
BRANCH  34  44
ATOM     44  C   UNL     1       0.201  -7.955   1.939  1.00  0.00     0.243 C 
ATOM     45  O   UNL     1       0.863  -8.848   2.461  1.00  0.00    -0.273 OA
ATOM     46  N   UNL     1       0.331  -7.639   0.603  1.00  0.00    -0.341 N 
ATOM     47  H   UNL     1      -0.148  -6.818   0.241  1.00  0.00     0.164 HD
BRANCH  46  48
ATOM     48  C   UNL     1       1.212  -8.363  -0.315  1.00  0.00     0.196 C 
BRANCH  48  49
ATOM     49  C   UNL     1       0.407  -9.127  -1.379  1.00  0.00     0.072 C 
BRANCH  49  50
ATOM     50  C   UNL     1       0.038 -10.525  -0.937  1.00  0.00    -0.045 A 
ATOM     51  C   UNL     1       0.802 -11.619  -1.368  1.00  0.00     0.007 A 
ATOM     52  C   UNL     1      -1.074 -10.752  -0.116  1.00  0.00     0.007 A 
ATOM     53  C   UNL     1       0.464 -12.915  -0.978  1.00  0.00     0.046 A 
ATOM     54  C   UNL     1      -1.414 -12.049   0.274  1.00  0.00     0.046 A 
ATOM     55  C   UNL     1      -0.640 -13.120  -0.160  1.00  0.00     0.115 A 
BRANCH  55  56
ATOM     56  O   UNL     1      -0.938 -14.402   0.197  1.00  0.00    -0.508 OA
ATOM     57  H   UNL     1      -1.504 -14.788  -0.491  1.00  0.00     0.293 HD
ENDBRANCH  55  56
ENDBRANCH  49  50
ENDBRANCH  48  49
BRANCH  48  58
ATOM     58  C   UNL     1       2.151  -7.361  -1.001  1.00  0.00     0.326 C 
ATOM     59  O   UNL     1       1.835  -6.374  -1.644  1.00  0.00    -0.250 OA
BRANCH  58  60
ATOM     60  O   UNL     1       3.466  -7.647  -0.828  1.00  0.00    -0.480 OA
ATOM     61  H   UNL     1       3.621  -7.437   0.118  1.00  0.00     0.296 HD
ENDBRANCH  58  60
ENDBRANCH  48  58
ENDBRANCH  46  48
ENDBRANCH  34  44
ENDBRANCH  32  34
ENDBRANCH  25  30
ENDBRANCH  23  25
ENDBRANCH   2  23
TORSDOF 28
ENDMDL
MODEL 35
REMARK VINA RESULT:    -5.612      3.968      8.817
REMARK INTER + INTRA:         -19.912
REMARK INTER:                 -14.019
REMARK INTRA:                  -5.894
REMARK UNBOUND:                -5.934
REMARK SMILES CCCCCCC[C@H](N)[C@H](O)C(=O)N[C@H](C)C(=O)N(C)[C@H](CC(C)C)C(=O)N[C@@H](Cc1ccc(O)cc1)C(=O)N[C@@H](Cc1ccc(O)cc1)C(=O)O
REMARK SMILES IDX 18 1 17 2 15 3 16 4 14 5 12 6 13 7 10 9 11 10 8 12 9 13 7 16
REMARK SMILES IDX 6 17 5 18 4 19 3 20 2 21 1 22 19 23 20 24 21 25 22 26 23 27
REMARK SMILES IDX 24 28 25 29 26 30 27 31 28 32 29 34 30 35 31 36 32 37 37 38
REMARK SMILES IDX 33 39 36 40 34 41 35 42 38 44 39 45 40 46 41 48 42 49 43 50
REMARK SMILES IDX 44 51 49 52 45 53 48 54 46 55 47 56 50 58 51 59 52 60
REMARK H PARENT 14 8 11 11 9 14 9 15 28 33 35 43 40 47 47 57 52 61
ROOT
ATOM      1  O   UNL     1      -1.136   2.817   4.923  1.00  0.00    -0.272 OA
ATOM      2  C   UNL     1       0.092   2.985   4.933  1.00  0.00     0.245 C 
ENDROOT
BRANCH   2   3
ATOM      3  C   UNL     1       0.747   3.731   3.744  1.00  0.00     0.168 C 
ATOM      4  C   UNL     1       1.124   5.155   4.138  1.00  0.00     0.041 C 
BRANCH   3   5
ATOM      5  N   UNL     1       1.859   3.029   3.121  1.00  0.00    -0.342 N 
ATOM      6  C   UNL     1       2.052   3.038   1.755  1.00  0.00     0.251 C 
ATOM      7  O   UNL     1       1.293   3.594   0.969  1.00  0.00    -0.272 OA
ATOM      8  H   UNL     1       2.536   2.503   3.669  1.00  0.00     0.164 HD
BRANCH   6   9
ATOM      9  C   UNL     1       3.364   2.354   1.336  1.00  0.00     0.219 C 
BRANCH   9  10
ATOM     10  O   UNL     1       4.173   1.977   2.457  1.00  0.00    -0.382 OA
ATOM     11  H   UNL     1       3.574   2.100   3.226  1.00  0.00     0.211 HD
ENDBRANCH   9  10
BRANCH   9  12
ATOM     12  C   UNL     1       3.145   1.149   0.384  1.00  0.00     0.089 C 
BRANCH  12  13
ATOM     13  N   UNL     1       1.850   0.516   0.723  1.00  0.00    -0.325 NA
ATOM     14  H   UNL     1       1.951  -0.013   1.592  1.00  0.00     0.119 HD
ATOM     15  H   UNL     1       1.627  -0.183   0.010  1.00  0.00     0.119 HD
ENDBRANCH  12  13
BRANCH  12  16
ATOM     16  C   UNL     1       3.203   1.462  -1.130  1.00  0.00     0.022 C 
BRANCH  16  17
ATOM     17  C   UNL     1       4.167   0.665  -2.020  1.00  0.00     0.002 C 
BRANCH  17  18
ATOM     18  C   UNL     1       4.955   1.501  -3.027  1.00  0.00     0.000 C 
BRANCH  18  19
ATOM     19  C   UNL     1       4.619   2.998  -2.994  1.00  0.00    -0.000 C 
BRANCH  19  20
ATOM     20  C   UNL     1       5.830   3.936  -3.005  1.00  0.00    -0.000 C 
BRANCH  20  21
ATOM     21  C   UNL     1       5.479   5.372  -2.607  1.00  0.00    -0.003 C 
ATOM     22  C   UNL     1       4.124   5.785  -3.160  1.00  0.00     0.004 C 
ENDBRANCH  20  21
ENDBRANCH  19  20
ENDBRANCH  18  19
ENDBRANCH  17  18
ENDBRANCH  16  17
ENDBRANCH  12  16
ENDBRANCH   9  12
ENDBRANCH   6   9
ENDBRANCH   3   5
ENDBRANCH   2   3
BRANCH   2  23
ATOM     23  N   UNL     1       0.835   2.619   6.050  1.00  0.00    -0.332 N 
ATOM     24  C   UNL     1       1.314   3.547   7.064  1.00  0.00     0.147 C 
BRANCH  23  25
ATOM     25  C   UNL     1       1.085   1.182   6.348  1.00  0.00     0.174 C 
BRANCH  25  26
ATOM     26  C   UNL     1       1.287   0.906   7.856  1.00  0.00     0.038 C 
BRANCH  26  27
ATOM     27  C   UNL     1       0.272  -0.040   8.537  1.00  0.00    -0.015 C 
ATOM     28  C   UNL     1      -0.544  -0.845   7.527  1.00  0.00     0.007 C 
ATOM     29  C   UNL     1       0.905  -0.963   9.575  1.00  0.00     0.007 C 
ENDBRANCH  26  27
ENDBRANCH  25  26
BRANCH  25  30
ATOM     30  C   UNL     1       2.230   0.646   5.459  1.00  0.00     0.243 C 
ATOM     31  O   UNL     1       3.219   1.326   5.192  1.00  0.00    -0.273 OA
ATOM     32  N   UNL     1       2.066  -0.631   4.985  1.00  0.00    -0.342 N 
ATOM     33  H   UNL     1       1.290  -1.180   5.364  1.00  0.00     0.164 HD
BRANCH  32  34
ATOM     34  C   UNL     1       3.036  -1.291   4.107  1.00  0.00     0.175 C 
BRANCH  34  35
ATOM     35  C   UNL     1       3.993  -2.188   4.907  1.00  0.00     0.070 C 
BRANCH  35  36
ATOM     36  C   UNL     1       3.276  -3.290   5.653  1.00  0.00    -0.045 A 
ATOM     37  C   UNL     1       2.517  -2.987   6.794  1.00  0.00     0.007 A 
ATOM     38  C   UNL     1       3.375  -4.624   5.236  1.00  0.00     0.007 A 
ATOM     39  C   UNL     1       1.863  -3.999   7.497  1.00  0.00     0.046 A 
ATOM     40  C   UNL     1       2.722  -5.638   5.940  1.00  0.00     0.046 A 
ATOM     41  C   UNL     1       1.970  -5.315   7.065  1.00  0.00     0.115 A 
BRANCH  41  42
ATOM     42  O   UNL     1       1.318  -6.274   7.782  1.00  0.00    -0.508 OA
ATOM     43  H   UNL     1       1.563  -7.143   7.422  1.00  0.00     0.293 HD
ENDBRANCH  41  42
ENDBRANCH  35  36
ENDBRANCH  34  35
BRANCH  34  44
ATOM     44  C   UNL     1       2.251  -2.090   3.042  1.00  0.00     0.243 C 
ATOM     45  O   UNL     1       2.650  -2.303   1.901  1.00  0.00    -0.273 OA
ATOM     46  N   UNL     1       0.980  -2.442   3.446  1.00  0.00    -0.341 N 
ATOM     47  H   UNL     1       0.651  -2.140   4.360  1.00  0.00     0.164 HD
BRANCH  46  48
ATOM     48  C   UNL     1       0.026  -3.143   2.584  1.00  0.00     0.196 C 
BRANCH  48  49
ATOM     49  C   UNL     1      -0.886  -4.075   3.400  1.00  0.00     0.072 C 
BRANCH  49  50
ATOM     50  C   UNL     1      -0.283  -5.446   3.604  1.00  0.00    -0.045 A 
ATOM     51  C   UNL     1       0.723  -5.903   2.741  1.00  0.00     0.007 A 
ATOM     52  C   UNL     1      -0.730  -6.283   4.635  1.00  0.00     0.007 A 
ATOM     53  C   UNL     1       1.277  -7.172   2.912  1.00  0.00     0.046 A 
ATOM     54  C   UNL     1      -0.176  -7.554   4.805  1.00  0.00     0.046 A 
ATOM     55  C   UNL     1       0.824  -7.987   3.941  1.00  0.00     0.115 A 
BRANCH  55  56
ATOM     56  O   UNL     1       1.390  -9.221   4.073  1.00  0.00    -0.508 OA
ATOM     57  H   UNL     1       0.854  -9.739   4.693  1.00  0.00     0.293 HD
ENDBRANCH  55  56
ENDBRANCH  49  50
ENDBRANCH  48  49
BRANCH  48  58
ATOM     58  C   UNL     1      -0.829  -2.108   1.840  1.00  0.00     0.326 C 
ATOM     59  O   UNL     1      -1.945  -1.717   2.141  1.00  0.00    -0.250 OA
BRANCH  58  60
ATOM     60  O   UNL     1      -0.222  -1.594   0.741  1.00  0.00    -0.480 OA
ATOM     61  H   UNL     1       0.545  -2.193   0.605  1.00  0.00     0.296 HD
ENDBRANCH  58  60
ENDBRANCH  48  58
ENDBRANCH  46  48
ENDBRANCH  34  44
ENDBRANCH  32  34
ENDBRANCH  25  30
ENDBRANCH  23  25
ENDBRANCH   2  23
TORSDOF 28
ENDMDL
MODEL 36
REMARK VINA RESULT:    -5.597      2.497      7.744
REMARK INTER + INTRA:         -19.875
REMARK INTER:                 -14.672
REMARK INTRA:                  -5.204
REMARK UNBOUND:                -5.934
REMARK SMILES CCCCCCC[C@H](N)[C@H](O)C(=O)N[C@H](C)C(=O)N(C)[C@H](CC(C)C)C(=O)N[C@@H](Cc1ccc(O)cc1)C(=O)N[C@@H](Cc1ccc(O)cc1)C(=O)O
REMARK SMILES IDX 18 1 17 2 15 3 16 4 14 5 12 6 13 7 10 9 11 10 8 12 9 13 7 16
REMARK SMILES IDX 6 17 5 18 4 19 3 20 2 21 1 22 19 23 20 24 21 25 22 26 23 27
REMARK SMILES IDX 24 28 25 29 26 30 27 31 28 32 29 34 30 35 31 36 32 37 37 38
REMARK SMILES IDX 33 39 36 40 34 41 35 42 38 44 39 45 40 46 41 48 42 49 43 50
REMARK SMILES IDX 44 51 49 52 45 53 48 54 46 55 47 56 50 58 51 59 52 60
REMARK H PARENT 14 8 11 11 9 14 9 15 28 33 35 43 40 47 47 57 52 61
ROOT
ATOM      1  O   UNL     1      -1.348  -3.611   2.536  1.00  0.00    -0.272 OA
ATOM      2  C   UNL     1      -0.130  -3.705   2.323  1.00  0.00     0.245 C 
ENDROOT
BRANCH   2   3
ATOM      3  C   UNL     1       0.691  -2.406   2.129  1.00  0.00     0.168 C 
ATOM      4  C   UNL     1      -0.083  -1.195   2.638  1.00  0.00     0.041 C 
BRANCH   3   5
ATOM      5  N   UNL     1       2.042  -2.451   2.666  1.00  0.00    -0.342 N 
ATOM      6  C   UNL     1       3.116  -1.926   1.979  1.00  0.00     0.251 C 
ATOM      7  O   UNL     1       3.027  -1.427   0.862  1.00  0.00    -0.272 OA
ATOM      8  H   UNL     1       2.246  -2.872   3.569  1.00  0.00     0.164 HD
BRANCH   6   9
ATOM      9  C   UNL     1       4.417  -1.957   2.797  1.00  0.00     0.219 C 
BRANCH   9  10
ATOM     10  O   UNL     1       5.589  -1.950   1.972  1.00  0.00    -0.382 OA
ATOM     11  H   UNL     1       5.983  -2.837   2.123  1.00  0.00     0.211 HD
ENDBRANCH   9  10
BRANCH   9  12
ATOM     12  C   UNL     1       4.491  -0.837   3.867  1.00  0.00     0.089 C 
BRANCH  12  13
ATOM     13  N   UNL     1       3.353   0.087   3.655  1.00  0.00    -0.325 NA
ATOM     14  H   UNL     1       2.543  -0.445   3.331  1.00  0.00     0.119 HD
ATOM     15  H   UNL     1       3.580   0.722   2.886  1.00  0.00     0.119 HD
ENDBRANCH  12  13
BRANCH  12  16
ATOM     16  C   UNL     1       4.525  -1.308   5.341  1.00  0.00     0.022 C 
BRANCH  16  17
ATOM     17  C   UNL     1       4.145  -0.318   6.450  1.00  0.00     0.002 C 
BRANCH  17  18
ATOM     18  C   UNL     1       3.108  -0.834   7.446  1.00  0.00     0.000 C 
BRANCH  18  19
ATOM     19  C   UNL     1       2.186  -1.923   6.881  1.00  0.00    -0.000 C 
BRANCH  19  20
ATOM     20  C   UNL     1       1.544  -2.838   7.927  1.00  0.00    -0.000 C 
BRANCH  20  21
ATOM     21  C   UNL     1       0.153  -3.331   7.519  1.00  0.00    -0.003 C 
ATOM     22  C   UNL     1      -0.169  -2.955   6.081  1.00  0.00     0.004 C 
ENDBRANCH  20  21
ENDBRANCH  19  20
ENDBRANCH  18  19
ENDBRANCH  17  18
ENDBRANCH  16  17
ENDBRANCH  12  16
ENDBRANCH   9  12
ENDBRANCH   6   9
ENDBRANCH   3   5
ENDBRANCH   2   3
BRANCH   2  23
ATOM     23  N   UNL     1       0.493  -4.947   2.382  1.00  0.00    -0.332 N 
ATOM     24  C   UNL     1       1.220  -5.559   1.280  1.00  0.00     0.147 C 
BRANCH  23  25
ATOM     25  C   UNL     1       0.558  -5.694   3.668  1.00  0.00     0.174 C 
BRANCH  25  26
ATOM     26  C   UNL     1       2.008  -5.968   4.132  1.00  0.00     0.038 C 
BRANCH  26  27
ATOM     27  C   UNL     1       2.357  -5.602   5.592  1.00  0.00    -0.015 C 
ATOM     28  C   UNL     1       2.113  -6.760   6.559  1.00  0.00     0.007 C 
ATOM     29  C   UNL     1       3.771  -5.052   5.758  1.00  0.00     0.007 C 
ENDBRANCH  26  27
ENDBRANCH  25  26
BRANCH  25  30
ATOM     30  C   UNL     1      -0.321  -6.964   3.591  1.00  0.00     0.243 C 
ATOM     31  O   UNL     1       0.165  -8.093   3.631  1.00  0.00    -0.273 OA
ATOM     32  N   UNL     1      -1.669  -6.746   3.470  1.00  0.00    -0.342 N 
ATOM     33  H   UNL     1      -2.006  -5.787   3.586  1.00  0.00     0.164 HD
BRANCH  32  34
ATOM     34  C   UNL     1      -2.649  -7.829   3.357  1.00  0.00     0.175 C 
BRANCH  34  35
ATOM     35  C   UNL     1      -4.038  -7.379   3.836  1.00  0.00     0.070 C 
BRANCH  35  36
ATOM     36  C   UNL     1      -4.596  -8.265   4.926  1.00  0.00    -0.045 A 
ATOM     37  C   UNL     1      -4.978  -7.708   6.156  1.00  0.00     0.007 A 
ATOM     38  C   UNL     1      -4.719  -9.648   4.737  1.00  0.00     0.007 A 
ATOM     39  C   UNL     1      -5.481  -8.520   7.173  1.00  0.00     0.046 A 
ATOM     40  C   UNL     1      -5.221 -10.461   5.755  1.00  0.00     0.046 A 
ATOM     41  C   UNL     1      -5.599  -9.888   6.965  1.00  0.00     0.115 A 
BRANCH  41  42
ATOM     42  O   UNL     1      -6.093 -10.646   7.985  1.00  0.00    -0.508 OA
ATOM     43  H   UNL     1      -6.868 -10.192   8.355  1.00  0.00     0.293 HD
ENDBRANCH  41  42
ENDBRANCH  35  36
ENDBRANCH  34  35
BRANCH  34  44
ATOM     44  C   UNL     1      -2.671  -8.303   1.886  1.00  0.00     0.243 C 
ATOM     45  O   UNL     1      -3.184  -7.676   0.963  1.00  0.00    -0.273 OA
ATOM     46  N   UNL     1      -2.171  -9.576   1.712  1.00  0.00    -0.341 N 
ATOM     47  H   UNL     1      -1.865 -10.102   2.526  1.00  0.00     0.164 HD
BRANCH  46  48
ATOM     48  C   UNL     1      -2.151 -10.264   0.419  1.00  0.00     0.196 C 
BRANCH  48  49
ATOM     49  C   UNL     1      -0.904 -11.153   0.277  1.00  0.00     0.072 C 
BRANCH  49  50
ATOM     50  C   UNL     1       0.288 -10.400  -0.270  1.00  0.00    -0.045 A 
ATOM     51  C   UNL     1       0.639 -10.533  -1.621  1.00  0.00     0.007 A 
ATOM     52  C   UNL     1       1.066  -9.582   0.559  1.00  0.00     0.007 A 
ATOM     53  C   UNL     1       1.744  -9.854  -2.134  1.00  0.00     0.046 A 
ATOM     54  C   UNL     1       2.174  -8.903   0.046  1.00  0.00     0.046 A 
ATOM     55  C   UNL     1       2.503  -9.044  -1.298  1.00  0.00     0.115 A 
BRANCH  55  56
ATOM     56  O   UNL     1       3.576  -8.399  -1.837  1.00  0.00    -0.508 OA
ATOM     57  H   UNL     1       3.997  -8.991  -2.480  1.00  0.00     0.293 HD
ENDBRANCH  55  56
ENDBRANCH  49  50
ENDBRANCH  48  49
BRANCH  48  58
ATOM     58  C   UNL     1      -3.415 -11.126   0.292  1.00  0.00     0.326 C 
ATOM     59  O   UNL     1      -4.572 -10.766   0.434  1.00  0.00    -0.250 OA
BRANCH  58  60
ATOM     60  O   UNL     1      -3.158 -12.419  -0.026  1.00  0.00    -0.480 OA
ATOM     61  H   UNL     1      -3.296 -12.893   0.823  1.00  0.00     0.296 HD
ENDBRANCH  58  60
ENDBRANCH  48  58
ENDBRANCH  46  48
ENDBRANCH  34  44
ENDBRANCH  32  34
ENDBRANCH  25  30
ENDBRANCH  23  25
ENDBRANCH   2  23
TORSDOF 28
ENDMDL
MODEL 37
REMARK VINA RESULT:    -5.597      5.263     10.280
REMARK INTER + INTRA:         -19.874
REMARK INTER:                 -16.555
REMARK INTRA:                  -3.320
REMARK UNBOUND:                -5.934
REMARK SMILES CCCCCCC[C@H](N)[C@H](O)C(=O)N[C@H](C)C(=O)N(C)[C@H](CC(C)C)C(=O)N[C@@H](Cc1ccc(O)cc1)C(=O)N[C@@H](Cc1ccc(O)cc1)C(=O)O
REMARK SMILES IDX 18 1 17 2 15 3 16 4 14 5 12 6 13 7 10 9 11 10 8 12 9 13 7 16
REMARK SMILES IDX 6 17 5 18 4 19 3 20 2 21 1 22 19 23 20 24 21 25 22 26 23 27
REMARK SMILES IDX 24 28 25 29 26 30 27 31 28 32 29 34 30 35 31 36 32 37 37 38
REMARK SMILES IDX 33 39 36 40 34 41 35 42 38 44 39 45 40 46 41 48 42 49 43 50
REMARK SMILES IDX 44 51 49 52 45 53 48 54 46 55 47 56 50 58 51 59 52 60
REMARK H PARENT 14 8 11 11 9 14 9 15 28 33 35 43 40 47 47 57 52 61
ROOT
ATOM      1  O   UNL     1       7.562  -4.836  -1.589  1.00  0.00    -0.272 OA
ATOM      2  C   UNL     1       8.633  -4.625  -2.178  1.00  0.00     0.245 C 
ENDROOT
BRANCH   2   3
ATOM      3  C   UNL     1       8.776  -5.099  -3.646  1.00  0.00     0.168 C 
ATOM      4  C   UNL     1      10.228  -5.430  -3.970  1.00  0.00     0.041 C 
BRANCH   3   5
ATOM      5  N   UNL     1       7.876  -6.174  -4.032  1.00  0.00    -0.342 N 
ATOM      6  C   UNL     1       7.344  -6.259  -5.301  1.00  0.00     0.251 C 
ATOM      7  O   UNL     1       7.550  -5.426  -6.178  1.00  0.00    -0.272 OA
ATOM      8  H   UNL     1       7.603  -6.906  -3.379  1.00  0.00     0.164 HD
BRANCH   6   9
ATOM      9  C   UNL     1       6.539  -7.549  -5.523  1.00  0.00     0.219 C 
BRANCH   9  10
ATOM     10  O   UNL     1       6.052  -8.115  -4.300  1.00  0.00    -0.382 OA
ATOM     11  H   UNL     1       6.638  -8.891  -4.156  1.00  0.00     0.211 HD
ENDBRANCH   9  10
BRANCH   9  12
ATOM     12  C   UNL     1       5.387  -7.380  -6.548  1.00  0.00     0.089 C 
BRANCH  12  13
ATOM     13  N   UNL     1       5.476  -8.477  -7.538  1.00  0.00    -0.325 NA
ATOM     14  H   UNL     1       6.395  -8.917  -7.470  1.00  0.00     0.119 HD
ATOM     15  H   UNL     1       5.440  -8.078  -8.479  1.00  0.00     0.119 HD
ENDBRANCH  12  13
BRANCH  12  16
ATOM     16  C   UNL     1       3.958  -7.312  -5.956  1.00  0.00     0.022 C 
BRANCH  16  17
ATOM     17  C   UNL     1       2.991  -8.477  -6.205  1.00  0.00     0.002 C 
BRANCH  17  18
ATOM     18  C   UNL     1       2.672  -9.324  -4.975  1.00  0.00     0.000 C 
BRANCH  18  19
ATOM     19  C   UNL     1       2.362  -8.504  -3.715  1.00  0.00    -0.000 C 
BRANCH  19  20
ATOM     20  C   UNL     1       3.203  -8.858  -2.486  1.00  0.00    -0.000 C 
BRANCH  20  21
ATOM     21  C   UNL     1       2.356  -9.262  -1.276  1.00  0.00    -0.003 C 
ATOM     22  C   UNL     1       3.183 -10.017  -0.247  1.00  0.00     0.004 C 
ENDBRANCH  20  21
ENDBRANCH  19  20
ENDBRANCH  18  19
ENDBRANCH  17  18
ENDBRANCH  16  17
ENDBRANCH  12  16
ENDBRANCH   9  12
ENDBRANCH   6   9
ENDBRANCH   3   5
ENDBRANCH   2   3
BRANCH   2  23
ATOM     23  N   UNL     1       9.628  -3.872  -1.565  1.00  0.00    -0.332 N 
ATOM     24  C   UNL     1      10.454  -4.336  -0.461  1.00  0.00     0.147 C 
BRANCH  23  25
ATOM     25  C   UNL     1      10.004  -2.538  -2.111  1.00  0.00     0.174 C 
BRANCH  25  26
ATOM     26  C   UNL     1      11.325  -1.995  -1.517  1.00  0.00     0.038 C 
BRANCH  26  27
ATOM     27  C   UNL     1      11.889  -0.697  -2.135  1.00  0.00    -0.015 C 
ATOM     28  C   UNL     1      11.747   0.505  -1.201  1.00  0.00     0.007 C 
ATOM     29  C   UNL     1      13.330  -0.832  -2.621  1.00  0.00     0.007 C 
ENDBRANCH  26  27
ENDBRANCH  25  26
BRANCH  25  30
ATOM     30  C   UNL     1       8.816  -1.557  -1.984  1.00  0.00     0.243 C 
ATOM     31  O   UNL     1       8.518  -0.777  -2.887  1.00  0.00    -0.273 OA
ATOM     32  N   UNL     1       8.125  -1.612  -0.801  1.00  0.00    -0.342 N 
ATOM     33  H   UNL     1       8.343  -2.380  -0.160  1.00  0.00     0.164 HD
BRANCH  32  34
ATOM     34  C   UNL     1       6.989  -0.738  -0.495  1.00  0.00     0.175 C 
BRANCH  34  35
ATOM     35  C   UNL     1       5.719  -1.195  -1.230  1.00  0.00     0.070 C 
BRANCH  35  36
ATOM     36  C   UNL     1       4.843  -0.039  -1.657  1.00  0.00    -0.045 A 
ATOM     37  C   UNL     1       3.719   0.309  -0.893  1.00  0.00     0.007 A 
ATOM     38  C   UNL     1       5.124   0.683  -2.825  1.00  0.00     0.007 A 
ATOM     39  C   UNL     1       2.897   1.366  -1.286  1.00  0.00     0.046 A 
ATOM     40  C   UNL     1       4.300   1.740  -3.220  1.00  0.00     0.046 A 
ATOM     41  C   UNL     1       3.194   2.073  -2.445  1.00  0.00     0.115 A 
BRANCH  41  42
ATOM     42  O   UNL     1       2.363   3.096  -2.796  1.00  0.00    -0.508 OA
ATOM     43  H   UNL     1       2.482   3.818  -2.156  1.00  0.00     0.293 HD
ENDBRANCH  41  42
ENDBRANCH  35  36
ENDBRANCH  34  35
BRANCH  34  44
ATOM     44  C   UNL     1       6.795  -0.725   1.038  1.00  0.00     0.243 C 
ATOM     45  O   UNL     1       7.384   0.032   1.805  1.00  0.00    -0.273 OA
ATOM     46  N   UNL     1       5.984  -1.741   1.497  1.00  0.00    -0.341 N 
ATOM     47  H   UNL     1       5.612  -2.415   0.833  1.00  0.00     0.164 HD
BRANCH  46  48
ATOM     48  C   UNL     1       5.708  -1.972   2.917  1.00  0.00     0.196 C 
BRANCH  48  49
ATOM     49  C   UNL     1       4.196  -2.048   3.188  1.00  0.00     0.072 C 
BRANCH  49  50
ATOM     50  C   UNL     1       3.499  -3.067   2.316  1.00  0.00    -0.045 A 
ATOM     51  C   UNL     1       3.166  -2.743   0.993  1.00  0.00     0.007 A 
ATOM     52  C   UNL     1       3.159  -4.331   2.815  1.00  0.00     0.007 A 
ATOM     53  C   UNL     1       2.511  -3.671   0.182  1.00  0.00     0.046 A 
ATOM     54  C   UNL     1       2.502  -5.259   2.004  1.00  0.00     0.046 A 
ATOM     55  C   UNL     1       2.184  -4.921   0.693  1.00  0.00     0.115 A 
BRANCH  55  56
ATOM     56  O   UNL     1       1.543  -5.798  -0.131  1.00  0.00    -0.508 OA
ATOM     57  H   UNL     1       1.357  -6.608   0.370  1.00  0.00     0.293 HD
ENDBRANCH  55  56
ENDBRANCH  49  50
ENDBRANCH  48  49
BRANCH  48  58
ATOM     58  C   UNL     1       6.375  -3.285   3.348  1.00  0.00     0.326 C 
ATOM     59  O   UNL     1       6.270  -3.849   4.426  1.00  0.00    -0.250 OA
BRANCH  58  60
ATOM     60  O   UNL     1       7.145  -3.845   2.381  1.00  0.00    -0.480 OA
ATOM     61  H   UNL     1       7.988  -3.346   2.446  1.00  0.00     0.296 HD
ENDBRANCH  58  60
ENDBRANCH  48  58
ENDBRANCH  46  48
ENDBRANCH  34  44
ENDBRANCH  32  34
ENDBRANCH  25  30
ENDBRANCH  23  25
ENDBRANCH   2  23
TORSDOF 28
ENDMDL
MODEL 38
REMARK VINA RESULT:    -5.594      3.015      4.221
REMARK INTER + INTRA:         -19.868
REMARK INTER:                 -15.670
REMARK INTRA:                  -4.198
REMARK UNBOUND:                -5.934
REMARK SMILES CCCCCCC[C@H](N)[C@H](O)C(=O)N[C@H](C)C(=O)N(C)[C@H](CC(C)C)C(=O)N[C@@H](Cc1ccc(O)cc1)C(=O)N[C@@H](Cc1ccc(O)cc1)C(=O)O
REMARK SMILES IDX 18 1 17 2 15 3 16 4 14 5 12 6 13 7 10 9 11 10 8 12 9 13 7 16
REMARK SMILES IDX 6 17 5 18 4 19 3 20 2 21 1 22 19 23 20 24 21 25 22 26 23 27
REMARK SMILES IDX 24 28 25 29 26 30 27 31 28 32 29 34 30 35 31 36 32 37 37 38
REMARK SMILES IDX 33 39 36 40 34 41 35 42 38 44 39 45 40 46 41 48 42 49 43 50
REMARK SMILES IDX 44 51 49 52 45 53 48 54 46 55 47 56 50 58 51 59 52 60
REMARK H PARENT 14 8 11 11 9 14 9 15 28 33 35 43 40 47 47 57 52 61
ROOT
ATOM      1  O   UNL     1      -3.654  -7.328   2.039  1.00  0.00    -0.272 OA
ATOM      2  C   UNL     1      -3.314  -8.315   2.709  1.00  0.00     0.245 C 
ENDROOT
BRANCH   2   3
ATOM      3  C   UNL     1      -1.836  -8.777   2.650  1.00  0.00     0.168 C 
ATOM      4  C   UNL     1      -1.628  -9.783   1.524  1.00  0.00     0.041 C 
BRANCH   3   5
ATOM      5  N   UNL     1      -0.861  -7.699   2.601  1.00  0.00    -0.342 N 
ATOM      6  C   UNL     1      -0.632  -6.975   1.450  1.00  0.00     0.251 C 
ATOM      7  O   UNL     1      -1.192  -7.206   0.384  1.00  0.00    -0.272 OA
ATOM      8  H   UNL     1      -0.309  -7.438   3.415  1.00  0.00     0.164 HD
BRANCH   6   9
ATOM      9  C   UNL     1       0.332  -5.799   1.670  1.00  0.00     0.219 C 
BRANCH   9  10
ATOM     10  O   UNL     1       1.078  -5.468   0.492  1.00  0.00    -0.382 OA
ATOM     11  H   UNL     1       1.894  -5.051   0.845  1.00  0.00     0.211 HD
ENDBRANCH   9  10
BRANCH   9  12
ATOM     12  C   UNL     1      -0.364  -4.541   2.251  1.00  0.00     0.089 C 
BRANCH  12  13
ATOM     13  N   UNL     1      -1.713  -4.929   2.722  1.00  0.00    -0.325 NA
ATOM     14  H   UNL     1      -2.354  -4.948   1.927  1.00  0.00     0.119 HD
ATOM     15  H   UNL     1      -2.073  -4.195   3.337  1.00  0.00     0.119 HD
ENDBRANCH  12  13
BRANCH  12  16
ATOM     16  C   UNL     1       0.400  -3.802   3.377  1.00  0.00     0.022 C 
BRANCH  16  17
ATOM     17  C   UNL     1       0.972  -2.405   3.099  1.00  0.00     0.002 C 
BRANCH  17  18
ATOM     18  C   UNL     1       1.562  -2.216   1.703  1.00  0.00     0.000 C 
BRANCH  18  19
ATOM     19  C   UNL     1       3.087  -2.046   1.687  1.00  0.00    -0.000 C 
BRANCH  19  20
ATOM     20  C   UNL     1       3.783  -2.300   3.027  1.00  0.00    -0.000 C 
BRANCH  20  21
ATOM     21  C   UNL     1       4.539  -3.631   3.067  1.00  0.00    -0.003 C 
ATOM     22  C   UNL     1       5.300  -3.798   4.373  1.00  0.00     0.004 C 
ENDBRANCH  20  21
ENDBRANCH  19  20
ENDBRANCH  18  19
ENDBRANCH  17  18
ENDBRANCH  16  17
ENDBRANCH  12  16
ENDBRANCH   9  12
ENDBRANCH   6   9
ENDBRANCH   3   5
ENDBRANCH   2   3
BRANCH   2  23
ATOM     23  N   UNL     1      -4.219  -8.908   3.582  1.00  0.00    -0.332 N 
ATOM     24  C   UNL     1      -5.259  -9.844   3.184  1.00  0.00     0.147 C 
BRANCH  23  25
ATOM     25  C   UNL     1      -4.087  -8.705   5.051  1.00  0.00     0.174 C 
BRANCH  25  26
ATOM     26  C   UNL     1      -4.959  -9.682   5.875  1.00  0.00     0.038 C 
BRANCH  26  27
ATOM     27  C   UNL     1      -4.241 -10.890   6.517  1.00  0.00    -0.015 C 
ATOM     28  C   UNL     1      -4.841 -12.226   6.081  1.00  0.00     0.007 C 
ATOM     29  C   UNL     1      -2.730 -10.884   6.301  1.00  0.00     0.007 C 
ENDBRANCH  26  27
ENDBRANCH  25  26
BRANCH  25  30
ATOM     30  C   UNL     1      -4.316  -7.218   5.406  1.00  0.00     0.243 C 
ATOM     31  O   UNL     1      -5.273  -6.584   4.964  1.00  0.00    -0.273 OA
ATOM     32  N   UNL     1      -3.382  -6.656   6.238  1.00  0.00    -0.342 N 
ATOM     33  H   UNL     1      -2.700  -7.280   6.674  1.00  0.00     0.164 HD
BRANCH  32  34
ATOM     34  C   UNL     1      -3.424  -5.252   6.657  1.00  0.00     0.175 C 
BRANCH  34  35
ATOM     35  C   UNL     1      -4.015  -5.108   8.068  1.00  0.00     0.070 C 
BRANCH  35  36
ATOM     36  C   UNL     1      -4.807  -3.832   8.243  1.00  0.00    -0.045 A 
ATOM     37  C   UNL     1      -4.712  -2.810   7.286  1.00  0.00     0.007 A 
ATOM     38  C   UNL     1      -5.624  -3.641   9.365  1.00  0.00     0.007 A 
ATOM     39  C   UNL     1      -5.428  -1.624   7.446  1.00  0.00     0.046 A 
ATOM     40  C   UNL     1      -6.341  -2.453   9.526  1.00  0.00     0.046 A 
ATOM     41  C   UNL     1      -6.237  -1.455   8.563  1.00  0.00     0.115 A 
BRANCH  41  42
ATOM     42  O   UNL     1      -6.917  -0.279   8.683  1.00  0.00    -0.508 OA
ATOM     43  H   UNL     1      -6.790   0.056   9.586  1.00  0.00     0.293 HD
ENDBRANCH  41  42
ENDBRANCH  35  36
ENDBRANCH  34  35
BRANCH  34  44
ATOM     44  C   UNL     1      -1.989  -4.684   6.572  1.00  0.00     0.243 C 
ATOM     45  O   UNL     1      -1.671  -3.700   5.910  1.00  0.00    -0.273 OA
ATOM     46  N   UNL     1      -1.050  -5.466   7.211  1.00  0.00    -0.341 N 
ATOM     47  H   UNL     1      -1.346  -6.336   7.648  1.00  0.00     0.164 HD
BRANCH  46  48
ATOM     48  C   UNL     1       0.383  -5.167   7.209  1.00  0.00     0.196 C 
BRANCH  48  49
ATOM     49  C   UNL     1       0.780  -4.319   8.429  1.00  0.00     0.072 C 
BRANCH  49  50
ATOM     50  C   UNL     1       1.421  -3.006   8.041  1.00  0.00    -0.045 A 
ATOM     51  C   UNL     1       2.378  -2.971   7.016  1.00  0.00     0.007 A 
ATOM     52  C   UNL     1       1.090  -1.818   8.705  1.00  0.00     0.007 A 
ATOM     53  C   UNL     1       2.986  -1.767   6.659  1.00  0.00     0.046 A 
ATOM     54  C   UNL     1       1.699  -0.613   8.348  1.00  0.00     0.046 A 
ATOM     55  C   UNL     1       2.642  -0.598   7.326  1.00  0.00     0.115 A 
BRANCH  55  56
ATOM     56  O   UNL     1       3.260   0.557   6.948  1.00  0.00    -0.508 OA
ATOM     57  H   UNL     1       3.612   0.436   6.051  1.00  0.00     0.293 HD
ENDBRANCH  55  56
ENDBRANCH  49  50
ENDBRANCH  48  49
BRANCH  48  58
ATOM     58  C   UNL     1       1.168  -6.486   7.222  1.00  0.00     0.326 C 
ATOM     59  O   UNL     1       2.368  -6.631   7.393  1.00  0.00    -0.250 OA
BRANCH  58  60
ATOM     60  O   UNL     1       0.390  -7.581   7.030  1.00  0.00    -0.480 OA
ATOM     61  H   UNL     1       1.016  -8.328   7.153  1.00  0.00     0.296 HD
ENDBRANCH  58  60
ENDBRANCH  48  58
ENDBRANCH  46  48
ENDBRANCH  34  44
ENDBRANCH  32  34
ENDBRANCH  25  30
ENDBRANCH  23  25
ENDBRANCH   2  23
TORSDOF 28
ENDMDL
MODEL 39
REMARK VINA RESULT:    -5.588      6.078     11.090
REMARK INTER + INTRA:         -19.853
REMARK INTER:                 -16.186
REMARK INTRA:                  -3.667
REMARK UNBOUND:                -5.934
REMARK SMILES CCCCCCC[C@H](N)[C@H](O)C(=O)N[C@H](C)C(=O)N(C)[C@H](CC(C)C)C(=O)N[C@@H](Cc1ccc(O)cc1)C(=O)N[C@@H](Cc1ccc(O)cc1)C(=O)O
REMARK SMILES IDX 18 1 17 2 15 3 16 4 14 5 12 6 13 7 10 9 11 10 8 12 9 13 7 16
REMARK SMILES IDX 6 17 5 18 4 19 3 20 2 21 1 22 19 23 20 24 21 25 22 26 23 27
REMARK SMILES IDX 24 28 25 29 26 30 27 31 28 32 29 34 30 35 31 36 32 37 37 38
REMARK SMILES IDX 33 39 36 40 34 41 35 42 38 44 39 45 40 46 41 48 42 49 43 50
REMARK SMILES IDX 44 51 49 52 45 53 48 54 46 55 47 56 50 58 51 59 52 60
REMARK H PARENT 14 8 11 11 9 14 9 15 28 33 35 43 40 47 47 57 52 61
ROOT
ATOM      1  O   UNL     1       6.286  -3.780   3.646  1.00  0.00    -0.272 OA
ATOM      2  C   UNL     1       5.373  -3.709   2.811  1.00  0.00     0.245 C 
ENDROOT
BRANCH   2   3
ATOM      3  C   UNL     1       3.963  -3.282   3.289  1.00  0.00     0.168 C 
ATOM      4  C   UNL     1       3.806  -1.767   3.228  1.00  0.00     0.041 C 
BRANCH   3   5
ATOM      5  N   UNL     1       2.861  -3.968   2.632  1.00  0.00    -0.342 N 
ATOM      6  C   UNL     1       1.652  -4.172   3.262  1.00  0.00     0.251 C 
ATOM      7  O   UNL     1       1.426  -3.836   4.419  1.00  0.00    -0.272 OA
ATOM      8  H   UNL     1       2.941  -4.324   1.682  1.00  0.00     0.164 HD
BRANCH   6   9
ATOM      9  C   UNL     1       0.594  -4.787   2.332  1.00  0.00     0.219 C 
BRANCH   9  10
ATOM     10  O   UNL     1       0.203  -6.105   2.734  1.00  0.00    -0.382 OA
ATOM     11  H   UNL     1       0.982  -6.435   3.233  1.00  0.00     0.211 HD
ENDBRANCH   9  10
BRANCH   9  12
ATOM     12  C   UNL     1      -0.649  -3.879   2.139  1.00  0.00     0.089 C 
BRANCH  12  13
ATOM     13  N   UNL     1      -1.512  -4.008   3.335  1.00  0.00    -0.325 NA
ATOM     14  H   UNL     1      -1.952  -4.930   3.335  1.00  0.00     0.119 HD
ATOM     15  H   UNL     1      -2.285  -3.343   3.258  1.00  0.00     0.119 HD
ENDBRANCH  12  13
BRANCH  12  16
ATOM     16  C   UNL     1      -0.360  -2.387   1.849  1.00  0.00     0.022 C 
BRANCH  16  17
ATOM     17  C   UNL     1      -1.325  -1.321   2.387  1.00  0.00     0.002 C 
BRANCH  17  18
ATOM     18  C   UNL     1      -0.783  -0.486   3.544  1.00  0.00     0.000 C 
BRANCH  18  19
ATOM     19  C   UNL     1      -0.194   0.866   3.117  1.00  0.00    -0.000 C 
BRANCH  19  20
ATOM     20  C   UNL     1       1.194   1.178   3.684  1.00  0.00    -0.000 C 
BRANCH  20  21
ATOM     21  C   UNL     1       2.196   1.610   2.611  1.00  0.00    -0.003 C 
ATOM     22  C   UNL     1       1.882   0.969   1.268  1.00  0.00     0.004 C 
ENDBRANCH  20  21
ENDBRANCH  19  20
ENDBRANCH  18  19
ENDBRANCH  17  18
ENDBRANCH  16  17
ENDBRANCH  12  16
ENDBRANCH   9  12
ENDBRANCH   6   9
ENDBRANCH   3   5
ENDBRANCH   2   3
BRANCH   2  23
ATOM     23  N   UNL     1       5.650  -3.890   1.460  1.00  0.00    -0.332 N 
ATOM     24  C   UNL     1       5.251  -5.055   0.684  1.00  0.00     0.147 C 
BRANCH  23  25
ATOM     25  C   UNL     1       6.288  -2.800   0.671  1.00  0.00     0.174 C 
BRANCH  25  26
ATOM     26  C   UNL     1       5.344  -2.198  -0.396  1.00  0.00     0.038 C 
BRANCH  26  27
ATOM     27  C   UNL     1       5.409  -0.669  -0.605  1.00  0.00    -0.015 C 
ATOM     28  C   UNL     1       4.180  -0.126  -1.334  1.00  0.00     0.007 C 
ATOM     29  C   UNL     1       5.657   0.111   0.684  1.00  0.00     0.007 C 
ENDBRANCH  26  27
ENDBRANCH  25  26
BRANCH  25  30
ATOM     30  C   UNL     1       7.644  -3.278   0.103  1.00  0.00     0.243 C 
ATOM     31  O   UNL     1       8.532  -3.722   0.828  1.00  0.00    -0.273 OA
ATOM     32  N   UNL     1       7.789  -3.168  -1.256  1.00  0.00    -0.342 N 
ATOM     33  H   UNL     1       6.960  -2.924  -1.803  1.00  0.00     0.164 HD
BRANCH  32  34
ATOM     34  C   UNL     1       9.015  -3.546  -1.965  1.00  0.00     0.175 C 
BRANCH  34  35
ATOM     35  C   UNL     1      10.266  -3.061  -1.215  1.00  0.00     0.070 C 
BRANCH  35  36
ATOM     36  C   UNL     1      11.147  -2.172  -2.063  1.00  0.00    -0.045 A 
ATOM     37  C   UNL     1      11.202  -2.358  -3.452  1.00  0.00     0.007 A 
ATOM     38  C   UNL     1      11.934  -1.171  -1.477  1.00  0.00     0.007 A 
ATOM     39  C   UNL     1      12.023  -1.551  -4.241  1.00  0.00     0.046 A 
ATOM     40  C   UNL     1      12.757  -0.364  -2.266  1.00  0.00     0.046 A 
ATOM     41  C   UNL     1      12.793  -0.561  -3.642  1.00  0.00     0.115 A 
BRANCH  41  42
ATOM     42  O   UNL     1      13.584   0.204  -4.448  1.00  0.00    -0.508 OA
ATOM     43  H   UNL     1      13.771   1.038  -3.988  1.00  0.00     0.293 HD
ENDBRANCH  41  42
ENDBRANCH  35  36
ENDBRANCH  34  35
BRANCH  34  44
ATOM     44  C   UNL     1       9.009  -5.081  -2.146  1.00  0.00     0.243 C 
ATOM     45  O   UNL     1       7.997  -5.756  -2.307  1.00  0.00    -0.273 OA
ATOM     46  N   UNL     1      10.250  -5.658  -1.979  1.00  0.00    -0.341 N 
ATOM     47  H   UNL     1      11.040  -5.067  -1.730  1.00  0.00     0.164 HD
BRANCH  46  48
ATOM     48  C   UNL     1      10.482  -7.103  -2.036  1.00  0.00     0.196 C 
BRANCH  48  49
ATOM     49  C   UNL     1      11.313  -7.488  -3.272  1.00  0.00     0.072 C 
BRANCH  49  50
ATOM     50  C   UNL     1      10.897  -6.730  -4.512  1.00  0.00    -0.045 A 
ATOM     51  C   UNL     1       9.723  -7.089  -5.190  1.00  0.00     0.007 A 
ATOM     52  C   UNL     1      11.680  -5.682  -5.013  1.00  0.00     0.007 A 
ATOM     53  C   UNL     1       9.336  -6.405  -6.343  1.00  0.00     0.046 A 
ATOM     54  C   UNL     1      11.294  -4.999  -6.168  1.00  0.00     0.046 A 
ATOM     55  C   UNL     1      10.124  -5.366  -6.823  1.00  0.00     0.115 A 
BRANCH  55  56
ATOM     56  O   UNL     1       9.712  -4.725  -7.954  1.00  0.00    -0.508 OA
ATOM     57  H   UNL     1       8.904  -5.157  -8.273  1.00  0.00     0.293 HD
ENDBRANCH  55  56
ENDBRANCH  49  50
ENDBRANCH  48  49
BRANCH  48  58
ATOM     58  C   UNL     1      11.218  -7.542  -0.763  1.00  0.00     0.326 C 
ATOM     59  O   UNL     1      10.831  -8.339   0.077  1.00  0.00    -0.250 OA
BRANCH  58  60
ATOM     60  O   UNL     1      12.433  -6.958  -0.612  1.00  0.00    -0.480 OA
ATOM     61  H   UNL     1      12.948  -7.308  -1.371  1.00  0.00     0.296 HD
ENDBRANCH  58  60
ENDBRANCH  48  58
ENDBRANCH  46  48
ENDBRANCH  34  44
ENDBRANCH  32  34
ENDBRANCH  25  30
ENDBRANCH  23  25
ENDBRANCH   2  23
TORSDOF 28
ENDMDL
MODEL 40
REMARK VINA RESULT:    -5.581      3.154      5.839
REMARK INTER + INTRA:         -19.834
REMARK INTER:                 -16.216
REMARK INTRA:                  -3.618
REMARK UNBOUND:                -5.934
REMARK SMILES CCCCCCC[C@H](N)[C@H](O)C(=O)N[C@H](C)C(=O)N(C)[C@H](CC(C)C)C(=O)N[C@@H](Cc1ccc(O)cc1)C(=O)N[C@@H](Cc1ccc(O)cc1)C(=O)O
REMARK SMILES IDX 18 1 17 2 15 3 16 4 14 5 12 6 13 7 10 9 11 10 8 12 9 13 7 16
REMARK SMILES IDX 6 17 5 18 4 19 3 20 2 21 1 22 19 23 20 24 21 25 22 26 23 27
REMARK SMILES IDX 24 28 25 29 26 30 27 31 28 32 29 34 30 35 31 36 32 37 37 38
REMARK SMILES IDX 33 39 36 40 34 41 35 42 38 44 39 45 40 46 41 48 42 49 43 50
REMARK SMILES IDX 44 51 49 52 45 53 48 54 46 55 47 56 50 58 51 59 52 60
REMARK H PARENT 14 8 11 11 9 14 9 15 28 33 35 43 40 47 47 57 52 61
ROOT
ATOM      1  O   UNL     1      -4.744  -9.768   0.716  1.00  0.00    -0.272 OA
ATOM      2  C   UNL     1      -3.513  -9.915   0.730  1.00  0.00     0.245 C 
ENDROOT
BRANCH   2   3
ATOM      3  C   UNL     1      -2.640  -8.939  -0.097  1.00  0.00     0.168 C 
ATOM      4  C   UNL     1      -1.958  -7.921   0.811  1.00  0.00     0.041 C 
BRANCH   3   5
ATOM      5  N   UNL     1      -1.696  -9.579  -1.000  1.00  0.00    -0.342 N 
ATOM      6  C   UNL     1      -1.455  -9.090  -2.266  1.00  0.00     0.251 C 
ATOM      7  O   UNL     1      -2.036  -8.119  -2.739  1.00  0.00    -0.272 OA
ATOM      8  H   UNL     1      -1.178 -10.412  -0.732  1.00  0.00     0.164 HD
BRANCH   6   9
ATOM      9  C   UNL     1      -0.320  -9.837  -2.986  1.00  0.00     0.219 C 
BRANCH   9  10
ATOM     10  O   UNL     1      -0.682 -10.248  -4.310  1.00  0.00    -0.382 OA
ATOM     11  H   UNL     1      -0.064  -9.745  -4.885  1.00  0.00     0.211 HD
ENDBRANCH   9  10
BRANCH   9  12
ATOM     12  C   UNL     1       1.016  -9.049  -2.999  1.00  0.00     0.089 C 
BRANCH  12  13
ATOM     13  N   UNL     1       0.761  -7.688  -2.472  1.00  0.00    -0.325 NA
ATOM     14  H   UNL     1      -0.110  -7.332  -2.870  1.00  0.00     0.119 HD
ATOM     15  H   UNL     1       1.489  -7.058  -2.816  1.00  0.00     0.119 HD
ENDBRANCH  12  13
BRANCH  12  16
ATOM     16  C   UNL     1       2.196  -9.701  -2.239  1.00  0.00     0.022 C 
BRANCH  16  17
ATOM     17  C   UNL     1       1.909 -10.506  -0.965  1.00  0.00     0.002 C 
BRANCH  17  18
ATOM     18  C   UNL     1       2.016  -9.714   0.336  1.00  0.00     0.000 C 
BRANCH  18  19
ATOM     19  C   UNL     1       3.311  -8.902   0.469  1.00  0.00    -0.000 C 
BRANCH  19  20
ATOM     20  C   UNL     1       3.117  -7.402   0.707  1.00  0.00    -0.000 C 
BRANCH  20  21
ATOM     21  C   UNL     1       1.654  -7.017   0.943  1.00  0.00    -0.003 C 
ATOM     22  C   UNL     1       1.453  -5.513   0.841  1.00  0.00     0.004 C 
ENDBRANCH  20  21
ENDBRANCH  19  20
ENDBRANCH  18  19
ENDBRANCH  17  18
ENDBRANCH  16  17
ENDBRANCH  12  16
ENDBRANCH   9  12
ENDBRANCH   6   9
ENDBRANCH   3   5
ENDBRANCH   2   3
BRANCH   2  23
ATOM     23  N   UNL     1      -2.936 -10.861   1.570  1.00  0.00    -0.332 N 
ATOM     24  C   UNL     1      -1.832 -11.733   1.198  1.00  0.00     0.147 C 
BRANCH  23  25
ATOM     25  C   UNL     1      -3.351 -10.951   2.997  1.00  0.00     0.174 C 
BRANCH  25  26
ATOM     26  C   UNL     1      -4.795 -10.452   3.237  1.00  0.00     0.038 C 
BRANCH  26  27
ATOM     27  C   UNL     1      -5.655 -11.252   4.241  1.00  0.00    -0.015 C 
ATOM     28  C   UNL     1      -5.604 -12.757   3.984  1.00  0.00     0.007 C 
ATOM     29  C   UNL     1      -5.328 -10.944   5.700  1.00  0.00     0.007 C 
ENDBRANCH  26  27
ENDBRANCH  25  26
BRANCH  25  30
ATOM     30  C   UNL     1      -2.299 -10.268   3.901  1.00  0.00     0.243 C 
ATOM     31  O   UNL     1      -1.488 -10.918   4.560  1.00  0.00    -0.273 OA
ATOM     32  N   UNL     1      -2.335  -8.898   3.923  1.00  0.00    -0.342 N 
ATOM     33  H   UNL     1      -2.940  -8.429   3.244  1.00  0.00     0.164 HD
BRANCH  32  34
ATOM     34  C   UNL     1      -1.432  -8.085   4.742  1.00  0.00     0.175 C 
BRANCH  34  35
ATOM     35  C   UNL     1      -0.002  -8.101   4.182  1.00  0.00     0.070 C 
BRANCH  35  36
ATOM     36  C   UNL     1       0.975  -7.342   5.051  1.00  0.00    -0.045 A 
ATOM     37  C   UNL     1       1.729  -6.291   4.506  1.00  0.00     0.007 A 
ATOM     38  C   UNL     1       1.159  -7.687   6.396  1.00  0.00     0.007 A 
ATOM     39  C   UNL     1       2.643  -5.594   5.297  1.00  0.00     0.046 A 
ATOM     40  C   UNL     1       2.075  -6.990   7.188  1.00  0.00     0.046 A 
ATOM     41  C   UNL     1       2.809  -5.948   6.630  1.00  0.00     0.115 A 
BRANCH  41  42
ATOM     42  O   UNL     1       3.714  -5.243   7.367  1.00  0.00    -0.508 OA
ATOM     43  H   UNL     1       4.103  -4.559   6.798  1.00  0.00     0.293 HD
ENDBRANCH  41  42
ENDBRANCH  35  36
ENDBRANCH  34  35
BRANCH  34  44
ATOM     44  C   UNL     1      -2.009  -6.653   4.812  1.00  0.00     0.243 C 
ATOM     45  O   UNL     1      -2.277  -5.964   3.832  1.00  0.00    -0.273 OA
ATOM     46  N   UNL     1      -2.078  -6.151   6.095  1.00  0.00    -0.341 N 
ATOM     47  H   UNL     1      -1.734  -6.718   6.866  1.00  0.00     0.164 HD
BRANCH  46  48
ATOM     48  C   UNL     1      -2.527  -4.792   6.405  1.00  0.00     0.196 C 
BRANCH  48  49
ATOM     49  C   UNL     1      -3.045  -4.689   7.850  1.00  0.00     0.072 C 
BRANCH  49  50
ATOM     50  C   UNL     1      -3.700  -3.358   8.140  1.00  0.00    -0.045 A 
ATOM     51  C   UNL     1      -4.812  -2.948   7.391  1.00  0.00     0.007 A 
ATOM     52  C   UNL     1      -3.200  -2.511   9.137  1.00  0.00     0.007 A 
ATOM     53  C   UNL     1      -5.417  -1.717   7.640  1.00  0.00     0.046 A 
ATOM     54  C   UNL     1      -3.805  -1.277   9.387  1.00  0.00     0.046 A 
ATOM     55  C   UNL     1      -4.910  -0.891   8.636  1.00  0.00     0.115 A 
BRANCH  55  56
ATOM     56  O   UNL     1      -5.528   0.306   8.847  1.00  0.00    -0.508 OA
ATOM     57  H   UNL     1      -5.339   0.886   8.093  1.00  0.00     0.293 HD
ENDBRANCH  55  56
ENDBRANCH  49  50
ENDBRANCH  48  49
BRANCH  48  58
ATOM     58  C   UNL     1      -1.354  -3.821   6.209  1.00  0.00     0.326 C 
ATOM     59  O   UNL     1      -0.245  -3.890   6.714  1.00  0.00    -0.250 OA
BRANCH  58  60
ATOM     60  O   UNL     1      -1.632  -2.801   5.359  1.00  0.00    -0.480 OA
ATOM     61  H   UNL     1      -1.491  -2.002   5.912  1.00  0.00     0.296 HD
ENDBRANCH  58  60
ENDBRANCH  48  58
ENDBRANCH  46  48
ENDBRANCH  34  44
ENDBRANCH  32  34
ENDBRANCH  25  30
ENDBRANCH  23  25
ENDBRANCH   2  23
TORSDOF 28
ENDMDL
MODEL 41
REMARK VINA RESULT:    -5.569      4.099      9.116
REMARK INTER + INTRA:         -19.804
REMARK INTER:                 -14.853
REMARK INTRA:                  -4.951
REMARK UNBOUND:                -5.934
REMARK SMILES CCCCCCC[C@H](N)[C@H](O)C(=O)N[C@H](C)C(=O)N(C)[C@H](CC(C)C)C(=O)N[C@@H](Cc1ccc(O)cc1)C(=O)N[C@@H](Cc1ccc(O)cc1)C(=O)O
REMARK SMILES IDX 18 1 17 2 15 3 16 4 14 5 12 6 13 7 10 9 11 10 8 12 9 13 7 16
REMARK SMILES IDX 6 17 5 18 4 19 3 20 2 21 1 22 19 23 20 24 21 25 22 26 23 27
REMARK SMILES IDX 24 28 25 29 26 30 27 31 28 32 29 34 30 35 31 36 32 37 37 38
REMARK SMILES IDX 33 39 36 40 34 41 35 42 38 44 39 45 40 46 41 48 42 49 43 50
REMARK SMILES IDX 44 51 49 52 45 53 48 54 46 55 47 56 50 58 51 59 52 60
REMARK H PARENT 14 8 11 11 9 14 9 15 28 33 35 43 40 47 47 57 52 61
ROOT
ATOM      1  O   UNL     1       2.414  -3.709   3.213  1.00  0.00    -0.272 OA
ATOM      2  C   UNL     1       1.719  -3.369   4.182  1.00  0.00     0.245 C 
ENDROOT
BRANCH   2   3
ATOM      3  C   UNL     1       0.603  -4.328   4.665  1.00  0.00     0.168 C 
ATOM      4  C   UNL     1      -0.485  -4.471   3.606  1.00  0.00     0.041 C 
BRANCH   3   5
ATOM      5  N   UNL     1       1.071  -5.621   5.140  1.00  0.00    -0.342 N 
ATOM      6  C   UNL     1       1.101  -5.936   6.482  1.00  0.00     0.251 C 
ATOM      7  O   UNL     1       0.782  -5.151   7.369  1.00  0.00    -0.272 OA
ATOM      8  H   UNL     1       1.394  -6.342   4.500  1.00  0.00     0.164 HD
BRANCH   6   9
ATOM      9  C   UNL     1       1.495  -7.400   6.740  1.00  0.00     0.219 C 
BRANCH   9  10
ATOM     10  O   UNL     1       1.845  -7.645   8.107  1.00  0.00    -0.382 OA
ATOM     11  H   UNL     1       0.976  -7.711   8.560  1.00  0.00     0.211 HD
ENDBRANCH   9  10
BRANCH   9  12
ATOM     12  C   UNL     1       0.424  -8.412   6.255  1.00  0.00     0.089 C 
BRANCH  12  13
ATOM     13  N   UNL     1      -0.829  -7.673   5.982  1.00  0.00    -0.325 NA
ATOM     14  H   UNL     1      -1.413  -7.680   6.820  1.00  0.00     0.119 HD
ATOM     15  H   UNL     1      -1.367  -8.182   5.277  1.00  0.00     0.119 HD
ENDBRANCH  12  13
BRANCH  12  16
ATOM     16  C   UNL     1       0.812  -9.274   5.029  1.00  0.00     0.022 C 
BRANCH  16  17
ATOM     17  C   UNL     1       1.947  -8.799   4.112  1.00  0.00     0.002 C 
BRANCH  17  18
ATOM     18  C   UNL     1       1.579  -8.689   2.634  1.00  0.00     0.000 C 
BRANCH  18  19
ATOM     19  C   UNL     1       0.171  -8.134   2.381  1.00  0.00    -0.000 C 
BRANCH  19  20
ATOM     20  C   UNL     1       0.058  -7.158   1.207  1.00  0.00    -0.000 C 
BRANCH  20  21
ATOM     21  C   UNL     1       1.335  -6.346   0.978  1.00  0.00    -0.003 C 
ATOM     22  C   UNL     1       1.913  -6.600  -0.406  1.00  0.00     0.004 C 
ENDBRANCH  20  21
ENDBRANCH  19  20
ENDBRANCH  18  19
ENDBRANCH  17  18
ENDBRANCH  16  17
ENDBRANCH  12  16
ENDBRANCH   9  12
ENDBRANCH   6   9
ENDBRANCH   3   5
ENDBRANCH   2   3
BRANCH   2  23
ATOM     23  N   UNL     1       2.025  -2.209   4.885  1.00  0.00    -0.332 N 
ATOM     24  C   UNL     1       2.703  -2.178   6.172  1.00  0.00     0.147 C 
BRANCH  23  25
ATOM     25  C   UNL     1       1.779  -0.873   4.274  1.00  0.00     0.174 C 
BRANCH  25  26
ATOM     26  C   UNL     1       0.399  -0.774   3.582  1.00  0.00     0.038 C 
BRANCH  26  27
ATOM     27  C   UNL     1      -0.414   0.518   3.824  1.00  0.00    -0.015 C 
ATOM     28  C   UNL     1       0.070   1.292   5.050  1.00  0.00     0.007 C 
ATOM     29  C   UNL     1      -0.479   1.432   2.603  1.00  0.00     0.007 C 
ENDBRANCH  26  27
ENDBRANCH  25  26
BRANCH  25  30
ATOM     30  C   UNL     1       2.962  -0.479   3.362  1.00  0.00     0.243 C 
ATOM     31  O   UNL     1       4.064  -0.180   3.819  1.00  0.00    -0.273 OA
ATOM     32  N   UNL     1       2.699  -0.478   2.016  1.00  0.00    -0.342 N 
ATOM     33  H   UNL     1       1.807  -0.873   1.708  1.00  0.00     0.164 HD
BRANCH  32  34
ATOM     34  C   UNL     1       3.693  -0.105   1.005  1.00  0.00     0.175 C 
BRANCH  34  35
ATOM     35  C   UNL     1       3.234  -0.509  -0.404  1.00  0.00     0.070 C 
BRANCH  35  36
ATOM     36  C   UNL     1       4.188  -0.049  -1.484  1.00  0.00    -0.045 A 
ATOM     37  C   UNL     1       5.386  -0.746  -1.705  1.00  0.00     0.007 A 
ATOM     38  C   UNL     1       3.906   1.083  -2.258  1.00  0.00     0.007 A 
ATOM     39  C   UNL     1       6.279  -0.321  -2.689  1.00  0.00     0.046 A 
ATOM     40  C   UNL     1       4.800   1.510  -3.243  1.00  0.00     0.046 A 
ATOM     41  C   UNL     1       5.979   0.802  -3.450  1.00  0.00     0.115 A 
BRANCH  41  42
ATOM     42  O   UNL     1       6.880   1.185  -4.400  1.00  0.00    -0.508 OA
ATOM     43  H   UNL     1       7.773   0.999  -4.065  1.00  0.00     0.293 HD
ENDBRANCH  41  42
ENDBRANCH  35  36
ENDBRANCH  34  35
BRANCH  34  44
ATOM     44  C   UNL     1       3.941   1.416   1.118  1.00  0.00     0.243 C 
ATOM     45  O   UNL     1       5.036   1.926   1.343  1.00  0.00    -0.273 OA
ATOM     46  N   UNL     1       2.785   2.166   1.070  1.00  0.00    -0.341 N 
ATOM     47  H   UNL     1       1.890   1.690   0.999  1.00  0.00     0.164 HD
BRANCH  46  48
ATOM     48  C   UNL     1       2.763   3.623   1.224  1.00  0.00     0.196 C 
BRANCH  48  49
ATOM     49  C   UNL     1       2.117   4.304   0.006  1.00  0.00     0.072 C 
BRANCH  49  50
ATOM     50  C   UNL     1       3.126   4.671  -1.059  1.00  0.00    -0.045 A 
ATOM     51  C   UNL     1       2.713   4.827  -2.390  1.00  0.00     0.007 A 
ATOM     52  C   UNL     1       4.480   4.838  -0.741  1.00  0.00     0.007 A 
ATOM     53  C   UNL     1       3.637   5.152  -3.383  1.00  0.00     0.046 A 
ATOM     54  C   UNL     1       5.406   5.162  -1.736  1.00  0.00     0.046 A 
ATOM     55  C   UNL     1       4.976   5.317  -3.049  1.00  0.00     0.115 A 
BRANCH  55  56
ATOM     56  O   UNL     1       5.847   5.633  -4.049  1.00  0.00    -0.508 OA
ATOM     57  H   UNL     1       5.548   5.198  -4.864  1.00  0.00     0.293 HD
ENDBRANCH  55  56
ENDBRANCH  49  50
ENDBRANCH  48  49
BRANCH  48  58
ATOM     58  C   UNL     1       1.974   3.979   2.491  1.00  0.00     0.326 C 
ATOM     59  O   UNL     1       1.004   4.715   2.576  1.00  0.00    -0.250 OA
BRANCH  58  60
ATOM     60  O   UNL     1       2.442   3.369   3.609  1.00  0.00    -0.480 OA
ATOM     61  H   UNL     1       2.037   2.476   3.566  1.00  0.00     0.296 HD
ENDBRANCH  58  60
ENDBRANCH  48  58
ENDBRANCH  46  48
ENDBRANCH  34  44
ENDBRANCH  32  34
ENDBRANCH  25  30
ENDBRANCH  23  25
ENDBRANCH   2  23
TORSDOF 28
ENDMDL
MODEL 42
REMARK VINA RESULT:    -5.565      5.720     11.824
REMARK INTER + INTRA:         -19.795
REMARK INTER:                 -14.511
REMARK INTRA:                  -5.285
REMARK UNBOUND:                -5.934
REMARK SMILES CCCCCCC[C@H](N)[C@H](O)C(=O)N[C@H](C)C(=O)N(C)[C@H](CC(C)C)C(=O)N[C@@H](Cc1ccc(O)cc1)C(=O)N[C@@H](Cc1ccc(O)cc1)C(=O)O
REMARK SMILES IDX 18 1 17 2 15 3 16 4 14 5 12 6 13 7 10 9 11 10 8 12 9 13 7 16
REMARK SMILES IDX 6 17 5 18 4 19 3 20 2 21 1 22 19 23 20 24 21 25 22 26 23 27
REMARK SMILES IDX 24 28 25 29 26 30 27 31 28 32 29 34 30 35 31 36 32 37 37 38
REMARK SMILES IDX 33 39 36 40 34 41 35 42 38 44 39 45 40 46 41 48 42 49 43 50
REMARK SMILES IDX 44 51 49 52 45 53 48 54 46 55 47 56 50 58 51 59 52 60
REMARK H PARENT 14 8 11 11 9 14 9 15 28 33 35 43 40 47 47 57 52 61
ROOT
ATOM      1  O   UNL     1       6.379   1.046  -2.456  1.00  0.00    -0.272 OA
ATOM      2  C   UNL     1       7.421   1.375  -1.871  1.00  0.00     0.245 C 
ENDROOT
BRANCH   2   3
ATOM      3  C   UNL     1       7.382   1.560  -0.334  1.00  0.00     0.168 C 
ATOM      4  C   UNL     1       8.000   2.894   0.067  1.00  0.00     0.041 C 
BRANCH   3   5
ATOM      5  N   UNL     1       6.074   1.364   0.272  1.00  0.00    -0.342 N 
ATOM      6  C   UNL     1       5.062   2.292   0.135  1.00  0.00     0.251 C 
ATOM      7  O   UNL     1       5.196   3.355  -0.462  1.00  0.00    -0.272 OA
ATOM      8  H   UNL     1       5.855   0.536   0.820  1.00  0.00     0.164 HD
BRANCH   6   9
ATOM      9  C   UNL     1       3.731   1.812   0.734  1.00  0.00     0.219 C 
BRANCH   9  10
ATOM     10  O   UNL     1       2.865   2.895   1.095  1.00  0.00    -0.382 OA
ATOM     11  H   UNL     1       3.469   3.668   1.140  1.00  0.00     0.211 HD
ENDBRANCH   9  10
BRANCH   9  12
ATOM     12  C   UNL     1       2.989   0.791  -0.169  1.00  0.00     0.089 C 
BRANCH  12  13
ATOM     13  N   UNL     1       3.423   1.004  -1.568  1.00  0.00    -0.325 NA
ATOM     14  H   UNL     1       3.155   0.194  -2.130  1.00  0.00     0.119 HD
ATOM     15  H   UNL     1       4.445   1.024  -1.599  1.00  0.00     0.119 HD
ENDBRANCH  12  13
BRANCH  12  16
ATOM     16  C   UNL     1       3.151  -0.698   0.217  1.00  0.00     0.022 C 
BRANCH  16  17
ATOM     17  C   UNL     1       2.260  -1.286   1.320  1.00  0.00     0.002 C 
BRANCH  17  18
ATOM     18  C   UNL     1       0.841  -1.641   0.881  1.00  0.00     0.000 C 
BRANCH  18  19
ATOM     19  C   UNL     1      -0.150  -1.802   2.041  1.00  0.00    -0.000 C 
BRANCH  19  20
ATOM     20  C   UNL     1      -0.127  -0.674   3.076  1.00  0.00    -0.000 C 
BRANCH  20  21
ATOM     21  C   UNL     1      -0.625   0.663   2.519  1.00  0.00    -0.003 C 
ATOM     22  C   UNL     1       0.174   1.829   3.079  1.00  0.00     0.004 C 
ENDBRANCH  20  21
ENDBRANCH  19  20
ENDBRANCH  18  19
ENDBRANCH  17  18
ENDBRANCH  16  17
ENDBRANCH  12  16
ENDBRANCH   9  12
ENDBRANCH   6   9
ENDBRANCH   3   5
ENDBRANCH   2   3
BRANCH   2  23
ATOM     23  N   UNL     1       8.619   1.451  -2.575  1.00  0.00    -0.332 N 
ATOM     24  C   UNL     1       8.944   2.489  -3.542  1.00  0.00     0.147 C 
BRANCH  23  25
ATOM     25  C   UNL     1       9.730   0.508  -2.271  1.00  0.00     0.174 C 
BRANCH  25  26
ATOM     26  C   UNL     1      10.976   0.740  -3.157  1.00  0.00     0.038 C 
BRANCH  26  27
ATOM     27  C   UNL     1      12.349   0.746  -2.447  1.00  0.00    -0.015 C 
ATOM     28  C   UNL     1      12.735  -0.633  -1.911  1.00  0.00     0.007 C 
ATOM     29  C   UNL     1      13.473   1.324  -3.302  1.00  0.00     0.007 C 
ENDBRANCH  26  27
ENDBRANCH  25  26
BRANCH  25  30
ATOM     30  C   UNL     1       9.213  -0.949  -2.295  1.00  0.00     0.243 C 
ATOM     31  O   UNL     1       8.758  -1.460  -3.318  1.00  0.00    -0.273 OA
ATOM     32  N   UNL     1       9.289  -1.626  -1.105  1.00  0.00    -0.342 N 
ATOM     33  H   UNL     1       9.806  -1.183  -0.341  1.00  0.00     0.164 HD
BRANCH  32  34
ATOM     34  C   UNL     1       8.821  -3.004  -0.935  1.00  0.00     0.175 C 
BRANCH  34  35
ATOM     35  C   UNL     1       9.734  -3.791   0.017  1.00  0.00     0.070 C 
BRANCH  35  36
ATOM     36  C   UNL     1      10.424  -4.953  -0.661  1.00  0.00    -0.045 A 
ATOM     37  C   UNL     1      10.376  -5.079  -2.058  1.00  0.00     0.007 A 
ATOM     38  C   UNL     1      11.097  -5.926   0.088  1.00  0.00     0.007 A 
ATOM     39  C   UNL     1      10.998  -6.155  -2.692  1.00  0.00     0.046 A 
ATOM     40  C   UNL     1      11.719  -7.005  -0.546  1.00  0.00     0.046 A 
ATOM     41  C   UNL     1      11.664  -7.108  -1.932  1.00  0.00     0.115 A 
BRANCH  41  42
ATOM     42  O   UNL     1      12.256  -8.146  -2.589  1.00  0.00    -0.508 OA
ATOM     43  H   UNL     1      11.567  -8.635  -3.068  1.00  0.00     0.293 HD
ENDBRANCH  41  42
ENDBRANCH  35  36
ENDBRANCH  34  35
BRANCH  34  44
ATOM     44  C   UNL     1       7.362  -2.955  -0.427  1.00  0.00     0.243 C 
ATOM     45  O   UNL     1       6.374  -2.938  -1.155  1.00  0.00    -0.273 OA
ATOM     46  N   UNL     1       7.262  -2.798   0.939  1.00  0.00    -0.341 N 
ATOM     47  H   UNL     1       8.112  -2.699   1.489  1.00  0.00     0.164 HD
BRANCH  46  48
ATOM     48  C   UNL     1       5.985  -2.658   1.643  1.00  0.00     0.196 C 
BRANCH  48  49
ATOM     49  C   UNL     1       5.550  -3.987   2.282  1.00  0.00     0.072 C 
BRANCH  49  50
ATOM     50  C   UNL     1       4.142  -4.384   1.898  1.00  0.00    -0.045 A 
ATOM     51  C   UNL     1       3.153  -4.493   2.886  1.00  0.00     0.007 A 
ATOM     52  C   UNL     1       3.811  -4.666   0.567  1.00  0.00     0.007 A 
ATOM     53  C   UNL     1       1.854  -4.871   2.546  1.00  0.00     0.046 A 
ATOM     54  C   UNL     1       2.510  -5.046   0.226  1.00  0.00     0.046 A 
ATOM     55  C   UNL     1       1.542  -5.144   1.219  1.00  0.00     0.115 A 
BRANCH  55  56
ATOM     56  O   UNL     1       0.262  -5.512   0.928  1.00  0.00    -0.508 OA
ATOM     57  H   UNL     1      -0.337  -4.822   1.256  1.00  0.00     0.293 HD
ENDBRANCH  55  56
ENDBRANCH  49  50
ENDBRANCH  48  49
BRANCH  48  58
ATOM     58  C   UNL     1       6.130  -1.586   2.732  1.00  0.00     0.326 C 
ATOM     59  O   UNL     1       5.288  -0.780   3.092  1.00  0.00    -0.250 OA
BRANCH  58  60
ATOM     60  O   UNL     1       7.345  -1.590   3.337  1.00  0.00    -0.480 OA
ATOM     61  H   UNL     1       7.427  -0.675   3.685  1.00  0.00     0.296 HD
ENDBRANCH  58  60
ENDBRANCH  48  58
ENDBRANCH  46  48
ENDBRANCH  34  44
ENDBRANCH  32  34
ENDBRANCH  25  30
ENDBRANCH  23  25
ENDBRANCH   2  23
TORSDOF 28
ENDMDL
MODEL 43
REMARK VINA RESULT:    -5.565      2.692      7.971
REMARK INTER + INTRA:         -19.794
REMARK INTER:                 -14.440
REMARK INTRA:                  -5.354
REMARK UNBOUND:                -5.934
REMARK SMILES CCCCCCC[C@H](N)[C@H](O)C(=O)N[C@H](C)C(=O)N(C)[C@H](CC(C)C)C(=O)N[C@@H](Cc1ccc(O)cc1)C(=O)N[C@@H](Cc1ccc(O)cc1)C(=O)O
REMARK SMILES IDX 18 1 17 2 15 3 16 4 14 5 12 6 13 7 10 9 11 10 8 12 9 13 7 16
REMARK SMILES IDX 6 17 5 18 4 19 3 20 2 21 1 22 19 23 20 24 21 25 22 26 23 27
REMARK SMILES IDX 24 28 25 29 26 30 27 31 28 32 29 34 30 35 31 36 32 37 37 38
REMARK SMILES IDX 33 39 36 40 34 41 35 42 38 44 39 45 40 46 41 48 42 49 43 50
REMARK SMILES IDX 44 51 49 52 45 53 48 54 46 55 47 56 50 58 51 59 52 60
REMARK H PARENT 14 8 11 11 9 14 9 15 28 33 35 43 40 47 47 57 52 61
ROOT
ATOM      1  O   UNL     1       1.967  -4.355   8.094  1.00  0.00    -0.272 OA
ATOM      2  C   UNL     1       1.176  -5.066   7.458  1.00  0.00     0.245 C 
ENDROOT
BRANCH   2   3
ATOM      3  C   UNL     1      -0.256  -4.535   7.201  1.00  0.00     0.168 C 
ATOM      4  C   UNL     1      -0.874  -3.998   8.487  1.00  0.00     0.041 C 
BRANCH   3   5
ATOM      5  N   UNL     1      -0.367  -3.582   6.107  1.00  0.00    -0.342 N 
ATOM      6  C   UNL     1      -1.363  -3.675   5.159  1.00  0.00     0.251 C 
ATOM      7  O   UNL     1      -2.195  -4.577   5.138  1.00  0.00    -0.272 OA
ATOM      8  H   UNL     1       0.287  -2.811   6.000  1.00  0.00     0.164 HD
BRANCH   6   9
ATOM      9  C   UNL     1      -1.371  -2.485   4.186  1.00  0.00     0.219 C 
BRANCH   9  10
ATOM     10  O   UNL     1      -2.164  -2.732   3.018  1.00  0.00    -0.382 OA
ATOM     11  H   UNL     1      -3.045  -2.370   3.256  1.00  0.00     0.211 HD
ENDBRANCH   9  10
BRANCH   9  12
ATOM     12  C   UNL     1      -1.784  -1.151   4.860  1.00  0.00     0.089 C 
BRANCH  12  13
ATOM     13  N   UNL     1      -2.424  -1.462   6.159  1.00  0.00    -0.325 NA
ATOM     14  H   UNL     1      -2.230  -0.705   6.818  1.00  0.00     0.119 HD
ATOM     15  H   UNL     1      -1.974  -2.287   6.560  1.00  0.00     0.119 HD
ENDBRANCH  12  13
BRANCH  12  16
ATOM     16  C   UNL     1      -0.653  -0.113   5.059  1.00  0.00     0.022 C 
BRANCH  16  17
ATOM     17  C   UNL     1       0.121   0.392   3.834  1.00  0.00     0.002 C 
BRANCH  17  18
ATOM     18  C   UNL     1       1.622   0.572   4.049  1.00  0.00     0.000 C 
BRANCH  18  19
ATOM     19  C   UNL     1       2.456  -0.667   3.697  1.00  0.00    -0.000 C 
BRANCH  19  20
ATOM     20  C   UNL     1       3.349  -0.520   2.461  1.00  0.00    -0.000 C 
BRANCH  20  21
ATOM     21  C   UNL     1       2.629  -0.873   1.157  1.00  0.00    -0.003 C 
ATOM     22  C   UNL     1       2.279   0.376   0.362  1.00  0.00     0.004 C 
ENDBRANCH  20  21
ENDBRANCH  19  20
ENDBRANCH  18  19
ENDBRANCH  17  18
ENDBRANCH  16  17
ENDBRANCH  12  16
ENDBRANCH   9  12
ENDBRANCH   6   9
ENDBRANCH   3   5
ENDBRANCH   2   3
BRANCH   2  23
ATOM     23  N   UNL     1       1.615  -6.257   6.888  1.00  0.00    -0.332 N 
ATOM     24  C   UNL     1       1.505  -7.564   7.519  1.00  0.00     0.147 C 
BRANCH  23  25
ATOM     25  C   UNL     1       2.128  -6.276   5.491  1.00  0.00     0.174 C 
BRANCH  25  26
ATOM     26  C   UNL     1       2.352  -4.860   4.912  1.00  0.00     0.038 C 
BRANCH  26  27
ATOM     27  C   UNL     1       2.886  -4.771   3.465  1.00  0.00    -0.015 C 
ATOM     28  C   UNL     1       1.855  -4.193   2.495  1.00  0.00     0.007 C 
ATOM     29  C   UNL     1       4.210  -4.021   3.351  1.00  0.00     0.007 C 
ENDBRANCH  26  27
ENDBRANCH  25  26
BRANCH  25  30
ATOM     30  C   UNL     1       1.232  -7.175   4.608  1.00  0.00     0.243 C 
ATOM     31  O   UNL     1       1.601  -8.284   4.224  1.00  0.00    -0.273 OA
ATOM     32  N   UNL     1       0.009  -6.652   4.278  1.00  0.00    -0.342 N 
ATOM     33  H   UNL     1      -0.281  -5.791   4.749  1.00  0.00     0.164 HD
BRANCH  32  34
ATOM     34  C   UNL     1      -0.959  -7.350   3.427  1.00  0.00     0.175 C 
BRANCH  34  35
ATOM     35  C   UNL     1      -0.257  -8.118   2.297  1.00  0.00     0.070 C 
BRANCH  35  36
ATOM     36  C   UNL     1      -1.091  -8.197   1.038  1.00  0.00    -0.045 A 
ATOM     37  C   UNL     1      -2.284  -7.465   0.940  1.00  0.00     0.007 A 
ATOM     38  C   UNL     1      -0.701  -9.012  -0.033  1.00  0.00     0.007 A 
ATOM     39  C   UNL     1      -3.067  -7.542  -0.213  1.00  0.00     0.046 A 
ATOM     40  C   UNL     1      -1.486  -9.090  -1.186  1.00  0.00     0.046 A 
ATOM     41  C   UNL     1      -2.662  -8.353  -1.266  1.00  0.00     0.115 A 
BRANCH  41  42
ATOM     42  O   UNL     1      -3.457  -8.402  -2.372  1.00  0.00    -0.508 OA
ATOM     43  H   UNL     1      -3.346  -7.571  -2.864  1.00  0.00     0.293 HD
ENDBRANCH  41  42
ENDBRANCH  35  36
ENDBRANCH  34  35
BRANCH  34  44
ATOM     44  C   UNL     1      -1.799  -8.285   4.326  1.00  0.00     0.243 C 
ATOM     45  O   UNL     1      -2.673  -7.903   5.100  1.00  0.00    -0.273 OA
ATOM     46  N   UNL     1      -1.391  -9.601   4.282  1.00  0.00    -0.341 N 
ATOM     47  H   UNL     1      -0.585  -9.849   3.713  1.00  0.00     0.164 HD
BRANCH  46  48
ATOM     48  C   UNL     1      -1.991 -10.659   5.098  1.00  0.00     0.196 C 
BRANCH  48  49
ATOM     49  C   UNL     1      -2.239 -11.932   4.271  1.00  0.00     0.072 C 
BRANCH  49  50
ATOM     50  C   UNL     1      -2.914 -11.644   2.949  1.00  0.00    -0.045 A 
ATOM     51  C   UNL     1      -2.454 -12.267   1.779  1.00  0.00     0.007 A 
ATOM     52  C   UNL     1      -3.985 -10.746   2.867  1.00  0.00     0.007 A 
ATOM     53  C   UNL     1      -3.060 -11.999   0.552  1.00  0.00     0.046 A 
ATOM     54  C   UNL     1      -4.592 -10.477   1.638  1.00  0.00     0.046 A 
ATOM     55  C   UNL     1      -4.124 -11.108   0.490  1.00  0.00     0.115 A 
BRANCH  55  56
ATOM     56  O   UNL     1      -4.688 -10.872  -0.729  1.00  0.00    -0.508 OA
ATOM     57  H   UNL     1      -4.488  -9.958  -0.987  1.00  0.00     0.293 HD
ENDBRANCH  55  56
ENDBRANCH  49  50
ENDBRANCH  48  49
BRANCH  48  58
ATOM     58  C   UNL     1      -1.052 -10.980   6.269  1.00  0.00     0.326 C 
ATOM     59  O   UNL     1      -1.367 -11.244   7.418  1.00  0.00    -0.250 OA
BRANCH  58  60
ATOM     60  O   UNL     1       0.261 -10.968   5.928  1.00  0.00    -0.480 OA
ATOM     61  H   UNL     1       0.706 -11.311   6.733  1.00  0.00     0.296 HD
ENDBRANCH  58  60
ENDBRANCH  48  58
ENDBRANCH  46  48
ENDBRANCH  34  44
ENDBRANCH  32  34
ENDBRANCH  25  30
ENDBRANCH  23  25
ENDBRANCH   2  23
TORSDOF 28
ENDMDL
MODEL 44
REMARK VINA RESULT:    -5.529      4.504     10.416
REMARK INTER + INTRA:         -19.706
REMARK INTER:                 -12.919
REMARK INTRA:                  -6.787
REMARK UNBOUND:                -5.934
REMARK SMILES CCCCCCC[C@H](N)[C@H](O)C(=O)N[C@H](C)C(=O)N(C)[C@H](CC(C)C)C(=O)N[C@@H](Cc1ccc(O)cc1)C(=O)N[C@@H](Cc1ccc(O)cc1)C(=O)O
REMARK SMILES IDX 18 1 17 2 15 3 16 4 14 5 12 6 13 7 10 9 11 10 8 12 9 13 7 16
REMARK SMILES IDX 6 17 5 18 4 19 3 20 2 21 1 22 19 23 20 24 21 25 22 26 23 27
REMARK SMILES IDX 24 28 25 29 26 30 27 31 28 32 29 34 30 35 31 36 32 37 37 38
REMARK SMILES IDX 33 39 36 40 34 41 35 42 38 44 39 45 40 46 41 48 42 49 43 50
REMARK SMILES IDX 44 51 49 52 45 53 48 54 46 55 47 56 50 58 51 59 52 60
REMARK H PARENT 14 8 11 11 9 14 9 15 28 33 35 43 40 47 47 57 52 61
ROOT
ATOM      1  O   UNL     1       1.395   1.736   1.877  1.00  0.00    -0.272 OA
ATOM      2  C   UNL     1       2.265   2.614   1.771  1.00  0.00     0.245 C 
ENDROOT
BRANCH   2   3
ATOM      3  C   UNL     1       3.264   2.811   2.938  1.00  0.00     0.168 C 
ATOM      4  C   UNL     1       2.948   4.086   3.712  1.00  0.00     0.041 C 
BRANCH   3   5
ATOM      5  N   UNL     1       3.409   1.663   3.819  1.00  0.00    -0.342 N 
ATOM      6  C   UNL     1       4.225   0.598   3.499  1.00  0.00     0.251 C 
ATOM      7  O   UNL     1       4.849   0.517   2.447  1.00  0.00    -0.272 OA
ATOM      8  H   UNL     1       2.914   1.601   4.705  1.00  0.00     0.164 HD
BRANCH   6   9
ATOM      9  C   UNL     1       4.335  -0.429   4.637  1.00  0.00     0.219 C 
BRANCH   9  10
ATOM     10  O   UNL     1       4.621   0.177   5.903  1.00  0.00    -0.382 OA
ATOM     11  H   UNL     1       5.308   0.846   5.689  1.00  0.00     0.211 HD
ENDBRANCH   9  10
BRANCH   9  12
ATOM     12  C   UNL     1       3.098  -1.360   4.739  1.00  0.00     0.089 C 
BRANCH  12  13
ATOM     13  N   UNL     1       2.215  -1.092   3.580  1.00  0.00    -0.325 NA
ATOM     14  H   UNL     1       1.507  -0.407   3.848  1.00  0.00     0.119 HD
ATOM     15  H   UNL     1       1.693  -1.943   3.358  1.00  0.00     0.119 HD
ENDBRANCH  12  13
BRANCH  12  16
ATOM     16  C   UNL     1       3.395  -2.875   4.842  1.00  0.00     0.022 C 
BRANCH  16  17
ATOM     17  C   UNL     1       2.886  -3.654   6.062  1.00  0.00     0.002 C 
BRANCH  17  18
ATOM     18  C   UNL     1       3.490  -5.046   6.236  1.00  0.00     0.000 C 
BRANCH  18  19
ATOM     19  C   UNL     1       2.451  -6.175   6.291  1.00  0.00    -0.000 C 
BRANCH  19  20
ATOM     20  C   UNL     1       1.435  -6.180   5.146  1.00  0.00    -0.000 C 
BRANCH  20  21
ATOM     21  C   UNL     1       0.966  -7.587   4.766  1.00  0.00    -0.003 C 
ATOM     22  C   UNL     1       1.836  -8.184   3.670  1.00  0.00     0.004 C 
ENDBRANCH  20  21
ENDBRANCH  19  20
ENDBRANCH  18  19
ENDBRANCH  17  18
ENDBRANCH  16  17
ENDBRANCH  12  16
ENDBRANCH   9  12
ENDBRANCH   6   9
ENDBRANCH   3   5
ENDBRANCH   2   3
BRANCH   2  23
ATOM     23  N   UNL     1       2.406   3.312   0.577  1.00  0.00    -0.332 N 
ATOM     24  C   UNL     1       1.495   4.349   0.114  1.00  0.00     0.147 C 
BRANCH  23  25
ATOM     25  C   UNL     1       3.616   3.118  -0.269  1.00  0.00     0.174 C 
BRANCH  25  26
ATOM     26  C   UNL     1       3.855   4.286  -1.255  1.00  0.00     0.038 C 
BRANCH  26  27
ATOM     27  C   UNL     1       5.284   4.443  -1.820  1.00  0.00    -0.015 C 
ATOM     28  C   UNL     1       5.322   5.298  -3.086  1.00  0.00     0.007 C 
ATOM     29  C   UNL     1       6.290   4.960  -0.793  1.00  0.00     0.007 C 
ENDBRANCH  26  27
ENDBRANCH  25  26
BRANCH  25  30
ATOM     30  C   UNL     1       3.573   1.730  -0.948  1.00  0.00     0.243 C 
ATOM     31  O   UNL     1       2.608   1.362  -1.614  1.00  0.00    -0.273 OA
ATOM     32  N   UNL     1       4.677   0.940  -0.752  1.00  0.00    -0.342 N 
ATOM     33  H   UNL     1       5.493   1.368  -0.308  1.00  0.00     0.164 HD
BRANCH  32  34
ATOM     34  C   UNL     1       4.800  -0.415  -1.296  1.00  0.00     0.175 C 
BRANCH  34  35
ATOM     35  C   UNL     1       6.246  -0.718  -1.719  1.00  0.00     0.070 C 
BRANCH  35  36
ATOM     36  C   UNL     1       6.999   0.518  -2.156  1.00  0.00    -0.045 A 
ATOM     37  C   UNL     1       6.753   1.079  -3.419  1.00  0.00     0.007 A 
ATOM     38  C   UNL     1       7.962   1.104  -1.325  1.00  0.00     0.007 A 
ATOM     39  C   UNL     1       7.453   2.211  -3.837  1.00  0.00     0.046 A 
ATOM     40  C   UNL     1       8.664   2.237  -1.743  1.00  0.00     0.046 A 
ATOM     41  C   UNL     1       8.402   2.781  -2.996  1.00  0.00     0.115 A 
BRANCH  41  42
ATOM     42  O   UNL     1       9.066   3.885  -3.444  1.00  0.00    -0.508 OA
ATOM     43  H   UNL     1       8.408   4.543  -3.725  1.00  0.00     0.293 HD
ENDBRANCH  41  42
ENDBRANCH  35  36
ENDBRANCH  34  35
BRANCH  34  44
ATOM     44  C   UNL     1       4.289  -1.408  -0.228  1.00  0.00     0.243 C 
ATOM     45  O   UNL     1       3.108  -1.558   0.072  1.00  0.00    -0.273 OA
ATOM     46  N   UNL     1       5.302  -2.036   0.466  1.00  0.00    -0.341 N 
ATOM     47  H   UNL     1       6.268  -1.791   0.259  1.00  0.00     0.164 HD
BRANCH  46  48
ATOM     48  C   UNL     1       5.065  -2.968   1.570  1.00  0.00     0.196 C 
BRANCH  48  49
ATOM     49  C   UNL     1       4.945  -4.416   1.065  1.00  0.00     0.072 C 
BRANCH  49  50
ATOM     50  C   UNL     1       3.518  -4.916   1.066  1.00  0.00    -0.045 A 
ATOM     51  C   UNL     1       3.148  -5.977   0.227  1.00  0.00     0.007 A 
ATOM     52  C   UNL     1       2.546  -4.321   1.882  1.00  0.00     0.007 A 
ATOM     53  C   UNL     1       1.832  -6.438   0.210  1.00  0.00     0.046 A 
ATOM     54  C   UNL     1       1.228  -4.783   1.865  1.00  0.00     0.046 A 
ATOM     55  C   UNL     1       0.882  -5.839   1.029  1.00  0.00     0.115 A 
BRANCH  55  56
ATOM     56  O   UNL     1      -0.393  -6.318   0.982  1.00  0.00    -0.508 OA
ATOM     57  H   UNL     1      -0.806  -6.176   1.848  1.00  0.00     0.293 HD
ENDBRANCH  55  56
ENDBRANCH  49  50
ENDBRANCH  48  49
BRANCH  48  58
ATOM     58  C   UNL     1       6.226  -2.866   2.568  1.00  0.00     0.326 C 
ATOM     59  O   UNL     1       6.669  -3.753   3.280  1.00  0.00    -0.250 OA
BRANCH  58  60
ATOM     60  O   UNL     1       6.795  -1.635   2.613  1.00  0.00    -0.480 OA
ATOM     61  H   UNL     1       7.335  -1.605   1.794  1.00  0.00     0.296 HD
ENDBRANCH  58  60
ENDBRANCH  48  58
ENDBRANCH  46  48
ENDBRANCH  34  44
ENDBRANCH  32  34
ENDBRANCH  25  30
ENDBRANCH  23  25
ENDBRANCH   2  23
TORSDOF 28
ENDMDL
MODEL 45
REMARK VINA RESULT:    -5.516      5.450     10.211
REMARK INTER + INTRA:         -19.673
REMARK INTER:                 -15.813
REMARK INTRA:                  -3.860
REMARK UNBOUND:                -5.934
REMARK SMILES CCCCCCC[C@H](N)[C@H](O)C(=O)N[C@H](C)C(=O)N(C)[C@H](CC(C)C)C(=O)N[C@@H](Cc1ccc(O)cc1)C(=O)N[C@@H](Cc1ccc(O)cc1)C(=O)O
REMARK SMILES IDX 18 1 17 2 15 3 16 4 14 5 12 6 13 7 10 9 11 10 8 12 9 13 7 16
REMARK SMILES IDX 6 17 5 18 4 19 3 20 2 21 1 22 19 23 20 24 21 25 22 26 23 27
REMARK SMILES IDX 24 28 25 29 26 30 27 31 28 32 29 34 30 35 31 36 32 37 37 38
REMARK SMILES IDX 33 39 36 40 34 41 35 42 38 44 39 45 40 46 41 48 42 49 43 50
REMARK SMILES IDX 44 51 49 52 45 53 48 54 46 55 47 56 50 58 51 59 52 60
REMARK H PARENT 14 8 11 11 9 14 9 15 28 33 35 43 40 47 47 57 52 61
ROOT
ATOM      1  O   UNL     1       7.496  -5.283  -2.125  1.00  0.00    -0.272 OA
ATOM      2  C   UNL     1       8.630  -4.927  -2.479  1.00  0.00     0.245 C 
ENDROOT
BRANCH   2   3
ATOM      3  C   UNL     1       9.086  -5.241  -3.926  1.00  0.00     0.168 C 
ATOM      4  C   UNL     1      10.517  -5.768  -3.940  1.00  0.00     0.041 C 
BRANCH   3   5
ATOM      5  N   UNL     1       8.185  -6.099  -4.678  1.00  0.00    -0.342 N 
ATOM      6  C   UNL     1       7.491  -5.640  -5.778  1.00  0.00     0.251 C 
ATOM      7  O   UNL     1       7.546  -4.482  -6.177  1.00  0.00    -0.272 OA
ATOM      8  H   UNL     1       8.031  -7.072  -4.421  1.00  0.00     0.164 HD
BRANCH   6   9
ATOM      9  C   UNL     1       6.714  -6.754  -6.498  1.00  0.00     0.219 C 
BRANCH   9  10
ATOM     10  O   UNL     1       6.776  -8.007  -5.806  1.00  0.00    -0.382 OA
ATOM     11  H   UNL     1       7.719  -8.271  -5.891  1.00  0.00     0.211 HD
ENDBRANCH   9  10
BRANCH   9  12
ATOM     12  C   UNL     1       5.244  -6.368  -6.807  1.00  0.00     0.089 C 
BRANCH  12  13
ATOM     13  N   UNL     1       5.237  -5.444  -7.964  1.00  0.00    -0.325 NA
ATOM     14  H   UNL     1       4.933  -5.951  -8.797  1.00  0.00     0.119 HD
ATOM     15  H   UNL     1       6.197  -5.155  -8.163  1.00  0.00     0.119 HD
ENDBRANCH  12  13
BRANCH  12  16
ATOM     16  C   UNL     1       4.273  -7.546  -7.062  1.00  0.00     0.022 C 
BRANCH  16  17
ATOM     17  C   UNL     1       3.132  -7.803  -6.068  1.00  0.00     0.002 C 
BRANCH  17  18
ATOM     18  C   UNL     1       3.515  -8.643  -4.851  1.00  0.00     0.000 C 
BRANCH  18  19
ATOM     19  C   UNL     1       2.438  -8.687  -3.759  1.00  0.00    -0.000 C 
BRANCH  19  20
ATOM     20  C   UNL     1       2.520  -9.889  -2.813  1.00  0.00    -0.000 C 
BRANCH  20  21
ATOM     21  C   UNL     1       2.487  -9.492  -1.335  1.00  0.00    -0.003 C 
ATOM     22  C   UNL     1       1.625  -8.260  -1.110  1.00  0.00     0.004 C 
ENDBRANCH  20  21
ENDBRANCH  19  20
ENDBRANCH  18  19
ENDBRANCH  17  18
ENDBRANCH  16  17
ENDBRANCH  12  16
ENDBRANCH   9  12
ENDBRANCH   6   9
ENDBRANCH   3   5
ENDBRANCH   2   3
BRANCH   2  23
ATOM     23  N   UNL     1       9.416  -4.158  -1.628  1.00  0.00    -0.332 N 
ATOM     24  C   UNL     1       9.950  -4.619  -0.354  1.00  0.00     0.147 C 
BRANCH  23  25
ATOM     25  C   UNL     1       9.878  -2.807  -2.048  1.00  0.00     0.174 C 
BRANCH  25  26
ATOM     26  C   UNL     1      11.135  -2.334  -1.281  1.00  0.00     0.038 C 
BRANCH  26  27
ATOM     27  C   UNL     1      12.027  -1.282  -1.978  1.00  0.00    -0.015 C 
ATOM     28  C   UNL     1      11.934  -1.356  -3.502  1.00  0.00     0.007 C 
ATOM     29  C   UNL     1      11.777   0.143  -1.493  1.00  0.00     0.007 C 
ENDBRANCH  26  27
ENDBRANCH  25  26
BRANCH  25  30
ATOM     30  C   UNL     1       8.704  -1.803  -1.996  1.00  0.00     0.243 C 
ATOM     31  O   UNL     1       8.435  -1.066  -2.943  1.00  0.00    -0.273 OA
ATOM     32  N   UNL     1       7.990  -1.786  -0.825  1.00  0.00    -0.342 N 
ATOM     33  H   UNL     1       8.183  -2.522  -0.142  1.00  0.00     0.164 HD
BRANCH  32  34
ATOM     34  C   UNL     1       6.862  -0.881  -0.587  1.00  0.00     0.175 C 
BRANCH  34  35
ATOM     35  C   UNL     1       5.666  -1.230  -1.486  1.00  0.00     0.070 C 
BRANCH  35  36
ATOM     36  C   UNL     1       4.773  -0.040  -1.758  1.00  0.00    -0.045 A 
ATOM     37  C   UNL     1       3.664   0.208  -0.936  1.00  0.00     0.007 A 
ATOM     38  C   UNL     1       5.022   0.813  -2.841  1.00  0.00     0.007 A 
ATOM     39  C   UNL     1       2.826   1.295  -1.188  1.00  0.00     0.046 A 
ATOM     40  C   UNL     1       4.183   1.900  -3.095  1.00  0.00     0.046 A 
ATOM     41  C   UNL     1       3.092   2.132  -2.264  1.00  0.00     0.115 A 
BRANCH  41  42
ATOM     42  O   UNL     1       2.248   3.181  -2.478  1.00  0.00    -0.508 OA
ATOM     43  H   UNL     1       1.676   3.275  -1.698  1.00  0.00     0.293 HD
ENDBRANCH  41  42
ENDBRANCH  35  36
ENDBRANCH  34  35
BRANCH  34  44
ATOM     44  C   UNL     1       6.498  -0.954   0.913  1.00  0.00     0.243 C 
ATOM     45  O   UNL     1       6.861  -0.138   1.756  1.00  0.00    -0.273 OA
ATOM     46  N   UNL     1       5.824  -2.107   1.259  1.00  0.00    -0.341 N 
ATOM     47  H   UNL     1       5.649  -2.809   0.544  1.00  0.00     0.164 HD
BRANCH  46  48
ATOM     48  C   UNL     1       5.434  -2.431   2.633  1.00  0.00     0.196 C 
BRANCH  48  49
ATOM     49  C   UNL     1       3.962  -2.868   2.708  1.00  0.00     0.072 C 
BRANCH  49  50
ATOM     50  C   UNL     1       3.002  -1.719   2.498  1.00  0.00    -0.045 A 
ATOM     51  C   UNL     1       1.829  -1.915   1.753  1.00  0.00     0.007 A 
ATOM     52  C   UNL     1       3.274  -0.448   3.020  1.00  0.00     0.007 A 
ATOM     53  C   UNL     1       0.943  -0.859   1.542  1.00  0.00     0.046 A 
ATOM     54  C   UNL     1       2.386   0.609   2.808  1.00  0.00     0.046 A 
ATOM     55  C   UNL     1       1.227   0.394   2.071  1.00  0.00     0.115 A 
BRANCH  55  56
ATOM     56  O   UNL     1       0.336   1.400   1.840  1.00  0.00    -0.508 OA
ATOM     57  H   UNL     1       0.639   2.192   2.313  1.00  0.00     0.293 HD
ENDBRANCH  55  56
ENDBRANCH  49  50
ENDBRANCH  48  49
BRANCH  48  58
ATOM     58  C   UNL     1       6.334  -3.559   3.154  1.00  0.00     0.326 C 
ATOM     59  O   UNL     1       7.218  -4.141   2.546  1.00  0.00    -0.250 OA
BRANCH  58  60
ATOM     60  O   UNL     1       6.084  -3.898   4.444  1.00  0.00    -0.480 OA
ATOM     61  H   UNL     1       6.963  -3.813   4.874  1.00  0.00     0.296 HD
ENDBRANCH  58  60
ENDBRANCH  48  58
ENDBRANCH  46  48
ENDBRANCH  34  44
ENDBRANCH  32  34
ENDBRANCH  25  30
ENDBRANCH  23  25
ENDBRANCH   2  23
TORSDOF 28
ENDMDL
MODEL 46
REMARK VINA RESULT:    -5.507      5.015     10.146
REMARK INTER + INTRA:         -19.651
REMARK INTER:                 -13.890
REMARK INTRA:                  -5.761
REMARK UNBOUND:                -5.934
REMARK SMILES CCCCCCC[C@H](N)[C@H](O)C(=O)N[C@H](C)C(=O)N(C)[C@H](CC(C)C)C(=O)N[C@@H](Cc1ccc(O)cc1)C(=O)N[C@@H](Cc1ccc(O)cc1)C(=O)O
REMARK SMILES IDX 18 1 17 2 15 3 16 4 14 5 12 6 13 7 10 9 11 10 8 12 9 13 7 16
REMARK SMILES IDX 6 17 5 18 4 19 3 20 2 21 1 22 19 23 20 24 21 25 22 26 23 27
REMARK SMILES IDX 24 28 25 29 26 30 27 31 28 32 29 34 30 35 31 36 32 37 37 38
REMARK SMILES IDX 33 39 36 40 34 41 35 42 38 44 39 45 40 46 41 48 42 49 43 50
REMARK SMILES IDX 44 51 49 52 45 53 48 54 46 55 47 56 50 58 51 59 52 60
REMARK H PARENT 14 8 11 11 9 14 9 15 28 33 35 43 40 47 47 57 52 61
ROOT
ATOM      1  O   UNL     1       2.329   3.911   6.790  1.00  0.00    -0.272 OA
ATOM      2  C   UNL     1       2.446   4.005   5.559  1.00  0.00     0.245 C 
ENDROOT
BRANCH   2   3
ATOM      3  C   UNL     1       3.543   3.170   4.853  1.00  0.00     0.168 C 
ATOM      4  C   UNL     1       4.766   4.029   4.550  1.00  0.00     0.041 C 
BRANCH   3   5
ATOM      5  N   UNL     1       3.903   1.935   5.532  1.00  0.00    -0.342 N 
ATOM      6  C   UNL     1       3.537   0.700   5.039  1.00  0.00     0.251 C 
ATOM      7  O   UNL     1       2.855   0.549   4.031  1.00  0.00    -0.272 OA
ATOM      8  H   UNL     1       4.439   1.935   6.397  1.00  0.00     0.164 HD
BRANCH   6   9
ATOM      9  C   UNL     1       4.146  -0.463   5.839  1.00  0.00     0.219 C 
BRANCH   9  10
ATOM     10  O   UNL     1       5.245  -0.052   6.661  1.00  0.00    -0.382 OA
ATOM     11  H   UNL     1       6.019  -0.113   6.059  1.00  0.00     0.211 HD
ENDBRANCH   9  10
BRANCH   9  12
ATOM     12  C   UNL     1       3.097  -1.244   6.672  1.00  0.00     0.089 C 
BRANCH  12  13
ATOM     13  N   UNL     1       1.914  -0.374   6.869  1.00  0.00    -0.325 NA
ATOM     14  H   UNL     1       1.174  -0.663   6.226  1.00  0.00     0.119 HD
ATOM     15  H   UNL     1       2.154   0.580   6.587  1.00  0.00     0.119 HD
ENDBRANCH  12  13
BRANCH  12  16
ATOM     16  C   UNL     1       2.659  -2.614   6.100  1.00  0.00     0.022 C 
BRANCH  16  17
ATOM     17  C   UNL     1       3.722  -3.548   5.505  1.00  0.00     0.002 C 
BRANCH  17  18
ATOM     18  C   UNL     1       3.376  -5.034   5.560  1.00  0.00     0.000 C 
BRANCH  18  19
ATOM     19  C   UNL     1       2.109  -5.410   4.780  1.00  0.00    -0.000 C 
BRANCH  19  20
ATOM     20  C   UNL     1       2.245  -5.360   3.256  1.00  0.00    -0.000 C 
BRANCH  20  21
ATOM     21  C   UNL     1       1.286  -6.312   2.536  1.00  0.00    -0.003 C 
ATOM     22  C   UNL     1       0.105  -5.562   1.939  1.00  0.00     0.004 C 
ENDBRANCH  20  21
ENDBRANCH  19  20
ENDBRANCH  18  19
ENDBRANCH  17  18
ENDBRANCH  16  17
ENDBRANCH  12  16
ENDBRANCH   9  12
ENDBRANCH   6   9
ENDBRANCH   3   5
ENDBRANCH   2   3
BRANCH   2  23
ATOM     23  N   UNL     1       1.527   4.751   4.828  1.00  0.00    -0.332 N 
ATOM     24  C   UNL     1       1.511   6.204   4.759  1.00  0.00     0.147 C 
BRANCH  23  25
ATOM     25  C   UNL     1       0.547   4.070   3.938  1.00  0.00     0.174 C 
BRANCH  25  26
ATOM     26  C   UNL     1       0.035   2.731   4.518  1.00  0.00     0.038 C 
BRANCH  26  27
ATOM     27  C   UNL     1      -0.884   2.811   5.758  1.00  0.00    -0.015 C 
ATOM     28  C   UNL     1      -2.088   3.726   5.535  1.00  0.00     0.007 C 
ATOM     29  C   UNL     1      -1.335   1.445   6.269  1.00  0.00     0.007 C 
ENDBRANCH  26  27
ENDBRANCH  25  26
BRANCH  25  30
ATOM     30  C   UNL     1       1.121   3.949   2.508  1.00  0.00     0.243 C 
ATOM     31  O   UNL     1       1.051   4.872   1.698  1.00  0.00    -0.273 OA
ATOM     32  N   UNL     1       1.705   2.746   2.203  1.00  0.00    -0.342 N 
ATOM     33  H   UNL     1       1.851   2.083   2.969  1.00  0.00     0.164 HD
BRANCH  32  34
ATOM     34  C   UNL     1       2.277   2.443   0.889  1.00  0.00     0.175 C 
BRANCH  34  35
ATOM     35  C   UNL     1       3.613   3.172   0.679  1.00  0.00     0.070 C 
BRANCH  35  36
ATOM     36  C   UNL     1       3.655   3.954  -0.615  1.00  0.00    -0.045 A 
ATOM     37  C   UNL     1       2.746   3.661  -1.642  1.00  0.00     0.007 A 
ATOM     38  C   UNL     1       4.610   4.959  -0.817  1.00  0.00     0.007 A 
ATOM     39  C   UNL     1       2.786   4.367  -2.845  1.00  0.00     0.046 A 
ATOM     40  C   UNL     1       4.652   5.666  -2.021  1.00  0.00     0.046 A 
ATOM     41  C   UNL     1       3.737   5.364  -3.024  1.00  0.00     0.115 A 
BRANCH  41  42
ATOM     42  O   UNL     1       3.745   6.028  -4.215  1.00  0.00    -0.508 OA
ATOM     43  H   UNL     1       3.232   5.509  -4.857  1.00  0.00     0.293 HD
ENDBRANCH  41  42
ENDBRANCH  35  36
ENDBRANCH  34  35
BRANCH  34  44
ATOM     44  C   UNL     1       2.434   0.909   0.777  1.00  0.00     0.243 C 
ATOM     45  O   UNL     1       1.497   0.123   0.665  1.00  0.00    -0.273 OA
ATOM     46  N   UNL     1       3.732   0.476   0.946  1.00  0.00    -0.341 N 
ATOM     47  H   UNL     1       4.457   1.158   1.153  1.00  0.00     0.164 HD
BRANCH  46  48
ATOM     48  C   UNL     1       4.116  -0.937   0.949  1.00  0.00     0.196 C 
BRANCH  48  49
ATOM     49  C   UNL     1       4.780  -1.340  -0.378  1.00  0.00     0.072 C 
BRANCH  49  50
ATOM     50  C   UNL     1       5.216  -0.146  -1.196  1.00  0.00    -0.045 A 
ATOM     51  C   UNL     1       4.496   0.216  -2.344  1.00  0.00     0.007 A 
ATOM     52  C   UNL     1       6.347   0.600  -0.838  1.00  0.00     0.007 A 
ATOM     53  C   UNL     1       4.896   1.308  -3.114  1.00  0.00     0.046 A 
ATOM     54  C   UNL     1       6.748   1.692  -1.610  1.00  0.00     0.046 A 
ATOM     55  C   UNL     1       6.018   2.038  -2.742  1.00  0.00     0.115 A 
BRANCH  55  56
ATOM     56  O   UNL     1       6.377   3.097  -3.522  1.00  0.00    -0.508 OA
ATOM     57  H   UNL     1       5.570   3.544  -3.821  1.00  0.00     0.293 HD
ENDBRANCH  55  56
ENDBRANCH  49  50
ENDBRANCH  48  49
BRANCH  48  58
ATOM     58  C   UNL     1       5.089  -1.188   2.109  1.00  0.00     0.326 C 
ATOM     59  O   UNL     1       5.417  -2.265   2.579  1.00  0.00    -0.250 OA
BRANCH  58  60
ATOM     60  O   UNL     1       5.623  -0.051   2.623  1.00  0.00    -0.480 OA
ATOM     61  H   UNL     1       6.551  -0.306   2.818  1.00  0.00     0.296 HD
ENDBRANCH  58  60
ENDBRANCH  48  58
ENDBRANCH  46  48
ENDBRANCH  34  44
ENDBRANCH  32  34
ENDBRANCH  25  30
ENDBRANCH  23  25
ENDBRANCH   2  23
TORSDOF 28
ENDMDL
MODEL 47
REMARK VINA RESULT:    -5.492      7.546     11.530
REMARK INTER + INTRA:         -19.613
REMARK INTER:                 -15.261
REMARK INTRA:                  -4.352
REMARK UNBOUND:                -5.934
REMARK SMILES CCCCCCC[C@H](N)[C@H](O)C(=O)N[C@H](C)C(=O)N(C)[C@H](CC(C)C)C(=O)N[C@@H](Cc1ccc(O)cc1)C(=O)N[C@@H](Cc1ccc(O)cc1)C(=O)O
REMARK SMILES IDX 18 1 17 2 15 3 16 4 14 5 12 6 13 7 10 9 11 10 8 12 9 13 7 16
REMARK SMILES IDX 6 17 5 18 4 19 3 20 2 21 1 22 19 23 20 24 21 25 22 26 23 27
REMARK SMILES IDX 24 28 25 29 26 30 27 31 28 32 29 34 30 35 31 36 32 37 37 38
REMARK SMILES IDX 33 39 36 40 34 41 35 42 38 44 39 45 40 46 41 48 42 49 43 50
REMARK SMILES IDX 44 51 49 52 45 53 48 54 46 55 47 56 50 58 51 59 52 60
REMARK H PARENT 14 8 11 11 9 14 9 15 28 33 35 43 40 47 47 57 52 61
ROOT
ATOM      1  O   UNL     1       7.749  -6.104  -2.429  1.00  0.00    -0.272 OA
ATOM      2  C   UNL     1       8.776  -5.541  -2.834  1.00  0.00     0.245 C 
ENDROOT
BRANCH   2   3
ATOM      3  C   UNL     1       9.021  -5.455  -4.361  1.00  0.00     0.168 C 
ATOM      4  C   UNL     1      10.468  -5.799  -4.697  1.00  0.00     0.041 C 
BRANCH   3   5
ATOM      5  N   UNL     1       8.081  -6.210  -5.174  1.00  0.00    -0.342 N 
ATOM      6  C   UNL     1       7.645  -5.751  -6.399  1.00  0.00     0.251 C 
ATOM      7  O   UNL     1       7.975  -4.669  -6.872  1.00  0.00    -0.272 OA
ATOM      8  H   UNL     1       7.709  -7.107  -4.870  1.00  0.00     0.164 HD
BRANCH   6   9
ATOM      9  C   UNL     1       6.771  -6.775  -7.141  1.00  0.00     0.219 C 
BRANCH   9  10
ATOM     10  O   UNL     1       6.928  -8.106  -6.634  1.00  0.00    -0.382 OA
ATOM     11  H   UNL     1       7.787  -8.072  -6.158  1.00  0.00     0.211 HD
ENDBRANCH   9  10
BRANCH   9  12
ATOM     12  C   UNL     1       5.273  -6.377  -7.188  1.00  0.00     0.089 C 
BRANCH  12  13
ATOM     13  N   UNL     1       5.071  -5.449  -8.325  1.00  0.00    -0.325 NA
ATOM     14  H   UNL     1       4.843  -5.989  -9.162  1.00  0.00     0.119 HD
ATOM     15  H   UNL     1       5.959  -4.989  -8.538  1.00  0.00     0.119 HD
ENDBRANCH  12  13
BRANCH  12  16
ATOM     16  C   UNL     1       4.263  -7.546  -7.271  1.00  0.00     0.022 C 
BRANCH  16  17
ATOM     17  C   UNL     1       3.424  -7.898  -6.034  1.00  0.00     0.002 C 
BRANCH  17  18
ATOM     18  C   UNL     1       2.546  -9.138  -6.182  1.00  0.00     0.000 C 
BRANCH  18  19
ATOM     19  C   UNL     1       1.858  -9.575  -4.882  1.00  0.00    -0.000 C 
BRANCH  19  20
ATOM     20  C   UNL     1       2.449  -8.978  -3.602  1.00  0.00    -0.000 C 
BRANCH  20  21
ATOM     21  C   UNL     1       3.301  -9.976  -2.813  1.00  0.00    -0.003 C 
ATOM     22  C   UNL     1       3.258  -9.684  -1.321  1.00  0.00     0.004 C 
ENDBRANCH  20  21
ENDBRANCH  19  20
ENDBRANCH  18  19
ENDBRANCH  17  18
ENDBRANCH  16  17
ENDBRANCH  12  16
ENDBRANCH   9  12
ENDBRANCH   6   9
ENDBRANCH   3   5
ENDBRANCH   2   3
BRANCH   2  23
ATOM     23  N   UNL     1       9.618  -4.897  -1.933  1.00  0.00    -0.332 N 
ATOM     24  C   UNL     1      10.750  -5.525  -1.267  1.00  0.00     0.147 C 
BRANCH  23  25
ATOM     25  C   UNL     1       9.477  -3.436  -1.685  1.00  0.00     0.174 C 
BRANCH  25  26
ATOM     26  C   UNL     1      10.794  -2.775  -1.215  1.00  0.00     0.038 C 
BRANCH  26  27
ATOM     27  C   UNL     1      11.423  -1.722  -2.155  1.00  0.00    -0.015 C 
ATOM     28  C   UNL     1      11.275  -2.093  -3.630  1.00  0.00     0.007 C 
ATOM     29  C   UNL     1      10.917  -0.304  -1.903  1.00  0.00     0.007 C 
ENDBRANCH  26  27
ENDBRANCH  25  26
BRANCH  25  30
ATOM     30  C   UNL     1       8.278  -3.168  -0.747  1.00  0.00     0.243 C 
ATOM     31  O   UNL     1       7.937  -3.974   0.117  1.00  0.00    -0.273 OA
ATOM     32  N   UNL     1       7.621  -1.982  -0.948  1.00  0.00    -0.342 N 
ATOM     33  H   UNL     1       8.048  -1.306  -1.586  1.00  0.00     0.164 HD
BRANCH  32  34
ATOM     34  C   UNL     1       6.447  -1.574  -0.171  1.00  0.00     0.175 C 
BRANCH  34  35
ATOM     35  C   UNL     1       6.849  -0.727   1.046  1.00  0.00     0.070 C 
BRANCH  35  36
ATOM     36  C   UNL     1       7.013   0.738   0.711  1.00  0.00    -0.045 A 
ATOM     37  C   UNL     1       8.192   1.191   0.098  1.00  0.00     0.007 A 
ATOM     38  C   UNL     1       6.009   1.664   1.024  1.00  0.00     0.007 A 
ATOM     39  C   UNL     1       8.358   2.543  -0.202  1.00  0.00     0.046 A 
ATOM     40  C   UNL     1       6.176   3.019   0.724  1.00  0.00     0.046 A 
ATOM     41  C   UNL     1       7.349   3.445   0.112  1.00  0.00     0.115 A 
BRANCH  41  42
ATOM     42  O   UNL     1       7.553   4.758  -0.196  1.00  0.00    -0.508 OA
ATOM     43  H   UNL     1       7.179   5.300   0.519  1.00  0.00     0.293 HD
ENDBRANCH  41  42
ENDBRANCH  35  36
ENDBRANCH  34  35
BRANCH  34  44
ATOM     44  C   UNL     1       5.490  -0.810  -1.115  1.00  0.00     0.243 C 
ATOM     45  O   UNL     1       4.279  -0.710  -0.942  1.00  0.00    -0.273 OA
ATOM     46  N   UNL     1       6.102  -0.350  -2.262  1.00  0.00    -0.341 N 
ATOM     47  H   UNL     1       7.086  -0.560  -2.415  1.00  0.00     0.164 HD
BRANCH  46  48
ATOM     48  C   UNL     1       5.386   0.342  -3.335  1.00  0.00     0.196 C 
BRANCH  48  49
ATOM     49  C   UNL     1       5.884   1.788  -3.499  1.00  0.00     0.072 C 
BRANCH  49  50
ATOM     50  C   UNL     1       4.982   2.795  -2.823  1.00  0.00    -0.045 A 
ATOM     51  C   UNL     1       3.798   2.368  -2.204  1.00  0.00     0.007 A 
ATOM     52  C   UNL     1       5.298   4.160  -2.822  1.00  0.00     0.007 A 
ATOM     53  C   UNL     1       2.951   3.290  -1.588  1.00  0.00     0.046 A 
ATOM     54  C   UNL     1       4.450   5.083  -2.207  1.00  0.00     0.046 A 
ATOM     55  C   UNL     1       3.283   4.639  -1.594  1.00  0.00     0.115 A 
BRANCH  55  56
ATOM     56  O   UNL     1       2.427   5.508  -0.983  1.00  0.00    -0.508 OA
ATOM     57  H   UNL     1       2.921   5.998  -0.306  1.00  0.00     0.293 HD
ENDBRANCH  55  56
ENDBRANCH  49  50
ENDBRANCH  48  49
BRANCH  48  58
ATOM     58  C   UNL     1       5.590  -0.425  -4.648  1.00  0.00     0.326 C 
ATOM     59  O   UNL     1       4.946  -0.312  -5.679  1.00  0.00    -0.250 OA
BRANCH  58  60
ATOM     60  O   UNL     1       6.623  -1.304  -4.606  1.00  0.00    -0.480 OA
ATOM     61  H   UNL     1       6.905  -1.367  -5.545  1.00  0.00     0.296 HD
ENDBRANCH  58  60
ENDBRANCH  48  58
ENDBRANCH  46  48
ENDBRANCH  34  44
ENDBRANCH  32  34
ENDBRANCH  25  30
ENDBRANCH  23  25
ENDBRANCH   2  23
TORSDOF 28
ENDMDL
MODEL 48
REMARK VINA RESULT:    -5.488      2.481      9.124
REMARK INTER + INTRA:         -19.604
REMARK INTER:                 -13.827
REMARK INTRA:                  -5.777
REMARK UNBOUND:                -5.934
REMARK SMILES CCCCCCC[C@H](N)[C@H](O)C(=O)N[C@H](C)C(=O)N(C)[C@H](CC(C)C)C(=O)N[C@@H](Cc1ccc(O)cc1)C(=O)N[C@@H](Cc1ccc(O)cc1)C(=O)O
REMARK SMILES IDX 18 1 17 2 15 3 16 4 14 5 12 6 13 7 10 9 11 10 8 12 9 13 7 16
REMARK SMILES IDX 6 17 5 18 4 19 3 20 2 21 1 22 19 23 20 24 21 25 22 26 23 27
REMARK SMILES IDX 24 28 25 29 26 30 27 31 28 32 29 34 30 35 31 36 32 37 37 38
REMARK SMILES IDX 33 39 36 40 34 41 35 42 38 44 39 45 40 46 41 48 42 49 43 50
REMARK SMILES IDX 44 51 49 52 45 53 48 54 46 55 47 56 50 58 51 59 52 60
REMARK H PARENT 14 8 11 11 9 14 9 15 28 33 35 43 40 47 47 57 52 61
ROOT
ATOM      1  O   UNL     1       2.146  -0.096   3.127  1.00  0.00    -0.272 OA
ATOM      2  C   UNL     1       1.414  -1.056   3.410  1.00  0.00     0.245 C 
ENDROOT
BRANCH   2   3
ATOM      3  C   UNL     1       0.840  -1.151   4.846  1.00  0.00     0.168 C 
ATOM      4  C   UNL     1      -0.486  -0.405   4.949  1.00  0.00     0.041 C 
BRANCH   3   5
ATOM      5  N   UNL     1       0.745  -2.502   5.378  1.00  0.00    -0.342 N 
ATOM      6  C   UNL     1       1.549  -2.936   6.410  1.00  0.00     0.251 C 
ATOM      7  O   UNL     1       2.421  -2.244   6.925  1.00  0.00    -0.272 OA
ATOM      8  H   UNL     1       0.081  -3.178   5.007  1.00  0.00     0.164 HD
BRANCH   6   9
ATOM      9  C   UNL     1       1.177  -4.344   6.902  1.00  0.00     0.219 C 
BRANCH   9  10
ATOM     10  O   UNL     1       1.814  -4.683   8.139  1.00  0.00    -0.382 OA
ATOM     11  H   UNL     1       1.356  -5.507   8.417  1.00  0.00     0.211 HD
ENDBRANCH   9  10
BRANCH   9  12
ATOM     12  C   UNL     1      -0.354  -4.574   6.989  1.00  0.00     0.089 C 
BRANCH  12  13
ATOM     13  N   UNL     1      -0.608  -6.033   6.992  1.00  0.00    -0.325 NA
ATOM     14  H   UNL     1       0.061  -6.489   7.614  1.00  0.00     0.119 HD
ATOM     15  H   UNL     1      -0.405  -6.406   6.061  1.00  0.00     0.119 HD
ENDBRANCH  12  13
BRANCH  12  16
ATOM     16  C   UNL     1      -1.073  -3.907   8.186  1.00  0.00     0.022 C 
BRANCH  16  17
ATOM     17  C   UNL     1      -1.918  -2.649   7.943  1.00  0.00     0.002 C 
BRANCH  17  18
ATOM     18  C   UNL     1      -2.985  -2.788   6.859  1.00  0.00     0.000 C 
BRANCH  18  19
ATOM     19  C   UNL     1      -4.418  -2.879   7.402  1.00  0.00    -0.000 C 
BRANCH  19  20
ATOM     20  C   UNL     1      -4.783  -4.215   8.054  1.00  0.00    -0.000 C 
BRANCH  20  21
ATOM     21  C   UNL     1      -4.388  -5.426   7.204  1.00  0.00    -0.003 C 
ATOM     22  C   UNL     1      -5.568  -6.360   6.987  1.00  0.00     0.004 C 
ENDBRANCH  20  21
ENDBRANCH  19  20
ENDBRANCH  18  19
ENDBRANCH  17  18
ENDBRANCH  16  17
ENDBRANCH  12  16
ENDBRANCH   9  12
ENDBRANCH   6   9
ENDBRANCH   3   5
ENDBRANCH   2   3
BRANCH   2  23
ATOM     23  N   UNL     1       1.027  -1.951   2.419  1.00  0.00    -0.332 N 
ATOM     24  C   UNL     1      -0.203  -1.849   1.649  1.00  0.00     0.147 C 
BRANCH  23  25
ATOM     25  C   UNL     1       1.948  -3.039   1.988  1.00  0.00     0.174 C 
BRANCH  25  26
ATOM     26  C   UNL     1       2.400  -2.896   0.516  1.00  0.00     0.038 C 
BRANCH  26  27
ATOM     27  C   UNL     1       3.660  -2.043   0.250  1.00  0.00    -0.015 C 
ATOM     28  C   UNL     1       3.320  -0.626  -0.210  1.00  0.00     0.007 C 
ATOM     29  C   UNL     1       4.629  -2.007   1.429  1.00  0.00     0.007 C 
ENDBRANCH  26  27
ENDBRANCH  25  26
BRANCH  25  30
ATOM     30  C   UNL     1       1.334  -4.418   2.319  1.00  0.00     0.243 C 
ATOM     31  O   UNL     1       0.972  -4.713   3.457  1.00  0.00    -0.273 OA
ATOM     32  N   UNL     1       1.228  -5.289   1.265  1.00  0.00    -0.342 N 
ATOM     33  H   UNL     1       1.417  -4.923   0.328  1.00  0.00     0.164 HD
BRANCH  32  34
ATOM     34  C   UNL     1       0.696  -6.648   1.397  1.00  0.00     0.175 C 
BRANCH  34  35
ATOM     35  C   UNL     1      -0.833  -6.667   1.246  1.00  0.00     0.070 C 
BRANCH  35  36
ATOM     36  C   UNL     1      -1.531  -7.278   2.440  1.00  0.00    -0.045 A 
ATOM     37  C   UNL     1      -2.666  -6.657   2.984  1.00  0.00     0.007 A 
ATOM     38  C   UNL     1      -1.048  -8.453   3.031  1.00  0.00     0.007 A 
ATOM     39  C   UNL     1      -3.308  -7.206   4.094  1.00  0.00     0.046 A 
ATOM     40  C   UNL     1      -1.690  -9.003   4.143  1.00  0.00     0.046 A 
ATOM     41  C   UNL     1      -2.816  -8.374   4.664  1.00  0.00     0.115 A 
BRANCH  41  42
ATOM     42  O   UNL     1      -3.472  -8.877   5.749  1.00  0.00    -0.508 OA
ATOM     43  H   UNL     1      -3.407  -8.229   6.470  1.00  0.00     0.293 HD
ENDBRANCH  41  42
ENDBRANCH  35  36
ENDBRANCH  34  35
BRANCH  34  44
ATOM     44  C   UNL     1       1.391  -7.539   0.344  1.00  0.00     0.243 C 
ATOM     45  O   UNL     1       2.599  -7.757   0.307  1.00  0.00    -0.273 OA
ATOM     46  N   UNL     1       0.543  -7.976  -0.652  1.00  0.00    -0.341 N 
ATOM     47  H   UNL     1      -0.428  -7.672  -0.642  1.00  0.00     0.164 HD
BRANCH  46  48
ATOM     48  C   UNL     1       0.986  -8.777  -1.795  1.00  0.00     0.196 C 
BRANCH  48  49
ATOM     49  C   UNL     1      -0.107  -9.759  -2.248  1.00  0.00     0.072 C 
BRANCH  49  50
ATOM     50  C   UNL     1      -1.312  -9.750  -1.335  1.00  0.00    -0.045 A 
ATOM     51  C   UNL     1      -2.330  -8.806  -1.532  1.00  0.00     0.007 A 
ATOM     52  C   UNL     1      -1.422 -10.661  -0.277  1.00  0.00     0.007 A 
ATOM     53  C   UNL     1      -3.441  -8.779  -0.688  1.00  0.00     0.046 A 
ATOM     54  C   UNL     1      -2.533 -10.633   0.569  1.00  0.00     0.046 A 
ATOM     55  C   UNL     1      -3.534  -9.692   0.355  1.00  0.00     0.115 A 
BRANCH  55  56
ATOM     56  O   UNL     1      -4.635  -9.632   1.158  1.00  0.00    -0.508 OA
ATOM     57  H   UNL     1      -4.346  -9.723   2.080  1.00  0.00     0.293 HD
ENDBRANCH  55  56
ENDBRANCH  49  50
ENDBRANCH  48  49
BRANCH  48  58
ATOM     58  C   UNL     1       1.347  -7.837  -2.953  1.00  0.00     0.326 C 
ATOM     59  O   UNL     1       2.463  -7.560  -3.360  1.00  0.00    -0.250 OA
BRANCH  58  60
ATOM     60  O   UNL     1       0.265  -7.292  -3.565  1.00  0.00    -0.480 OA
ATOM     61  H   UNL     1       0.035  -6.534  -2.985  1.00  0.00     0.296 HD
ENDBRANCH  58  60
ENDBRANCH  48  58
ENDBRANCH  46  48
ENDBRANCH  34  44
ENDBRANCH  32  34
ENDBRANCH  25  30
ENDBRANCH  23  25
ENDBRANCH   2  23
TORSDOF 28
ENDMDL
MODEL 49
REMARK VINA RESULT:    -5.476      5.252      9.450
REMARK INTER + INTRA:         -19.573
REMARK INTER:                 -13.105
REMARK INTRA:                  -6.468
REMARK UNBOUND:                -5.934
REMARK SMILES CCCCCCC[C@H](N)[C@H](O)C(=O)N[C@H](C)C(=O)N(C)[C@H](CC(C)C)C(=O)N[C@@H](Cc1ccc(O)cc1)C(=O)N[C@@H](Cc1ccc(O)cc1)C(=O)O
REMARK SMILES IDX 18 1 17 2 15 3 16 4 14 5 12 6 13 7 10 9 11 10 8 12 9 13 7 16
REMARK SMILES IDX 6 17 5 18 4 19 3 20 2 21 1 22 19 23 20 24 21 25 22 26 23 27
REMARK SMILES IDX 24 28 25 29 26 30 27 31 28 32 29 34 30 35 31 36 32 37 37 38
REMARK SMILES IDX 33 39 36 40 34 41 35 42 38 44 39 45 40 46 41 48 42 49 43 50
REMARK SMILES IDX 44 51 49 52 45 53 48 54 46 55 47 56 50 58 51 59 52 60
REMARK H PARENT 14 8 11 11 9 14 9 15 28 33 35 43 40 47 47 57 52 61
ROOT
ATOM      1  O   UNL     1       6.374  -2.995   4.616  1.00  0.00    -0.272 OA
ATOM      2  C   UNL     1       5.416  -3.270   3.879  1.00  0.00     0.245 C 
ENDROOT
BRANCH   2   3
ATOM      3  C   UNL     1       3.994  -3.302   4.492  1.00  0.00     0.168 C 
ATOM      4  C   UNL     1       3.749  -4.617   5.225  1.00  0.00     0.041 C 
BRANCH   3   5
ATOM      5  N   UNL     1       3.658  -2.152   5.317  1.00  0.00    -0.342 N 
ATOM      6  C   UNL     1       2.973  -1.068   4.810  1.00  0.00     0.251 C 
ATOM      7  O   UNL     1       2.635  -0.971   3.635  1.00  0.00    -0.272 OA
ATOM      8  H   UNL     1       3.917  -2.102   6.299  1.00  0.00     0.164 HD
BRANCH   6   9
ATOM      9  C   UNL     1       2.604  -0.039   5.891  1.00  0.00     0.219 C 
BRANCH   9  10
ATOM     10  O   UNL     1       2.299  -0.647   7.152  1.00  0.00    -0.382 OA
ATOM     11  H   UNL     1       3.028  -0.346   7.736  1.00  0.00     0.211 HD
ENDBRANCH   9  10
BRANCH   9  12
ATOM     12  C   UNL     1       3.670   1.074   6.061  1.00  0.00     0.089 C 
BRANCH  12  13
ATOM     13  N   UNL     1       4.593   1.018   4.904  1.00  0.00    -0.325 NA
ATOM     14  H   UNL     1       5.170   1.861   4.893  1.00  0.00     0.119 HD
ATOM     15  H   UNL     1       4.046   1.057   4.041  1.00  0.00     0.119 HD
ENDBRANCH  12  13
BRANCH  12  16
ATOM     16  C   UNL     1       3.126   2.513   6.237  1.00  0.00     0.022 C 
BRANCH  16  17
ATOM     17  C   UNL     1       2.561   2.936   7.599  1.00  0.00     0.002 C 
BRANCH  17  18
ATOM     18  C   UNL     1       1.477   4.010   7.542  1.00  0.00     0.000 C 
BRANCH  18  19
ATOM     19  C   UNL     1       0.153   3.529   6.931  1.00  0.00    -0.000 C 
BRANCH  19  20
ATOM     20  C   UNL     1      -0.468   2.304   7.607  1.00  0.00    -0.000 C 
BRANCH  20  21
ATOM     21  C   UNL     1      -1.076   2.618   8.976  1.00  0.00    -0.003 C 
ATOM     22  C   UNL     1      -2.031   3.799   8.900  1.00  0.00     0.004 C 
ENDBRANCH  20  21
ENDBRANCH  19  20
ENDBRANCH  18  19
ENDBRANCH  17  18
ENDBRANCH  16  17
ENDBRANCH  12  16
ENDBRANCH   9  12
ENDBRANCH   6   9
ENDBRANCH   3   5
ENDBRANCH   2   3
BRANCH   2  23
ATOM     23  N   UNL     1       5.613  -3.423   2.511  1.00  0.00    -0.332 N 
ATOM     24  C   UNL     1       6.739  -4.123   1.911  1.00  0.00     0.147 C 
BRANCH  23  25
ATOM     25  C   UNL     1       4.573  -2.967   1.547  1.00  0.00     0.174 C 
BRANCH  25  26
ATOM     26  C   UNL     1       4.364  -3.955   0.375  1.00  0.00     0.038 C 
BRANCH  26  27
ATOM     27  C   UNL     1       3.039  -4.749   0.357  1.00  0.00    -0.015 C 
ATOM     28  C   UNL     1       3.247  -6.239   0.625  1.00  0.00     0.007 C 
ATOM     29  C   UNL     1       1.976  -4.179   1.293  1.00  0.00     0.007 C 
ENDBRANCH  26  27
ENDBRANCH  25  26
BRANCH  25  30
ATOM     30  C   UNL     1       4.866  -1.518   1.094  1.00  0.00     0.243 C 
ATOM     31  O   UNL     1       5.992  -1.029   1.170  1.00  0.00    -0.273 OA
ATOM     32  N   UNL     1       3.791  -0.819   0.610  1.00  0.00    -0.342 N 
ATOM     33  H   UNL     1       2.924  -1.337   0.446  1.00  0.00     0.164 HD
BRANCH  32  34
ATOM     34  C   UNL     1       3.876   0.573   0.161  1.00  0.00     0.175 C 
BRANCH  34  35
ATOM     35  C   UNL     1       3.011   0.812  -1.087  1.00  0.00     0.070 C 
BRANCH  35  36
ATOM     36  C   UNL     1       3.354   2.102  -1.798  1.00  0.00    -0.045 A 
ATOM     37  C   UNL     1       4.612   2.259  -2.399  1.00  0.00     0.007 A 
ATOM     38  C   UNL     1       2.438   3.161  -1.847  1.00  0.00     0.007 A 
ATOM     39  C   UNL     1       4.942   3.450  -3.046  1.00  0.00     0.046 A 
ATOM     40  C   UNL     1       2.768   4.355  -2.493  1.00  0.00     0.046 A 
ATOM     41  C   UNL     1       4.018   4.488  -3.088  1.00  0.00     0.115 A 
BRANCH  41  42
ATOM     42  O   UNL     1       4.382   5.636  -3.727  1.00  0.00    -0.508 OA
ATOM     43  H   UNL     1       3.573   6.104  -3.995  1.00  0.00     0.293 HD
ENDBRANCH  41  42
ENDBRANCH  35  36
ENDBRANCH  34  35
BRANCH  34  44
ATOM     44  C   UNL     1       3.456   1.482   1.337  1.00  0.00     0.243 C 
ATOM     45  O   UNL     1       4.240   2.022   2.112  1.00  0.00    -0.273 OA
ATOM     46  N   UNL     1       2.091   1.536   1.529  1.00  0.00    -0.341 N 
ATOM     47  H   UNL     1       1.486   0.978   0.932  1.00  0.00     0.164 HD
BRANCH  46  48
ATOM     48  C   UNL     1       1.460   2.278   2.623  1.00  0.00     0.196 C 
BRANCH  48  49
ATOM     49  C   UNL     1       1.054   3.693   2.178  1.00  0.00     0.072 C 
BRANCH  49  50
ATOM     50  C   UNL     1       1.346   4.740   3.230  1.00  0.00    -0.045 A 
ATOM     51  C   UNL     1       2.649   4.884   3.729  1.00  0.00     0.007 A 
ATOM     52  C   UNL     1       0.329   5.560   3.733  1.00  0.00     0.007 A 
ATOM     53  C   UNL     1       2.928   5.837   4.708  1.00  0.00     0.046 A 
ATOM     54  C   UNL     1       0.608   6.513   4.715  1.00  0.00     0.046 A 
ATOM     55  C   UNL     1       1.907   6.644   5.194  1.00  0.00     0.115 A 
BRANCH  55  56
ATOM     56  O   UNL     1       2.221   7.562   6.152  1.00  0.00    -0.508 OA
ATOM     57  H   UNL     1       1.560   8.271   6.125  1.00  0.00     0.293 HD
ENDBRANCH  55  56
ENDBRANCH  49  50
ENDBRANCH  48  49
BRANCH  48  58
ATOM     58  C   UNL     1       0.217   1.510   3.094  1.00  0.00     0.326 C 
ATOM     59  O   UNL     1      -0.152   1.337   4.245  1.00  0.00    -0.250 OA
BRANCH  58  60
ATOM     60  O   UNL     1      -0.523   1.001   2.078  1.00  0.00    -0.480 OA
ATOM     61  H   UNL     1       0.135   0.877   1.359  1.00  0.00     0.296 HD
ENDBRANCH  58  60
ENDBRANCH  48  58
ENDBRANCH  46  48
ENDBRANCH  34  44
ENDBRANCH  32  34
ENDBRANCH  25  30
ENDBRANCH  23  25
ENDBRANCH   2  23
TORSDOF 28
ENDMDL
MODEL 50
REMARK VINA RESULT:    -5.447      3.576      8.133
REMARK INTER + INTRA:         -19.502
REMARK INTER:                 -12.596
REMARK INTRA:                  -6.906
REMARK UNBOUND:                -5.934
REMARK SMILES CCCCCCC[C@H](N)[C@H](O)C(=O)N[C@H](C)C(=O)N(C)[C@H](CC(C)C)C(=O)N[C@@H](Cc1ccc(O)cc1)C(=O)N[C@@H](Cc1ccc(O)cc1)C(=O)O
REMARK SMILES IDX 18 1 17 2 15 3 16 4 14 5 12 6 13 7 10 9 11 10 8 12 9 13 7 16
REMARK SMILES IDX 6 17 5 18 4 19 3 20 2 21 1 22 19 23 20 24 21 25 22 26 23 27
REMARK SMILES IDX 24 28 25 29 26 30 27 31 28 32 29 34 30 35 31 36 32 37 37 38
REMARK SMILES IDX 33 39 36 40 34 41 35 42 38 44 39 45 40 46 41 48 42 49 43 50
REMARK SMILES IDX 44 51 49 52 45 53 48 54 46 55 47 56 50 58 51 59 52 60
REMARK H PARENT 14 8 11 11 9 14 9 15 28 33 35 43 40 47 47 57 52 61
ROOT
ATOM      1  O   UNL     1       1.801   0.232   6.681  1.00  0.00    -0.272 OA
ATOM      2  C   UNL     1       1.718   0.249   5.443  1.00  0.00     0.245 C 
ENDROOT
BRANCH   2   3
ATOM      3  C   UNL     1       2.902  -0.307   4.614  1.00  0.00     0.168 C 
ATOM      4  C   UNL     1       4.051   0.694   4.571  1.00  0.00     0.041 C 
BRANCH   3   5
ATOM      5  N   UNL     1       3.353  -1.634   5.005  1.00  0.00    -0.342 N 
ATOM      6  C   UNL     1       3.008  -2.761   4.290  1.00  0.00     0.251 C 
ATOM      7  O   UNL     1       2.273  -2.740   3.308  1.00  0.00    -0.272 OA
ATOM      8  H   UNL     1       3.940  -1.780   5.823  1.00  0.00     0.164 HD
BRANCH   6   9
ATOM      9  C   UNL     1       3.712  -4.028   4.801  1.00  0.00     0.219 C 
BRANCH   9  10
ATOM     10  O   UNL     1       5.140  -3.931   4.738  1.00  0.00    -0.382 OA
ATOM     11  H   UNL     1       5.446  -4.810   5.052  1.00  0.00     0.211 HD
ENDBRANCH   9  10
BRANCH   9  12
ATOM     12  C   UNL     1       3.251  -4.449   6.221  1.00  0.00     0.089 C 
BRANCH  12  13
ATOM     13  N   UNL     1       2.020  -3.697   6.555  1.00  0.00    -0.325 NA
ATOM     14  H   UNL     1       1.730  -3.150   5.743  1.00  0.00     0.119 HD
ATOM     15  H   UNL     1       2.240  -3.007   7.277  1.00  0.00     0.119 HD
ENDBRANCH  12  13
BRANCH  12  16
ATOM     16  C   UNL     1       3.024  -5.964   6.438  1.00  0.00     0.022 C 
BRANCH  16  17
ATOM     17  C   UNL     1       1.658  -6.450   6.940  1.00  0.00     0.002 C 
BRANCH  17  18
ATOM     18  C   UNL     1       1.106  -7.679   6.221  1.00  0.00     0.000 C 
BRANCH  18  19
ATOM     19  C   UNL     1       1.404  -7.708   4.715  1.00  0.00    -0.000 C 
BRANCH  19  20
ATOM     20  C   UNL     1       0.584  -8.719   3.909  1.00  0.00    -0.000 C 
BRANCH  20  21
ATOM     21  C   UNL     1       0.789  -8.588   2.398  1.00  0.00    -0.003 C 
ATOM     22  C   UNL     1       1.729  -7.441   2.063  1.00  0.00     0.004 C 
ENDBRANCH  20  21
ENDBRANCH  19  20
ENDBRANCH  18  19
ENDBRANCH  17  18
ENDBRANCH  16  17
ENDBRANCH  12  16
ENDBRANCH   9  12
ENDBRANCH   6   9
ENDBRANCH   3   5
ENDBRANCH   2   3
BRANCH   2  23
ATOM     23  N   UNL     1       0.534   0.646   4.831  1.00  0.00    -0.332 N 
ATOM     24  C   UNL     1      -0.415   1.590   5.403  1.00  0.00     0.147 C 
BRANCH  23  25
ATOM     25  C   UNL     1       0.221   0.206   3.444  1.00  0.00     0.174 C 
BRANCH  25  26
ATOM     26  C   UNL     1      -0.287   1.358   2.547  1.00  0.00     0.038 C 
BRANCH  26  27
ATOM     27  C   UNL     1       0.781   2.193   1.806  1.00  0.00    -0.015 C 
ATOM     28  C   UNL     1       1.157   3.466   2.563  1.00  0.00     0.007 C 
ATOM     29  C   UNL     1       2.031   1.395   1.443  1.00  0.00     0.007 C 
ENDBRANCH  26  27
ENDBRANCH  25  26
BRANCH  25  30
ATOM     30  C   UNL     1      -0.720  -1.020   3.474  1.00  0.00     0.243 C 
ATOM     31  O   UNL     1      -1.652  -1.144   2.681  1.00  0.00    -0.273 OA
ATOM     32  N   UNL     1      -0.450  -1.951   4.444  1.00  0.00    -0.342 N 
ATOM     33  H   UNL     1       0.421  -1.848   4.970  1.00  0.00     0.164 HD
BRANCH  32  34
ATOM     34  C   UNL     1      -1.253  -3.162   4.639  1.00  0.00     0.175 C 
BRANCH  34  35
ATOM     35  C   UNL     1      -0.487  -4.417   4.195  1.00  0.00     0.070 C 
BRANCH  35  36
ATOM     36  C   UNL     1      -1.384  -5.453   3.555  1.00  0.00    -0.045 A 
ATOM     37  C   UNL     1      -1.442  -5.564   2.157  1.00  0.00     0.007 A 
ATOM     38  C   UNL     1      -2.182  -6.296   4.339  1.00  0.00     0.007 A 
ATOM     39  C   UNL     1      -2.276  -6.508   1.558  1.00  0.00     0.046 A 
ATOM     40  C   UNL     1      -3.019  -7.240   3.739  1.00  0.00     0.046 A 
ATOM     41  C   UNL     1      -3.057  -7.338   2.353  1.00  0.00     0.115 A 
BRANCH  41  42
ATOM     42  O   UNL     1      -3.862  -8.244   1.727  1.00  0.00    -0.508 OA
ATOM     43  H   UNL     1      -3.344  -9.051   1.565  1.00  0.00     0.293 HD
ENDBRANCH  41  42
ENDBRANCH  35  36
ENDBRANCH  34  35
BRANCH  34  44
ATOM     44  C   UNL     1      -1.662  -3.231   6.128  1.00  0.00     0.243 C 
ATOM     45  O   UNL     1      -1.129  -3.959   6.960  1.00  0.00    -0.273 OA
ATOM     46  N   UNL     1      -2.783  -2.485   6.424  1.00  0.00    -0.341 N 
ATOM     47  H   UNL     1      -3.260  -1.990   5.674  1.00  0.00     0.164 HD
BRANCH  46  48
ATOM     48  C   UNL     1      -3.398  -2.449   7.753  1.00  0.00     0.196 C 
BRANCH  48  49
ATOM     49  C   UNL     1      -3.312  -1.043   8.371  1.00  0.00     0.072 C 
BRANCH  49  50
ATOM     50  C   UNL     1      -1.954  -0.751   8.967  1.00  0.00    -0.045 A 
ATOM     51  C   UNL     1      -1.402   0.533   8.854  1.00  0.00     0.007 A 
ATOM     52  C   UNL     1      -1.221  -1.753   9.615  1.00  0.00     0.007 A 
ATOM     53  C   UNL     1      -0.144   0.811   9.388  1.00  0.00     0.046 A 
ATOM     54  C   UNL     1       0.040  -1.475  10.149  1.00  0.00     0.046 A 
ATOM     55  C   UNL     1       0.567  -0.194  10.031  1.00  0.00     0.115 A 
BRANCH  55  56
ATOM     56  O   UNL     1       1.794   0.118  10.538  1.00  0.00    -0.508 OA
ATOM     57  H   UNL     1       1.982   1.048  10.334  1.00  0.00     0.293 HD
ENDBRANCH  55  56
ENDBRANCH  49  50
ENDBRANCH  48  49
BRANCH  48  58
ATOM     58  C   UNL     1      -4.869  -2.870   7.634  1.00  0.00     0.326 C 
ATOM     59  O   UNL     1      -5.751  -2.307   7.005  1.00  0.00    -0.250 OA
BRANCH  58  60
ATOM     60  O   UNL     1      -5.163  -4.008   8.313  1.00  0.00    -0.480 OA
ATOM     61  H   UNL     1      -4.298  -4.469   8.365  1.00  0.00     0.296 HD
ENDBRANCH  58  60
ENDBRANCH  48  58
ENDBRANCH  46  48
ENDBRANCH  34  44
ENDBRANCH  32  34
ENDBRANCH  25  30
ENDBRANCH  23  25
ENDBRANCH   2  23
TORSDOF 28
ENDMDL
