MODEL 1
REMARK VINA RESULT:    -4.969      0.000      0.000
REMARK INTER + INTRA:         -11.307
REMARK INTER:                  -8.890
REMARK INTRA:                  -2.417
REMARK UNBOUND:                -2.417
REMARK SMILES CC[C@H](C)[C@H]1NC(=O)c2coc(n2)[C@H](C(C)C)NC(=O)[C@H]([C@@H](C)O)NC(=O)[C@H](C)NC(=O)c2csc1n2
REMARK SMILES IDX 11 1 13 2 12 3 9 4 10 5 7 6 6 7 8 8 5 10 36 11 35 12 34 13
REMARK SMILES IDX 37 14 33 15 31 16 32 17 30 18 28 20 29 21 3 23 4 24 2 25
REMARK SMILES IDX 1 26 14 27 18 28 19 29 20 30 21 32 25 33 26 34 27 35 22 38
REMARK SMILES IDX 23 39 24 40 15 42 16 43 17 44
REMARK H PARENT 6 9 30 19 18 31 25 36 24 41
REMARK Flexibility Score:   94.900
ROOT
ATOM      1  O   UNL     1       2.239  -2.408  -7.290  1.00  0.00    -0.446 OA
ATOM      2  N   UNL     1       3.506  -1.620  -8.980  1.00  0.00    -0.207 NA
ATOM      3  C   UNL     1       2.993  -2.690  -8.398  1.00  0.00     0.217 A 
ATOM      4  C   UNL     1       3.036  -0.563  -8.220  1.00  0.00     0.167 A 
ATOM      5  C   UNL     1       2.265  -1.050  -7.193  1.00  0.00     0.231 A 
ENDROOT
BRANCH   4   6
ATOM      6  C   UNL     1       3.369   0.824  -8.497  1.00  0.00     0.273 C 
ATOM      7  N   UNL     1       2.252   1.572  -8.768  1.00  0.00    -0.341 N 
ATOM      8  O   UNL     1       4.516   1.255  -8.510  1.00  0.00    -0.267 OA
ATOM      9  H   UNL     1       1.377   1.058  -8.812  1.00  0.00     0.164 HD
BRANCH   7  10
ATOM     10  C   UNL     1       2.311   2.914  -9.315  1.00  0.00     0.145 C 
BRANCH  10  11
ATOM     11  C   UNL     1       2.478   2.789 -10.823  1.00  0.00     0.116 A 
ATOM     12  S   UNL     1       3.192   4.080 -11.713  1.00  0.00    -0.124 S 
ATOM     13  C   UNL     1       3.037   3.166 -13.149  1.00  0.00     0.101 A 
ATOM     14  N   UNL     1       2.125   1.735 -11.540  1.00  0.00    -0.234 NA
ATOM     15  C   UNL     1       2.461   1.939 -12.881  1.00  0.00     0.139 A 
BRANCH  15  16
ATOM     16  C   UNL     1       2.218   0.915 -13.899  1.00  0.00     0.271 C 
ATOM     17  O   UNL     1       2.135   1.173 -15.095  1.00  0.00    -0.267 OA
ATOM     18  N   UNL     1       2.095  -0.357 -13.383  1.00  0.00    -0.339 N 
ATOM     19  H   UNL     1       2.071  -0.425 -12.369  1.00  0.00     0.164 HD
BRANCH  18  20
ATOM     20  C   UNL     1       1.784  -1.493 -14.240  1.00  0.00     0.168 CG0
ATOM     21  C   UNL     1       3.058  -2.163 -14.759  1.00  0.00     0.041 C 
ATOM     22  G   UNL     1       0.946  -2.565 -13.526  1.00  0.00     0.000 G0
ENDBRANCH  18  20
ENDBRANCH  15  16
ENDBRANCH  10  11
BRANCH  10  23
ATOM     23  C   UNL     1       1.070   3.760  -8.926  1.00  0.00     0.015 C 
ATOM     24  C   UNL     1      -0.189   2.915  -8.672  1.00  0.00     0.010 C 
BRANCH  23  25
ATOM     25  C   UNL     1       1.322   4.656  -7.692  1.00  0.00     0.002 C 
ATOM     26  C   UNL     1       1.545   6.124  -8.028  1.00  0.00     0.004 C 
ENDBRANCH  23  25
ENDBRANCH  10  23
ENDBRANCH   7  10
ENDBRANCH   4   6
BRANCH   3  27
ATOM     27  C   UNL     1       3.202  -4.125  -8.795  1.00  0.00     0.171 C 
BRANCH  27  28
ATOM     28  N   UNL     1       2.694  -4.291 -10.153  1.00  0.00    -0.342 N 
ATOM     29  C   UNL     1       1.356  -4.455 -10.436  1.00  0.00     0.245 C 
ATOM     30  O   UNL     1       0.488  -4.458  -9.565  1.00  0.00    -0.273 OA
ATOM     31  H   UNL     1       3.340  -4.184 -10.934  1.00  0.00     0.164 HD
BRANCH  29  32
ATOM     32  C   UNL     1       0.998  -4.484 -11.937  1.00  0.00     0.200 C 
BRANCH  32  33
ATOM     33  N   UNL     1       1.627  -3.326 -12.583  1.00  0.00    -0.340 N 
ATOM     34  C   UNL     1       0.955  -2.583 -13.531  1.00  0.00     0.243 CG0
ATOM     35  O   UNL     1      -0.169  -2.892 -13.922  1.00  0.00    -0.273 OA
ATOM     36  H   UNL     1       2.565  -3.064 -12.304  1.00  0.00     0.164 HD
ATOM     37  G   UNL     1       1.778  -1.485 -14.225  1.00  0.00     0.000 G0
ENDBRANCH  32  33
BRANCH  32  38
ATOM     38  C   UNL     1       1.399  -5.829 -12.587  1.00  0.00     0.143 C 
ATOM     39  C   UNL     1       2.614  -5.740 -13.503  1.00  0.00     0.041 C 
BRANCH  38  40
ATOM     40  O   UNL     1       1.654  -6.813 -11.566  1.00  0.00    -0.391 OA
ATOM     41  H   UNL     1       0.854  -6.852 -11.009  1.00  0.00     0.211 HD
ENDBRANCH  38  40
ENDBRANCH  32  38
ENDBRANCH  29  32
ENDBRANCH  27  28
BRANCH  27  42
ATOM     42  C   UNL     1       4.629  -4.707  -8.646  1.00  0.00     0.015 C 
ATOM     43  C   UNL     1       4.839  -5.644  -7.451  1.00  0.00     0.010 C 
ATOM     44  C   UNL     1       5.113  -5.375  -9.937  1.00  0.00     0.010 C 
ENDBRANCH  27  42
ENDBRANCH   3  27
TORSDOF 5
ENDMDL
MODEL 2
REMARK VINA RESULT:    -4.897     12.664     16.045
REMARK INTER + INTRA:         -11.179
REMARK INTER:                  -8.753
REMARK INTRA:                  -2.425
REMARK UNBOUND:                -2.417
REMARK SMILES CC[C@H](C)[C@H]1NC(=O)c2coc(n2)[C@H](C(C)C)NC(=O)[C@H]([C@@H](C)O)NC(=O)[C@H](C)NC(=O)c2csc1n2
REMARK SMILES IDX 11 1 13 2 12 3 9 4 10 5 7 6 6 7 8 8 5 10 36 11 35 12 34 13
REMARK SMILES IDX 37 14 33 15 31 16 32 17 30 18 28 20 29 21 3 23 4 24 2 25
REMARK SMILES IDX 1 26 14 27 18 28 19 29 20 30 21 32 25 33 26 34 27 35 22 38
REMARK SMILES IDX 23 39 24 40 15 42 16 43 17 44
REMARK H PARENT 6 9 30 19 18 31 25 36 24 41
REMARK Flexibility Score:   94.900
ROOT
ATOM      1  O   UNL     1      -6.202  -3.300  -1.564  1.00  0.00    -0.446 OA
ATOM      2  N   UNL     1      -5.302  -1.710  -0.244  1.00  0.00    -0.207 NA
ATOM      3  C   UNL     1      -6.395  -2.378  -0.570  1.00  0.00     0.217 A 
ATOM      4  C   UNL     1      -4.321  -2.246  -1.059  1.00  0.00     0.167 A 
ATOM      5  C   UNL     1      -4.875  -3.214  -1.860  1.00  0.00     0.231 A 
ENDROOT
BRANCH   4   6
ATOM      6  C   UNL     1      -2.942  -1.790  -1.045  1.00  0.00     0.273 C 
ATOM      7  N   UNL     1      -2.239  -2.323   0.006  1.00  0.00    -0.341 N 
ATOM      8  O   UNL     1      -2.480  -1.004  -1.864  1.00  0.00    -0.267 OA
ATOM      9  H   UNL     1      -2.779  -2.886   0.656  1.00  0.00     0.164 HD
BRANCH   7  10
ATOM     10  C   UNL     1      -0.926  -1.851   0.401  1.00  0.00     0.145 C 
BRANCH  10  11
ATOM     11  C   UNL     1      -0.932  -1.688   1.914  1.00  0.00     0.116 A 
ATOM     12  S   UNL     1       0.508  -1.991   2.811  1.00  0.00    -0.124 S 
ATOM     13  C   UNL     1      -0.310  -1.569   4.251  1.00  0.00     0.101 A 
ATOM     14  N   UNL     1      -1.975  -1.306   2.631  1.00  0.00    -0.234 NA
ATOM     15  C   UNL     1      -1.618  -1.219   3.979  1.00  0.00     0.139 A 
BRANCH  15  16
ATOM     16  C   UNL     1      -2.572  -0.782   5.001  1.00  0.00     0.271 C 
ATOM     17  O   UNL     1      -2.488  -1.120   6.177  1.00  0.00    -0.267 OA
ATOM     18  N   UNL     1      -3.563   0.042   4.513  1.00  0.00    -0.339 N 
ATOM     19  H   UNL     1      -3.588   0.158   3.503  1.00  0.00     0.164 HD
BRANCH  18  20
ATOM     20  C   UNL     1      -4.638   0.520   5.372  1.00  0.00     0.168 CG0
ATOM     21  C   UNL     1      -4.531   2.028   5.610  1.00  0.00     0.041 C 
ATOM     22  G   UNL     1      -6.033   0.234   4.793  1.00  0.00     0.000 G0
ENDBRANCH  18  20
ENDBRANCH  15  16
ENDBRANCH  10  11
BRANCH  10  23
ATOM     23  C   UNL     1       0.206  -2.791  -0.089  1.00  0.00     0.015 C 
ATOM     24  C   UNL     1      -0.313  -4.108  -0.691  1.00  0.00     0.010 C 
BRANCH  23  25
ATOM     25  C   UNL     1       1.145  -2.115  -1.114  1.00  0.00     0.002 C 
ATOM     26  C   UNL     1       0.894  -0.624  -1.292  1.00  0.00     0.004 C 
ENDBRANCH  23  25
ENDBRANCH  10  23
ENDBRANCH   7  10
ENDBRANCH   4   6
BRANCH   3  27
ATOM     27  C   UNL     1      -7.777  -2.185  -0.009  1.00  0.00     0.171 C 
BRANCH  27  28
ATOM     28  N   UNL     1      -7.769  -0.962   0.787  1.00  0.00    -0.342 N 
ATOM     29  C   UNL     1      -7.626  -0.963   2.156  1.00  0.00     0.245 C 
ATOM     30  O   UNL     1      -7.479  -1.995   2.809  1.00  0.00    -0.273 OA
ATOM     31  H   UNL     1      -7.772  -0.064   0.305  1.00  0.00     0.164 HD
BRANCH  29  32
ATOM     32  C   UNL     1      -7.512   0.431   2.809  1.00  0.00     0.200 C 
BRANCH  32  33
ATOM     33  N   UNL     1      -6.198   0.530   3.456  1.00  0.00    -0.340 N 
ATOM     34  C   UNL     1      -6.035   0.242   4.795  1.00  0.00     0.243 CG0
ATOM     35  O   UNL     1      -6.987  -0.047   5.517  1.00  0.00    -0.273 OA
ATOM     36  H   UNL     1      -5.399   0.796   2.892  1.00  0.00     0.164 HD
ATOM     37  G   UNL     1      -4.638   0.520   5.372  1.00  0.00     0.000 G0
ENDBRANCH  32  33
BRANCH  32  38
ATOM     38  C   UNL     1      -7.765   1.558   1.781  1.00  0.00     0.143 C 
ATOM     39  C   UNL     1      -8.215   2.876   2.401  1.00  0.00     0.041 C 
BRANCH  38  40
ATOM     40  O   UNL     1      -6.576   1.790   1.001  1.00  0.00    -0.391 OA
ATOM     41  H   UNL     1      -6.608   1.167   0.251  1.00  0.00     0.211 HD
ENDBRANCH  38  40
ENDBRANCH  32  38
ENDBRANCH  29  32
ENDBRANCH  27  28
BRANCH  27  42
ATOM     42  C   UNL     1      -8.961  -2.207  -1.007  1.00  0.00     0.015 C 
ATOM     43  C   UNL     1     -10.301  -2.682  -0.432  1.00  0.00     0.010 C 
ATOM     44  C   UNL     1      -9.135  -0.862  -1.719  1.00  0.00     0.010 C 
ENDBRANCH  27  42
ENDBRANCH   3  27
TORSDOF 5
ENDMDL
MODEL 3
REMARK VINA RESULT:    -4.785      8.153     10.957
REMARK INTER + INTRA:         -10.977
REMARK INTER:                  -8.545
REMARK INTRA:                  -2.433
REMARK UNBOUND:                -2.417
REMARK SMILES CC[C@H](C)[C@H]1NC(=O)c2coc(n2)[C@H](C(C)C)NC(=O)[C@H]([C@@H](C)O)NC(=O)[C@H](C)NC(=O)c2csc1n2
REMARK SMILES IDX 11 1 13 2 12 3 9 4 10 5 7 6 6 7 8 8 5 10 36 11 35 12 34 13
REMARK SMILES IDX 37 14 33 15 31 16 32 17 30 18 28 20 29 21 3 23 4 24 2 25
REMARK SMILES IDX 1 26 14 27 18 28 19 29 20 30 21 32 25 33 26 34 27 35 22 38
REMARK SMILES IDX 23 39 24 40 15 42 16 43 17 44
REMARK H PARENT 6 9 30 19 18 31 25 36 24 41
REMARK Flexibility Score:   94.900
ROOT
ATOM      1  O   UNL     1      -2.358  -0.106  -6.319  1.00  0.00    -0.446 OA
ATOM      2  N   UNL     1      -3.876  -1.327  -7.453  1.00  0.00    -0.207 NA
ATOM      3  C   UNL     1      -3.641  -0.210  -6.788  1.00  0.00     0.217 A 
ATOM      4  C   UNL     1      -2.662  -1.990  -7.442  1.00  0.00     0.167 A 
ATOM      5  C   UNL     1      -1.741  -1.241  -6.751  1.00  0.00     0.231 A 
ENDROOT
BRANCH   4   6
ATOM      6  C   UNL     1      -2.463  -3.291  -8.057  1.00  0.00     0.273 C 
ATOM      7  N   UNL     1      -2.785  -3.279  -9.391  1.00  0.00    -0.341 N 
ATOM      8  O   UNL     1      -2.078  -4.279  -7.444  1.00  0.00    -0.267 OA
ATOM      9  H   UNL     1      -3.178  -2.410  -9.742  1.00  0.00     0.164 HD
BRANCH   7  10
ATOM     10  C   UNL     1      -2.916  -4.485 -10.185  1.00  0.00     0.145 C 
BRANCH  10  11
ATOM     11  C   UNL     1      -4.370  -4.929 -10.110  1.00  0.00     0.116 A 
ATOM     12  S   UNL     1      -4.746  -6.549  -9.657  1.00  0.00    -0.124 S 
ATOM     13  C   UNL     1      -6.412  -6.188  -9.779  1.00  0.00     0.101 A 
ATOM     14  N   UNL     1      -5.413  -4.154 -10.355  1.00  0.00    -0.234 NA
ATOM     15  C   UNL     1      -6.595  -4.870 -10.150  1.00  0.00     0.139 A 
BRANCH  15  16
ATOM     16  C   UNL     1      -7.911  -4.247 -10.313  1.00  0.00     0.271 C 
ATOM     17  O   UNL     1      -8.586  -4.376 -11.328  1.00  0.00    -0.267 OA
ATOM     18  N   UNL     1      -8.310  -3.509  -9.218  1.00  0.00    -0.339 N 
ATOM     19  H   UNL     1      -7.614  -3.388  -8.486  1.00  0.00     0.164 HD
BRANCH  18  20
ATOM     20  C   UNL     1      -9.560  -2.762  -9.227  1.00  0.00     0.168 CG0
ATOM     21  C   UNL     1     -10.738  -3.646  -8.811  1.00  0.00     0.041 C 
ATOM     22  G   UNL     1      -9.532  -1.544  -8.289  1.00  0.00     0.000 G0
ENDBRANCH  18  20
ENDBRANCH  15  16
ENDBRANCH  10  11
BRANCH  10  23
ATOM     23  C   UNL     1      -2.435  -4.280 -11.646  1.00  0.00     0.015 C 
ATOM     24  C   UNL     1      -3.185  -5.158 -12.662  1.00  0.00     0.010 C 
BRANCH  23  25
ATOM     25  C   UNL     1      -2.524  -2.807 -12.104  1.00  0.00     0.002 C 
ATOM     26  C   UNL     1      -2.423  -2.621 -13.612  1.00  0.00     0.004 C 
ENDBRANCH  23  25
ENDBRANCH  10  23
ENDBRANCH   7  10
ENDBRANCH   4   6
BRANCH   3  27
ATOM     27  C   UNL     1      -4.626   0.882  -6.471  1.00  0.00     0.171 C 
BRANCH  27  28
ATOM     28  N   UNL     1      -5.926   0.258  -6.247  1.00  0.00    -0.342 N 
ATOM     29  C   UNL     1      -7.073   0.670  -6.888  1.00  0.00     0.245 C 
ATOM     30  O   UNL     1      -7.083   1.585  -7.710  1.00  0.00    -0.273 OA
ATOM     31  H   UNL     1      -5.975  -0.579  -5.667  1.00  0.00     0.164 HD
BRANCH  29  32
ATOM     32  C   UNL     1      -8.324  -0.192  -6.621  1.00  0.00     0.200 C 
BRANCH  32  33
ATOM     33  N   UNL     1      -8.389  -1.240  -7.647  1.00  0.00    -0.340 N 
ATOM     34  C   UNL     1      -9.574  -1.547  -8.283  1.00  0.00     0.243 CG0
ATOM     35  O   UNL     1     -10.635  -1.005  -7.978  1.00  0.00    -0.273 OA
ATOM     36  H   UNL     1      -7.536  -1.726  -7.898  1.00  0.00     0.164 HD
ATOM     37  G   UNL     1      -9.528  -2.755  -9.233  1.00  0.00     0.000 G0
ENDBRANCH  32  33
BRANCH  32  38
ATOM     38  C   UNL     1      -8.324  -0.757  -5.181  1.00  0.00     0.143 C 
ATOM     39  C   UNL     1      -9.702  -0.798  -4.529  1.00  0.00     0.041 C 
BRANCH  38  40
ATOM     40  O   UNL     1      -7.763  -2.084  -5.172  1.00  0.00    -0.391 OA
ATOM     41  H   UNL     1      -8.479  -2.688  -4.896  1.00  0.00     0.211 HD
ENDBRANCH  38  40
ENDBRANCH  32  38
ENDBRANCH  29  32
ENDBRANCH  27  28
BRANCH  27  42
ATOM     42  C   UNL     1      -4.261   1.863  -5.330  1.00  0.00     0.015 C 
ATOM     43  C   UNL     1      -4.623   3.331  -5.579  1.00  0.00     0.010 C 
ATOM     44  C   UNL     1      -4.815   1.401  -3.978  1.00  0.00     0.010 C 
ENDBRANCH  27  42
ENDBRANCH   3  27
TORSDOF 5
ENDMDL
MODEL 4
REMARK VINA RESULT:    -4.774      9.633     12.130
REMARK INTER + INTRA:         -10.958
REMARK INTER:                  -8.590
REMARK INTRA:                  -2.367
REMARK UNBOUND:                -2.417
REMARK SMILES CC[C@H](C)[C@H]1NC(=O)c2coc(n2)[C@H](C(C)C)NC(=O)[C@H]([C@@H](C)O)NC(=O)[C@H](C)NC(=O)c2csc1n2
REMARK SMILES IDX 11 1 13 2 12 3 9 4 10 5 7 6 6 7 8 8 5 10 36 11 35 12 34 13
REMARK SMILES IDX 37 14 33 15 31 16 32 17 30 18 28 20 29 21 3 23 4 24 2 25
REMARK SMILES IDX 1 26 14 27 18 28 19 29 20 30 21 32 25 33 26 34 27 35 22 38
REMARK SMILES IDX 23 39 24 40 15 42 16 43 17 44
REMARK H PARENT 6 9 30 19 18 31 25 36 24 41
REMARK Flexibility Score:   94.900
ROOT
ATOM      1  O   UNL     1      -5.429  -4.004  -0.034  1.00  0.00    -0.446 OA
ATOM      2  N   UNL     1      -4.168  -2.164  -0.365  1.00  0.00    -0.207 NA
ATOM      3  C   UNL     1      -5.327  -2.641   0.055  1.00  0.00     0.217 A 
ATOM      4  C   UNL     1      -3.450  -3.291  -0.729  1.00  0.00     0.167 A 
ATOM      5  C   UNL     1      -4.223  -4.407  -0.524  1.00  0.00     0.231 A 
ENDROOT
BRANCH   4   6
ATOM      6  C   UNL     1      -2.103  -3.233  -1.269  1.00  0.00     0.273 C 
ATOM      7  N   UNL     1      -1.729  -1.947  -1.568  1.00  0.00    -0.341 N 
ATOM      8  O   UNL     1      -1.404  -4.222  -1.454  1.00  0.00    -0.267 OA
ATOM      9  H   UNL     1      -2.448  -1.240  -1.447  1.00  0.00     0.164 HD
BRANCH   7  10
ATOM     10  C   UNL     1      -0.545  -1.627  -2.341  1.00  0.00     0.145 C 
BRANCH  10  11
ATOM     11  C   UNL     1      -0.972  -0.709  -3.477  1.00  0.00     0.116 A 
ATOM     12  S   UNL     1       0.224   0.101  -4.417  1.00  0.00    -0.124 S 
ATOM     13  C   UNL     1      -1.010   0.795  -5.376  1.00  0.00     0.101 A 
ATOM     14  N   UNL     1      -2.225  -0.476  -3.834  1.00  0.00    -0.234 NA
ATOM     15  C   UNL     1      -2.253   0.378  -4.939  1.00  0.00     0.139 A 
BRANCH  15  16
ATOM     16  C   UNL     1      -3.512   0.777  -5.572  1.00  0.00     0.271 C 
ATOM     17  O   UNL     1      -3.560   1.526  -6.542  1.00  0.00    -0.267 OA
ATOM     18  N   UNL     1      -4.627   0.229  -4.974  1.00  0.00    -0.339 N 
ATOM     19  H   UNL     1      -4.461  -0.284  -4.112  1.00  0.00     0.164 HD
BRANCH  18  20
ATOM     20  C   UNL     1      -5.969   0.568  -5.426  1.00  0.00     0.168 CG0
ATOM     21  C   UNL     1      -6.625  -0.609  -6.152  1.00  0.00     0.041 C 
ATOM     22  G   UNL     1      -6.897   0.986  -4.274  1.00  0.00     0.000 G0
ENDBRANCH  18  20
ENDBRANCH  15  16
ENDBRANCH  10  11
BRANCH  10  23
ATOM     23  C   UNL     1       0.576  -1.004  -1.467  1.00  0.00     0.015 C 
ATOM     24  C   UNL     1       0.118  -0.671  -0.037  1.00  0.00     0.010 C 
BRANCH  23  25
ATOM     25  C   UNL     1       1.837  -1.894  -1.388  1.00  0.00     0.002 C 
ATOM     26  C   UNL     1       3.045  -1.320  -2.116  1.00  0.00     0.004 C 
ENDBRANCH  23  25
ENDBRANCH  10  23
ENDBRANCH   7  10
ENDBRANCH   4   6
BRANCH   3  27
ATOM     27  C   UNL     1      -6.508  -1.850   0.546  1.00  0.00     0.171 C 
BRANCH  27  28
ATOM     28  N   UNL     1      -7.268  -1.411  -0.620  1.00  0.00    -0.342 N 
ATOM     29  C   UNL     1      -7.434  -0.084  -0.947  1.00  0.00     0.245 C 
ATOM     30  O   UNL     1      -6.940   0.831  -0.289  1.00  0.00    -0.273 OA
ATOM     31  H   UNL     1      -7.609  -2.113  -1.275  1.00  0.00     0.164 HD
BRANCH  29  32
ATOM     32  C   UNL     1      -8.157   0.180  -2.284  1.00  0.00     0.200 C 
BRANCH  32  33
ATOM     33  N   UNL     1      -7.198  -0.028  -3.376  1.00  0.00    -0.340 N 
ATOM     34  C   UNL     1      -6.895   0.982  -4.265  1.00  0.00     0.243 CG0
ATOM     35  O   UNL     1      -7.457   2.075  -4.224  1.00  0.00    -0.273 OA
ATOM     36  H   UNL     1      -6.741  -0.929  -3.455  1.00  0.00     0.164 HD
ATOM     37  G   UNL     1      -5.983   0.587  -5.437  1.00  0.00     0.000 G0
ENDBRANCH  32  33
BRANCH  32  38
ATOM     38  C   UNL     1      -9.427  -0.692  -2.422  1.00  0.00     0.143 C 
ATOM     39  C   UNL     1     -10.720   0.106  -2.539  1.00  0.00     0.041 C 
BRANCH  38  40
ATOM     40  O   UNL     1      -9.307  -1.558  -3.567  1.00  0.00    -0.391 OA
ATOM     41  H   UNL     1      -9.382  -0.990  -4.357  1.00  0.00     0.211 HD
ENDBRANCH  38  40
ENDBRANCH  32  38
ENDBRANCH  29  32
ENDBRANCH  27  28
BRANCH  27  42
ATOM     42  C   UNL     1      -7.422  -2.515   1.604  1.00  0.00     0.015 C 
ATOM     43  C   UNL     1      -7.734  -1.662   2.839  1.00  0.00     0.010 C 
ATOM     44  C   UNL     1      -8.718  -3.049   0.986  1.00  0.00     0.010 C 
ENDBRANCH  27  42
ENDBRANCH   3  27
TORSDOF 5
ENDMDL
MODEL 5
REMARK VINA RESULT:    -4.631      8.601     11.527
REMARK INTER + INTRA:         -10.702
REMARK INTER:                  -8.728
REMARK INTRA:                  -1.974
REMARK UNBOUND:                -2.417
REMARK SMILES CC[C@H](C)[C@H]1NC(=O)c2coc(n2)[C@H](C(C)C)NC(=O)[C@H]([C@@H](C)O)NC(=O)[C@H](C)NC(=O)c2csc1n2
REMARK SMILES IDX 11 1 13 2 12 3 9 4 10 5 7 6 6 7 8 8 5 10 36 11 35 12 34 13
REMARK SMILES IDX 37 14 33 15 31 16 32 17 30 18 28 20 29 21 3 23 4 24 2 25
REMARK SMILES IDX 1 26 14 27 18 28 19 29 20 30 21 32 25 33 26 34 27 35 22 38
REMARK SMILES IDX 23 39 24 40 15 42 16 43 17 44
REMARK H PARENT 6 9 30 19 18 31 25 36 24 41
REMARK Flexibility Score:   94.900
ROOT
ATOM      1  O   UNL     1      -6.230  -2.375  -0.823  1.00  0.00    -0.446 OA
ATOM      2  N   UNL     1      -4.479  -2.159  -2.227  1.00  0.00    -0.207 NA
ATOM      3  C   UNL     1      -5.765  -1.930  -2.032  1.00  0.00     0.217 A 
ATOM      4  C   UNL     1      -4.063  -2.773  -1.058  1.00  0.00     0.167 A 
ATOM      5  C   UNL     1      -5.134  -2.901  -0.207  1.00  0.00     0.231 A 
ENDROOT
BRANCH   4   6
ATOM      6  C   UNL     1      -2.699  -3.220  -0.838  1.00  0.00     0.273 C 
ATOM      7  N   UNL     1      -2.006  -2.361  -0.022  1.00  0.00    -0.341 N 
ATOM      8  O   UNL     1      -2.226  -4.229  -1.346  1.00  0.00    -0.267 OA
ATOM      9  H   UNL     1      -2.501  -1.516   0.249  1.00  0.00     0.164 HD
BRANCH   7  10
ATOM     10  C   UNL     1      -0.570  -2.429   0.162  1.00  0.00     0.145 C 
BRANCH  10  11
ATOM     11  C   UNL     1       0.082  -1.859  -1.090  1.00  0.00     0.116 A 
ATOM     12  S   UNL     1       1.686  -2.328  -1.507  1.00  0.00    -0.124 S 
ATOM     13  C   UNL     1       1.599  -1.354  -2.909  1.00  0.00     0.101 A 
ATOM     14  N   UNL     1      -0.497  -1.014  -1.928  1.00  0.00    -0.234 NA
ATOM     15  C   UNL     1       0.367  -0.732  -2.989  1.00  0.00     0.139 A 
BRANCH  15  16
ATOM     16  C   UNL     1      -0.028   0.149  -4.090  1.00  0.00     0.271 C 
ATOM     17  O   UNL     1       0.783   0.676  -4.844  1.00  0.00    -0.267 OA
ATOM     18  N   UNL     1      -1.392   0.323  -4.194  1.00  0.00    -0.339 N 
ATOM     19  H   UNL     1      -1.949  -0.076  -3.443  1.00  0.00     0.164 HD
BRANCH  18  20
ATOM     20  C   UNL     1      -1.964   1.220  -5.188  1.00  0.00     0.168 CG0
ATOM     21  C   UNL     1      -2.348   0.466  -6.463  1.00  0.00     0.041 C 
ATOM     22  G   UNL     1      -3.217   1.951  -4.678  1.00  0.00     0.000 G0
ENDBRANCH  18  20
ENDBRANCH  15  16
ENDBRANCH  10  11
BRANCH  10  23
ATOM     23  C   UNL     1      -0.110  -1.700   1.452  1.00  0.00     0.015 C 
ATOM     24  C   UNL     1      -1.275  -1.289   2.368  1.00  0.00     0.010 C 
BRANCH  23  25
ATOM     25  C   UNL     1       0.900  -2.529   2.279  1.00  0.00     0.002 C 
ATOM     26  C   UNL     1       0.756  -2.357   3.784  1.00  0.00     0.004 C 
ENDBRANCH  23  25
ENDBRANCH  10  23
ENDBRANCH   7  10
ENDBRANCH   4   6
BRANCH   3  27
ATOM     27  C   UNL     1      -6.731  -1.301  -2.999  1.00  0.00     0.171 C 
BRANCH  27  28
ATOM     28  N   UNL     1      -6.025  -0.238  -3.707  1.00  0.00    -0.342 N 
ATOM     29  C   UNL     1      -6.618   0.959  -4.041  1.00  0.00     0.245 C 
ATOM     30  O   UNL     1      -7.784   1.227  -3.754  1.00  0.00    -0.273 OA
ATOM     31  H   UNL     1      -5.025  -0.342  -3.876  1.00  0.00     0.164 HD
BRANCH  29  32
ATOM     32  C   UNL     1      -5.677   2.008  -4.671  1.00  0.00     0.200 C 
BRANCH  32  33
ATOM     33  N   UNL     1      -4.403   1.352  -4.990  1.00  0.00    -0.340 N 
ATOM     34  C   UNL     1      -3.196   1.939  -4.670  1.00  0.00     0.243 CG0
ATOM     35  O   UNL     1      -3.132   3.058  -4.165  1.00  0.00    -0.273 OA
ATOM     36  H   UNL     1      -4.424   0.441  -5.433  1.00  0.00     0.164 HD
ATOM     37  G   UNL     1      -1.944   1.210  -5.182  1.00  0.00     0.000 G0
ENDBRANCH  32  33
BRANCH  32  38
ATOM     38  C   UNL     1      -6.329   2.687  -5.898  1.00  0.00     0.143 C 
ATOM     39  C   UNL     1      -5.770   4.069  -6.214  1.00  0.00     0.041 C 
BRANCH  38  40
ATOM     40  O   UNL     1      -6.184   1.848  -7.061  1.00  0.00    -0.391 OA
ATOM     41  H   UNL     1      -6.660   2.293  -7.787  1.00  0.00     0.211 HD
ENDBRANCH  38  40
ENDBRANCH  32  38
ENDBRANCH  29  32
ENDBRANCH  27  28
BRANCH  27  42
ATOM     42  C   UNL     1      -7.474  -2.241  -3.978  1.00  0.00     0.015 C 
ATOM     43  C   UNL     1      -6.585  -3.211  -4.766  1.00  0.00     0.010 C 
ATOM     44  C   UNL     1      -8.611  -3.003  -3.290  1.00  0.00     0.010 C 
ENDBRANCH  27  42
ENDBRANCH   3  27
TORSDOF 5
ENDMDL
MODEL 6
REMARK VINA RESULT:    -4.475     19.883     22.480
REMARK INTER + INTRA:         -10.424
REMARK INTER:                  -8.675
REMARK INTRA:                  -1.749
REMARK UNBOUND:                -2.417
REMARK SMILES CC[C@H](C)[C@H]1NC(=O)c2coc(n2)[C@H](C(C)C)NC(=O)[C@H]([C@@H](C)O)NC(=O)[C@H](C)NC(=O)c2csc1n2
REMARK SMILES IDX 11 1 13 2 12 3 9 4 10 5 7 6 6 7 8 8 5 10 36 11 35 12 34 13
REMARK SMILES IDX 37 14 33 15 31 16 32 17 30 18 28 20 29 21 3 23 4 24 2 25
REMARK SMILES IDX 1 26 14 27 18 28 19 29 20 30 21 32 25 33 26 34 27 35 22 38
REMARK SMILES IDX 23 39 24 40 15 42 16 43 17 44
REMARK H PARENT 6 9 30 19 18 31 25 36 24 41
REMARK Flexibility Score:   94.900
ROOT
ATOM      1  O   UNL     1     -14.839  -6.287   6.034  1.00  0.00    -0.446 OA
ATOM      2  N   UNL     1     -12.881  -5.732   5.063  1.00  0.00    -0.207 NA
ATOM      3  C   UNL     1     -13.564  -5.814   6.192  1.00  0.00     0.217 A 
ATOM      4  C   UNL     1     -13.756  -6.209   4.103  1.00  0.00     0.167 A 
ATOM      5  C   UNL     1     -14.946  -6.546   4.700  1.00  0.00     0.231 A 
ENDROOT
BRANCH   4   6
ATOM      6  C   UNL     1     -13.421  -6.285   2.691  1.00  0.00     0.273 C 
ATOM      7  N   UNL     1     -12.067  -6.200   2.484  1.00  0.00    -0.341 N 
ATOM      8  O   UNL     1     -14.255  -6.387   1.801  1.00  0.00    -0.267 OA
ATOM      9  H   UNL     1     -11.505  -6.024   3.312  1.00  0.00     0.164 HD
BRANCH   7  10
ATOM     10  C   UNL     1     -11.477  -6.001   1.175  1.00  0.00     0.145 C 
BRANCH  10  11
ATOM     11  C   UNL     1     -11.254  -4.507   0.992  1.00  0.00     0.116 A 
ATOM     12  S   UNL     1     -10.733  -3.902  -0.535  1.00  0.00    -0.124 S 
ATOM     13  C   UNL     1     -10.780  -2.311   0.088  1.00  0.00     0.101 A 
ATOM     14  N   UNL     1     -11.444  -3.592   1.928  1.00  0.00    -0.234 NA
ATOM     15  C   UNL     1     -11.188  -2.321   1.408  1.00  0.00     0.139 A 
BRANCH  15  16
ATOM     16  C   UNL     1     -11.356  -1.111   2.216  1.00  0.00     0.271 C 
ATOM     17  O   UNL     1     -11.036   0.004   1.819  1.00  0.00    -0.267 OA
ATOM     18  N   UNL     1     -11.906  -1.350   3.458  1.00  0.00    -0.339 N 
ATOM     19  H   UNL     1     -12.023  -2.327   3.712  1.00  0.00     0.164 HD
BRANCH  18  20
ATOM     20  C   UNL     1     -12.083  -0.274   4.424  1.00  0.00     0.168 CG0
ATOM     21  C   UNL     1     -13.565   0.044   4.637  1.00  0.00     0.041 C 
ATOM     22  G   UNL     1     -11.471  -0.600   5.796  1.00  0.00     0.000 G0
ENDBRANCH  18  20
ENDBRANCH  15  16
ENDBRANCH  10  11
BRANCH  10  23
ATOM     23  C   UNL     1     -10.173  -6.821   0.989  1.00  0.00     0.015 C 
ATOM     24  C   UNL     1      -9.238  -6.762   2.208  1.00  0.00     0.010 C 
BRANCH  23  25
ATOM     25  C   UNL     1     -10.442  -8.304   0.644  1.00  0.00     0.002 C 
ATOM     26  C   UNL     1     -10.180  -9.264   1.796  1.00  0.00     0.004 C 
ENDBRANCH  23  25
ENDBRANCH  10  23
ENDBRANCH   7  10
ENDBRANCH   4   6
BRANCH   3  27
ATOM     27  C   UNL     1     -13.102  -5.400   7.562  1.00  0.00     0.171 C 
BRANCH  27  28
ATOM     28  N   UNL     1     -12.912  -3.953   7.551  1.00  0.00    -0.342 N 
ATOM     29  C   UNL     1     -11.853  -3.334   8.178  1.00  0.00     0.245 C 
ATOM     30  O   UNL     1     -10.981  -3.957   8.781  1.00  0.00    -0.273 OA
ATOM     31  H   UNL     1     -13.530  -3.382   6.976  1.00  0.00     0.164 HD
BRANCH  29  32
ATOM     32  C   UNL     1     -11.749  -1.812   7.947  1.00  0.00     0.200 C 
BRANCH  32  33
ATOM     33  N   UNL     1     -12.141  -1.528   6.561  1.00  0.00    -0.340 N 
ATOM     34  C   UNL     1     -11.468  -0.590   5.805  1.00  0.00     0.243 CG0
ATOM     35  O   UNL     1     -10.558   0.091   6.274  1.00  0.00    -0.273 OA
ATOM     36  H   UNL     1     -12.908  -2.052   6.157  1.00  0.00     0.164 HD
ATOM     37  G   UNL     1     -12.068  -0.295   4.421  1.00  0.00     0.000 G0
ENDBRANCH  32  33
BRANCH  32  38
ATOM     38  C   UNL     1     -12.585  -1.025   8.983  1.00  0.00     0.143 C 
ATOM     39  C   UNL     1     -11.846  -0.727  10.283  1.00  0.00     0.041 C 
BRANCH  38  40
ATOM     40  O   UNL     1     -13.040   0.216   8.409  1.00  0.00    -0.391 OA
ATOM     41  H   UNL     1     -12.260   0.639   8.004  1.00  0.00     0.211 HD
ENDBRANCH  38  40
ENDBRANCH  32  38
ENDBRANCH  29  32
ENDBRANCH  27  28
BRANCH  27  42
ATOM     42  C   UNL     1     -13.959  -5.852   8.770  1.00  0.00     0.015 C 
ATOM     43  C   UNL     1     -15.292  -5.116   8.948  1.00  0.00     0.010 C 
ATOM     44  C   UNL     1     -14.185  -7.368   8.777  1.00  0.00     0.010 C 
ENDBRANCH  27  42
ENDBRANCH   3  27
TORSDOF 5
ENDMDL
MODEL 7
REMARK VINA RESULT:    -4.276      8.566     11.171
REMARK INTER + INTRA:         -10.068
REMARK INTER:                  -7.649
REMARK INTRA:                  -2.419
REMARK UNBOUND:                -2.417
REMARK SMILES CC[C@H](C)[C@H]1NC(=O)c2coc(n2)[C@H](C(C)C)NC(=O)[C@H]([C@@H](C)O)NC(=O)[C@H](C)NC(=O)c2csc1n2
REMARK SMILES IDX 11 1 13 2 12 3 9 4 10 5 7 6 6 7 8 8 5 10 36 11 35 12 34 13
REMARK SMILES IDX 37 14 33 15 31 16 32 17 30 18 28 20 29 21 3 23 4 24 2 25
REMARK SMILES IDX 1 26 14 27 18 28 19 29 20 30 21 32 25 33 26 34 27 35 22 38
REMARK SMILES IDX 23 39 24 40 15 42 16 43 17 44
REMARK H PARENT 6 9 30 19 18 31 25 36 24 41
REMARK Flexibility Score:   94.900
ROOT
ATOM      1  O   UNL     1      -1.098  -1.616   1.280  1.00  0.00    -0.446 OA
ATOM      2  N   UNL     1      -1.966  -1.866  -0.785  1.00  0.00    -0.207 NA
ATOM      3  C   UNL     1      -2.148  -1.386   0.432  1.00  0.00     0.217 A 
ATOM      4  C   UNL     1      -0.700  -2.425  -0.743  1.00  0.00     0.167 A 
ATOM      5  C   UNL     1      -0.177  -2.268   0.517  1.00  0.00     0.231 A 
ENDROOT
BRANCH   4   6
ATOM      6  C   UNL     1      -0.088  -3.089  -1.881  1.00  0.00     0.273 C 
ATOM      7  N   UNL     1      -0.024  -2.267  -2.978  1.00  0.00    -0.341 N 
ATOM      8  O   UNL     1       0.298  -4.252  -1.859  1.00  0.00    -0.267 OA
ATOM      9  H   UNL     1      -0.468  -1.359  -2.874  1.00  0.00     0.164 HD
BRANCH   7  10
ATOM     10  C   UNL     1       0.308  -2.744  -4.306  1.00  0.00     0.145 C 
BRANCH  10  11
ATOM     11  C   UNL     1      -0.765  -2.236  -5.259  1.00  0.00     0.116 A 
ATOM     12  S   UNL     1      -1.024  -3.041  -6.761  1.00  0.00    -0.124 S 
ATOM     13  C   UNL     1      -2.290  -1.950  -7.118  1.00  0.00     0.101 A 
ATOM     14  N   UNL     1      -1.558  -1.203  -5.026  1.00  0.00    -0.234 NA
ATOM     15  C   UNL     1      -2.452  -1.043  -6.088  1.00  0.00     0.139 A 
BRANCH  15  16
ATOM     16  C   UNL     1      -3.475   0.006  -6.081  1.00  0.00     0.271 C 
ATOM     17  O   UNL     1      -3.357   1.054  -6.707  1.00  0.00    -0.267 OA
ATOM     18  N   UNL     1      -4.575  -0.303  -5.309  1.00  0.00    -0.339 N 
ATOM     19  H   UNL     1      -4.503  -1.151  -4.753  1.00  0.00     0.164 HD
BRANCH  18  20
ATOM     20  C   UNL     1      -5.662   0.649  -5.130  1.00  0.00     0.168 CG0
ATOM     21  C   UNL     1      -6.801   0.385  -6.117  1.00  0.00     0.041 C 
ATOM     22  G   UNL     1      -6.253   0.617  -3.711  1.00  0.00     0.000 G0
ENDBRANCH  18  20
ENDBRANCH  15  16
ENDBRANCH  10  11
BRANCH  10  23
ATOM     23  C   UNL     1       1.735  -2.318  -4.741  1.00  0.00     0.015 C 
ATOM     24  C   UNL     1       2.411  -3.329  -5.683  1.00  0.00     0.010 C 
BRANCH  23  25
ATOM     25  C   UNL     1       1.766  -0.924  -5.407  1.00  0.00     0.002 C 
ATOM     26  C   UNL     1       2.196   0.198  -4.472  1.00  0.00     0.004 C 
ENDBRANCH  23  25
ENDBRANCH  10  23
ENDBRANCH   7  10
ENDBRANCH   4   6
BRANCH   3  27
ATOM     27  C   UNL     1      -3.374  -0.692   0.958  1.00  0.00     0.171 C 
BRANCH  27  28
ATOM     28  N   UNL     1      -4.479  -0.989   0.053  1.00  0.00    -0.342 N 
ATOM     29  C   UNL     1      -5.294  -0.014  -0.476  1.00  0.00     0.245 C 
ATOM     30  O   UNL     1      -5.142   1.183  -0.237  1.00  0.00    -0.273 OA
ATOM     31  H   UNL     1      -4.596  -1.945  -0.281  1.00  0.00     0.164 HD
BRANCH  29  32
ATOM     32  C   UNL     1      -6.325  -0.507  -1.513  1.00  0.00     0.200 C 
BRANCH  32  33
ATOM     33  N   UNL     1      -5.757  -0.317  -2.854  1.00  0.00    -0.340 N 
ATOM     34  C   UNL     1      -6.259   0.636  -3.715  1.00  0.00     0.243 CG0
ATOM     35  O   UNL     1      -7.239   1.321  -3.427  1.00  0.00    -0.273 OA
ATOM     36  H   UNL     1      -4.968  -0.888  -3.132  1.00  0.00     0.164 HD
ATOM     37  G   UNL     1      -5.663   0.634  -5.132  1.00  0.00     0.000 G0
ENDBRANCH  32  33
BRANCH  32  38
ATOM     38  C   UNL     1      -6.748  -1.969  -1.239  1.00  0.00     0.143 C 
ATOM     39  C   UNL     1      -8.131  -2.327  -1.770  1.00  0.00     0.041 C 
BRANCH  38  40
ATOM     40  O   UNL     1      -5.781  -2.875  -1.805  1.00  0.00    -0.391 OA
ATOM     41  H   UNL     1      -5.223  -3.185  -1.067  1.00  0.00     0.211 HD
ENDBRANCH  38  40
ENDBRANCH  32  38
ENDBRANCH  29  32
ENDBRANCH  27  28
BRANCH  27  42
ATOM     42  C   UNL     1      -3.762  -0.951   2.435  1.00  0.00     0.015 C 
ATOM     43  C   UNL     1      -4.532   0.181   3.124  1.00  0.00     0.010 C 
ATOM     44  C   UNL     1      -4.504  -2.280   2.607  1.00  0.00     0.010 C 
ENDBRANCH  27  42
ENDBRANCH   3  27
TORSDOF 5
ENDMDL
MODEL 8
REMARK VINA RESULT:    -4.262     22.511     24.775
REMARK INTER + INTRA:         -10.043
REMARK INTER:                  -7.673
REMARK INTRA:                  -2.370
REMARK UNBOUND:                -2.417
REMARK SMILES CC[C@H](C)[C@H]1NC(=O)c2coc(n2)[C@H](C(C)C)NC(=O)[C@H]([C@@H](C)O)NC(=O)[C@H](C)NC(=O)c2csc1n2
REMARK SMILES IDX 11 1 13 2 12 3 9 4 10 5 7 6 6 7 8 8 5 10 36 11 35 12 34 13
REMARK SMILES IDX 37 14 33 15 31 16 32 17 30 18 28 20 29 21 3 23 4 24 2 25
REMARK SMILES IDX 1 26 14 27 18 28 19 29 20 30 21 32 25 33 26 34 27 35 22 38
REMARK SMILES IDX 23 39 24 40 15 42 16 43 17 44
REMARK H PARENT 6 9 30 19 18 31 25 36 24 41
REMARK Flexibility Score:   94.900
ROOT
ATOM      1  O   UNL     1     -16.590  -6.630   5.200  1.00  0.00    -0.446 OA
ATOM      2  N   UNL     1     -16.318  -4.497   4.524  1.00  0.00    -0.207 NA
ATOM      3  C   UNL     1     -15.908  -5.450   5.341  1.00  0.00     0.217 A 
ATOM      4  C   UNL     1     -17.319  -5.096   3.778  1.00  0.00     0.167 A 
ATOM      5  C   UNL     1     -17.478  -6.395   4.194  1.00  0.00     0.231 A 
ENDROOT
BRANCH   4   6
ATOM      6  C   UNL     1     -18.069  -4.396   2.750  1.00  0.00     0.273 C 
ATOM      7  N   UNL     1     -17.293  -4.113   1.655  1.00  0.00    -0.341 N 
ATOM      8  O   UNL     1     -19.247  -4.079   2.868  1.00  0.00    -0.267 OA
ATOM      9  H   UNL     1     -16.310  -4.356   1.738  1.00  0.00     0.164 HD
BRANCH   7  10
ATOM     10  C   UNL     1     -17.712  -3.215   0.597  1.00  0.00     0.145 C 
BRANCH  10  11
ATOM     11  C   UNL     1     -17.080  -1.858   0.868  1.00  0.00     0.116 A 
ATOM     12  S   UNL     1     -16.309  -1.002  -0.414  1.00  0.00    -0.124 S 
ATOM     13  C   UNL     1     -15.965   0.283   0.659  1.00  0.00     0.101 A 
ATOM     14  N   UNL     1     -17.078  -1.242   2.039  1.00  0.00    -0.234 NA
ATOM     15  C   UNL     1     -16.451   0.001   1.922  1.00  0.00     0.139 A 
BRANCH  15  16
ATOM     16  C   UNL     1     -16.339   0.917   3.059  1.00  0.00     0.271 C 
ATOM     17  O   UNL     1     -16.426   2.134   2.942  1.00  0.00    -0.267 OA
ATOM     18  N   UNL     1     -16.129   0.278   4.262  1.00  0.00    -0.339 N 
ATOM     19  H   UNL     1     -15.964  -0.724   4.210  1.00  0.00     0.164 HD
BRANCH  18  20
ATOM     20  C   UNL     1     -15.925   1.032   5.492  1.00  0.00     0.168 CG0
ATOM     21  C   UNL     1     -17.242   1.235   6.244  1.00  0.00     0.041 C 
ATOM     22  G   UNL     1     -14.936   0.350   6.450  1.00  0.00     0.000 G0
ENDBRANCH  18  20
ENDBRANCH  15  16
ENDBRANCH  10  11
BRANCH  10  23
ATOM     23  C   UNL     1     -17.359  -3.762  -0.811  1.00  0.00     0.015 C 
ATOM     24  C   UNL     1     -16.685  -5.144  -0.776  1.00  0.00     0.010 C 
BRANCH  23  25
ATOM     25  C   UNL     1     -18.584  -3.832  -1.750  1.00  0.00     0.002 C 
ATOM     26  C   UNL     1     -19.857  -4.316  -1.071  1.00  0.00     0.004 C 
ENDBRANCH  23  25
ENDBRANCH  10  23
ENDBRANCH   7  10
ENDBRANCH   4   6
BRANCH   3  27
ATOM     27  C   UNL     1     -14.845  -5.342   6.399  1.00  0.00     0.171 C 
BRANCH  27  28
ATOM     28  N   UNL     1     -14.968  -4.029   7.023  1.00  0.00    -0.342 N 
ATOM     29  C   UNL     1     -13.935  -3.119   7.059  1.00  0.00     0.245 C 
ATOM     30  O   UNL     1     -12.836  -3.340   6.554  1.00  0.00    -0.273 OA
ATOM     31  H   UNL     1     -15.882  -3.731   7.361  1.00  0.00     0.164 HD
BRANCH  29  32
ATOM     32  C   UNL     1     -14.293  -1.738   7.646  1.00  0.00     0.200 C 
BRANCH  32  33
ATOM     33  N   UNL     1     -15.097  -1.011   6.656  1.00  0.00    -0.340 N 
ATOM     34  C   UNL     1     -14.930   0.344   6.454  1.00  0.00     0.243 CG0
ATOM     35  O   UNL     1     -14.152   1.011   7.132  1.00  0.00    -0.273 OA
ATOM     36  H   UNL     1     -15.769  -1.529   6.102  1.00  0.00     0.164 HD
ATOM     37  G   UNL     1     -15.930   1.001   5.489  1.00  0.00     0.000 G0
ENDBRANCH  32  33
BRANCH  32  38
ATOM     38  C   UNL     1     -14.999  -1.871   9.016  1.00  0.00     0.143 C 
ATOM     39  C   UNL     1     -14.188  -2.624  10.064  1.00  0.00     0.041 C 
BRANCH  38  40
ATOM     40  O   UNL     1     -15.329  -0.566   9.529  1.00  0.00    -0.391 OA
ATOM     41  H   UNL     1     -16.234  -0.629   9.891  1.00  0.00     0.211 HD
ENDBRANCH  38  40
ENDBRANCH  32  38
ENDBRANCH  29  32
ENDBRANCH  27  28
BRANCH  27  42
ATOM     42  C   UNL     1     -14.774  -6.471   7.456  1.00  0.00     0.015 C 
ATOM     43  C   UNL     1     -13.387  -6.727   8.058  1.00  0.00     0.010 C 
ATOM     44  C   UNL     1     -15.809  -6.279   8.570  1.00  0.00     0.010 C 
ENDBRANCH  27  42
ENDBRANCH   3  27
TORSDOF 5
ENDMDL
MODEL 9
REMARK VINA RESULT:    -4.247      6.886      8.982
REMARK INTER + INTRA:         -10.015
REMARK INTER:                  -8.062
REMARK INTRA:                  -1.953
REMARK UNBOUND:                -2.417
REMARK SMILES CC[C@H](C)[C@H]1NC(=O)c2coc(n2)[C@H](C(C)C)NC(=O)[C@H]([C@@H](C)O)NC(=O)[C@H](C)NC(=O)c2csc1n2
REMARK SMILES IDX 11 1 13 2 12 3 9 4 10 5 7 6 6 7 8 8 5 10 36 11 35 12 34 13
REMARK SMILES IDX 37 14 33 15 31 16 32 17 30 18 28 20 29 21 3 23 4 24 2 25
REMARK SMILES IDX 1 26 14 27 18 28 19 29 20 30 21 32 25 33 26 34 27 35 22 38
REMARK SMILES IDX 23 39 24 40 15 42 16 43 17 44
REMARK H PARENT 6 9 30 19 18 31 25 36 24 41
REMARK Flexibility Score:   94.900
ROOT
ATOM      1  O   UNL     1      -5.985   2.950  -5.247  1.00  0.00    -0.446 OA
ATOM      2  N   UNL     1      -4.600   1.171  -5.263  1.00  0.00    -0.207 NA
ATOM      3  C   UNL     1      -5.851   1.590  -5.340  1.00  0.00     0.217 A 
ATOM      4  C   UNL     1      -3.860   2.334  -5.139  1.00  0.00     0.167 A 
ATOM      5  C   UNL     1      -4.709   3.414  -5.131  1.00  0.00     0.231 A 
ENDROOT
BRANCH   4   6
ATOM      6  C   UNL     1      -2.413   2.344  -5.009  1.00  0.00     0.273 C 
ATOM      7  N   UNL     1      -1.792   2.444  -6.228  1.00  0.00    -0.341 N 
ATOM      8  O   UNL     1      -1.829   2.248  -3.936  1.00  0.00    -0.267 OA
ATOM      9  H   UNL     1      -2.405   2.422  -7.038  1.00  0.00     0.164 HD
BRANCH   7  10
ATOM     10  C   UNL     1      -0.370   2.230  -6.412  1.00  0.00     0.145 C 
BRANCH  10  11
ATOM     11  C   UNL     1      -0.176   0.786  -6.854  1.00  0.00     0.116 A 
ATOM     12  S   UNL     1       1.371   0.044  -6.692  1.00  0.00    -0.124 S 
ATOM     13  C   UNL     1       0.729  -1.411  -7.318  1.00  0.00     0.101 A 
ATOM     14  N   UNL     1      -1.124   0.013  -7.357  1.00  0.00    -0.234 NA
ATOM     15  C   UNL     1      -0.613  -1.261  -7.612  1.00  0.00     0.139 A 
BRANCH  15  16
ATOM     16  C   UNL     1      -1.454  -2.338  -8.139  1.00  0.00     0.271 C 
ATOM     17  O   UNL     1      -0.993  -3.360  -8.634  1.00  0.00    -0.267 OA
ATOM     18  N   UNL     1      -2.805  -2.088  -8.022  1.00  0.00    -0.339 N 
ATOM     19  H   UNL     1      -3.059  -1.158  -7.697  1.00  0.00     0.164 HD
BRANCH  18  20
ATOM     20  C   UNL     1      -3.793  -3.017  -8.554  1.00  0.00     0.168 CG0
ATOM     21  C   UNL     1      -4.255  -4.010  -7.485  1.00  0.00     0.041 C 
ATOM     22  G   UNL     1      -5.040  -2.307  -9.105  1.00  0.00     0.000 G0
ENDBRANCH  18  20
ENDBRANCH  15  16
ENDBRANCH  10  11
BRANCH  10  23
ATOM     23  C   UNL     1       0.251   3.242  -7.411  1.00  0.00     0.015 C 
ATOM     24  C   UNL     1       1.580   3.841  -6.922  1.00  0.00     0.010 C 
BRANCH  23  25
ATOM     25  C   UNL     1       0.467   2.640  -8.817  1.00  0.00     0.002 C 
ATOM     26  C   UNL     1       0.793   3.671  -9.889  1.00  0.00     0.004 C 
ENDBRANCH  23  25
ENDBRANCH  10  23
ENDBRANCH   7  10
ENDBRANCH   4   6
BRANCH   3  27
ATOM     27  C   UNL     1      -7.086   0.740  -5.458  1.00  0.00     0.171 C 
BRANCH  27  28
ATOM     28  N   UNL     1      -6.853  -0.241  -6.513  1.00  0.00    -0.342 N 
ATOM     29  C   UNL     1      -7.826  -0.618  -7.411  1.00  0.00     0.245 C 
ATOM     30  O   UNL     1      -8.961  -0.144  -7.400  1.00  0.00    -0.273 OA
ATOM     31  H   UNL     1      -5.906  -0.592  -6.655  1.00  0.00     0.164 HD
BRANCH  29  32
ATOM     32  C   UNL     1      -7.357  -1.569  -8.532  1.00  0.00     0.200 C 
BRANCH  32  33
ATOM     33  N   UNL     1      -6.052  -2.123  -8.150  1.00  0.00    -0.340 N 
ATOM     34  C   UNL     1      -5.049  -2.300  -9.080  1.00  0.00     0.243 CG0
ATOM     35  O   UNL     1      -5.222  -2.065 -10.275  1.00  0.00    -0.273 OA
ATOM     36  H   UNL     1      -5.889  -2.355  -7.177  1.00  0.00     0.164 HD
ATOM     37  G   UNL     1      -3.787  -3.015  -8.572  1.00  0.00     0.000 G0
ENDBRANCH  32  33
BRANCH  32  38
ATOM     38  C   UNL     1      -8.412  -2.661  -8.826  1.00  0.00     0.143 C 
ATOM     39  C   UNL     1      -8.503  -3.743  -7.757  1.00  0.00     0.041 C 
BRANCH  38  40
ATOM     40  O   UNL     1      -9.710  -2.059  -8.993  1.00  0.00    -0.391 OA
ATOM     41  H   UNL     1     -10.289  -2.745  -9.375  1.00  0.00     0.211 HD
ENDBRANCH  38  40
ENDBRANCH  32  38
ENDBRANCH  29  32
ENDBRANCH  27  28
BRANCH  27  42
ATOM     42  C   UNL     1      -7.619   0.072  -4.167  1.00  0.00     0.015 C 
ATOM     43  C   UNL     1      -6.937   0.511  -2.866  1.00  0.00     0.010 C 
ATOM     44  C   UNL     1      -9.140   0.205  -4.040  1.00  0.00     0.010 C 
ENDBRANCH  27  42
ENDBRANCH   3  27
TORSDOF 5
ENDMDL
MODEL 10
REMARK VINA RESULT:    -4.226      5.345      7.580
REMARK INTER + INTRA:          -9.978
REMARK INTER:                  -7.572
REMARK INTRA:                  -2.406
REMARK UNBOUND:                -2.417
REMARK SMILES CC[C@H](C)[C@H]1NC(=O)c2coc(n2)[C@H](C(C)C)NC(=O)[C@H]([C@@H](C)O)NC(=O)[C@H](C)NC(=O)c2csc1n2
REMARK SMILES IDX 11 1 13 2 12 3 9 4 10 5 7 6 6 7 8 8 5 10 36 11 35 12 34 13
REMARK SMILES IDX 37 14 33 15 31 16 32 17 30 18 28 20 29 21 3 23 4 24 2 25
REMARK SMILES IDX 1 26 14 27 18 28 19 29 20 30 21 32 25 33 26 34 27 35 22 38
REMARK SMILES IDX 23 39 24 40 15 42 16 43 17 44
REMARK H PARENT 6 9 30 19 18 31 25 36 24 41
REMARK Flexibility Score:   94.900
ROOT
ATOM      1  O   UNL     1      -2.014  -6.206 -12.153  1.00  0.00    -0.446 OA
ATOM      2  N   UNL     1      -0.932  -5.000 -10.586  1.00  0.00    -0.207 NA
ATOM      3  C   UNL     1      -0.940  -5.416 -11.840  1.00  0.00     0.217 A 
ATOM      4  C   UNL     1      -2.091  -5.529 -10.045  1.00  0.00     0.167 A 
ATOM      5  C   UNL     1      -2.745  -6.262 -11.005  1.00  0.00     0.231 A 
ENDROOT
BRANCH   4   6
ATOM      6  C   UNL     1      -2.482  -5.333  -8.660  1.00  0.00     0.273 C 
ATOM      7  N   UNL     1      -2.025  -4.137  -8.167  1.00  0.00    -0.341 N 
ATOM      8  O   UNL     1      -3.121  -6.154  -8.013  1.00  0.00    -0.267 OA
ATOM      9  H   UNL     1      -1.429  -3.601  -8.791  1.00  0.00     0.164 HD
BRANCH   7  10
ATOM     10  C   UNL     1      -2.057  -3.798  -6.757  1.00  0.00     0.145 C 
BRANCH  10  11
ATOM     11  C   UNL     1      -0.623  -3.814  -6.248  1.00  0.00     0.116 A 
ATOM     12  S   UNL     1      -0.197  -2.880  -4.864  1.00  0.00    -0.124 S 
ATOM     13  C   UNL     1       1.405  -3.465  -4.971  1.00  0.00     0.101 A 
ATOM     14  N   UNL     1       0.363  -4.516  -6.781  1.00  0.00    -0.234 NA
ATOM     15  C   UNL     1       1.533  -4.332  -6.038  1.00  0.00     0.139 A 
BRANCH  15  16
ATOM     16  C   UNL     1       2.778  -5.023  -6.380  1.00  0.00     0.271 C 
ATOM     17  O   UNL     1       3.743  -5.066  -5.625  1.00  0.00    -0.267 OA
ATOM     18  N   UNL     1       2.756  -5.615  -7.625  1.00  0.00    -0.339 N 
ATOM     19  H   UNL     1       1.941  -5.414  -8.199  1.00  0.00     0.164 HD
BRANCH  18  20
ATOM     20  C   UNL     1       3.930  -6.289  -8.162  1.00  0.00     0.168 CG0
ATOM     21  C   UNL     1       3.751  -7.808  -8.158  1.00  0.00     0.041 C 
ATOM     22  G   UNL     1       4.257  -5.858  -9.601  1.00  0.00     0.000 G0
ENDBRANCH  18  20
ENDBRANCH  15  16
ENDBRANCH  10  11
BRANCH  10  23
ATOM     23  C   UNL     1      -2.762  -2.441  -6.497  1.00  0.00     0.015 C 
ATOM     24  C   UNL     1      -3.250  -1.752  -7.782  1.00  0.00     0.010 C 
BRANCH  23  25
ATOM     25  C   UNL     1      -3.952  -2.564  -5.518  1.00  0.00     0.002 C 
ATOM     26  C   UNL     1      -5.020  -3.553  -5.964  1.00  0.00     0.004 C 
ENDBRANCH  23  25
ENDBRANCH  10  23
ENDBRANCH   7  10
ENDBRANCH   4   6
BRANCH   3  27
ATOM     27  C   UNL     1       0.105  -5.154 -12.889  1.00  0.00     0.171 C 
BRANCH  27  28
ATOM     28  N   UNL     1       1.314  -5.875 -12.504  1.00  0.00    -0.342 N 
ATOM     29  C   UNL     1       2.572  -5.318 -12.579  1.00  0.00     0.245 C 
ATOM     30  O   UNL     1       2.767  -4.166 -12.963  1.00  0.00    -0.273 OA
ATOM     31  H   UNL     1       1.221  -6.792 -12.068  1.00  0.00     0.164 HD
BRANCH  29  32
ATOM     32  C   UNL     1       3.712  -6.186 -12.007  1.00  0.00     0.200 C 
BRANCH  32  33
ATOM     33  N   UNL     1       3.445  -6.417 -10.582  1.00  0.00    -0.340 N 
ATOM     34  C   UNL     1       4.247  -5.865  -9.604  1.00  0.00     0.243 CG0
ATOM     35  O   UNL     1       5.252  -5.213  -9.880  1.00  0.00    -0.273 OA
ATOM     36  H   UNL     1       2.640  -6.976 -10.324  1.00  0.00     0.164 HD
ATOM     37  G   UNL     1       3.936  -6.300  -8.163  1.00  0.00     0.000 G0
ENDBRANCH  32  33
BRANCH  32  38
ATOM     38  C   UNL     1       3.882  -7.497 -12.808  1.00  0.00     0.143 C 
ATOM     39  C   UNL     1       4.392  -7.296 -14.231  1.00  0.00     0.041 C 
BRANCH  38  40
ATOM     40  O   UNL     1       4.777  -8.388 -12.113  1.00  0.00    -0.391 OA
ATOM     41  H   UNL     1       4.850  -8.053 -11.199  1.00  0.00     0.211 HD
ENDBRANCH  38  40
ENDBRANCH  32  38
ENDBRANCH  29  32
ENDBRANCH  27  28
BRANCH  27  42
ATOM     42  C   UNL     1      -0.278  -5.433 -14.363  1.00  0.00     0.015 C 
ATOM     43  C   UNL     1       0.087  -4.328 -15.361  1.00  0.00     0.010 C 
ATOM     44  C   UNL     1       0.257  -6.784 -14.848  1.00  0.00     0.010 C 
ENDBRANCH  27  42
ENDBRANCH   3  27
TORSDOF 5
ENDMDL
