MODEL 1
REMARK VINA RESULT:    -6.832      0.000      0.000
REMARK INTER + INTRA:         -16.526
REMARK INTER:                 -13.821
REMARK INTRA:                  -2.705
REMARK UNBOUND:                -2.705
REMARK SMILES CC[C@@H](C)[C@@H](NC(=O)[C@@H](O)Cc1ccc(O)c(Cl)c1)C(=O)N1[C@H](C(=O)NCCCCN=C(N)N)C[C@H]2CC[C@H](OS(=O)(=O)O)C[C@@H]21
REMARK SMILES IDX 22 1 36 2 46 3 35 4 23 5 45 6 37 7 39 8 38 9 20 10 21 11
REMARK SMILES IDX 5 12 6 13 7 14 8 15 9 17 11 18 12 19 17 20 19 21 15 22 14 23
REMARK SMILES IDX 13 24 18 25 16 26 10 28 3 30 4 31 2 32 1 33 24 34 25 35
REMARK SMILES IDX 26 36 27 38 28 39 29 40 30 41 31 42 32 43 33 44 34 45 40 50
REMARK SMILES IDX 41 51 42 52 43 53 44 54
REMARK H PARENT 6 16 16 27 10 29 26 37 33 46 33 47 34 48 34 49 44 55
ROOT
ATOM      1  N   UNL     1     -10.211  -2.835   7.362  1.00  0.00    -0.326 N 
ATOM      2  C   UNL     1      -9.634  -5.006   8.065  1.00  0.00     0.014 C 
ATOM      3  C   UNL     1     -10.828  -4.125   7.685  1.00  0.00     0.091 C 
ATOM      4  C   UNL     1      -8.696  -4.022   8.747  1.00  0.00     0.041 C 
ATOM      5  C   UNL     1      -8.784  -2.837   7.768  1.00  0.00     0.175 C 
ATOM      6  C   UNL     1     -11.627  -4.838   6.596  1.00  0.00     0.059 C 
ATOM      7  C   UNL     1     -10.090  -6.241   8.816  1.00  0.00     0.008 C 
ATOM      8  C   UNL     1     -11.588  -6.378   6.704  1.00  0.00     0.143 C 
ATOM      9  C   UNL     1     -11.342  -6.851   8.151  1.00  0.00     0.034 C 
ENDROOT
BRANCH   1  10
ATOM     10  C   UNL     1     -10.799  -1.644   6.969  1.00  0.00     0.246 C 
ATOM     11  O   UNL     1     -10.915  -1.400   5.763  1.00  0.00    -0.272 OA
BRANCH  10  12
ATOM     12  C   UNL     1     -11.337  -0.661   8.049  1.00  0.00     0.174 C 
BRANCH  12  13
ATOM     13  N   UNL     1     -10.254  -0.269   8.951  1.00  0.00    -0.342 N 
ATOM     14  C   UNL     1      -9.274   0.651   8.655  1.00  0.00     0.249 C 
ATOM     15  O   UNL     1      -9.217   1.272   7.601  1.00  0.00    -0.272 OA
ATOM     16  H   UNL     1     -10.081  -0.810   9.794  1.00  0.00     0.164 HD
BRANCH  14  17
ATOM     17  C   UNL     1      -8.262   0.835   9.807  1.00  0.00     0.207 C 
BRANCH  17  18
ATOM     18  C   UNL     1      -8.945   0.610  11.160  1.00  0.00     0.077 C 
BRANCH  18  19
ATOM     19  C   UNL     1      -8.426  -0.630  11.852  1.00  0.00    -0.043 A 
ATOM     20  C   UNL     1      -8.144  -1.952  13.866  1.00  0.00     0.083 A 
ATOM     21  C   UNL     1      -8.667  -0.831  13.220  1.00  0.00     0.028 A 
ATOM     22  C   UNL     1      -7.379  -2.875  13.154  1.00  0.00     0.134 A 
ATOM     23  C   UNL     1      -7.132  -2.689  11.798  1.00  0.00     0.048 A 
ATOM     24  C   UNL     1      -7.653  -1.567  11.149  1.00  0.00     0.008 A 
ATOM     25  Cl  UNL     1      -8.451  -2.181  15.548  1.00  0.00    -0.080 Cl
BRANCH  22  26
ATOM     26  O   UNL     1      -6.837  -3.984  13.747  1.00  0.00    -0.506 OA
ATOM     27  H   UNL     1      -7.573  -4.603  13.909  1.00  0.00     0.293 HD
ENDBRANCH  22  26
ENDBRANCH  18  19
ENDBRANCH  17  18
BRANCH  17  28
ATOM     28  O   UNL     1      -7.680   2.148   9.779  1.00  0.00    -0.383 OA
ATOM     29  H   UNL     1      -6.925   2.097   9.149  1.00  0.00     0.211 HD
ENDBRANCH  17  28
ENDBRANCH  14  17
ENDBRANCH  12  13
BRANCH  12  30
ATOM     30  C   UNL     1     -12.568  -1.222   8.811  1.00  0.00     0.018 C 
ATOM     31  C   UNL     1     -13.726  -0.212   8.797  1.00  0.00     0.010 C 
BRANCH  30  32
ATOM     32  C   UNL     1     -12.256  -1.654  10.264  1.00  0.00     0.002 C 
ATOM     33  C   UNL     1     -12.512  -3.122  10.577  1.00  0.00     0.004 C 
ENDBRANCH  30  32
ENDBRANCH  12  30
ENDBRANCH  10  12
ENDBRANCH   1  10
BRANCH   5  34
ATOM     34  C   UNL     1      -7.862  -3.043   6.537  1.00  0.00     0.242 C 
ATOM     35  O   UNL     1      -7.516  -4.160   6.153  1.00  0.00    -0.273 OA
ATOM     36  N   UNL     1      -7.416  -1.885   5.939  1.00  0.00    -0.354 N 
ATOM     37  H   UNL     1      -7.640  -0.990   6.375  1.00  0.00     0.163 HD
BRANCH  36  38
ATOM     38  C   UNL     1      -6.731  -1.888   4.663  1.00  0.00     0.116 C 
BRANCH  38  39
ATOM     39  C   UNL     1      -5.458  -1.051   4.757  1.00  0.00     0.023 C 
BRANCH  39  40
ATOM     40  C   UNL     1      -5.054  -0.451   3.414  1.00  0.00     0.026 C 
BRANCH  40  41
ATOM     41  C   UNL     1      -5.727  -1.199   2.263  1.00  0.00     0.146 C 
BRANCH  41  42
ATOM     42  N   UNL     1      -4.724  -1.920   1.491  1.00  0.00    -0.254 NA
ATOM     43  C   UNL     1      -5.094  -2.770   0.608  1.00  0.00     0.185 C 
ATOM     44  N   UNL     1      -6.331  -3.145   0.234  1.00  0.00    -0.370 N 
ATOM     45  N   UNL     1      -4.154  -3.428  -0.090  1.00  0.00    -0.370 N 
ATOM     46  H   UNL     1      -6.473  -3.991  -0.292  1.00  0.00     0.159 HD
ATOM     47  H   UNL     1      -7.161  -2.737   0.651  1.00  0.00     0.159 HD
ATOM     48  H   UNL     1      -3.193  -3.197   0.125  1.00  0.00     0.159 HD
ATOM     49  H   UNL     1      -4.354  -3.919  -0.943  1.00  0.00     0.159 HD
ENDBRANCH  41  42
ENDBRANCH  40  41
ENDBRANCH  39  40
ENDBRANCH  38  39
ENDBRANCH  36  38
ENDBRANCH   5  34
BRANCH   8  50
ATOM     50  O   UNL     1     -10.550  -6.901   5.875  1.00  0.00    -0.245 OA
BRANCH  50  51
ATOM     51  S   UNL     1     -10.875  -8.130   4.861  1.00  0.00     0.397 S 
ATOM     52  O   UNL     1      -9.816  -9.106   4.987  1.00  0.00    -0.169 OA
ATOM     53  O   UNL     1     -11.273  -7.605   3.571  1.00  0.00    -0.169 OA
BRANCH  51  54
ATOM     54  O   UNL     1     -12.168  -8.797   5.545  1.00  0.00    -0.264 OA
ATOM     55  H   UNL     1     -12.873  -8.846   4.868  1.00  0.00     0.236 HD
ENDBRANCH  51  54
ENDBRANCH  50  51
ENDBRANCH   8  50
TORSDOF 19
ENDMDL
MODEL 2
REMARK VINA RESULT:    -6.815      4.174      7.470
REMARK INTER + INTRA:         -16.492
REMARK INTER:                 -12.616
REMARK INTRA:                  -3.875
REMARK UNBOUND:                -2.705
REMARK SMILES CC[C@@H](C)[C@@H](NC(=O)[C@@H](O)Cc1ccc(O)c(Cl)c1)C(=O)N1[C@H](C(=O)NCCCCN=C(N)N)C[C@H]2CC[C@H](OS(=O)(=O)O)C[C@@H]21
REMARK SMILES IDX 22 1 36 2 46 3 35 4 23 5 45 6 37 7 39 8 38 9 20 10 21 11
REMARK SMILES IDX 5 12 6 13 7 14 8 15 9 17 11 18 12 19 17 20 19 21 15 22 14 23
REMARK SMILES IDX 13 24 18 25 16 26 10 28 3 30 4 31 2 32 1 33 24 34 25 35
REMARK SMILES IDX 26 36 27 38 28 39 29 40 30 41 31 42 32 43 33 44 34 45 40 50
REMARK SMILES IDX 41 51 42 52 43 53 44 54
REMARK H PARENT 6 16 16 27 10 29 26 37 33 46 33 47 34 48 34 49 44 55
ROOT
ATOM      1  N   UNL     1     -12.606  -5.411   6.102  1.00  0.00    -0.326 N 
ATOM      2  C   UNL     1     -11.622  -4.654   4.102  1.00  0.00     0.014 C 
ATOM      3  C   UNL     1     -12.240  -4.168   5.417  1.00  0.00     0.091 C 
ATOM      4  C   UNL     1     -12.440  -5.896   3.786  1.00  0.00     0.041 C 
ATOM      5  C   UNL     1     -12.473  -6.561   5.174  1.00  0.00     0.175 C 
ATOM      6  C   UNL     1     -11.247  -3.230   6.100  1.00  0.00     0.059 C 
ATOM      7  C   UNL     1     -11.554  -3.530   3.087  1.00  0.00     0.008 C 
ATOM      8  C   UNL     1     -10.373  -2.425   5.113  1.00  0.00     0.143 C 
ATOM      9  C   UNL     1     -11.071  -2.224   3.753  1.00  0.00     0.034 C 
ENDROOT
BRANCH   1  10
ATOM     10  C   UNL     1     -13.221  -5.601   7.328  1.00  0.00     0.246 C 
ATOM     11  O   UNL     1     -14.426  -5.351   7.440  1.00  0.00    -0.272 OA
BRANCH  10  12
ATOM     12  C   UNL     1     -12.397  -6.162   8.522  1.00  0.00     0.174 C 
BRANCH  12  13
ATOM     13  N   UNL     1     -11.020  -5.674   8.451  1.00  0.00    -0.342 N 
ATOM     14  C   UNL     1     -10.516  -4.622   9.184  1.00  0.00     0.249 C 
ATOM     15  O   UNL     1     -11.167  -3.990  10.006  1.00  0.00    -0.272 OA
ATOM     16  H   UNL     1     -10.409  -5.995   7.704  1.00  0.00     0.164 HD
BRANCH  14  17
ATOM     17  C   UNL     1      -9.032  -4.337   8.872  1.00  0.00     0.207 C 
BRANCH  17  18
ATOM     18  C   UNL     1      -8.769  -2.828   8.855  1.00  0.00     0.077 C 
BRANCH  18  19
ATOM     19  C   UNL     1      -8.422  -2.302  10.230  1.00  0.00    -0.043 A 
ATOM     20  C   UNL     1      -7.579  -2.677  12.473  1.00  0.00     0.083 A 
ATOM     21  C   UNL     1      -7.852  -3.152  11.190  1.00  0.00     0.028 A 
ATOM     22  C   UNL     1      -7.874  -1.354  12.805  1.00  0.00     0.134 A 
ATOM     23  C   UNL     1      -8.438  -0.501  11.864  1.00  0.00     0.048 A 
ATOM     24  C   UNL     1      -8.714  -0.975  10.579  1.00  0.00     0.008 A 
ATOM     25  Cl  UNL     1      -6.879  -3.737  13.640  1.00  0.00    -0.080 Cl
BRANCH  22  26
ATOM     26  O   UNL     1      -7.634  -0.846  14.053  1.00  0.00    -0.506 OA
ATOM     27  H   UNL     1      -7.498  -1.609  14.645  1.00  0.00     0.293 HD
ENDBRANCH  22  26
ENDBRANCH  18  19
ENDBRANCH  17  18
BRANCH  17  28
ATOM     28  O   UNL     1      -8.651  -4.901   7.607  1.00  0.00    -0.383 OA
ATOM     29  H   UNL     1      -8.388  -5.831   7.792  1.00  0.00     0.211 HD
ENDBRANCH  17  28
ENDBRANCH  14  17
ENDBRANCH  12  13
BRANCH  12  30
ATOM     30  C   UNL     1     -12.471  -7.709   8.627  1.00  0.00     0.018 C 
ATOM     31  C   UNL     1     -13.662  -8.141   9.497  1.00  0.00     0.010 C 
BRANCH  30  32
ATOM     32  C   UNL     1     -11.167  -8.360   9.150  1.00  0.00     0.002 C 
ATOM     33  C   UNL     1     -11.358  -9.610  10.000  1.00  0.00     0.004 C 
ENDBRANCH  30  32
ENDBRANCH  12  30
ENDBRANCH  10  12
ENDBRANCH   1  10
BRANCH   5  34
ATOM     34  C   UNL     1     -11.168  -7.352   5.461  1.00  0.00     0.242 C 
ATOM     35  O   UNL     1     -10.148  -6.807   5.881  1.00  0.00    -0.273 OA
ATOM     36  N   UNL     1     -11.219  -8.694   5.160  1.00  0.00    -0.354 N 
ATOM     37  H   UNL     1     -12.053  -9.064   4.702  1.00  0.00     0.163 HD
BRANCH  36  38
ATOM     38  C   UNL     1     -10.177  -9.617   5.561  1.00  0.00     0.116 C 
BRANCH  38  39
ATOM     39  C   UNL     1     -10.749 -10.662   6.516  1.00  0.00     0.023 C 
BRANCH  39  40
ATOM     40  C   UNL     1     -12.273 -10.707   6.484  1.00  0.00     0.026 C 
BRANCH  40  41
ATOM     41  C   UNL     1     -12.791 -11.984   7.148  1.00  0.00     0.146 C 
BRANCH  41  42
ATOM     42  N   UNL     1     -11.783 -12.509   8.060  1.00  0.00    -0.254 NA
ATOM     43  C   UNL     1     -11.881 -13.711   8.488  1.00  0.00     0.185 C 
ATOM     44  N   UNL     1     -12.812 -14.648   8.231  1.00  0.00    -0.370 N 
ATOM     45  N   UNL     1     -10.944 -14.174   9.331  1.00  0.00    -0.370 N 
ATOM     46  H   UNL     1     -12.901 -15.458   8.821  1.00  0.00     0.159 HD
ATOM     47  H   UNL     1     -13.588 -14.469   7.601  1.00  0.00     0.159 HD
ATOM     48  H   UNL     1     -10.200 -13.534   9.570  1.00  0.00     0.159 HD
ATOM     49  H   UNL     1     -10.818 -15.153   9.520  1.00  0.00     0.159 HD
ENDBRANCH  41  42
ENDBRANCH  40  41
ENDBRANCH  39  40
ENDBRANCH  38  39
ENDBRANCH  36  38
ENDBRANCH   5  34
BRANCH   8  50
ATOM     50  O   UNL     1      -9.134  -3.099   4.892  1.00  0.00    -0.245 OA
BRANCH  50  51
ATOM     51  S   UNL     1      -7.734  -2.312   5.148  1.00  0.00     0.397 S 
ATOM     52  O   UNL     1      -6.840  -3.206   5.848  1.00  0.00    -0.169 OA
ATOM     53  O   UNL     1      -8.010  -0.977   5.637  1.00  0.00    -0.169 OA
BRANCH  51  54
ATOM     54  O   UNL     1      -7.146  -2.182   3.657  1.00  0.00    -0.264 OA
ATOM     55  H   UNL     1      -7.749  -2.663   3.055  1.00  0.00     0.236 HD
ENDBRANCH  51  54
ENDBRANCH  50  51
ENDBRANCH   8  50
TORSDOF 19
ENDMDL
MODEL 3
REMARK VINA RESULT:    -6.706     17.429     22.074
REMARK INTER + INTRA:         -16.272
REMARK INTER:                 -11.399
REMARK INTRA:                  -4.874
REMARK UNBOUND:                -2.705
REMARK SMILES CC[C@@H](C)[C@@H](NC(=O)[C@@H](O)Cc1ccc(O)c(Cl)c1)C(=O)N1[C@H](C(=O)NCCCCN=C(N)N)C[C@H]2CC[C@H](OS(=O)(=O)O)C[C@@H]21
REMARK SMILES IDX 22 1 36 2 46 3 35 4 23 5 45 6 37 7 39 8 38 9 20 10 21 11
REMARK SMILES IDX 5 12 6 13 7 14 8 15 9 17 11 18 12 19 17 20 19 21 15 22 14 23
REMARK SMILES IDX 13 24 18 25 16 26 10 28 3 30 4 31 2 32 1 33 24 34 25 35
REMARK SMILES IDX 26 36 27 38 28 39 29 40 30 41 31 42 32 43 33 44 34 45 40 50
REMARK SMILES IDX 41 51 42 52 43 53 44 54
REMARK H PARENT 6 16 16 27 10 29 26 37 33 46 33 47 34 48 34 49 44 55
ROOT
ATOM      1  N   UNL     1       2.552 -10.767  -9.662  1.00  0.00    -0.326 N 
ATOM      2  C   UNL     1       1.358  -9.079  -8.537  1.00  0.00     0.014 C 
ATOM      3  C   UNL     1       2.774  -9.533  -8.904  1.00  0.00     0.091 C 
ATOM      4  C   UNL     1       0.629 -10.396  -8.323  1.00  0.00     0.041 C 
ATOM      5  C   UNL     1       1.134 -11.188  -9.544  1.00  0.00     0.175 C 
ATOM      6  C   UNL     1       3.487  -8.374  -9.599  1.00  0.00     0.059 C 
ATOM      7  C   UNL     1       1.389  -8.057  -7.417  1.00  0.00     0.008 C 
ATOM      8  C   UNL     1       3.041  -6.982  -9.102  1.00  0.00     0.143 C 
ATOM      9  C   UNL     1       2.513  -7.026  -7.654  1.00  0.00     0.034 C 
ENDROOT
BRANCH   1  10
ATOM     10  C   UNL     1       3.467 -11.633 -10.236  1.00  0.00     0.246 C 
ATOM     11  O   UNL     1       3.743 -11.509 -11.433  1.00  0.00    -0.272 OA
BRANCH  10  12
ATOM     12  C   UNL     1       4.158 -12.713  -9.353  1.00  0.00     0.174 C 
BRANCH  12  13
ATOM     13  N   UNL     1       3.446 -12.849  -8.083  1.00  0.00    -0.342 N 
ATOM     14  C   UNL     1       2.934 -14.027  -7.586  1.00  0.00     0.249 C 
ATOM     15  O   UNL     1       3.044 -15.109  -8.149  1.00  0.00    -0.272 OA
ATOM     16  H   UNL     1       3.142 -12.017  -7.584  1.00  0.00     0.164 HD
BRANCH  14  17
ATOM     17  C   UNL     1       2.221 -13.841  -6.230  1.00  0.00     0.207 C 
BRANCH  17  18
ATOM     18  C   UNL     1       2.777 -12.617  -5.496  1.00  0.00     0.077 C 
BRANCH  18  19
ATOM     19  C   UNL     1       1.678 -11.672  -5.065  1.00  0.00    -0.043 A 
ATOM     20  C   UNL     1      -0.678 -11.107  -4.936  1.00  0.00     0.083 A 
ATOM     21  C   UNL     1       0.332 -12.003  -5.290  1.00  0.00     0.028 A 
ATOM     22  C   UNL     1      -0.352  -9.880  -4.358  1.00  0.00     0.134 A 
ATOM     23  C   UNL     1       0.977  -9.540  -4.130  1.00  0.00     0.048 A 
ATOM     24  C   UNL     1       1.990 -10.433  -4.485  1.00  0.00     0.008 A 
ATOM     25  Cl  UNL     1      -2.325 -11.531  -5.221  1.00  0.00    -0.080 Cl
BRANCH  22  26
ATOM     26  O   UNL     1      -1.307  -8.965  -4.004  1.00  0.00    -0.506 OA
ATOM     27  H   UNL     1      -1.638  -8.571  -4.833  1.00  0.00     0.293 HD
ENDBRANCH  22  26
ENDBRANCH  18  19
ENDBRANCH  17  18
BRANCH  17  28
ATOM     28  O   UNL     1       2.376 -15.004  -5.400  1.00  0.00    -0.383 OA
ATOM     29  H   UNL     1       2.223 -15.779  -5.988  1.00  0.00     0.211 HD
ENDBRANCH  17  28
ENDBRANCH  14  17
ENDBRANCH  12  13
BRANCH  12  30
ATOM     30  C   UNL     1       5.674 -12.448  -9.157  1.00  0.00     0.018 C 
ATOM     31  C   UNL     1       6.048 -11.036  -9.635  1.00  0.00     0.010 C 
BRANCH  30  32
ATOM     32  C   UNL     1       6.583 -13.498  -9.841  1.00  0.00     0.002 C 
ATOM     33  C   UNL     1       6.143 -13.933 -11.232  1.00  0.00     0.004 C 
ENDBRANCH  30  32
ENDBRANCH  12  30
ENDBRANCH  10  12
ENDBRANCH   1  10
BRANCH   5  34
ATOM     34  C   UNL     1       0.343 -10.825 -10.828  1.00  0.00     0.242 C 
ATOM     35  O   UNL     1       0.730  -9.964 -11.619  1.00  0.00    -0.273 OA
ATOM     36  N   UNL     1      -0.849 -11.495 -10.992  1.00  0.00    -0.354 N 
ATOM     37  H   UNL     1      -1.175 -12.108 -10.243  1.00  0.00     0.163 HD
BRANCH  36  38
ATOM     38  C   UNL     1      -1.604 -11.440 -12.226  1.00  0.00     0.116 C 
BRANCH  38  39
ATOM     39  C   UNL     1      -3.090 -11.271 -11.919  1.00  0.00     0.023 C 
BRANCH  39  40
ATOM     40  C   UNL     1      -3.342 -10.265 -10.800  1.00  0.00     0.026 C 
BRANCH  40  41
ATOM     41  C   UNL     1      -3.323  -8.836 -11.342  1.00  0.00     0.146 C 
BRANCH  41  42
ATOM     42  N   UNL     1      -2.563  -7.978 -10.443  1.00  0.00    -0.254 NA
ATOM     43  C   UNL     1      -1.487  -7.421 -10.859  1.00  0.00     0.185 C 
ATOM     44  N   UNL     1      -0.888  -7.486 -12.062  1.00  0.00    -0.370 N 
ATOM     45  N   UNL     1      -0.798  -6.638 -10.013  1.00  0.00    -0.370 N 
ATOM     46  H   UNL     1       0.070  -7.201 -12.173  1.00  0.00     0.159 HD
ATOM     47  H   UNL     1      -1.283  -8.026 -12.826  1.00  0.00     0.159 HD
ATOM     48  H   UNL     1      -1.187  -6.528  -9.086  1.00  0.00     0.159 HD
ATOM     49  H   UNL     1      -0.095  -5.990 -10.322  1.00  0.00     0.159 HD
ENDBRANCH  41  42
ENDBRANCH  40  41
ENDBRANCH  39  40
ENDBRANCH  38  39
ENDBRANCH  36  38
ENDBRANCH   5  34
BRANCH   8  50
ATOM     50  O   UNL     1       2.010  -6.468  -9.945  1.00  0.00    -0.245 OA
BRANCH  50  51
ATOM     51  S   UNL     1       2.365  -6.026 -11.470  1.00  0.00     0.397 S 
ATOM     52  O   UNL     1       3.773  -5.705 -11.525  1.00  0.00    -0.169 OA
ATOM     53  O   UNL     1       1.357  -5.107 -11.957  1.00  0.00    -0.169 OA
BRANCH  51  54
ATOM     54  O   UNL     1       2.200  -7.412 -12.268  1.00  0.00    -0.264 OA
ATOM     55  H   UNL     1       1.983  -7.197 -13.198  1.00  0.00     0.236 HD
ENDBRANCH  51  54
ENDBRANCH  50  51
ENDBRANCH   8  50
TORSDOF 19
ENDMDL
MODEL 4
REMARK VINA RESULT:    -6.587     15.282     20.716
REMARK INTER + INTRA:         -16.031
REMARK INTER:                 -11.545
REMARK INTRA:                  -4.486
REMARK UNBOUND:                -2.705
REMARK SMILES CC[C@@H](C)[C@@H](NC(=O)[C@@H](O)Cc1ccc(O)c(Cl)c1)C(=O)N1[C@H](C(=O)NCCCCN=C(N)N)C[C@H]2CC[C@H](OS(=O)(=O)O)C[C@@H]21
REMARK SMILES IDX 22 1 36 2 46 3 35 4 23 5 45 6 37 7 39 8 38 9 20 10 21 11
REMARK SMILES IDX 5 12 6 13 7 14 8 15 9 17 11 18 12 19 17 20 19 21 15 22 14 23
REMARK SMILES IDX 13 24 18 25 16 26 10 28 3 30 4 31 2 32 1 33 24 34 25 35
REMARK SMILES IDX 26 36 27 38 28 39 29 40 30 41 31 42 32 43 33 44 34 45 40 50
REMARK SMILES IDX 41 51 42 52 43 53 44 54
REMARK H PARENT 6 16 16 27 10 29 26 37 33 46 33 47 34 48 34 49 44 55
ROOT
ATOM      1  N   UNL     1       1.514   4.869  -8.706  1.00  0.00    -0.326 N 
ATOM      2  C   UNL     1       3.827   5.142  -8.369  1.00  0.00     0.014 C 
ATOM      3  C   UNL     1       2.755   5.069  -9.460  1.00  0.00     0.091 C 
ATOM      4  C   UNL     1       3.309   4.168  -7.323  1.00  0.00     0.041 C 
ATOM      5  C   UNL     1       1.824   4.574  -7.286  1.00  0.00     0.175 C 
ATOM      6  C   UNL     1       2.876   6.310 -10.341  1.00  0.00     0.059 C 
ATOM      7  C   UNL     1       5.211   4.938  -8.955  1.00  0.00     0.008 C 
ATOM      8  C   UNL     1       4.320   6.842 -10.472  1.00  0.00     0.143 C 
ATOM      9  C   UNL     1       5.367   5.728 -10.271  1.00  0.00     0.034 C 
ENDROOT
BRANCH   1  10
ATOM     10  C   UNL     1       0.215   4.712  -9.160  1.00  0.00     0.246 C 
ATOM     11  O   UNL     1       0.025   4.390 -10.338  1.00  0.00    -0.272 OA
BRANCH  10  12
ATOM     12  C   UNL     1      -0.971   4.901  -8.171  1.00  0.00     0.174 C 
BRANCH  12  13
ATOM     13  N   UNL     1      -1.447   3.598  -7.708  1.00  0.00    -0.342 N 
ATOM     14  C   UNL     1      -1.425   3.168  -6.400  1.00  0.00     0.249 C 
ATOM     15  O   UNL     1      -1.025   3.850  -5.465  1.00  0.00    -0.272 OA
ATOM     16  H   UNL     1      -1.661   2.870  -8.385  1.00  0.00     0.164 HD
BRANCH  14  17
ATOM     17  C   UNL     1      -1.981   1.738  -6.234  1.00  0.00     0.207 C 
BRANCH  17  18
ATOM     18  C   UNL     1      -2.500   1.527  -4.808  1.00  0.00     0.077 C 
BRANCH  18  19
ATOM     19  C   UNL     1      -3.885   2.104  -4.623  1.00  0.00    -0.043 A 
ATOM     20  C   UNL     1      -5.857   3.176  -5.544  1.00  0.00     0.083 A 
ATOM     21  C   UNL     1      -4.599   2.598  -5.726  1.00  0.00     0.028 A 
ATOM     22  C   UNL     1      -6.406   3.265  -4.265  1.00  0.00     0.134 A 
ATOM     23  C   UNL     1      -5.709   2.780  -3.164  1.00  0.00     0.048 A 
ATOM     24  C   UNL     1      -4.449   2.203  -3.342  1.00  0.00     0.008 A 
ATOM     25  Cl  UNL     1      -6.719   3.777  -6.911  1.00  0.00    -0.080 Cl
BRANCH  22  26
ATOM     26  O   UNL     1      -7.630   3.832  -4.036  1.00  0.00    -0.506 OA
ATOM     27  H   UNL     1      -8.272   3.345  -4.586  1.00  0.00     0.293 HD
ENDBRANCH  22  26
ENDBRANCH  18  19
ENDBRANCH  17  18
BRANCH  17  28
ATOM     28  O   UNL     1      -0.974   0.755  -6.526  1.00  0.00    -0.383 OA
ATOM     29  H   UNL     1      -0.294   0.845  -5.820  1.00  0.00     0.211 HD
ENDBRANCH  17  28
ENDBRANCH  14  17
ENDBRANCH  12  13
BRANCH  12  30
ATOM     30  C   UNL     1      -2.112   5.772  -8.763  1.00  0.00     0.018 C 
ATOM     31  C   UNL     1      -1.818   7.267  -8.563  1.00  0.00     0.010 C 
BRANCH  30  32
ATOM     32  C   UNL     1      -3.513   5.426  -8.202  1.00  0.00     0.002 C 
ATOM     33  C   UNL     1      -3.879   6.116  -6.893  1.00  0.00     0.004 C 
ENDBRANCH  30  32
ENDBRANCH  12  30
ENDBRANCH  10  12
ENDBRANCH   1  10
BRANCH   5  34
ATOM     34  C   UNL     1       1.595   5.828  -6.400  1.00  0.00     0.242 C 
ATOM     35  O   UNL     1       1.567   6.966  -6.867  1.00  0.00    -0.273 OA
ATOM     36  N   UNL     1       1.481   5.579  -5.051  1.00  0.00    -0.354 N 
ATOM     37  H   UNL     1       1.633   4.628  -4.712  1.00  0.00     0.163 HD
BRANCH  36  38
ATOM     38  C   UNL     1       1.054   6.594  -4.111  1.00  0.00     0.116 C 
BRANCH  38  39
ATOM     39  C   UNL     1       1.935   6.551  -2.865  1.00  0.00     0.023 C 
BRANCH  39  40
ATOM     40  C   UNL     1       3.422   6.524  -3.203  1.00  0.00     0.026 C 
BRANCH  40  41
ATOM     41  C   UNL     1       3.858   7.848  -3.831  1.00  0.00     0.146 C 
BRANCH  41  42
ATOM     42  N   UNL     1       4.984   7.620  -4.727  1.00  0.00    -0.254 NA
ATOM     43  C   UNL     1       4.902   7.982  -5.952  1.00  0.00     0.185 C 
ATOM     44  N   UNL     1       3.893   8.580  -6.612  1.00  0.00    -0.370 N 
ATOM     45  N   UNL     1       5.949   7.759  -6.763  1.00  0.00    -0.370 N 
ATOM     46  H   UNL     1       3.869   8.584  -7.618  1.00  0.00     0.159 HD
ATOM     47  H   UNL     1       3.027   8.833  -6.146  1.00  0.00     0.159 HD
ATOM     48  H   UNL     1       6.756   7.319  -6.342  1.00  0.00     0.159 HD
ATOM     49  H   UNL     1       6.056   8.216  -7.651  1.00  0.00     0.159 HD
ENDBRANCH  41  42
ENDBRANCH  40  41
ENDBRANCH  39  40
ENDBRANCH  38  39
ENDBRANCH  36  38
ENDBRANCH   5  34
BRANCH   8  50
ATOM     50  O   UNL     1       4.555   7.865  -9.504  1.00  0.00    -0.245 OA
BRANCH  50  51
ATOM     51  S   UNL     1       5.414   9.182  -9.920  1.00  0.00     0.397 S 
ATOM     52  O   UNL     1       5.126  10.224  -8.961  1.00  0.00    -0.169 OA
ATOM     53  O   UNL     1       5.296   9.408 -11.346  1.00  0.00    -0.169 OA
BRANCH  51  54
ATOM     54  O   UNL     1       6.921   8.710  -9.616  1.00  0.00    -0.264 OA
ATOM     55  H   UNL     1       7.486   9.026 -10.350  1.00  0.00     0.236 HD
ENDBRANCH  51  54
ENDBRANCH  50  51
ENDBRANCH   8  50
TORSDOF 19
ENDMDL
MODEL 5
REMARK VINA RESULT:    -6.544     15.855     20.830
REMARK INTER + INTRA:         -15.944
REMARK INTER:                 -11.313
REMARK INTRA:                  -4.631
REMARK UNBOUND:                -2.705
REMARK SMILES CC[C@@H](C)[C@@H](NC(=O)[C@@H](O)Cc1ccc(O)c(Cl)c1)C(=O)N1[C@H](C(=O)NCCCCN=C(N)N)C[C@H]2CC[C@H](OS(=O)(=O)O)C[C@@H]21
REMARK SMILES IDX 22 1 36 2 46 3 35 4 23 5 45 6 37 7 39 8 38 9 20 10 21 11
REMARK SMILES IDX 5 12 6 13 7 14 8 15 9 17 11 18 12 19 17 20 19 21 15 22 14 23
REMARK SMILES IDX 13 24 18 25 16 26 10 28 3 30 4 31 2 32 1 33 24 34 25 35
REMARK SMILES IDX 26 36 27 38 28 39 29 40 30 41 31 42 32 43 33 44 34 45 40 50
REMARK SMILES IDX 41 51 42 52 43 53 44 54
REMARK H PARENT 6 16 16 27 10 29 26 37 33 46 33 47 34 48 34 49 44 55
ROOT
ATOM      1  N   UNL     1       1.347   6.197  -7.865  1.00  0.00    -0.326 N 
ATOM      2  C   UNL     1       3.541   5.345  -7.916  1.00  0.00     0.014 C 
ATOM      3  C   UNL     1       2.472   6.012  -8.786  1.00  0.00     0.091 C 
ATOM      4  C   UNL     1       2.716   4.472  -6.982  1.00  0.00     0.041 C 
ATOM      5  C   UNL     1       1.599   5.461  -6.601  1.00  0.00     0.175 C 
ATOM      6  C   UNL     1       3.084   7.250  -9.439  1.00  0.00     0.059 C 
ATOM      7  C   UNL     1       4.617   4.707  -8.773  1.00  0.00     0.008 C 
ATOM      8  C   UNL     1       4.594   7.114  -9.736  1.00  0.00     0.143 C 
ATOM      9  C   UNL     1       5.015   5.644  -9.933  1.00  0.00     0.034 C 
ENDROOT
BRANCH   1  10
ATOM     10  C   UNL     1       0.092   6.736  -8.093  1.00  0.00     0.246 C 
ATOM     11  O   UNL     1      -0.073   7.953  -7.957  1.00  0.00    -0.272 OA
BRANCH  10  12
ATOM     12  C   UNL     1      -1.069   5.808  -8.555  1.00  0.00     0.174 C 
BRANCH  12  13
ATOM     13  N   UNL     1      -2.197   5.923  -7.631  1.00  0.00    -0.342 N 
ATOM     14  C   UNL     1      -3.523   5.850  -7.991  1.00  0.00     0.249 C 
ATOM     15  O   UNL     1      -3.909   5.651  -9.136  1.00  0.00    -0.272 OA
ATOM     16  H   UNL     1      -2.037   6.244  -6.679  1.00  0.00     0.164 HD
BRANCH  14  17
ATOM     17  C   UNL     1      -4.477   6.026  -6.790  1.00  0.00     0.207 C 
BRANCH  17  18
ATOM     18  C   UNL     1      -5.287   4.746  -6.557  1.00  0.00     0.077 C 
BRANCH  18  19
ATOM     19  C   UNL     1      -4.501   3.719  -5.773  1.00  0.00    -0.043 A 
ATOM     20  C   UNL     1      -2.770   3.177  -4.163  1.00  0.00     0.083 A 
ATOM     21  C   UNL     1      -3.527   4.128  -4.849  1.00  0.00     0.028 A 
ATOM     22  C   UNL     1      -2.978   1.817  -4.397  1.00  0.00     0.134 A 
ATOM     23  C   UNL     1      -3.940   1.399  -5.309  1.00  0.00     0.048 A 
ATOM     24  C   UNL     1      -4.698   2.348  -5.999  1.00  0.00     0.008 A 
ATOM     25  Cl  UNL     1      -1.577   3.698  -3.032  1.00  0.00    -0.080 Cl
BRANCH  22  26
ATOM     26  O   UNL     1      -2.253   0.849  -3.757  1.00  0.00    -0.506 OA
ATOM     27  H   UNL     1      -1.900   0.260  -4.449  1.00  0.00     0.293 HD
ENDBRANCH  22  26
ENDBRANCH  18  19
ENDBRANCH  17  18
BRANCH  17  28
ATOM     28  O   UNL     1      -5.376   7.127  -7.000  1.00  0.00    -0.383 OA
ATOM     29  H   UNL     1      -5.877   7.233  -6.160  1.00  0.00     0.211 HD
ENDBRANCH  17  28
ENDBRANCH  14  17
ENDBRANCH  12  13
BRANCH  12  30
ATOM     30  C   UNL     1      -0.616   4.337  -8.758  1.00  0.00     0.018 C 
ATOM     31  C   UNL     1      -0.821   3.898 -10.216  1.00  0.00     0.010 C 
BRANCH  30  32
ATOM     32  C   UNL     1      -1.307   3.337  -7.799  1.00  0.00     0.002 C 
ATOM     33  C   UNL     1      -0.372   2.570  -6.873  1.00  0.00     0.004 C 
ENDBRANCH  30  32
ENDBRANCH  12  30
ENDBRANCH  10  12
ENDBRANCH   1  10
BRANCH   5  34
ATOM     34  C   UNL     1       2.054   6.433  -5.480  1.00  0.00     0.242 C 
ATOM     35  O   UNL     1       2.196   7.640  -5.673  1.00  0.00    -0.273 OA
ATOM     36  N   UNL     1       2.338   5.840  -4.270  1.00  0.00    -0.354 N 
ATOM     37  H   UNL     1       2.316   4.821  -4.205  1.00  0.00     0.163 HD
BRANCH  36  38
ATOM     38  C   UNL     1       2.564   6.611  -3.065  1.00  0.00     0.116 C 
BRANCH  38  39
ATOM     39  C   UNL     1       3.537   5.870  -2.151  1.00  0.00     0.023 C 
BRANCH  39  40
ATOM     40  C   UNL     1       4.856   6.614  -1.978  1.00  0.00     0.026 C 
BRANCH  40  41
ATOM     41  C   UNL     1       4.908   7.844  -2.884  1.00  0.00     0.146 C 
BRANCH  41  42
ATOM     42  N   UNL     1       6.163   7.857  -3.625  1.00  0.00    -0.254 NA
ATOM     43  C   UNL     1       6.142   7.884  -4.904  1.00  0.00     0.185 C 
ATOM     44  N   UNL     1       5.098   7.904  -5.753  1.00  0.00    -0.370 N 
ATOM     45  N   UNL     1       7.310   7.891  -5.569  1.00  0.00    -0.370 N 
ATOM     46  H   UNL     1       5.223   7.677  -6.725  1.00  0.00     0.159 HD
ATOM     47  H   UNL     1       4.140   7.915  -5.419  1.00  0.00     0.159 HD
ATOM     48  H   UNL     1       8.147   7.886  -5.003  1.00  0.00     0.159 HD
ATOM     49  H   UNL     1       7.383   8.148  -6.537  1.00  0.00     0.159 HD
ENDBRANCH  41  42
ENDBRANCH  40  41
ENDBRANCH  39  40
ENDBRANCH  38  39
ENDBRANCH  36  38
ENDBRANCH   5  34
BRANCH   8  50
ATOM     50  O   UNL     1       5.356   7.664  -8.661  1.00  0.00    -0.245 OA
BRANCH  50  51
ATOM     51  S   UNL     1       6.386   8.889  -8.952  1.00  0.00     0.397 S 
ATOM     52  O   UNL     1       6.198   9.884  -7.920  1.00  0.00    -0.169 OA
ATOM     53  O   UNL     1       6.344   9.236 -10.358  1.00  0.00    -0.169 OA
BRANCH  51  54
ATOM     54  O   UNL     1       7.811   8.209  -8.651  1.00  0.00    -0.264 OA
ATOM     55  H   UNL     1       8.442   8.525  -9.329  1.00  0.00     0.236 HD
ENDBRANCH  51  54
ENDBRANCH  50  51
ENDBRANCH   8  50
TORSDOF 19
ENDMDL
MODEL 6
REMARK VINA RESULT:    -6.523     16.181     21.152
REMARK INTER + INTRA:         -15.901
REMARK INTER:                 -12.028
REMARK INTRA:                  -3.873
REMARK UNBOUND:                -2.705
REMARK SMILES CC[C@@H](C)[C@@H](NC(=O)[C@@H](O)Cc1ccc(O)c(Cl)c1)C(=O)N1[C@H](C(=O)NCCCCN=C(N)N)C[C@H]2CC[C@H](OS(=O)(=O)O)C[C@@H]21
REMARK SMILES IDX 22 1 36 2 46 3 35 4 23 5 45 6 37 7 39 8 38 9 20 10 21 11
REMARK SMILES IDX 5 12 6 13 7 14 8 15 9 17 11 18 12 19 17 20 19 21 15 22 14 23
REMARK SMILES IDX 13 24 18 25 16 26 10 28 3 30 4 31 2 32 1 33 24 34 25 35
REMARK SMILES IDX 26 36 27 38 28 39 29 40 30 41 31 42 32 43 33 44 34 45 40 50
REMARK SMILES IDX 41 51 42 52 43 53 44 54
REMARK H PARENT 6 16 16 27 10 29 26 37 33 46 33 47 34 48 34 49 44 55
ROOT
ATOM      1  N   UNL     1       0.326   5.177  -7.647  1.00  0.00    -0.326 N 
ATOM      2  C   UNL     1      -1.033   3.311  -7.184  1.00  0.00     0.014 C 
ATOM      3  C   UNL     1       0.236   4.037  -6.730  1.00  0.00     0.091 C 
ATOM      4  C   UNL     1      -1.022   3.527  -8.690  1.00  0.00     0.041 C 
ATOM      5  C   UNL     1      -0.656   5.022  -8.748  1.00  0.00     0.175 C 
ATOM      6  C   UNL     1       0.123   4.318  -5.233  1.00  0.00     0.059 C 
ATOM      7  C   UNL     1      -1.076   1.899  -6.636  1.00  0.00     0.008 C 
ATOM      8  C   UNL     1      -0.682   3.252  -4.460  1.00  0.00     0.143 C 
ATOM      9  C   UNL     1      -0.640   1.876  -5.156  1.00  0.00     0.034 C 
ENDROOT
BRANCH   1  10
ATOM     10  C   UNL     1       1.280   6.177  -7.730  1.00  0.00     0.246 C 
ATOM     11  O   UNL     1       1.382   6.990  -6.806  1.00  0.00    -0.272 OA
BRANCH  10  12
ATOM     12  C   UNL     1       2.230   6.229  -8.962  1.00  0.00     0.174 C 
BRANCH  12  13
ATOM     13  N   UNL     1       3.623   6.175  -8.519  1.00  0.00    -0.342 N 
ATOM     14  C   UNL     1       4.589   5.348  -9.048  1.00  0.00     0.249 C 
ATOM     15  O   UNL     1       4.391   4.576  -9.978  1.00  0.00    -0.272 OA
ATOM     16  H   UNL     1       3.897   6.641  -7.658  1.00  0.00     0.164 HD
BRANCH  14  17
ATOM     17  C   UNL     1       5.958   5.513  -8.355  1.00  0.00     0.207 C 
BRANCH  17  18
ATOM     18  C   UNL     1       6.231   6.990  -8.053  1.00  0.00     0.077 C 
BRANCH  18  19
ATOM     19  C   UNL     1       7.516   7.177  -7.277  1.00  0.00    -0.043 A 
ATOM     20  C   UNL     1       8.925   6.629  -5.380  1.00  0.00     0.083 A 
ATOM     21  C   UNL     1       7.762   6.419  -6.121  1.00  0.00     0.028 A 
ATOM     22  C   UNL     1       9.847   7.594  -5.787  1.00  0.00     0.134 A 
ATOM     23  C   UNL     1       9.616   8.351  -6.929  1.00  0.00     0.048 A 
ATOM     24  C   UNL     1       8.452   8.145  -7.672  1.00  0.00     0.008 A 
ATOM     25  Cl  UNL     1       9.209   5.689  -3.962  1.00  0.00    -0.080 Cl
BRANCH  22  26
ATOM     26  O   UNL     1      10.997   7.843  -5.087  1.00  0.00    -0.506 OA
ATOM     27  H   UNL     1      11.651   7.181  -5.378  1.00  0.00     0.293 HD
ENDBRANCH  22  26
ENDBRANCH  18  19
ENDBRANCH  17  18
BRANCH  17  28
ATOM     28  O   UNL     1       7.018   4.991  -9.173  1.00  0.00    -0.383 OA
ATOM     29  H   UNL     1       6.712   5.079 -10.104  1.00  0.00     0.211 HD
ENDBRANCH  17  28
ENDBRANCH  14  17
ENDBRANCH  12  13
BRANCH  12  30
ATOM     30  C   UNL     1       1.949   7.444  -9.886  1.00  0.00     0.018 C 
ATOM     31  C   UNL     1       1.870   7.006 -11.356  1.00  0.00     0.010 C 
BRANCH  30  32
ATOM     32  C   UNL     1       2.972   8.595  -9.728  1.00  0.00     0.002 C 
ATOM     33  C   UNL     1       3.868   8.840 -10.935  1.00  0.00     0.004 C 
ENDBRANCH  30  32
ENDBRANCH  12  30
ENDBRANCH  10  12
ENDBRANCH   1  10
BRANCH   5  34
ATOM     34  C   UNL     1      -1.897   5.924  -8.511  1.00  0.00     0.242 C 
ATOM     35  O   UNL     1      -1.952   6.737  -7.588  1.00  0.00    -0.273 OA
ATOM     36  N   UNL     1      -2.949   5.711  -9.373  1.00  0.00    -0.354 N 
ATOM     37  H   UNL     1      -2.890   4.941 -10.041  1.00  0.00     0.163 HD
BRANCH  36  38
ATOM     38  C   UNL     1      -4.090   6.601  -9.435  1.00  0.00     0.116 C 
BRANCH  38  39
ATOM     39  C   UNL     1      -5.379   5.805  -9.240  1.00  0.00     0.023 C 
BRANCH  39  40
ATOM     40  C   UNL     1      -6.446   6.599  -8.493  1.00  0.00     0.026 C 
BRANCH  40  41
ATOM     41  C   UNL     1      -6.518   6.166  -7.029  1.00  0.00     0.146 C 
BRANCH  41  42
ATOM     42  N   UNL     1      -5.993   4.814  -6.888  1.00  0.00    -0.254 NA
ATOM     43  C   UNL     1      -4.899   4.623  -6.252  1.00  0.00     0.185 C 
ATOM     44  N   UNL     1      -4.086   5.505  -5.643  1.00  0.00    -0.370 N 
ATOM     45  N   UNL     1      -4.430   3.369  -6.137  1.00  0.00    -0.370 N 
ATOM     46  H   UNL     1      -3.145   5.250  -5.397  1.00  0.00     0.159 HD
ATOM     47  H   UNL     1      -4.298   6.498  -5.622  1.00  0.00     0.159 HD
ATOM     48  H   UNL     1      -4.989   2.641  -6.561  1.00  0.00     0.159 HD
ATOM     49  H   UNL     1      -3.727   3.111  -5.468  1.00  0.00     0.159 HD
ENDBRANCH  41  42
ENDBRANCH  40  41
ENDBRANCH  39  40
ENDBRANCH  38  39
ENDBRANCH  36  38
ENDBRANCH   5  34
BRANCH   8  50
ATOM     50  O   UNL     1      -2.046   3.658  -4.341  1.00  0.00    -0.245 OA
BRANCH  50  51
ATOM     51  S   UNL     1      -2.828   3.445  -2.931  1.00  0.00     0.397 S 
ATOM     52  O   UNL     1      -1.838   3.345  -1.883  1.00  0.00    -0.169 OA
ATOM     53  O   UNL     1      -3.864   2.446  -3.095  1.00  0.00    -0.169 OA
BRANCH  51  54
ATOM     54  O   UNL     1      -3.542   4.871  -2.725  1.00  0.00    -0.264 OA
ATOM     55  H   UNL     1      -3.209   5.253  -1.887  1.00  0.00     0.236 HD
ENDBRANCH  51  54
ENDBRANCH  50  51
ENDBRANCH   8  50
TORSDOF 19
ENDMDL
MODEL 7
REMARK VINA RESULT:    -6.513     18.189     21.620
REMARK INTER + INTRA:         -15.882
REMARK INTER:                 -10.768
REMARK INTRA:                  -5.113
REMARK UNBOUND:                -2.705
REMARK SMILES CC[C@@H](C)[C@@H](NC(=O)[C@@H](O)Cc1ccc(O)c(Cl)c1)C(=O)N1[C@H](C(=O)NCCCCN=C(N)N)C[C@H]2CC[C@H](OS(=O)(=O)O)C[C@@H]21
REMARK SMILES IDX 22 1 36 2 46 3 35 4 23 5 45 6 37 7 39 8 38 9 20 10 21 11
REMARK SMILES IDX 5 12 6 13 7 14 8 15 9 17 11 18 12 19 17 20 19 21 15 22 14 23
REMARK SMILES IDX 13 24 18 25 16 26 10 28 3 30 4 31 2 32 1 33 24 34 25 35
REMARK SMILES IDX 26 36 27 38 28 39 29 40 30 41 31 42 32 43 33 44 34 45 40 50
REMARK SMILES IDX 41 51 42 52 43 53 44 54
REMARK H PARENT 6 16 16 27 10 29 26 37 33 46 33 47 34 48 34 49 44 55
ROOT
ATOM      1  N   UNL     1      -0.074  -8.590  -7.543  1.00  0.00    -0.326 N 
ATOM      2  C   UNL     1       1.300  -8.946  -5.664  1.00  0.00     0.014 C 
ATOM      3  C   UNL     1      -0.094  -9.239  -6.229  1.00  0.00     0.091 C 
ATOM      4  C   UNL     1       1.599  -7.559  -6.214  1.00  0.00     0.041 C 
ATOM      5  C   UNL     1       1.133  -7.737  -7.671  1.00  0.00     0.175 C 
ATOM      6  C   UNL     1      -0.332 -10.746  -6.168  1.00  0.00     0.059 C 
ATOM      7  C   UNL     1       1.337  -9.176  -4.166  1.00  0.00     0.008 C 
ATOM      8  C   UNL     1       0.371 -11.439  -4.981  1.00  0.00     0.143 C 
ATOM      9  C   UNL     1       0.593 -10.476  -3.797  1.00  0.00     0.034 C 
ENDROOT
BRANCH   1  10
ATOM     10  C   UNL     1      -1.066  -8.503  -8.505  1.00  0.00     0.246 C 
ATOM     11  O   UNL     1      -1.898  -7.593  -8.431  1.00  0.00    -0.272 OA
BRANCH  10  12
ATOM     12  C   UNL     1      -1.087  -9.525  -9.679  1.00  0.00     0.174 C 
BRANCH  12  13
ATOM     13  N   UNL     1      -0.315 -10.714  -9.319  1.00  0.00    -0.342 N 
ATOM     14  C   UNL     1      -0.753 -12.012  -9.457  1.00  0.00     0.249 C 
ATOM     15  O   UNL     1      -1.841 -12.318  -9.927  1.00  0.00    -0.272 OA
ATOM     16  H   UNL     1       0.538 -10.615  -8.775  1.00  0.00     0.164 HD
BRANCH  14  17
ATOM     17  C   UNL     1       0.286 -13.045  -8.972  1.00  0.00     0.207 C 
BRANCH  17  18
ATOM     18  C   UNL     1       1.231 -13.431 -10.115  1.00  0.00     0.077 C 
BRANCH  18  19
ATOM     19  C   UNL     1       2.606 -12.828  -9.935  1.00  0.00    -0.043 A 
ATOM     20  C   UNL     1       4.535 -11.679 -10.853  1.00  0.00     0.083 A 
ATOM     21  C   UNL     1       3.246 -12.190 -11.009  1.00  0.00     0.028 A 
ATOM     22  C   UNL     1       5.192 -11.802  -9.628  1.00  0.00     0.134 A 
ATOM     23  C   UNL     1       4.569 -12.431  -8.556  1.00  0.00     0.048 A 
ATOM     24  C   UNL     1       3.280 -12.945  -8.710  1.00  0.00     0.008 A 
ATOM     25  Cl  UNL     1       5.305 -10.899 -12.185  1.00  0.00    -0.080 Cl
BRANCH  22  26
ATOM     26  O   UNL     1       6.459 -11.326  -9.431  1.00  0.00    -0.506 OA
ATOM     27  H   UNL     1       7.056 -11.893  -9.953  1.00  0.00     0.293 HD
ENDBRANCH  22  26
ENDBRANCH  18  19
ENDBRANCH  17  18
BRANCH  17  28
ATOM     28  O   UNL     1      -0.356 -14.227  -8.466  1.00  0.00    -0.383 OA
ATOM     29  H   UNL     1      -0.753 -13.971  -7.603  1.00  0.00     0.211 HD
ENDBRANCH  17  28
ENDBRANCH  14  17
ENDBRANCH  12  13
BRANCH  12  30
ATOM     30  C   UNL     1      -0.626  -8.903 -11.024  1.00  0.00     0.018 C 
ATOM     31  C   UNL     1      -1.789  -8.844 -12.027  1.00  0.00     0.010 C 
BRANCH  30  32
ATOM     32  C   UNL     1       0.588  -9.625 -11.659  1.00  0.00     0.002 C 
ATOM     33  C   UNL     1       1.081  -9.037 -12.974  1.00  0.00     0.004 C 
ENDBRANCH  30  32
ENDBRANCH  12  30
ENDBRANCH  10  12
ENDBRANCH   1  10
BRANCH   5  34
ATOM     34  C   UNL     1       2.215  -8.439  -8.534  1.00  0.00     0.242 C 
ATOM     35  O   UNL     1       2.320  -9.665  -8.588  1.00  0.00    -0.273 OA
ATOM     36  N   UNL     1       3.080  -7.593  -9.192  1.00  0.00    -0.354 N 
ATOM     37  H   UNL     1       3.017  -6.591  -9.013  1.00  0.00     0.163 HD
BRANCH  36  38
ATOM     38  C   UNL     1       4.004  -8.065 -10.202  1.00  0.00     0.116 C 
BRANCH  38  39
ATOM     39  C   UNL     1       3.730  -7.356 -11.526  1.00  0.00     0.023 C 
BRANCH  39  40
ATOM     40  C   UNL     1       3.783  -5.837 -11.396  1.00  0.00     0.026 C 
BRANCH  40  41
ATOM     41  C   UNL     1       2.505  -5.202 -11.944  1.00  0.00     0.146 C 
BRANCH  41  42
ATOM     42  N   UNL     1       1.347  -5.738 -11.241  1.00  0.00    -0.254 NA
ATOM     43  C   UNL     1       0.276  -5.042 -11.162  1.00  0.00     0.185 C 
ATOM     44  N   UNL     1       0.003  -3.816 -11.645  1.00  0.00    -0.370 N 
ATOM     45  N   UNL     1      -0.779  -5.553 -10.506  1.00  0.00    -0.370 N 
ATOM     46  H   UNL     1      -0.785  -3.294 -11.303  1.00  0.00     0.159 HD
ATOM     47  H   UNL     1       0.687  -3.290 -12.180  1.00  0.00     0.159 HD
ATOM     48  H   UNL     1      -0.660  -6.479 -10.118  1.00  0.00     0.159 HD
ATOM     49  H   UNL     1      -1.709  -5.185 -10.602  1.00  0.00     0.159 HD
ENDBRANCH  41  42
ENDBRANCH  40  41
ENDBRANCH  39  40
ENDBRANCH  38  39
ENDBRANCH  36  38
ENDBRANCH   5  34
BRANCH   8  50
ATOM     50  O   UNL     1       1.638 -11.952  -5.392  1.00  0.00    -0.245 OA
BRANCH  50  51
ATOM     51  S   UNL     1       1.991 -13.519  -5.138  1.00  0.00     0.397 S 
ATOM     52  O   UNL     1       3.429 -13.648  -5.072  1.00  0.00    -0.169 OA
ATOM     53  O   UNL     1       1.195 -14.346  -6.021  1.00  0.00    -0.169 OA
BRANCH  51  54
ATOM     54  O   UNL     1       1.461 -13.744  -3.637  1.00  0.00    -0.264 OA
ATOM     55  H   UNL     1       1.608 -14.684  -3.406  1.00  0.00     0.236 HD
ENDBRANCH  51  54
ENDBRANCH  50  51
ENDBRANCH   8  50
TORSDOF 19
ENDMDL
MODEL 8
REMARK VINA RESULT:    -6.468     15.447     19.680
REMARK INTER + INTRA:         -15.791
REMARK INTER:                 -11.088
REMARK INTRA:                  -4.702
REMARK UNBOUND:                -2.705
REMARK SMILES CC[C@@H](C)[C@@H](NC(=O)[C@@H](O)Cc1ccc(O)c(Cl)c1)C(=O)N1[C@H](C(=O)NCCCCN=C(N)N)C[C@H]2CC[C@H](OS(=O)(=O)O)C[C@@H]21
REMARK SMILES IDX 22 1 36 2 46 3 35 4 23 5 45 6 37 7 39 8 38 9 20 10 21 11
REMARK SMILES IDX 5 12 6 13 7 14 8 15 9 17 11 18 12 19 17 20 19 21 15 22 14 23
REMARK SMILES IDX 13 24 18 25 16 26 10 28 3 30 4 31 2 32 1 33 24 34 25 35
REMARK SMILES IDX 26 36 27 38 28 39 29 40 30 41 31 42 32 43 33 44 34 45 40 50
REMARK SMILES IDX 41 51 42 52 43 53 44 54
REMARK H PARENT 6 16 16 27 10 29 26 37 33 46 33 47 34 48 34 49 44 55
ROOT
ATOM      1  N   UNL     1      -0.051   5.845  -7.294  1.00  0.00    -0.326 N 
ATOM      2  C   UNL     1       0.773   5.023  -9.341  1.00  0.00     0.014 C 
ATOM      3  C   UNL     1       0.688   6.287  -8.480  1.00  0.00     0.091 C 
ATOM      4  C   UNL     1      -0.551   4.332  -9.051  1.00  0.00     0.041 C 
ATOM      5  C   UNL     1      -0.612   4.490  -7.521  1.00  0.00     0.175 C 
ATOM      6  C   UNL     1       2.100   6.838  -8.290  1.00  0.00     0.059 C 
ATOM      7  C   UNL     1       1.136   5.365 -10.772  1.00  0.00     0.008 C 
ATOM      8  C   UNL     1       3.037   6.573  -9.489  1.00  0.00     0.143 C 
ATOM      9  C   UNL     1       2.258   6.424 -10.811  1.00  0.00     0.034 C 
ENDROOT
BRANCH   1  10
ATOM     10  C   UNL     1      -0.447   6.561  -6.177  1.00  0.00     0.246 C 
ATOM     11  O   UNL     1       0.220   6.474  -5.140  1.00  0.00    -0.272 OA
BRANCH  10  12
ATOM     12  C   UNL     1      -1.693   7.489  -6.262  1.00  0.00     0.174 C 
BRANCH  12  13
ATOM     13  N   UNL     1      -2.721   7.031  -5.328  1.00  0.00    -0.342 N 
ATOM     14  C   UNL     1      -3.393   7.837  -4.436  1.00  0.00     0.249 C 
ATOM     15  O   UNL     1      -3.222   9.046  -4.347  1.00  0.00    -0.272 OA
ATOM     16  H   UNL     1      -2.857   6.035  -5.178  1.00  0.00     0.164 HD
BRANCH  14  17
ATOM     17  C   UNL     1      -4.405   7.054  -3.573  1.00  0.00     0.207 C 
BRANCH  17  18
ATOM     18  C   UNL     1      -5.836   7.508  -3.880  1.00  0.00     0.077 C 
BRANCH  18  19
ATOM     19  C   UNL     1      -6.331   6.952  -5.196  1.00  0.00    -0.043 A 
ATOM     20  C   UNL     1      -6.758   5.059  -6.652  1.00  0.00     0.083 A 
ATOM     21  C   UNL     1      -6.347   5.566  -5.419  1.00  0.00     0.028 A 
ATOM     22  C   UNL     1      -7.153   5.929  -7.668  1.00  0.00     0.134 A 
ATOM     23  C   UNL     1      -7.143   7.304  -7.461  1.00  0.00     0.048 A 
ATOM     24  C   UNL     1      -6.730   7.815  -6.229  1.00  0.00     0.008 A 
ATOM     25  Cl  UNL     1      -6.769   3.353  -6.906  1.00  0.00    -0.080 Cl
BRANCH  22  26
ATOM     26  O   UNL     1      -7.554   5.479  -8.897  1.00  0.00    -0.506 OA
ATOM     27  H   UNL     1      -8.251   6.087  -9.204  1.00  0.00     0.293 HD
ENDBRANCH  22  26
ENDBRANCH  18  19
ENDBRANCH  17  18
BRANCH  17  28
ATOM     28  O   UNL     1      -4.139   7.234  -2.172  1.00  0.00    -0.383 OA
ATOM     29  H   UNL     1      -3.500   6.528  -1.924  1.00  0.00     0.211 HD
ENDBRANCH  17  28
ENDBRANCH  14  17
ENDBRANCH  12  13
BRANCH  12  30
ATOM     30  C   UNL     1      -2.233   7.636  -7.710  1.00  0.00     0.018 C 
ATOM     31  C   UNL     1      -2.371   9.118  -8.094  1.00  0.00     0.010 C 
BRANCH  30  32
ATOM     32  C   UNL     1      -3.572   6.897  -7.953  1.00  0.00     0.002 C 
ATOM     33  C   UNL     1      -3.665   6.132  -9.266  1.00  0.00     0.004 C 
ENDBRANCH  30  32
ENDBRANCH  12  30
ENDBRANCH  10  12
ENDBRANCH   1  10
BRANCH   5  34
ATOM     34  C   UNL     1       0.242   3.413  -6.800  1.00  0.00     0.242 C 
ATOM     35  O   UNL     1       1.421   3.600  -6.501  1.00  0.00    -0.273 OA
ATOM     36  N   UNL     1      -0.399   2.217  -6.567  1.00  0.00    -0.354 N 
ATOM     37  H   UNL     1      -1.338   2.081  -6.945  1.00  0.00     0.163 HD
BRANCH  36  38
ATOM     38  C   UNL     1       0.168   1.187  -5.721  1.00  0.00     0.116 C 
BRANCH  38  39
ATOM     39  C   UNL     1      -0.339   1.354  -4.291  1.00  0.00     0.023 C 
BRANCH  39  40
ATOM     40  C   UNL     1      -1.849   1.174  -4.183  1.00  0.00     0.026 C 
BRANCH  40  41
ATOM     41  C   UNL     1      -2.495   2.398  -3.534  1.00  0.00     0.146 C 
BRANCH  41  42
ATOM     42  N   UNL     1      -1.563   3.518  -3.556  1.00  0.00    -0.254 NA
ATOM     43  C   UNL     1      -1.675   4.452  -2.689  1.00  0.00     0.185 C 
ATOM     44  N   UNL     1      -2.561   4.601  -1.687  1.00  0.00    -0.370 N 
ATOM     45  N   UNL     1      -0.808   5.478  -2.729  1.00  0.00    -0.370 N 
ATOM     46  H   UNL     1      -2.685   5.494  -1.241  1.00  0.00     0.159 HD
ATOM     47  H   UNL     1      -3.280   3.908  -1.504  1.00  0.00     0.159 HD
ATOM     48  H   UNL     1      -0.101   5.439  -3.451  1.00  0.00     0.159 HD
ATOM     49  H   UNL     1      -0.680   6.112  -1.960  1.00  0.00     0.159 HD
ENDBRANCH  41  42
ENDBRANCH  40  41
ENDBRANCH  39  40
ENDBRANCH  38  39
ENDBRANCH  36  38
ENDBRANCH   5  34
BRANCH   8  50
ATOM     50  O   UNL     1       3.789   5.379  -9.269  1.00  0.00    -0.245 OA
BRANCH  50  51
ATOM     51  S   UNL     1       5.404   5.467  -9.101  1.00  0.00     0.397 S 
ATOM     52  O   UNL     1       5.812   4.445  -8.164  1.00  0.00    -0.169 OA
ATOM     53  O   UNL     1       5.801   6.850  -8.936  1.00  0.00    -0.169 OA
BRANCH  51  54
ATOM     54  O   UNL     1       5.919   4.972 -10.542  1.00  0.00    -0.264 OA
ATOM     55  H   UNL     1       6.721   5.487 -10.765  1.00  0.00     0.236 HD
ENDBRANCH  51  54
ENDBRANCH  50  51
ENDBRANCH   8  50
TORSDOF 19
ENDMDL
MODEL 9
REMARK VINA RESULT:    -6.453      4.364      7.954
REMARK INTER + INTRA:         -15.759
REMARK INTER:                 -10.773
REMARK INTRA:                  -4.986
REMARK UNBOUND:                -2.705
REMARK SMILES CC[C@@H](C)[C@@H](NC(=O)[C@@H](O)Cc1ccc(O)c(Cl)c1)C(=O)N1[C@H](C(=O)NCCCCN=C(N)N)C[C@H]2CC[C@H](OS(=O)(=O)O)C[C@@H]21
REMARK SMILES IDX 22 1 36 2 46 3 35 4 23 5 45 6 37 7 39 8 38 9 20 10 21 11
REMARK SMILES IDX 5 12 6 13 7 14 8 15 9 17 11 18 12 19 17 20 19 21 15 22 14 23
REMARK SMILES IDX 13 24 18 25 16 26 10 28 3 30 4 31 2 32 1 33 24 34 25 35
REMARK SMILES IDX 26 36 27 38 28 39 29 40 30 41 31 42 32 43 33 44 34 45 40 50
REMARK SMILES IDX 41 51 42 52 43 53 44 54
REMARK H PARENT 6 16 16 27 10 29 26 37 33 46 33 47 34 48 34 49 44 55
ROOT
ATOM      1  N   UNL     1     -14.138  -4.814   7.705  1.00  0.00    -0.326 N 
ATOM      2  C   UNL     1     -13.541  -2.706   8.567  1.00  0.00     0.014 C 
ATOM      3  C   UNL     1     -13.670  -4.185   8.944  1.00  0.00     0.091 C 
ATOM      4  C   UNL     1     -14.686  -2.509   7.585  1.00  0.00     0.041 C 
ATOM      5  C   UNL     1     -14.524  -3.773   6.721  1.00  0.00     0.175 C 
ATOM      6  C   UNL     1     -12.342  -4.651   9.536  1.00  0.00     0.059 C 
ATOM      7  C   UNL     1     -13.465  -1.836   9.806  1.00  0.00     0.008 C 
ATOM      8  C   UNL     1     -11.580  -3.545  10.299  1.00  0.00     0.143 C 
ATOM      9  C   UNL     1     -12.531  -2.467  10.859  1.00  0.00     0.034 C 
ENDROOT
BRANCH   1  10
ATOM     10  C   UNL     1     -14.450  -6.138   7.445  1.00  0.00     0.246 C 
ATOM     11  O   UNL     1     -15.419  -6.397   6.725  1.00  0.00    -0.272 OA
BRANCH  10  12
ATOM     12  C   UNL     1     -13.550  -7.267   8.028  1.00  0.00     0.174 C 
BRANCH  12  13
ATOM     13  N   UNL     1     -12.875  -7.977   6.942  1.00  0.00    -0.342 N 
ATOM     14  C   UNL     1     -11.574  -7.763   6.547  1.00  0.00     0.249 C 
ATOM     15  O   UNL     1     -10.820  -6.963   7.087  1.00  0.00    -0.272 OA
ATOM     16  H   UNL     1     -13.417  -8.555   6.305  1.00  0.00     0.164 HD
BRANCH  14  17
ATOM     17  C   UNL     1     -11.157  -8.657   5.360  1.00  0.00     0.207 C 
BRANCH  17  18
ATOM     18  C   UNL     1     -10.047  -9.625   5.783  1.00  0.00     0.077 C 
BRANCH  18  19
ATOM     19  C   UNL     1     -10.498 -10.546   6.895  1.00  0.00    -0.043 A 
ATOM     20  C   UNL     1     -12.009 -12.249   7.732  1.00  0.00     0.083 A 
ATOM     21  C   UNL     1     -11.563 -11.436   6.689  1.00  0.00     0.028 A 
ATOM     22  C   UNL     1     -11.396 -12.178   8.983  1.00  0.00     0.134 A 
ATOM     23  C   UNL     1     -10.340 -11.301   9.201  1.00  0.00     0.048 A 
ATOM     24  C   UNL     1      -9.893 -10.484   8.159  1.00  0.00     0.008 A 
ATOM     25  Cl  UNL     1     -13.320 -13.336   7.460  1.00  0.00    -0.080 Cl
BRANCH  22  26
ATOM     26  O   UNL     1     -11.805 -12.947  10.039  1.00  0.00    -0.506 OA
ATOM     27  H   UNL     1     -12.065 -12.332  10.750  1.00  0.00     0.293 HD
ENDBRANCH  22  26
ENDBRANCH  18  19
ENDBRANCH  17  18
BRANCH  17  28
ATOM     28  O   UNL     1     -10.702  -7.866   4.251  1.00  0.00    -0.383 OA
ATOM     29  H   UNL     1     -11.511  -7.594   3.761  1.00  0.00     0.211 HD
ENDBRANCH  17  28
ENDBRANCH  14  17
ENDBRANCH  12  13
BRANCH  12  30
ATOM     30  C   UNL     1     -14.327  -8.226   8.970  1.00  0.00     0.018 C 
ATOM     31  C   UNL     1     -15.111  -7.435  10.029  1.00  0.00     0.010 C 
BRANCH  30  32
ATOM     32  C   UNL     1     -13.429  -9.285   9.655  1.00  0.00     0.002 C 
ATOM     33  C   UNL     1     -14.160 -10.274  10.554  1.00  0.00     0.004 C 
ENDBRANCH  30  32
ENDBRANCH  12  30
ENDBRANCH  10  12
ENDBRANCH   1  10
BRANCH   5  34
ATOM     34  C   UNL     1     -13.418  -3.594   5.647  1.00  0.00     0.242 C 
ATOM     35  O   UNL     1     -12.581  -4.466   5.412  1.00  0.00    -0.273 OA
ATOM     36  N   UNL     1     -13.408  -2.371   5.015  1.00  0.00    -0.354 N 
ATOM     37  H   UNL     1     -14.051  -1.647   5.336  1.00  0.00     0.163 HD
BRANCH  36  38
ATOM     38  C   UNL     1     -12.592  -2.111   3.847  1.00  0.00     0.116 C 
BRANCH  38  39
ATOM     39  C   UNL     1     -11.766  -0.845   4.063  1.00  0.00     0.023 C 
BRANCH  39  40
ATOM     40  C   UNL     1     -10.380  -1.143   4.624  1.00  0.00     0.026 C 
BRANCH  40  41
ATOM     41  C   UNL     1      -9.880  -2.504   4.139  1.00  0.00     0.146 C 
BRANCH  41  42
ATOM     42  N   UNL     1      -8.648  -2.852   4.836  1.00  0.00    -0.254 NA
ATOM     43  C   UNL     1      -8.644  -3.830   5.662  1.00  0.00     0.185 C 
ATOM     44  N   UNL     1      -9.640  -4.655   6.032  1.00  0.00    -0.370 N 
ATOM     45  N   UNL     1      -7.500  -4.133   6.298  1.00  0.00    -0.370 N 
ATOM     46  H   UNL     1      -9.560  -5.216   6.863  1.00  0.00     0.159 HD
ATOM     47  H   UNL     1     -10.572  -4.576   5.637  1.00  0.00     0.159 HD
ATOM     48  H   UNL     1      -6.696  -3.563   6.069  1.00  0.00     0.159 HD
ATOM     49  H   UNL     1      -7.353  -5.009   6.766  1.00  0.00     0.159 HD
ENDBRANCH  41  42
ENDBRANCH  40  41
ENDBRANCH  39  40
ENDBRANCH  38  39
ENDBRANCH  36  38
ENDBRANCH   5  34
BRANCH   8  50
ATOM     50  O   UNL     1     -10.637  -2.913   9.434  1.00  0.00    -0.245 OA
BRANCH  50  51
ATOM     51  S   UNL     1      -9.075  -3.364   9.482  1.00  0.00     0.397 S 
ATOM     52  O   UNL     1      -8.294  -2.340   8.827  1.00  0.00    -0.169 OA
ATOM     53  O   UNL     1      -8.960  -4.760   9.112  1.00  0.00    -0.169 OA
BRANCH  51  54
ATOM     54  O   UNL     1      -8.737  -3.238  11.049  1.00  0.00    -0.264 OA
ATOM     55  H   UNL     1      -7.771  -3.351  11.156  1.00  0.00     0.236 HD
ENDBRANCH  51  54
ENDBRANCH  50  51
ENDBRANCH   8  50
TORSDOF 19
ENDMDL
MODEL 10
REMARK VINA RESULT:    -6.443      5.405      8.376
REMARK INTER + INTRA:         -15.739
REMARK INTER:                 -12.925
REMARK INTRA:                  -2.814
REMARK UNBOUND:                -2.705
REMARK SMILES CC[C@@H](C)[C@@H](NC(=O)[C@@H](O)Cc1ccc(O)c(Cl)c1)C(=O)N1[C@H](C(=O)NCCCCN=C(N)N)C[C@H]2CC[C@H](OS(=O)(=O)O)C[C@@H]21
REMARK SMILES IDX 22 1 36 2 46 3 35 4 23 5 45 6 37 7 39 8 38 9 20 10 21 11
REMARK SMILES IDX 5 12 6 13 7 14 8 15 9 17 11 18 12 19 17 20 19 21 15 22 14 23
REMARK SMILES IDX 13 24 18 25 16 26 10 28 3 30 4 31 2 32 1 33 24 34 25 35
REMARK SMILES IDX 26 36 27 38 28 39 29 40 30 41 31 42 32 43 33 44 34 45 40 50
REMARK SMILES IDX 41 51 42 52 43 53 44 54
REMARK H PARENT 6 16 16 27 10 29 26 37 33 46 33 47 34 48 34 49 44 55
ROOT
ATOM      1  N   UNL     1     -11.511  -2.786   0.888  1.00  0.00    -0.326 N 
ATOM      2  C   UNL     1     -11.364  -2.670  -1.459  1.00  0.00     0.014 C 
ATOM      3  C   UNL     1     -12.274  -2.326  -0.276  1.00  0.00     0.091 C 
ATOM      4  C   UNL     1     -10.701  -3.962  -1.007  1.00  0.00     0.041 C 
ATOM      5  C   UNL     1     -10.346  -3.592   0.445  1.00  0.00     0.175 C 
ATOM      6  C   UNL     1     -12.640  -0.846  -0.363  1.00  0.00     0.059 C 
ATOM      7  C   UNL     1     -12.138  -2.649  -2.762  1.00  0.00     0.008 C 
ATOM      8  C   UNL     1     -12.730  -0.312  -1.809  1.00  0.00     0.143 C 
ATOM      9  C   UNL     1     -13.077  -1.425  -2.817  1.00  0.00     0.034 C 
ENDROOT
BRANCH   1  10
ATOM     10  C   UNL     1     -11.838  -2.757   2.232  1.00  0.00     0.246 C 
ATOM     11  O   UNL     1     -11.656  -1.716   2.873  1.00  0.00    -0.272 OA
BRANCH  10  12
ATOM     12  C   UNL     1     -12.467  -4.016   2.897  1.00  0.00     0.174 C 
BRANCH  12  13
ATOM     13  N   UNL     1     -11.498  -4.643   3.794  1.00  0.00    -0.342 N 
ATOM     14  C   UNL     1     -11.718  -4.924   5.124  1.00  0.00     0.249 C 
ATOM     15  O   UNL     1     -12.775  -4.701   5.702  1.00  0.00    -0.272 OA
ATOM     16  H   UNL     1     -10.529  -4.740   3.500  1.00  0.00     0.164 HD
BRANCH  14  17
ATOM     17  C   UNL     1     -10.495  -5.570   5.807  1.00  0.00     0.207 C 
BRANCH  17  18
ATOM     18  C   UNL     1     -10.829  -5.956   7.252  1.00  0.00     0.077 C 
BRANCH  18  19
ATOM     19  C   UNL     1     -10.871  -7.456   7.438  1.00  0.00    -0.043 A 
ATOM     20  C   UNL     1     -10.965  -9.392   8.896  1.00  0.00     0.083 A 
ATOM     21  C   UNL     1     -10.977  -8.007   8.724  1.00  0.00     0.028 A 
ATOM     22  C   UNL     1     -10.848 -10.232   7.789  1.00  0.00     0.134 A 
ATOM     23  C   UNL     1     -10.743  -9.700   6.509  1.00  0.00     0.048 A 
ATOM     24  C   UNL     1     -10.752  -8.314   6.334  1.00  0.00     0.008 A 
ATOM     25  Cl  UNL     1     -11.096 -10.050  10.485  1.00  0.00    -0.080 Cl
BRANCH  22  26
ATOM     26  O   UNL     1     -10.821 -11.595   7.909  1.00  0.00    -0.506 OA
ATOM     27  H   UNL     1     -10.901 -11.957   7.007  1.00  0.00     0.293 HD
ENDBRANCH  22  26
ENDBRANCH  18  19
ENDBRANCH  17  18
BRANCH  17  28
ATOM     28  O   UNL     1      -9.367  -4.680   5.800  1.00  0.00    -0.383 OA
ATOM     29  H   UNL     1      -9.012  -4.684   6.718  1.00  0.00     0.211 HD
ENDBRANCH  17  28
ENDBRANCH  14  17
ENDBRANCH  12  13
BRANCH  12  30
ATOM     30  C   UNL     1     -13.047  -5.015   1.860  1.00  0.00     0.018 C 
ATOM     31  C   UNL     1     -14.542  -5.260   2.114  1.00  0.00     0.010 C 
BRANCH  30  32
ATOM     32  C   UNL     1     -12.288  -6.363   1.805  1.00  0.00     0.002 C 
ATOM     33  C   UNL     1     -12.209  -7.010   0.428  1.00  0.00     0.004 C 
ENDBRANCH  30  32
ENDBRANCH  12  30
ENDBRANCH  10  12
ENDBRANCH   1  10
BRANCH   5  34
ATOM     34  C   UNL     1      -9.039  -2.758   0.520  1.00  0.00     0.242 C 
ATOM     35  O   UNL     1      -7.949  -3.210   0.169  1.00  0.00    -0.273 OA
ATOM     36  N   UNL     1      -9.179  -1.498   1.058  1.00  0.00    -0.354 N 
ATOM     37  H   UNL     1     -10.084  -1.225   1.442  1.00  0.00     0.163 HD
BRANCH  36  38
ATOM     38  C   UNL     1      -8.118  -0.514   1.006  1.00  0.00     0.116 C 
BRANCH  38  39
ATOM     39  C   UNL     1      -7.462  -0.385   2.379  1.00  0.00     0.023 C 
BRANCH  39  40
ATOM     40  C   UNL     1      -5.940  -0.348   2.296  1.00  0.00     0.026 C 
BRANCH  40  41
ATOM     41  C   UNL     1      -5.372  -1.757   2.125  1.00  0.00     0.146 C 
BRANCH  41  42
ATOM     42  N   UNL     1      -4.706  -1.867   0.834  1.00  0.00    -0.254 NA
ATOM     43  C   UNL     1      -4.645  -3.003   0.247  1.00  0.00     0.185 C 
ATOM     44  N   UNL     1      -5.119  -4.202   0.633  1.00  0.00    -0.370 N 
ATOM     45  N   UNL     1      -4.024  -3.084  -0.941  1.00  0.00    -0.370 N 
ATOM     46  H   UNL     1      -4.789  -5.047   0.198  1.00  0.00     0.159 HD
ATOM     47  H   UNL     1      -5.629  -4.319   1.503  1.00  0.00     0.159 HD
ATOM     48  H   UNL     1      -3.645  -2.221  -1.308  1.00  0.00     0.159 HD
ATOM     49  H   UNL     1      -4.138  -3.865  -1.562  1.00  0.00     0.159 HD
ENDBRANCH  41  42
ENDBRANCH  40  41
ENDBRANCH  39  40
ENDBRANCH  38  39
ENDBRANCH  36  38
ENDBRANCH   5  34
BRANCH   8  50
ATOM     50  O   UNL     1     -11.486   0.275  -2.192  1.00  0.00    -0.245 OA
BRANCH  50  51
ATOM     51  S   UNL     1     -11.366   1.892  -2.318  1.00  0.00     0.397 S 
ATOM     52  O   UNL     1     -10.350   2.189  -3.302  1.00  0.00    -0.169 OA
ATOM     53  O   UNL     1     -11.337   2.482  -0.995  1.00  0.00    -0.169 OA
BRANCH  51  54
ATOM     54  O   UNL     1     -12.767   2.281  -3.004  1.00  0.00    -0.264 OA
ATOM     55  H   UNL     1     -12.606   3.038  -3.603  1.00  0.00     0.236 HD
ENDBRANCH  51  54
ENDBRANCH  50  51
ENDBRANCH   8  50
TORSDOF 19
ENDMDL
MODEL 11
REMARK VINA RESULT:    -6.439      3.184      6.228
REMARK INTER + INTRA:         -15.732
REMARK INTER:                 -11.023
REMARK INTRA:                  -4.709
REMARK UNBOUND:                -2.705
REMARK SMILES CC[C@@H](C)[C@@H](NC(=O)[C@@H](O)Cc1ccc(O)c(Cl)c1)C(=O)N1[C@H](C(=O)NCCCCN=C(N)N)C[C@H]2CC[C@H](OS(=O)(=O)O)C[C@@H]21
REMARK SMILES IDX 22 1 36 2 46 3 35 4 23 5 45 6 37 7 39 8 38 9 20 10 21 11
REMARK SMILES IDX 5 12 6 13 7 14 8 15 9 17 11 18 12 19 17 20 19 21 15 22 14 23
REMARK SMILES IDX 13 24 18 25 16 26 10 28 3 30 4 31 2 32 1 33 24 34 25 35
REMARK SMILES IDX 26 36 27 38 28 39 29 40 30 41 31 42 32 43 33 44 34 45 40 50
REMARK SMILES IDX 41 51 42 52 43 53 44 54
REMARK H PARENT 6 16 16 27 10 29 26 37 33 46 33 47 34 48 34 49 44 55
ROOT
ATOM      1  N   UNL     1     -11.468  -3.994   5.064  1.00  0.00    -0.326 N 
ATOM      2  C   UNL     1     -10.861  -2.041   6.229  1.00  0.00     0.014 C 
ATOM      3  C   UNL     1     -10.339  -3.414   5.797  1.00  0.00     0.091 C 
ATOM      4  C   UNL     1     -12.335  -2.310   6.492  1.00  0.00     0.041 C 
ATOM      5  C   UNL     1     -12.681  -3.162   5.257  1.00  0.00     0.175 C 
ATOM      6  C   UNL     1      -9.018  -3.217   5.056  1.00  0.00     0.059 C 
ATOM      7  C   UNL     1     -10.003  -1.458   7.335  1.00  0.00     0.008 C 
ATOM      8  C   UNL     1      -8.197  -2.010   5.560  1.00  0.00     0.143 C 
ATOM      9  C   UNL     1      -8.506  -1.674   7.033  1.00  0.00     0.034 C 
ENDROOT
BRANCH   1  10
ATOM     10  C   UNL     1     -11.589  -5.232   4.455  1.00  0.00     0.246 C 
ATOM     11  O   UNL     1     -11.369  -5.330   3.243  1.00  0.00    -0.272 OA
BRANCH  10  12
ATOM     12  C   UNL     1     -11.956  -6.476   5.314  1.00  0.00     0.174 C 
BRANCH  12  13
ATOM     13  N   UNL     1     -11.228  -6.439   6.582  1.00  0.00    -0.342 N 
ATOM     14  C   UNL     1     -11.753  -6.794   7.805  1.00  0.00     0.249 C 
ATOM     15  O   UNL     1     -12.893  -7.213   7.962  1.00  0.00    -0.272 OA
ATOM     16  H   UNL     1     -10.328  -5.968   6.633  1.00  0.00     0.164 HD
BRANCH  14  17
ATOM     17  C   UNL     1     -10.740  -6.629   8.958  1.00  0.00     0.207 C 
BRANCH  17  18
ATOM     18  C   UNL     1      -9.709  -5.549   8.614  1.00  0.00     0.077 C 
BRANCH  18  19
ATOM     19  C   UNL     1      -9.858  -4.329   9.494  1.00  0.00    -0.043 A 
ATOM     20  C   UNL     1      -8.868  -2.601  10.879  1.00  0.00     0.083 A 
ATOM     21  C   UNL     1      -8.724  -3.697  10.028  1.00  0.00     0.028 A 
ATOM     22  C   UNL     1     -10.141  -2.131  11.204  1.00  0.00     0.134 A 
ATOM     23  C   UNL     1     -11.273  -2.747  10.682  1.00  0.00     0.048 A 
ATOM     24  C   UNL     1     -11.132  -3.845   9.831  1.00  0.00     0.008 A 
ATOM     25  Cl  UNL     1      -7.463  -1.838  11.526  1.00  0.00    -0.080 Cl
BRANCH  22  26
ATOM     26  O   UNL     1     -10.333  -1.066  12.042  1.00  0.00    -0.506 OA
ATOM     27  H   UNL     1      -9.558  -0.483  11.936  1.00  0.00     0.293 HD
ENDBRANCH  22  26
ENDBRANCH  18  19
ENDBRANCH  17  18
BRANCH  17  28
ATOM     28  O   UNL     1     -10.062  -7.865   9.233  1.00  0.00    -0.383 OA
ATOM     29  H   UNL     1      -9.230  -7.622   9.698  1.00  0.00     0.211 HD
ENDBRANCH  17  28
ENDBRANCH  14  17
ENDBRANCH  12  13
BRANCH  12  30
ATOM     30  C   UNL     1     -11.749  -7.813   4.552  1.00  0.00     0.018 C 
ATOM     31  C   UNL     1     -12.927  -8.769   4.797  1.00  0.00     0.010 C 
BRANCH  30  32
ATOM     32  C   UNL     1     -10.413  -8.519   4.886  1.00  0.00     0.002 C 
ATOM     33  C   UNL     1     -10.521  -9.698   5.846  1.00  0.00     0.004 C 
ENDBRANCH  30  32
ENDBRANCH  12  30
ENDBRANCH  10  12
ENDBRANCH   1  10
BRANCH   5  34
ATOM     34  C   UNL     1     -12.946  -2.278   4.009  1.00  0.00     0.242 C 
ATOM     35  O   UNL     1     -13.617  -1.247   4.063  1.00  0.00    -0.273 OA
ATOM     36  N   UNL     1     -12.422  -2.758   2.829  1.00  0.00    -0.354 N 
ATOM     37  H   UNL     1     -11.979  -3.677   2.827  1.00  0.00     0.163 HD
BRANCH  36  38
ATOM     38  C   UNL     1     -12.387  -1.963   1.619  1.00  0.00     0.116 C 
BRANCH  38  39
ATOM     39  C   UNL     1     -11.012  -1.316   1.463  1.00  0.00     0.023 C 
BRANCH  39  40
ATOM     40  C   UNL     1      -9.878  -2.333   1.540  1.00  0.00     0.026 C 
BRANCH  40  41
ATOM     41  C   UNL     1      -9.135  -2.417   0.207  1.00  0.00     0.146 C 
BRANCH  41  42
ATOM     42  N   UNL     1      -7.976  -3.289   0.344  1.00  0.00    -0.254 NA
ATOM     43  C   UNL     1      -6.812  -2.777   0.489  1.00  0.00     0.185 C 
ATOM     44  N   UNL     1      -6.435  -1.486   0.542  1.00  0.00    -0.370 N 
ATOM     45  N   UNL     1      -5.755  -3.598   0.609  1.00  0.00    -0.370 N 
ATOM     46  H   UNL     1      -5.472  -1.227   0.413  1.00  0.00     0.159 HD
ATOM     47  H   UNL     1      -7.111  -0.731   0.481  1.00  0.00     0.159 HD
ATOM     48  H   UNL     1      -5.953  -4.589   0.587  1.00  0.00     0.159 HD
ATOM     49  H   UNL     1      -4.865  -3.290   0.957  1.00  0.00     0.159 HD
ENDBRANCH  41  42
ENDBRANCH  40  41
ENDBRANCH  39  40
ENDBRANCH  38  39
ENDBRANCH  36  38
ENDBRANCH   5  34
BRANCH   8  50
ATOM     50  O   UNL     1      -8.478  -0.859   4.763  1.00  0.00    -0.245 OA
BRANCH  50  51
ATOM     51  S   UNL     1      -7.322  -0.252   3.793  1.00  0.00     0.397 S 
ATOM     52  O   UNL     1      -7.967   0.312   2.629  1.00  0.00    -0.169 OA
ATOM     53  O   UNL     1      -6.238  -1.205   3.674  1.00  0.00    -0.169 OA
BRANCH  51  54
ATOM     54  O   UNL     1      -6.789   1.000   4.649  1.00  0.00    -0.264 OA
ATOM     55  H   UNL     1      -6.887   0.777   5.597  1.00  0.00     0.236 HD
ENDBRANCH  51  54
ENDBRANCH  50  51
ENDBRANCH   8  50
TORSDOF 19
ENDMDL
MODEL 12
REMARK VINA RESULT:    -6.439     15.492     19.777
REMARK INTER + INTRA:         -15.731
REMARK INTER:                 -12.100
REMARK INTRA:                  -3.631
REMARK UNBOUND:                -2.705
REMARK SMILES CC[C@@H](C)[C@@H](NC(=O)[C@@H](O)Cc1ccc(O)c(Cl)c1)C(=O)N1[C@H](C(=O)NCCCCN=C(N)N)C[C@H]2CC[C@H](OS(=O)(=O)O)C[C@@H]21
REMARK SMILES IDX 22 1 36 2 46 3 35 4 23 5 45 6 37 7 39 8 38 9 20 10 21 11
REMARK SMILES IDX 5 12 6 13 7 14 8 15 9 17 11 18 12 19 17 20 19 21 15 22 14 23
REMARK SMILES IDX 13 24 18 25 16 26 10 28 3 30 4 31 2 32 1 33 24 34 25 35
REMARK SMILES IDX 26 36 27 38 28 39 29 40 30 41 31 42 32 43 33 44 34 45 40 50
REMARK SMILES IDX 41 51 42 52 43 53 44 54
REMARK H PARENT 6 16 16 27 10 29 26 37 33 46 33 47 34 48 34 49 44 55
ROOT
ATOM      1  N   UNL     1      -0.073   5.667  -7.174  1.00  0.00    -0.326 N 
ATOM      2  C   UNL     1       0.641   5.004  -9.318  1.00  0.00     0.014 C 
ATOM      3  C   UNL     1       0.615   6.195  -8.356  1.00  0.00     0.091 C 
ATOM      4  C   UNL     1      -0.677   4.304  -9.020  1.00  0.00     0.041 C 
ATOM      5  C   UNL     1      -0.663   4.340  -7.481  1.00  0.00     0.175 C 
ATOM      6  C   UNL     1       2.042   6.715  -8.192  1.00  0.00     0.059 C 
ATOM      7  C   UNL     1       0.939   5.456 -10.733  1.00  0.00     0.008 C 
ATOM      8  C   UNL     1       2.916   6.538  -9.452  1.00  0.00     0.143 C 
ATOM      9  C   UNL     1       2.073   6.503 -10.743  1.00  0.00     0.034 C 
ENDROOT
BRANCH   1  10
ATOM     10  C   UNL     1      -0.405   6.295  -5.986  1.00  0.00     0.246 C 
ATOM     11  O   UNL     1       0.469   6.457  -5.128  1.00  0.00    -0.272 OA
BRANCH  10  12
ATOM     12  C   UNL     1      -1.855   6.819  -5.774  1.00  0.00     0.174 C 
BRANCH  12  13
ATOM     13  N   UNL     1      -2.818   5.830  -6.256  1.00  0.00    -0.342 N 
ATOM     14  C   UNL     1      -3.680   5.112  -5.458  1.00  0.00     0.249 C 
ATOM     15  O   UNL     1      -3.755   5.245  -4.243  1.00  0.00    -0.272 OA
ATOM     16  H   UNL     1      -2.763   5.500  -7.217  1.00  0.00     0.164 HD
BRANCH  14  17
ATOM     17  C   UNL     1      -4.561   4.133  -6.263  1.00  0.00     0.207 C 
BRANCH  17  18
ATOM     18  C   UNL     1      -6.042   4.361  -5.946  1.00  0.00     0.077 C 
BRANCH  18  19
ATOM     19  C   UNL     1      -6.539   5.677  -6.499  1.00  0.00    -0.043 A 
ATOM     20  C   UNL     1      -7.093   8.017  -6.181  1.00  0.00     0.083 A 
ATOM     21  C   UNL     1      -6.587   6.817  -5.681  1.00  0.00     0.028 A 
ATOM     22  C   UNL     1      -7.554   8.088  -7.496  1.00  0.00     0.134 A 
ATOM     23  C   UNL     1      -7.512   6.967  -8.317  1.00  0.00     0.048 A 
ATOM     24  C   UNL     1      -7.008   5.763  -7.819  1.00  0.00     0.008 A 
ATOM     25  Cl  UNL     1      -7.144   9.406  -5.160  1.00  0.00    -0.080 Cl
BRANCH  22  26
ATOM     26  O   UNL     1      -8.067   9.240  -8.027  1.00  0.00    -0.506 OA
ATOM     27  H   UNL     1      -8.895   9.425  -7.546  1.00  0.00     0.293 HD
ENDBRANCH  22  26
ENDBRANCH  18  19
ENDBRANCH  17  18
BRANCH  17  28
ATOM     28  O   UNL     1      -4.216   2.769  -5.973  1.00  0.00    -0.383 OA
ATOM     29  H   UNL     1      -3.938   2.370  -6.829  1.00  0.00     0.211 HD
ENDBRANCH  17  28
ENDBRANCH  14  17
ENDBRANCH  12  13
BRANCH  12  30
ATOM     30  C   UNL     1      -2.083   8.222  -6.399  1.00  0.00     0.018 C 
ATOM     31  C   UNL     1      -3.075   9.040  -5.558  1.00  0.00     0.010 C 
BRANCH  30  32
ATOM     32  C   UNL     1      -2.548   8.176  -7.875  1.00  0.00     0.002 C 
ATOM     33  C   UNL     1      -3.939   8.738  -8.137  1.00  0.00     0.004 C 
ENDBRANCH  30  32
ENDBRANCH  12  30
ENDBRANCH  10  12
ENDBRANCH   1  10
BRANCH   5  34
ATOM     34  C   UNL     1       0.209   3.201  -6.890  1.00  0.00     0.242 C 
ATOM     35  O   UNL     1       1.418   3.330  -6.695  1.00  0.00    -0.273 OA
ATOM     36  N   UNL     1      -0.455   2.019  -6.651  1.00  0.00    -0.354 N 
ATOM     37  H   UNL     1      -1.429   1.934  -6.944  1.00  0.00     0.163 HD
BRANCH  36  38
ATOM     38  C   UNL     1       0.145   0.931  -5.907  1.00  0.00     0.116 C 
BRANCH  38  39
ATOM     39  C   UNL     1      -0.148   1.096  -4.418  1.00  0.00     0.023 C 
BRANCH  39  40
ATOM     40  C   UNL     1      -1.643   1.137  -4.120  1.00  0.00     0.026 C 
BRANCH  40  41
ATOM     41  C   UNL     1      -2.013   2.424  -3.382  1.00  0.00     0.146 C 
BRANCH  41  42
ATOM     42  N   UNL     1      -0.909   3.371  -3.460  1.00  0.00    -0.254 NA
ATOM     43  C   UNL     1      -0.732   4.217  -2.515  1.00  0.00     0.185 C 
ATOM     44  N   UNL     1      -1.430   4.404  -1.380  1.00  0.00    -0.370 N 
ATOM     45  N   UNL     1       0.288   5.085  -2.608  1.00  0.00    -0.370 N 
ATOM     46  H   UNL     1      -1.331   5.255  -0.852  1.00  0.00     0.159 HD
ATOM     47  H   UNL     1      -2.228   3.824  -1.143  1.00  0.00     0.159 HD
ATOM     48  H   UNL     1       0.871   5.006  -3.431  1.00  0.00     0.159 HD
ATOM     49  H   UNL     1       0.633   5.606  -1.822  1.00  0.00     0.159 HD
ENDBRANCH  41  42
ENDBRANCH  40  41
ENDBRANCH  39  40
ENDBRANCH  38  39
ENDBRANCH  36  38
ENDBRANCH   5  34
BRANCH   8  50
ATOM     50  O   UNL     1       3.661   5.323  -9.365  1.00  0.00    -0.245 OA
BRANCH  50  51
ATOM     51  S   UNL     1       5.254   5.379  -9.039  1.00  0.00     0.397 S 
ATOM     52  O   UNL     1       5.543   4.364  -8.051  1.00  0.00    -0.169 OA
ATOM     53  O   UNL     1       5.664   6.755  -8.856  1.00  0.00    -0.169 OA
BRANCH  51  54
ATOM     54  O   UNL     1       5.897   4.848 -10.414  1.00  0.00    -0.264 OA
ATOM     55  H   UNL     1       6.846   4.675 -10.252  1.00  0.00     0.236 HD
ENDBRANCH  51  54
ENDBRANCH  50  51
ENDBRANCH   8  50
TORSDOF 19
ENDMDL
MODEL 13
REMARK VINA RESULT:    -6.394     14.175     17.963
REMARK INTER + INTRA:         -15.641
REMARK INTER:                 -10.643
REMARK INTRA:                  -4.998
REMARK UNBOUND:                -2.705
REMARK SMILES CC[C@@H](C)[C@@H](NC(=O)[C@@H](O)Cc1ccc(O)c(Cl)c1)C(=O)N1[C@H](C(=O)NCCCCN=C(N)N)C[C@H]2CC[C@H](OS(=O)(=O)O)C[C@@H]21
REMARK SMILES IDX 22 1 36 2 46 3 35 4 23 5 45 6 37 7 39 8 38 9 20 10 21 11
REMARK SMILES IDX 5 12 6 13 7 14 8 15 9 17 11 18 12 19 17 20 19 21 15 22 14 23
REMARK SMILES IDX 13 24 18 25 16 26 10 28 3 30 4 31 2 32 1 33 24 34 25 35
REMARK SMILES IDX 26 36 27 38 28 39 29 40 30 41 31 42 32 43 33 44 34 45 40 50
REMARK SMILES IDX 41 51 42 52 43 53 44 54
REMARK H PARENT 6 16 16 27 10 29 26 37 33 46 33 47 34 48 34 49 44 55
ROOT
ATOM      1  N   UNL     1      -6.177   4.078  -5.700  1.00  0.00    -0.326 N 
ATOM      2  C   UNL     1      -5.422   3.023  -3.735  1.00  0.00     0.014 C 
ATOM      3  C   UNL     1      -5.646   2.794  -5.233  1.00  0.00     0.091 C 
ATOM      4  C   UNL     1      -6.568   3.951  -3.363  1.00  0.00     0.041 C 
ATOM      5  C   UNL     1      -6.508   4.942  -4.540  1.00  0.00     0.175 C 
ATOM      6  C   UNL     1      -4.343   2.284  -5.844  1.00  0.00     0.059 C 
ATOM      7  C   UNL     1      -5.266   1.705  -3.003  1.00  0.00     0.008 C 
ATOM      8  C   UNL     1      -3.494   1.432  -4.875  1.00  0.00     0.143 C 
ATOM      9  C   UNL     1      -4.358   0.744  -3.799  1.00  0.00     0.034 C 
ENDROOT
BRANCH   1  10
ATOM     10  C   UNL     1      -6.584   4.462  -6.966  1.00  0.00     0.246 C 
ATOM     11  O   UNL     1      -7.619   3.981  -7.437  1.00  0.00    -0.272 OA
BRANCH  10  12
ATOM     12  C   UNL     1      -5.754   5.521  -7.749  1.00  0.00     0.174 C 
BRANCH  12  13
ATOM     13  N   UNL     1      -4.335   5.385  -7.422  1.00  0.00    -0.342 N 
ATOM     14  C   UNL     1      -3.316   5.306  -8.344  1.00  0.00     0.249 C 
ATOM     15  O   UNL     1      -3.485   5.371  -9.555  1.00  0.00    -0.272 OA
ATOM     16  H   UNL     1      -4.057   5.162  -6.469  1.00  0.00     0.164 HD
BRANCH  14  17
ATOM     17  C   UNL     1      -1.928   5.149  -7.685  1.00  0.00     0.207 C 
BRANCH  17  18
ATOM     18  C   UNL     1      -1.062   4.174  -8.488  1.00  0.00     0.077 C 
BRANCH  18  19
ATOM     19  C   UNL     1       0.386   4.610  -8.527  1.00  0.00    -0.043 A 
ATOM     20  C   UNL     1       2.236   5.659  -9.694  1.00  0.00     0.083 A 
ATOM     21  C   UNL     1       0.888   5.302  -9.640  1.00  0.00     0.028 A 
ATOM     22  C   UNL     1       3.089   5.327  -8.641  1.00  0.00     0.134 A 
ATOM     23  C   UNL     1       2.605   4.642  -7.533  1.00  0.00     0.048 A 
ATOM     24  C   UNL     1       1.257   4.282  -7.476  1.00  0.00     0.008 A 
ATOM     25  Cl  UNL     1       2.834   6.509 -11.071  1.00  0.00    -0.080 Cl
BRANCH  22  26
ATOM     26  O   UNL     1       4.419   5.647  -8.654  1.00  0.00    -0.506 OA
ATOM     27  H   UNL     1       4.902   4.848  -8.369  1.00  0.00     0.293 HD
ENDBRANCH  22  26
ENDBRANCH  18  19
ENDBRANCH  17  18
BRANCH  17  28
ATOM     28  O   UNL     1      -2.048   4.678  -6.333  1.00  0.00    -0.383 OA
ATOM     29  H   UNL     1      -1.819   5.443  -5.757  1.00  0.00     0.211 HD
ENDBRANCH  17  28
ENDBRANCH  14  17
ENDBRANCH  12  13
BRANCH  12  30
ATOM     30  C   UNL     1      -6.275   6.968  -7.537  1.00  0.00     0.018 C 
ATOM     31  C   UNL     1      -7.680   7.136  -8.136  1.00  0.00     0.010 C 
BRANCH  30  32
ATOM     32  C   UNL     1      -5.326   8.058  -8.092  1.00  0.00     0.002 C 
ATOM     33  C   UNL     1      -5.918   9.459  -8.169  1.00  0.00     0.004 C 
ENDBRANCH  30  32
ENDBRANCH  12  30
ENDBRANCH  10  12
ENDBRANCH   1  10
BRANCH   5  34
ATOM     34  C   UNL     1      -5.412   6.020  -4.326  1.00  0.00     0.242 C 
ATOM     35  O   UNL     1      -4.242   5.844  -4.665  1.00  0.00    -0.273 OA
ATOM     36  N   UNL     1      -5.831   7.162  -3.682  1.00  0.00    -0.354 N 
ATOM     37  H   UNL     1      -6.784   7.199  -3.318  1.00  0.00     0.163 HD
BRANCH  36  38
ATOM     38  C   UNL     1      -5.003   8.347  -3.592  1.00  0.00     0.116 C 
BRANCH  38  39
ATOM     39  C   UNL     1      -4.786   8.718  -2.127  1.00  0.00     0.023 C 
BRANCH  39  40
ATOM     40  C   UNL     1      -4.570   7.495  -1.242  1.00  0.00     0.026 C 
BRANCH  40  41
ATOM     41  C   UNL     1      -3.101   7.072  -1.250  1.00  0.00     0.146 C 
BRANCH  41  42
ATOM     42  N   UNL     1      -2.996   5.653  -0.935  1.00  0.00    -0.254 NA
ATOM     43  C   UNL     1      -2.525   4.844  -1.809  1.00  0.00     0.185 C 
ATOM     44  N   UNL     1      -2.077   5.081  -3.055  1.00  0.00    -0.370 N 
ATOM     45  N   UNL     1      -2.440   3.539  -1.501  1.00  0.00    -0.370 N 
ATOM     46  H   UNL     1      -1.968   4.328  -3.713  1.00  0.00     0.159 HD
ATOM     47  H   UNL     1      -2.058   6.018  -3.446  1.00  0.00     0.159 HD
ATOM     48  H   UNL     1      -2.750   3.276  -0.575  1.00  0.00     0.159 HD
ATOM     49  H   UNL     1      -1.877   2.893  -2.023  1.00  0.00     0.159 HD
ENDBRANCH  41  42
ENDBRANCH  40  41
ENDBRANCH  39  40
ENDBRANCH  38  39
ENDBRANCH  36  38
ENDBRANCH   5  34
BRANCH   8  50
ATOM     50  O   UNL     1      -2.525   2.252  -4.222  1.00  0.00    -0.245 OA
BRANCH  50  51
ATOM     51  S   UNL     1      -0.946   1.878  -4.340  1.00  0.00     0.397 S 
ATOM     52  O   UNL     1      -0.793   0.477  -4.019  1.00  0.00    -0.169 OA
ATOM     53  O   UNL     1      -0.154   2.899  -3.685  1.00  0.00    -0.169 OA
BRANCH  51  54
ATOM     54  O   UNL     1      -0.692   1.994  -5.924  1.00  0.00    -0.264 OA
ATOM     55  H   UNL     1      -1.304   2.672  -6.276  1.00  0.00     0.236 HD
ENDBRANCH  51  54
ENDBRANCH  50  51
ENDBRANCH   8  50
TORSDOF 19
ENDMDL
MODEL 14
REMARK VINA RESULT:    -6.364     15.253     19.127
REMARK INTER + INTRA:         -15.579
REMARK INTER:                 -11.783
REMARK INTRA:                  -3.796
REMARK UNBOUND:                -2.705
REMARK SMILES CC[C@@H](C)[C@@H](NC(=O)[C@@H](O)Cc1ccc(O)c(Cl)c1)C(=O)N1[C@H](C(=O)NCCCCN=C(N)N)C[C@H]2CC[C@H](OS(=O)(=O)O)C[C@@H]21
REMARK SMILES IDX 22 1 36 2 46 3 35 4 23 5 45 6 37 7 39 8 38 9 20 10 21 11
REMARK SMILES IDX 5 12 6 13 7 14 8 15 9 17 11 18 12 19 17 20 19 21 15 22 14 23
REMARK SMILES IDX 13 24 18 25 16 26 10 28 3 30 4 31 2 32 1 33 24 34 25 35
REMARK SMILES IDX 26 36 27 38 28 39 29 40 30 41 31 42 32 43 33 44 34 45 40 50
REMARK SMILES IDX 41 51 42 52 43 53 44 54
REMARK H PARENT 6 16 16 27 10 29 26 37 33 46 33 47 34 48 34 49 44 55
ROOT
ATOM      1  N   UNL     1       0.114   4.818  -6.034  1.00  0.00    -0.326 N 
ATOM      2  C   UNL     1      -1.046   2.820  -6.487  1.00  0.00     0.014 C 
ATOM      3  C   UNL     1      -0.098   3.477  -5.481  1.00  0.00     0.091 C 
ATOM      4  C   UNL     1      -0.594   3.416  -7.812  1.00  0.00     0.041 C 
ATOM      5  C   UNL     1      -0.442   4.894  -7.408  1.00  0.00     0.175 C 
ATOM      6  C   UNL     1      -0.713   3.357  -4.088  1.00  0.00     0.059 C 
ATOM      7  C   UNL     1      -1.060   1.314  -6.316  1.00  0.00     0.008 C 
ATOM      8  C   UNL     1      -1.562   2.082  -3.891  1.00  0.00     0.143 C 
ATOM      9  C   UNL     1      -1.111   0.937  -4.820  1.00  0.00     0.034 C 
ENDROOT
BRANCH   1  10
ATOM     10  C   UNL     1       0.896   5.859  -5.564  1.00  0.00     0.246 C 
ATOM     11  O   UNL     1       0.346   6.845  -5.061  1.00  0.00    -0.272 OA
BRANCH  10  12
ATOM     12  C   UNL     1       2.446   5.747  -5.638  1.00  0.00     0.174 C 
BRANCH  12  13
ATOM     13  N   UNL     1       3.062   6.831  -4.873  1.00  0.00    -0.342 N 
ATOM     14  C   UNL     1       3.321   6.796  -3.521  1.00  0.00     0.249 C 
ATOM     15  O   UNL     1       3.086   5.830  -2.807  1.00  0.00    -0.272 OA
ATOM     16  H   UNL     1       3.168   7.750  -5.297  1.00  0.00     0.164 HD
BRANCH  14  17
ATOM     17  C   UNL     1       3.960   8.102  -3.004  1.00  0.00     0.207 C 
BRANCH  17  18
ATOM     18  C   UNL     1       4.949   7.803  -1.873  1.00  0.00     0.077 C 
BRANCH  18  19
ATOM     19  C   UNL     1       6.221   7.170  -2.391  1.00  0.00    -0.043 A 
ATOM     20  C   UNL     1       7.911   6.957  -4.119  1.00  0.00     0.083 A 
ATOM     21  C   UNL     1       6.765   7.577  -3.620  1.00  0.00     0.028 A 
ATOM     22  C   UNL     1       8.519   5.930  -3.397  1.00  0.00     0.134 A 
ATOM     23  C   UNL     1       7.992   5.517  -2.179  1.00  0.00     0.048 A 
ATOM     24  C   UNL     1       6.844   6.135  -1.678  1.00  0.00     0.008 A 
ATOM     25  Cl  UNL     1       8.563   7.470  -5.630  1.00  0.00    -0.080 Cl
BRANCH  22  26
ATOM     26  O   UNL     1       9.638   5.285  -3.851  1.00  0.00    -0.506 OA
ATOM     27  H   UNL     1      10.302   5.341  -3.138  1.00  0.00     0.293 HD
ENDBRANCH  22  26
ENDBRANCH  18  19
ENDBRANCH  17  18
BRANCH  17  28
ATOM     28  O   UNL     1       2.959   9.017  -2.531  1.00  0.00    -0.383 OA
ATOM     29  H   UNL     1       2.388   9.221  -3.307  1.00  0.00     0.211 HD
ENDBRANCH  17  28
ENDBRANCH  14  17
ENDBRANCH  12  13
BRANCH  12  30
ATOM     30  C   UNL     1       2.974   5.678  -7.097  1.00  0.00     0.018 C 
ATOM     31  C   UNL     1       3.318   4.232  -7.485  1.00  0.00     0.010 C 
BRANCH  30  32
ATOM     32  C   UNL     1       4.185   6.604  -7.364  1.00  0.00     0.002 C 
ATOM     33  C   UNL     1       5.391   5.929  -8.006  1.00  0.00     0.004 C 
ENDBRANCH  30  32
ENDBRANCH  12  30
ENDBRANCH  10  12
ENDBRANCH   1  10
BRANCH   5  34
ATOM     34  C   UNL     1      -1.807   5.631  -7.409  1.00  0.00     0.242 C 
ATOM     35  O   UNL     1      -2.373   5.971  -6.370  1.00  0.00    -0.273 OA
ATOM     36  N   UNL     1      -2.365   5.828  -8.653  1.00  0.00    -0.354 N 
ATOM     37  H   UNL     1      -1.907   5.417  -9.468  1.00  0.00     0.163 HD
BRANCH  36  38
ATOM     38  C   UNL     1      -3.518   6.680  -8.857  1.00  0.00     0.116 C 
BRANCH  38  39
ATOM     39  C   UNL     1      -4.674   5.860  -9.426  1.00  0.00     0.023 C 
BRANCH  39  40
ATOM     40  C   UNL     1      -6.029   6.320  -8.900  1.00  0.00     0.026 C 
BRANCH  40  41
ATOM     41  C   UNL     1      -6.602   5.302  -7.914  1.00  0.00     0.146 C 
BRANCH  41  42
ATOM     42  N   UNL     1      -6.222   5.664  -6.555  1.00  0.00    -0.254 NA
ATOM     43  C   UNL     1      -5.358   4.956  -5.930  1.00  0.00     0.185 C 
ATOM     44  N   UNL     1      -4.686   3.860  -6.327  1.00  0.00    -0.370 N 
ATOM     45  N   UNL     1      -5.024   5.304  -4.676  1.00  0.00    -0.370 N 
ATOM     46  H   UNL     1      -4.227   3.269  -5.656  1.00  0.00     0.159 HD
ATOM     47  H   UNL     1      -4.808   3.468  -7.256  1.00  0.00     0.159 HD
ATOM     48  H   UNL     1      -5.479   6.126  -4.303  1.00  0.00     0.159 HD
ATOM     49  H   UNL     1      -4.202   4.956  -4.216  1.00  0.00     0.159 HD
ENDBRANCH  41  42
ENDBRANCH  40  41
ENDBRANCH  39  40
ENDBRANCH  38  39
ENDBRANCH  36  38
ENDBRANCH   5  34
BRANCH   8  50
ATOM     50  O   UNL     1      -2.937   2.364  -4.154  1.00  0.00    -0.245 OA
BRANCH  50  51
ATOM     51  S   UNL     1      -4.080   1.806  -3.140  1.00  0.00     0.397 S 
ATOM     52  O   UNL     1      -3.881   2.436  -1.854  1.00  0.00    -0.169 OA
ATOM     53  O   UNL     1      -4.187   0.368  -3.273  1.00  0.00    -0.169 OA
BRANCH  51  54
ATOM     54  O   UNL     1      -5.417   2.462  -3.747  1.00  0.00    -0.264 OA
ATOM     55  H   UNL     1      -5.324   2.480  -4.721  1.00  0.00     0.236 HD
ENDBRANCH  51  54
ENDBRANCH  50  51
ENDBRANCH   8  50
TORSDOF 19
ENDMDL
MODEL 15
REMARK VINA RESULT:    -6.311     13.033     18.760
REMARK INTER + INTRA:         -15.473
REMARK INTER:                 -12.087
REMARK INTRA:                  -3.386
REMARK UNBOUND:                -2.705
REMARK SMILES CC[C@@H](C)[C@@H](NC(=O)[C@@H](O)Cc1ccc(O)c(Cl)c1)C(=O)N1[C@H](C(=O)NCCCCN=C(N)N)C[C@H]2CC[C@H](OS(=O)(=O)O)C[C@@H]21
REMARK SMILES IDX 22 1 36 2 46 3 35 4 23 5 45 6 37 7 39 8 38 9 20 10 21 11
REMARK SMILES IDX 5 12 6 13 7 14 8 15 9 17 11 18 12 19 17 20 19 21 15 22 14 23
REMARK SMILES IDX 13 24 18 25 16 26 10 28 3 30 4 31 2 32 1 33 24 34 25 35
REMARK SMILES IDX 26 36 27 38 28 39 29 40 30 41 31 42 32 43 33 44 34 45 40 50
REMARK SMILES IDX 41 51 42 52 43 53 44 54
REMARK H PARENT 6 16 16 27 10 29 26 37 33 46 33 47 34 48 34 49 44 55
ROOT
ATOM      1  N   UNL     1      -4.058   4.154  -5.945  1.00  0.00    -0.326 N 
ATOM      2  C   UNL     1      -3.299   2.279  -4.741  1.00  0.00     0.014 C 
ATOM      3  C   UNL     1      -2.816   3.533  -5.475  1.00  0.00     0.091 C 
ATOM      4  C   UNL     1      -4.510   1.857  -5.559  1.00  0.00     0.041 C 
ATOM      5  C   UNL     1      -5.196   3.222  -5.752  1.00  0.00     0.175 C 
ATOM      6  C   UNL     1      -1.919   4.331  -4.530  1.00  0.00     0.059 C 
ATOM      7  C   UNL     1      -2.161   1.298  -4.538  1.00  0.00     0.008 C 
ATOM      8  C   UNL     1      -1.126   3.454  -3.538  1.00  0.00     0.143 C 
ATOM      9  C   UNL     1      -0.882   2.033  -4.087  1.00  0.00     0.034 C 
ENDROOT
BRANCH   1  10
ATOM     10  C   UNL     1      -4.248   5.307  -6.688  1.00  0.00     0.246 C 
ATOM     11  O   UNL     1      -4.657   6.326  -6.122  1.00  0.00    -0.272 OA
BRANCH  10  12
ATOM     12  C   UNL     1      -3.903   5.307  -8.205  1.00  0.00     0.174 C 
BRANCH  12  13
ATOM     13  N   UNL     1      -2.519   5.736  -8.402  1.00  0.00    -0.342 N 
ATOM     14  C   UNL     1      -1.639   5.178  -9.303  1.00  0.00     0.249 C 
ATOM     15  O   UNL     1      -1.932   4.268 -10.068  1.00  0.00    -0.272 OA
ATOM     16  H   UNL     1      -2.088   6.371  -7.735  1.00  0.00     0.164 HD
BRANCH  14  17
ATOM     17  C   UNL     1      -0.245   5.839  -9.261  1.00  0.00     0.207 C 
BRANCH  17  18
ATOM     18  C   UNL     1       0.850   4.796  -9.512  1.00  0.00     0.077 C 
BRANCH  18  19
ATOM     19  C   UNL     1       2.147   5.438  -9.950  1.00  0.00    -0.043 A 
ATOM     20  C   UNL     1       4.566   5.576  -9.841  1.00  0.00     0.083 A 
ATOM     21  C   UNL     1       3.374   4.950  -9.474  1.00  0.00     0.028 A 
ATOM     22  C   UNL     1       4.541   6.690 -10.681  1.00  0.00     0.134 A 
ATOM     23  C   UNL     1       3.333   7.183 -11.159  1.00  0.00     0.048 A 
ATOM     24  C   UNL     1       2.138   6.560 -10.792  1.00  0.00     0.008 A 
ATOM     25  Cl  UNL     1       6.064   4.962  -9.246  1.00  0.00    -0.080 Cl
BRANCH  22  26
ATOM     26  O   UNL     1       5.683   7.342 -11.059  1.00  0.00    -0.506 OA
ATOM     27  H   UNL     1       6.408   6.693 -11.003  1.00  0.00     0.293 HD
ENDBRANCH  22  26
ENDBRANCH  18  19
ENDBRANCH  17  18
BRANCH  17  28
ATOM     28  O   UNL     1      -0.013   6.477  -7.995  1.00  0.00    -0.383 OA
ATOM     29  H   UNL     1       0.725   7.112  -8.142  1.00  0.00     0.211 HD
ENDBRANCH  17  28
ENDBRANCH  14  17
ENDBRANCH  12  13
BRANCH  12  30
ATOM     30  C   UNL     1      -4.906   6.140  -9.048  1.00  0.00     0.018 C 
ATOM     31  C   UNL     1      -4.549   7.634  -9.004  1.00  0.00     0.010 C 
BRANCH  30  32
ATOM     32  C   UNL     1      -6.384   5.934  -8.637  1.00  0.00     0.002 C 
ATOM     33  C   UNL     1      -7.228   5.132  -9.619  1.00  0.00     0.004 C 
ENDBRANCH  30  32
ENDBRANCH  12  30
ENDBRANCH  10  12
ENDBRANCH   1  10
BRANCH   5  34
ATOM     34  C   UNL     1      -6.031   3.624  -4.507  1.00  0.00     0.242 C 
ATOM     35  O   UNL     1      -5.515   4.091  -3.491  1.00  0.00    -0.273 OA
ATOM     36  N   UNL     1      -7.381   3.371  -4.600  1.00  0.00    -0.354 N 
ATOM     37  H   UNL     1      -7.732   2.873  -5.419  1.00  0.00     0.163 HD
BRANCH  36  38
ATOM     38  C   UNL     1      -8.331   3.875  -3.630  1.00  0.00     0.116 C 
BRANCH  38  39
ATOM     39  C   UNL     1      -8.899   2.718  -2.812  1.00  0.00     0.023 C 
BRANCH  39  40
ATOM     40  C   UNL     1      -8.564   2.834  -1.328  1.00  0.00     0.026 C 
BRANCH  40  41
ATOM     41  C   UNL     1      -7.290   2.057  -0.998  1.00  0.00     0.146 C 
BRANCH  41  42
ATOM     42  N   UNL     1      -6.542   2.755   0.039  1.00  0.00    -0.254 NA
ATOM     43  C   UNL     1      -5.279   2.913  -0.089  1.00  0.00     0.185 C 
ATOM     44  N   UNL     1      -4.454   2.526  -1.079  1.00  0.00    -0.370 N 
ATOM     45  N   UNL     1      -4.607   3.555   0.881  1.00  0.00    -0.370 N 
ATOM     46  H   UNL     1      -3.459   2.499  -0.937  1.00  0.00     0.159 HD
ATOM     47  H   UNL     1      -4.799   2.038  -1.900  1.00  0.00     0.159 HD
ATOM     48  H   UNL     1      -5.156   3.889   1.662  1.00  0.00     0.159 HD
ATOM     49  H   UNL     1      -3.682   3.923   0.750  1.00  0.00     0.159 HD
ENDBRANCH  41  42
ENDBRANCH  40  41
ENDBRANCH  39  40
ENDBRANCH  38  39
ENDBRANCH  36  38
ENDBRANCH   5  34
BRANCH   8  50
ATOM     50  O   UNL     1      -1.834   3.346  -2.303  1.00  0.00    -0.245 OA
BRANCH  50  51
ATOM     51  S   UNL     1      -1.696   4.527  -1.193  1.00  0.00     0.397 S 
ATOM     52  O   UNL     1      -2.914   5.306  -1.216  1.00  0.00    -0.169 OA
ATOM     53  O   UNL     1      -0.394   5.150  -1.305  1.00  0.00    -0.169 OA
BRANCH  51  54
ATOM     54  O   UNL     1      -1.732   3.698   0.185  1.00  0.00    -0.264 OA
ATOM     55  H   UNL     1      -1.547   4.324   0.914  1.00  0.00     0.236 HD
ENDBRANCH  51  54
ENDBRANCH  50  51
ENDBRANCH   8  50
TORSDOF 19
ENDMDL
MODEL 16
REMARK VINA RESULT:    -6.290      4.368      6.780
REMARK INTER + INTRA:         -15.430
REMARK INTER:                 -11.468
REMARK INTRA:                  -3.962
REMARK UNBOUND:                -2.705
REMARK SMILES CC[C@@H](C)[C@@H](NC(=O)[C@@H](O)Cc1ccc(O)c(Cl)c1)C(=O)N1[C@H](C(=O)NCCCCN=C(N)N)C[C@H]2CC[C@H](OS(=O)(=O)O)C[C@@H]21
REMARK SMILES IDX 22 1 36 2 46 3 35 4 23 5 45 6 37 7 39 8 38 9 20 10 21 11
REMARK SMILES IDX 5 12 6 13 7 14 8 15 9 17 11 18 12 19 17 20 19 21 15 22 14 23
REMARK SMILES IDX 13 24 18 25 16 26 10 28 3 30 4 31 2 32 1 33 24 34 25 35
REMARK SMILES IDX 26 36 27 38 28 39 29 40 30 41 31 42 32 43 33 44 34 45 40 50
REMARK SMILES IDX 41 51 42 52 43 53 44 54
REMARK H PARENT 6 16 16 27 10 29 26 37 33 46 33 47 34 48 34 49 44 55
ROOT
ATOM      1  N   UNL     1     -11.766  -6.078   4.388  1.00  0.00    -0.326 N 
ATOM      2  C   UNL     1     -12.846  -4.208   3.451  1.00  0.00     0.014 C 
ATOM      3  C   UNL     1     -11.791  -4.616   4.483  1.00  0.00     0.091 C 
ATOM      4  C   UNL     1     -13.855  -5.343   3.537  1.00  0.00     0.041 C 
ATOM      5  C   UNL     1     -12.902  -6.553   3.560  1.00  0.00     0.175 C 
ATOM      6  C   UNL     1     -10.504  -3.848   4.188  1.00  0.00     0.059 C 
ATOM      7  C   UNL     1     -13.309  -2.783   3.683  1.00  0.00     0.008 C 
ATOM      8  C   UNL     1     -10.741  -2.448   3.582  1.00  0.00     0.143 C 
ATOM      9  C   UNL     1     -12.109  -1.864   3.990  1.00  0.00     0.034 C 
ENDROOT
BRANCH   1  10
ATOM     10  C   UNL     1     -11.016  -7.001   5.097  1.00  0.00     0.246 C 
ATOM     11  O   UNL     1     -10.210  -7.715   4.489  1.00  0.00    -0.272 OA
BRANCH  10  12
ATOM     12  C   UNL     1     -11.171  -7.090   6.643  1.00  0.00     0.174 C 
BRANCH  12  13
ATOM     13  N   UNL     1     -10.162  -6.255   7.294  1.00  0.00    -0.342 N 
ATOM     14  C   UNL     1     -10.427  -5.109   8.009  1.00  0.00     0.249 C 
ATOM     15  O   UNL     1     -11.554  -4.672   8.204  1.00  0.00    -0.272 OA
ATOM     16  H   UNL     1      -9.177  -6.403   7.089  1.00  0.00     0.164 HD
BRANCH  14  17
ATOM     17  C   UNL     1      -9.148  -4.441   8.559  1.00  0.00     0.207 C 
BRANCH  17  18
ATOM     18  C   UNL     1      -9.432  -2.990   8.959  1.00  0.00     0.077 C 
BRANCH  18  19
ATOM     19  C   UNL     1      -9.010  -2.707  10.384  1.00  0.00    -0.043 A 
ATOM     20  C   UNL     1      -9.489  -1.782  12.574  1.00  0.00     0.083 A 
ATOM     21  C   UNL     1      -9.899  -2.086  11.275  1.00  0.00     0.028 A 
ATOM     22  C   UNL     1      -8.194  -2.093  12.989  1.00  0.00     0.134 A 
ATOM     23  C   UNL     1      -7.304  -2.708  12.116  1.00  0.00     0.048 A 
ATOM     24  C   UNL     1      -7.710  -3.012  10.815  1.00  0.00     0.008 A 
ATOM     25  Cl  UNL     1     -10.595  -1.019  13.655  1.00  0.00    -0.080 Cl
BRANCH  22  26
ATOM     26  O   UNL     1      -7.744  -1.804  14.249  1.00  0.00    -0.506 OA
ATOM     27  H   UNL     1      -8.254  -1.033  14.559  1.00  0.00     0.293 HD
ENDBRANCH  22  26
ENDBRANCH  18  19
ENDBRANCH  17  18
BRANCH  17  28
ATOM     28  O   UNL     1      -8.091  -4.470   7.587  1.00  0.00    -0.383 OA
ATOM     29  H   UNL     1      -8.357  -3.843   6.877  1.00  0.00     0.211 HD
ENDBRANCH  17  28
ENDBRANCH  14  17
ENDBRANCH  12  13
BRANCH  12  30
ATOM     30  C   UNL     1     -11.155  -8.553   7.164  1.00  0.00     0.018 C 
ATOM     31  C   UNL     1     -12.198  -9.407   6.426  1.00  0.00     0.010 C 
BRANCH  30  32
ATOM     32  C   UNL     1     -11.359  -8.669   8.694  1.00  0.00     0.002 C 
ATOM     33  C   UNL     1     -12.758  -8.332   9.193  1.00  0.00     0.004 C 
ENDBRANCH  30  32
ENDBRANCH  12  30
ENDBRANCH  10  12
ENDBRANCH   1  10
BRANCH   5  34
ATOM     34  C   UNL     1     -12.422  -6.931   2.133  1.00  0.00     0.242 C 
ATOM     35  O   UNL     1     -11.254  -6.792   1.773  1.00  0.00    -0.273 OA
ATOM     36  N   UNL     1     -13.408  -7.382   1.284  1.00  0.00    -0.354 N 
ATOM     37  H   UNL     1     -14.378  -7.362   1.602  1.00  0.00     0.163 HD
BRANCH  36  38
ATOM     38  C   UNL     1     -13.109  -7.977  -0.002  1.00  0.00     0.116 C 
BRANCH  38  39
ATOM     39  C   UNL     1     -14.268  -7.739  -0.966  1.00  0.00     0.023 C 
BRANCH  39  40
ATOM     40  C   UNL     1     -14.785  -6.305  -0.913  1.00  0.00     0.026 C 
BRANCH  40  41
ATOM     41  C   UNL     1     -13.883  -5.373  -1.722  1.00  0.00     0.146 C 
BRANCH  41  42
ATOM     42  N   UNL     1     -13.809  -4.072  -1.070  1.00  0.00    -0.254 NA
ATOM     43  C   UNL     1     -12.746  -3.739  -0.440  1.00  0.00     0.185 C 
ATOM     44  N   UNL     1     -11.600  -4.420  -0.257  1.00  0.00    -0.370 N 
ATOM     45  N   UNL     1     -12.698  -2.537   0.157  1.00  0.00    -0.370 N 
ATOM     46  H   UNL     1     -10.948  -4.144   0.458  1.00  0.00     0.159 HD
ATOM     47  H   UNL     1     -11.459  -5.344  -0.653  1.00  0.00     0.159 HD
ATOM     48  H   UNL     1     -13.520  -1.956   0.060  1.00  0.00     0.159 HD
ATOM     49  H   UNL     1     -11.839  -2.113   0.459  1.00  0.00     0.159 HD
ENDBRANCH  41  42
ENDBRANCH  40  41
ENDBRANCH  39  40
ENDBRANCH  38  39
ENDBRANCH  36  38
ENDBRANCH   5  34
BRANCH   8  50
ATOM     50  O   UNL     1     -10.683  -2.513   2.157  1.00  0.00    -0.245 OA
BRANCH  50  51
ATOM     51  S   UNL     1      -9.308  -2.106   1.390  1.00  0.00     0.397 S 
ATOM     52  O   UNL     1      -8.844  -3.264   0.660  1.00  0.00    -0.169 OA
ATOM     53  O   UNL     1      -8.441  -1.383   2.297  1.00  0.00    -0.169 OA
BRANCH  51  54
ATOM     54  O   UNL     1      -9.837  -1.071   0.279  1.00  0.00    -0.264 OA
ATOM     55  H   UNL     1      -9.745  -0.167   0.646  1.00  0.00     0.236 HD
ENDBRANCH  51  54
ENDBRANCH  50  51
ENDBRANCH   8  50
TORSDOF 19
ENDMDL
MODEL 17
REMARK VINA RESULT:    -6.233     16.847     20.228
REMARK INTER + INTRA:         -15.315
REMARK INTER:                 -10.839
REMARK INTRA:                  -4.476
REMARK UNBOUND:                -2.705
REMARK SMILES CC[C@@H](C)[C@@H](NC(=O)[C@@H](O)Cc1ccc(O)c(Cl)c1)C(=O)N1[C@H](C(=O)NCCCCN=C(N)N)C[C@H]2CC[C@H](OS(=O)(=O)O)C[C@@H]21
REMARK SMILES IDX 22 1 36 2 46 3 35 4 23 5 45 6 37 7 39 8 38 9 20 10 21 11
REMARK SMILES IDX 5 12 6 13 7 14 8 15 9 17 11 18 12 19 17 20 19 21 15 22 14 23
REMARK SMILES IDX 13 24 18 25 16 26 10 28 3 30 4 31 2 32 1 33 24 34 25 35
REMARK SMILES IDX 26 36 27 38 28 39 29 40 30 41 31 42 32 43 33 44 34 45 40 50
REMARK SMILES IDX 41 51 42 52 43 53 44 54
REMARK H PARENT 6 16 16 27 10 29 26 37 33 46 33 47 34 48 34 49 44 55
ROOT
ATOM      1  N   UNL     1      -0.671 -10.393  -5.835  1.00  0.00    -0.326 N 
ATOM      2  C   UNL     1      -0.390 -11.594  -3.830  1.00  0.00     0.014 C 
ATOM      3  C   UNL     1      -1.444 -10.902  -4.699  1.00  0.00     0.091 C 
ATOM      4  C   UNL     1       0.838 -10.720  -4.035  1.00  0.00     0.041 C 
ATOM      5  C   UNL     1       0.781 -10.523  -5.561  1.00  0.00     0.175 C 
ATOM      6  C   UNL     1      -2.570 -11.897  -4.976  1.00  0.00     0.059 C 
ATOM      7  C   UNL     1      -0.912 -11.826  -2.426  1.00  0.00     0.008 C 
ATOM      8  C   UNL     1      -2.804 -12.906  -3.831  1.00  0.00     0.143 C 
ATOM      9  C   UNL     1      -2.366 -12.342  -2.464  1.00  0.00     0.034 C 
ENDROOT
BRANCH   1  10
ATOM     10  C   UNL     1      -1.087  -9.663  -6.936  1.00  0.00     0.246 C 
ATOM     11  O   UNL     1      -1.432  -8.487  -6.782  1.00  0.00    -0.272 OA
BRANCH  10  12
ATOM     12  C   UNL     1      -1.071 -10.324  -8.345  1.00  0.00     0.174 C 
BRANCH  12  13
ATOM     13  N   UNL     1      -1.534  -9.367  -9.350  1.00  0.00    -0.342 N 
ATOM     14  C   UNL     1      -1.069  -9.293 -10.644  1.00  0.00     0.249 C 
ATOM     15  O   UNL     1      -0.226 -10.049 -11.109  1.00  0.00    -0.272 OA
ATOM     16  H   UNL     1      -2.115  -8.582  -9.067  1.00  0.00     0.164 HD
BRANCH  14  17
ATOM     17  C   UNL     1      -1.743  -8.166 -11.455  1.00  0.00     0.207 C 
BRANCH  17  18
ATOM     18  C   UNL     1      -2.607  -8.755 -12.575  1.00  0.00     0.077 C 
BRANCH  18  19
ATOM     19  C   UNL     1      -3.939  -9.249 -12.057  1.00  0.00    -0.043 A 
ATOM     20  C   UNL     1      -5.692 -10.925 -12.025  1.00  0.00     0.083 A 
ATOM     21  C   UNL     1      -4.440 -10.494 -12.466  1.00  0.00     0.028 A 
ATOM     22  C   UNL     1      -6.450 -10.117 -11.177  1.00  0.00     0.134 A 
ATOM     23  C   UNL     1      -5.965  -8.881 -10.765  1.00  0.00     0.048 A 
ATOM     24  C   UNL     1      -4.713  -8.446 -11.205  1.00  0.00     0.008 A 
ATOM     25  Cl  UNL     1      -6.291 -12.458 -12.539  1.00  0.00    -0.080 Cl
BRANCH  22  26
ATOM     26  O   UNL     1      -7.687 -10.491 -10.728  1.00  0.00    -0.506 OA
ATOM     27  H   UNL     1      -7.577 -11.359 -10.296  1.00  0.00     0.293 HD
ENDBRANCH  22  26
ENDBRANCH  18  19
ENDBRANCH  17  18
BRANCH  17  28
ATOM     28  O   UNL     1      -0.764  -7.281 -12.023  1.00  0.00    -0.383 OA
ATOM     29  H   UNL     1      -0.800  -7.425 -12.996  1.00  0.00     0.211 HD
ENDBRANCH  17  28
ENDBRANCH  14  17
ENDBRANCH  12  13
BRANCH  12  30
ATOM     30  C   UNL     1      -1.860 -11.660  -8.390  1.00  0.00     0.018 C 
ATOM     31  C   UNL     1      -0.966 -12.806  -8.888  1.00  0.00     0.010 C 
BRANCH  30  32
ATOM     32  C   UNL     1      -3.154 -11.589  -9.237  1.00  0.00     0.002 C 
ATOM     33  C   UNL     1      -4.379 -12.243  -8.612  1.00  0.00     0.004 C 
ENDBRANCH  30  32
ENDBRANCH  12  30
ENDBRANCH  10  12
ENDBRANCH   1  10
BRANCH   5  34
ATOM     34  C   UNL     1       1.377 -11.739  -6.318  1.00  0.00     0.242 C 
ATOM     35  O   UNL     1       1.131 -12.901  -5.994  1.00  0.00    -0.273 OA
ATOM     36  N   UNL     1       2.243 -11.425  -7.341  1.00  0.00    -0.354 N 
ATOM     37  H   UNL     1       2.501 -10.448  -7.484  1.00  0.00     0.163 HD
BRANCH  36  38
ATOM     38  C   UNL     1       2.718 -12.417  -8.283  1.00  0.00     0.116 C 
BRANCH  38  39
ATOM     39  C   UNL     1       2.674 -11.850  -9.700  1.00  0.00     0.023 C 
BRANCH  39  40
ATOM     40  C   UNL     1       3.658 -10.702  -9.899  1.00  0.00     0.026 C 
BRANCH  40  41
ATOM     41  C   UNL     1       2.918  -9.372 -10.045  1.00  0.00     0.146 C 
BRANCH  41  42
ATOM     42  N   UNL     1       2.515  -8.886  -8.732  1.00  0.00    -0.254 NA
ATOM     43  C   UNL     1       1.825  -7.811  -8.639  1.00  0.00     0.185 C 
ATOM     44  N   UNL     1       1.370  -6.989  -9.602  1.00  0.00    -0.370 N 
ATOM     45  N   UNL     1       1.467  -7.377  -7.419  1.00  0.00    -0.370 N 
ATOM     46  H   UNL     1       1.057  -6.060  -9.377  1.00  0.00     0.159 HD
ATOM     47  H   UNL     1       1.539  -7.175 -10.586  1.00  0.00     0.159 HD
ATOM     48  H   UNL     1       1.763  -7.945  -6.637  1.00  0.00     0.159 HD
ATOM     49  H   UNL     1       0.744  -6.696  -7.275  1.00  0.00     0.159 HD
ENDBRANCH  41  42
ENDBRANCH  40  41
ENDBRANCH  39  40
ENDBRANCH  38  39
ENDBRANCH  36  38
ENDBRANCH   5  34
BRANCH   8  50
ATOM     50  O   UNL     1      -2.076 -14.108  -4.080  1.00  0.00    -0.245 OA
BRANCH  50  51
ATOM     51  S   UNL     1      -2.696 -15.535  -3.604  1.00  0.00     0.397 S 
ATOM     52  O   UNL     1      -4.022 -15.294  -3.082  1.00  0.00    -0.169 OA
ATOM     53  O   UNL     1      -1.703 -16.268  -2.846  1.00  0.00    -0.169 OA
BRANCH  51  54
ATOM     54  O   UNL     1      -2.908 -16.293  -5.006  1.00  0.00    -0.264 OA
ATOM     55  H   UNL     1      -2.102 -16.155  -5.545  1.00  0.00     0.236 HD
ENDBRANCH  51  54
ENDBRANCH  50  51
ENDBRANCH   8  50
TORSDOF 19
ENDMDL
MODEL 18
REMARK VINA RESULT:    -6.229      6.601     11.349
REMARK INTER + INTRA:         -15.307
REMARK INTER:                 -12.588
REMARK INTRA:                  -2.719
REMARK UNBOUND:                -2.705
REMARK SMILES CC[C@@H](C)[C@@H](NC(=O)[C@@H](O)Cc1ccc(O)c(Cl)c1)C(=O)N1[C@H](C(=O)NCCCCN=C(N)N)C[C@H]2CC[C@H](OS(=O)(=O)O)C[C@@H]21
REMARK SMILES IDX 22 1 36 2 46 3 35 4 23 5 45 6 37 7 39 8 38 9 20 10 21 11
REMARK SMILES IDX 5 12 6 13 7 14 8 15 9 17 11 18 12 19 17 20 19 21 15 22 14 23
REMARK SMILES IDX 13 24 18 25 16 26 10 28 3 30 4 31 2 32 1 33 24 34 25 35
REMARK SMILES IDX 26 36 27 38 28 39 29 40 30 41 31 42 32 43 33 44 34 45 40 50
REMARK SMILES IDX 41 51 42 52 43 53 44 54
REMARK H PARENT 6 16 16 27 10 29 26 37 33 46 33 47 34 48 34 49 44 55
ROOT
ATOM      1  N   UNL     1      -7.667  -1.208   1.009  1.00  0.00    -0.326 N 
ATOM      2  C   UNL     1      -9.880  -1.696   1.647  1.00  0.00     0.014 C 
ATOM      3  C   UNL     1      -8.967  -1.553   0.426  1.00  0.00     0.091 C 
ATOM      4  C   UNL     1      -9.335  -0.642   2.598  1.00  0.00     0.041 C 
ATOM      5  C   UNL     1      -7.823  -0.897   2.451  1.00  0.00     0.175 C 
ATOM      6  C   UNL     1      -9.071  -2.829  -0.407  1.00  0.00     0.059 C 
ATOM      7  C   UNL     1     -11.339  -1.648   1.241  1.00  0.00     0.008 C 
ATOM      8  C   UNL     1     -10.458  -3.504  -0.340  1.00  0.00     0.143 C 
ATOM      9  C   UNL     1     -11.580  -2.493  -0.028  1.00  0.00     0.034 C 
ENDROOT
BRANCH   1  10
ATOM     10  C   UNL     1      -6.459  -0.938   0.388  1.00  0.00     0.246 C 
ATOM     11  O   UNL     1      -5.855  -1.857  -0.176  1.00  0.00    -0.272 OA
BRANCH  10  12
ATOM     12  C   UNL     1      -5.912   0.519   0.375  1.00  0.00     0.174 C 
BRANCH  12  13
ATOM     13  N   UNL     1      -5.159   0.758  -0.856  1.00  0.00    -0.342 N 
ATOM     14  C   UNL     1      -5.549   1.605  -1.868  1.00  0.00     0.249 C 
ATOM     15  O   UNL     1      -6.569   2.282  -1.836  1.00  0.00    -0.272 OA
ATOM     16  H   UNL     1      -4.376   0.154  -1.093  1.00  0.00     0.164 HD
BRANCH  14  17
ATOM     17  C   UNL     1      -4.549   1.628  -3.044  1.00  0.00     0.207 C 
BRANCH  17  18
ATOM     18  C   UNL     1      -3.339   2.503  -2.700  1.00  0.00     0.077 C 
BRANCH  18  19
ATOM     19  C   UNL     1      -2.149   2.185  -3.578  1.00  0.00    -0.043 A 
ATOM     20  C   UNL     1      -0.380   2.918  -5.067  1.00  0.00     0.083 A 
ATOM     21  C   UNL     1      -1.446   3.218  -4.219  1.00  0.00     0.028 A 
ATOM     22  C   UNL     1      -0.011   1.590  -5.283  1.00  0.00     0.134 A 
ATOM     23  C   UNL     1      -0.698   0.558  -4.655  1.00  0.00     0.048 A 
ATOM     24  C   UNL     1      -1.767   0.854  -3.806  1.00  0.00     0.008 A 
ATOM     25  Cl  UNL     1       0.472   4.200  -5.845  1.00  0.00    -0.080 Cl
BRANCH  22  26
ATOM     26  O   UNL     1       1.021   1.247  -6.114  1.00  0.00    -0.506 OA
ATOM     27  H   UNL     1       1.228   2.038  -6.645  1.00  0.00     0.293 HD
ENDBRANCH  22  26
ENDBRANCH  18  19
ENDBRANCH  17  18
BRANCH  17  28
ATOM     28  O   UNL     1      -5.170   2.123  -4.241  1.00  0.00    -0.383 OA
ATOM     29  H   UNL     1      -4.466   2.603  -4.734  1.00  0.00     0.211 HD
ENDBRANCH  17  28
ENDBRANCH  14  17
ENDBRANCH  12  13
BRANCH  12  30
ATOM     30  C   UNL     1      -5.091   0.862   1.648  1.00  0.00     0.018 C 
ATOM     31  C   UNL     1      -4.211   2.100   1.413  1.00  0.00     0.010 C 
BRANCH  30  32
ATOM     32  C   UNL     1      -4.228  -0.314   2.166  1.00  0.00     0.002 C 
ATOM     33  C   UNL     1      -4.114  -0.419   3.682  1.00  0.00     0.004 C 
ENDBRANCH  30  32
ENDBRANCH  12  30
ENDBRANCH  10  12
ENDBRANCH   1  10
BRANCH   5  34
ATOM     34  C   UNL     1      -7.358  -2.093   3.325  1.00  0.00     0.242 C 
ATOM     35  O   UNL     1      -6.729  -3.043   2.859  1.00  0.00    -0.273 OA
ATOM     36  N   UNL     1      -7.746  -2.040   4.645  1.00  0.00    -0.354 N 
ATOM     37  H   UNL     1      -8.367  -1.288   4.945  1.00  0.00     0.163 HD
BRANCH  36  38
ATOM     38  C   UNL     1      -7.223  -2.951   5.642  1.00  0.00     0.116 C 
BRANCH  38  39
ATOM     39  C   UNL     1      -8.371  -3.543   6.456  1.00  0.00     0.023 C 
BRANCH  39  40
ATOM     40  C   UNL     1      -9.625  -3.767   5.617  1.00  0.00     0.026 C 
BRANCH  40  41
ATOM     41  C   UNL     1     -10.586  -4.723   6.324  1.00  0.00     0.146 C 
BRANCH  41  42
ATOM     42  N   UNL     1     -10.176  -6.100   6.083  1.00  0.00    -0.254 NA
ATOM     43  C   UNL     1     -10.737  -6.774   5.151  1.00  0.00     0.185 C 
ATOM     44  N   UNL     1     -11.706  -6.418   4.288  1.00  0.00    -0.370 N 
ATOM     45  N   UNL     1     -10.348  -8.044   4.948  1.00  0.00    -0.370 N 
ATOM     46  H   UNL     1     -12.219  -7.115   3.777  1.00  0.00     0.159 HD
ATOM     47  H   UNL     1     -12.107  -5.485   4.293  1.00  0.00     0.159 HD
ATOM     48  H   UNL     1      -9.613  -8.389   5.551  1.00  0.00     0.159 HD
ATOM     49  H   UNL     1     -10.560  -8.550   4.107  1.00  0.00     0.159 HD
ENDBRANCH  41  42
ENDBRANCH  40  41
ENDBRANCH  39  40
ENDBRANCH  38  39
ENDBRANCH  36  38
ENDBRANCH   5  34
BRANCH   8  50
ATOM     50  O   UNL     1     -10.463  -4.513   0.671  1.00  0.00    -0.245 OA
BRANCH  50  51
ATOM     51  S   UNL     1     -11.650  -5.626   0.688  1.00  0.00     0.397 S 
ATOM     52  O   UNL     1     -11.103  -6.853   1.223  1.00  0.00    -0.169 OA
ATOM     53  O   UNL     1     -12.362  -5.597  -0.572  1.00  0.00    -0.169 OA
BRANCH  51  54
ATOM     54  O   UNL     1     -12.631  -5.052   1.825  1.00  0.00    -0.264 OA
ATOM     55  H   UNL     1     -12.203  -5.202   2.693  1.00  0.00     0.236 HD
ENDBRANCH  51  54
ENDBRANCH  50  51
ENDBRANCH   8  50
TORSDOF 19
ENDMDL
MODEL 19
REMARK VINA RESULT:    -6.204      4.725      7.244
REMARK INTER + INTRA:         -15.257
REMARK INTER:                 -12.398
REMARK INTRA:                  -2.859
REMARK UNBOUND:                -2.705
REMARK SMILES CC[C@@H](C)[C@@H](NC(=O)[C@@H](O)Cc1ccc(O)c(Cl)c1)C(=O)N1[C@H](C(=O)NCCCCN=C(N)N)C[C@H]2CC[C@H](OS(=O)(=O)O)C[C@@H]21
REMARK SMILES IDX 22 1 36 2 46 3 35 4 23 5 45 6 37 7 39 8 38 9 20 10 21 11
REMARK SMILES IDX 5 12 6 13 7 14 8 15 9 17 11 18 12 19 17 20 19 21 15 22 14 23
REMARK SMILES IDX 13 24 18 25 16 26 10 28 3 30 4 31 2 32 1 33 24 34 25 35
REMARK SMILES IDX 26 36 27 38 28 39 29 40 30 41 31 42 32 43 33 44 34 45 40 50
REMARK SMILES IDX 41 51 42 52 43 53 44 54
REMARK H PARENT 6 16 16 27 10 29 26 37 33 46 33 47 34 48 34 49 44 55
ROOT
ATOM      1  N   UNL     1      -9.816  -0.502   3.211  1.00  0.00    -0.326 N 
ATOM      2  C   UNL     1      -8.817   0.123   1.173  1.00  0.00     0.014 C 
ATOM      3  C   UNL     1      -8.557   0.027   2.679  1.00  0.00     0.091 C 
ATOM      4  C   UNL     1     -10.291   0.494   1.111  1.00  0.00     0.041 C 
ATOM      5  C   UNL     1     -10.861  -0.481   2.158  1.00  0.00     0.175 C 
ATOM      6  C   UNL     1      -7.280  -0.784   2.898  1.00  0.00     0.059 C 
ATOM      7  C   UNL     1      -7.796   1.021   0.503  1.00  0.00     0.008 C 
ATOM      8  C   UNL     1      -6.240  -0.621   1.768  1.00  0.00     0.143 C 
ATOM      9  C   UNL     1      -6.379   0.732   1.043  1.00  0.00     0.034 C 
ENDROOT
BRANCH   1  10
ATOM     10  C   UNL     1     -10.180  -0.782   4.518  1.00  0.00     0.246 C 
ATOM     11  O   UNL     1     -11.287  -0.415   4.925  1.00  0.00    -0.272 OA
BRANCH  10  12
ATOM     12  C   UNL     1      -9.208  -1.587   5.429  1.00  0.00     0.174 C 
BRANCH  12  13
ATOM     13  N   UNL     1      -9.888  -2.766   5.964  1.00  0.00    -0.342 N 
ATOM     14  C   UNL     1      -9.281  -3.970   6.241  1.00  0.00     0.249 C 
ATOM     15  O   UNL     1      -8.083  -4.180   6.095  1.00  0.00    -0.272 OA
ATOM     16  H   UNL     1     -10.904  -2.793   5.989  1.00  0.00     0.164 HD
BRANCH  14  17
ATOM     17  C   UNL     1     -10.270  -5.026   6.779  1.00  0.00     0.207 C 
BRANCH  17  18
ATOM     18  C   UNL     1      -9.835  -5.512   8.165  1.00  0.00     0.077 C 
BRANCH  18  19
ATOM     19  C   UNL     1      -9.881  -4.400   9.190  1.00  0.00    -0.043 A 
ATOM     20  C   UNL     1      -8.747  -2.930  10.750  1.00  0.00     0.083 A 
ATOM     21  C   UNL     1      -8.696  -3.921   9.769  1.00  0.00     0.028 A 
ATOM     22  C   UNL     1      -9.977  -2.415  11.159  1.00  0.00     0.134 A 
ATOM     23  C   UNL     1     -11.158  -2.880  10.594  1.00  0.00     0.048 A 
ATOM     24  C   UNL     1     -11.111  -3.873   9.613  1.00  0.00     0.008 A 
ATOM     25  Cl  UNL     1      -7.280  -2.354  11.451  1.00  0.00    -0.080 Cl
BRANCH  22  26
ATOM     26  O   UNL     1     -10.077  -1.450  12.125  1.00  0.00    -0.506 OA
ATOM     27  H   UNL     1     -11.029  -1.292  12.265  1.00  0.00     0.293 HD
ENDBRANCH  22  26
ENDBRANCH  18  19
ENDBRANCH  17  18
BRANCH  17  28
ATOM     28  O   UNL     1     -10.363  -6.149   5.888  1.00  0.00    -0.383 OA
ATOM     29  H   UNL     1     -11.317  -6.239   5.662  1.00  0.00     0.211 HD
ENDBRANCH  17  28
ENDBRANCH  14  17
ENDBRANCH  12  13
BRANCH  12  30
ATOM     30  C   UNL     1      -8.570  -0.715   6.543  1.00  0.00     0.018 C 
ATOM     31  C   UNL     1      -9.426  -0.746   7.819  1.00  0.00     0.010 C 
BRANCH  30  32
ATOM     32  C   UNL     1      -8.308   0.749   6.114  1.00  0.00     0.002 C 
ATOM     33  C   UNL     1      -7.495   1.581   7.097  1.00  0.00     0.004 C 
ENDBRANCH  30  32
ENDBRANCH  12  30
ENDBRANCH  10  12
ENDBRANCH   1  10
BRANCH   5  34
ATOM     34  C   UNL     1     -11.073  -1.899   1.564  1.00  0.00     0.242 C 
ATOM     35  O   UNL     1     -10.850  -2.923   2.210  1.00  0.00    -0.273 OA
ATOM     36  N   UNL     1     -11.475  -1.928   0.248  1.00  0.00    -0.354 N 
ATOM     37  H   UNL     1     -11.527  -1.050  -0.270  1.00  0.00     0.163 HD
BRANCH  36  38
ATOM     38  C   UNL     1     -11.924  -3.145  -0.397  1.00  0.00     0.116 C 
BRANCH  38  39
ATOM     39  C   UNL     1     -11.453  -3.167  -1.849  1.00  0.00     0.023 C 
BRANCH  39  40
ATOM     40  C   UNL     1     -12.609  -3.082  -2.838  1.00  0.00     0.026 C 
BRANCH  40  41
ATOM     41  C   UNL     1     -13.167  -1.659  -2.900  1.00  0.00     0.146 C 
BRANCH  41  42
ATOM     42  N   UNL     1     -12.069  -0.702  -2.944  1.00  0.00    -0.254 NA
ATOM     43  C   UNL     1     -12.324   0.549  -3.037  1.00  0.00     0.185 C 
ATOM     44  N   UNL     1     -13.506   1.189  -3.105  1.00  0.00    -0.370 N 
ATOM     45  N   UNL     1     -11.298   1.415  -3.080  1.00  0.00    -0.370 N 
ATOM     46  H   UNL     1     -13.555   2.143  -3.420  1.00  0.00     0.159 HD
ATOM     47  H   UNL     1     -14.387   0.686  -3.071  1.00  0.00     0.159 HD
ATOM     48  H   UNL     1     -10.371   1.015  -3.025  1.00  0.00     0.159 HD
ATOM     49  H   UNL     1     -11.410   2.400  -2.915  1.00  0.00     0.159 HD
ENDBRANCH  41  42
ENDBRANCH  40  41
ENDBRANCH  39  40
ENDBRANCH  38  39
ENDBRANCH  36  38
ENDBRANCH   5  34
BRANCH   8  50
ATOM     50  O   UNL     1      -6.391  -1.668   0.809  1.00  0.00    -0.245 OA
BRANCH  50  51
ATOM     51  S   UNL     1      -5.158  -2.694   0.539  1.00  0.00     0.397 S 
ATOM     52  O   UNL     1      -4.613  -2.403  -0.768  1.00  0.00    -0.169 OA
ATOM     53  O   UNL     1      -5.550  -4.036   0.917  1.00  0.00    -0.169 OA
BRANCH  51  54
ATOM     54  O   UNL     1      -4.059  -2.183   1.595  1.00  0.00    -0.264 OA
ATOM     55  H   UNL     1      -4.500  -1.558   2.206  1.00  0.00     0.236 HD
ENDBRANCH  51  54
ENDBRANCH  50  51
ENDBRANCH   8  50
TORSDOF 19
ENDMDL
MODEL 20
REMARK VINA RESULT:    -6.197     16.042     20.342
REMARK INTER + INTRA:         -15.242
REMARK INTER:                 -11.686
REMARK INTRA:                  -3.555
REMARK UNBOUND:                -2.705
REMARK SMILES CC[C@@H](C)[C@@H](NC(=O)[C@@H](O)Cc1ccc(O)c(Cl)c1)C(=O)N1[C@H](C(=O)NCCCCN=C(N)N)C[C@H]2CC[C@H](OS(=O)(=O)O)C[C@@H]21
REMARK SMILES IDX 22 1 36 2 46 3 35 4 23 5 45 6 37 7 39 8 38 9 20 10 21 11
REMARK SMILES IDX 5 12 6 13 7 14 8 15 9 17 11 18 12 19 17 20 19 21 15 22 14 23
REMARK SMILES IDX 13 24 18 25 16 26 10 28 3 30 4 31 2 32 1 33 24 34 25 35
REMARK SMILES IDX 26 36 27 38 28 39 29 40 30 41 31 42 32 43 33 44 34 45 40 50
REMARK SMILES IDX 41 51 42 52 43 53 44 54
REMARK H PARENT 6 16 16 27 10 29 26 37 33 46 33 47 34 48 34 49 44 55
ROOT
ATOM      1  N   UNL     1      -1.373   5.007  -7.638  1.00  0.00    -0.326 N 
ATOM      2  C   UNL     1      -2.529   6.725  -8.757  1.00  0.00     0.014 C 
ATOM      3  C   UNL     1      -1.913   6.350  -7.406  1.00  0.00     0.091 C 
ATOM      4  C   UNL     1      -3.052   5.392  -9.269  1.00  0.00     0.041 C 
ATOM      5  C   UNL     1      -1.852   4.485  -8.941  1.00  0.00     0.175 C 
ATOM      6  C   UNL     1      -0.946   7.458  -6.992  1.00  0.00     0.059 C 
ATOM      7  C   UNL     1      -3.486   7.892  -8.611  1.00  0.00     0.008 C 
ATOM      8  C   UNL     1      -1.363   8.861  -7.482  1.00  0.00     0.143 C 
ATOM      9  C   UNL     1      -2.887   8.974  -7.688  1.00  0.00     0.034 C 
ENDROOT
BRANCH   1  10
ATOM     10  C   UNL     1      -0.717   4.152  -6.768  1.00  0.00     0.246 C 
ATOM     11  O   UNL     1       0.392   3.708  -7.084  1.00  0.00    -0.272 OA
BRANCH  10  12
ATOM     12  C   UNL     1      -1.367   3.804  -5.398  1.00  0.00     0.174 C 
BRANCH  12  13
ATOM     13  N   UNL     1      -2.805   4.066  -5.448  1.00  0.00    -0.342 N 
ATOM     14  C   UNL     1      -3.772   3.121  -5.712  1.00  0.00     0.249 C 
ATOM     15  O   UNL     1      -3.532   1.937  -5.910  1.00  0.00    -0.272 OA
ATOM     16  H   UNL     1      -3.142   5.025  -5.459  1.00  0.00     0.164 HD
BRANCH  14  17
ATOM     17  C   UNL     1      -5.198   3.713  -5.712  1.00  0.00     0.207 C 
BRANCH  17  18
ATOM     18  C   UNL     1      -5.169   5.180  -6.151  1.00  0.00     0.077 C 
BRANCH  18  19
ATOM     19  C   UNL     1      -6.274   5.494  -7.134  1.00  0.00    -0.043 A 
ATOM     20  C   UNL     1      -7.858   7.066  -8.086  1.00  0.00     0.083 A 
ATOM     21  C   UNL     1      -6.805   6.791  -7.213  1.00  0.00     0.028 A 
ATOM     22  C   UNL     1      -8.387   6.050  -8.883  1.00  0.00     0.134 A 
ATOM     23  C   UNL     1      -7.871   4.761  -8.815  1.00  0.00     0.048 A 
ATOM     24  C   UNL     1      -6.818   4.483  -7.941  1.00  0.00     0.008 A 
ATOM     25  Cl  UNL     1      -8.496   8.666  -8.169  1.00  0.00    -0.080 Cl
BRANCH  22  26
ATOM     26  O   UNL     1      -9.426   6.269  -9.747  1.00  0.00    -0.506 OA
ATOM     27  H   UNL     1      -9.451   5.507 -10.354  1.00  0.00     0.293 HD
ENDBRANCH  22  26
ENDBRANCH  18  19
ENDBRANCH  17  18
BRANCH  17  28
ATOM     28  O   UNL     1      -5.798   3.616  -4.410  1.00  0.00    -0.383 OA
ATOM     29  H   UNL     1      -5.287   2.928  -3.926  1.00  0.00     0.211 HD
ENDBRANCH  17  28
ENDBRANCH  14  17
ENDBRANCH  12  13
BRANCH  12  30
ATOM     30  C   UNL     1      -0.676   4.519  -4.207  1.00  0.00     0.018 C 
ATOM     31  C   UNL     1      -0.430   3.539  -3.049  1.00  0.00     0.010 C 
BRANCH  30  32
ATOM     32  C   UNL     1      -1.445   5.763  -3.697  1.00  0.00     0.002 C 
ATOM     33  C   UNL     1      -0.924   6.363  -2.398  1.00  0.00     0.004 C 
ENDBRANCH  30  32
ENDBRANCH  12  30
ENDBRANCH  10  12
ENDBRANCH   1  10
BRANCH   5  34
ATOM     34  C   UNL     1      -0.741   4.595 -10.020  1.00  0.00     0.242 C 
ATOM     35  O   UNL     1      -0.736   3.896 -11.033  1.00  0.00    -0.273 OA
ATOM     36  N   UNL     1       0.266   5.490  -9.734  1.00  0.00    -0.354 N 
ATOM     37  H   UNL     1       0.269   5.952  -8.824  1.00  0.00     0.163 HD
BRANCH  36  38
ATOM     38  C   UNL     1       1.258   5.876 -10.716  1.00  0.00     0.116 C 
BRANCH  38  39
ATOM     39  C   UNL     1       2.659   5.638 -10.157  1.00  0.00     0.023 C 
BRANCH  39  40
ATOM     40  C   UNL     1       2.655   5.413  -8.649  1.00  0.00     0.026 C 
BRANCH  40  41
ATOM     41  C   UNL     1       3.839   4.544  -8.227  1.00  0.00     0.146 C 
BRANCH  41  42
ATOM     42  N   UNL     1       4.995   5.387  -7.952  1.00  0.00    -0.254 NA
ATOM     43  C   UNL     1       5.983   5.392  -8.767  1.00  0.00     0.185 C 
ATOM     44  N   UNL     1       6.161   4.714  -9.915  1.00  0.00    -0.370 N 
ATOM     45  N   UNL     1       7.041   6.173  -8.493  1.00  0.00    -0.370 N 
ATOM     46  H   UNL     1       7.077   4.627 -10.322  1.00  0.00     0.159 HD
ATOM     47  H   UNL     1       5.451   4.086 -10.279  1.00  0.00     0.159 HD
ATOM     48  H   UNL     1       6.984   6.726  -7.649  1.00  0.00     0.159 HD
ATOM     49  H   UNL     1       7.732   6.413  -9.182  1.00  0.00     0.159 HD
ENDBRANCH  41  42
ENDBRANCH  40  41
ENDBRANCH  39  40
ENDBRANCH  38  39
ENDBRANCH  36  38
ENDBRANCH   5  34
BRANCH   8  50
ATOM     50  O   UNL     1      -0.715   9.161  -8.719  1.00  0.00    -0.245 OA
BRANCH  50  51
ATOM     51  S   UNL     1       0.645  10.054  -8.717  1.00  0.00     0.397 S 
ATOM     52  O   UNL     1       0.817  10.602  -7.391  1.00  0.00    -0.169 OA
ATOM     53  O   UNL     1       0.676  10.895  -9.896  1.00  0.00    -0.169 OA
BRANCH  51  54
ATOM     54  O   UNL     1       1.784   8.931  -8.879  1.00  0.00    -0.264 OA
ATOM     55  H   UNL     1       1.905   8.501  -8.008  1.00  0.00     0.236 HD
ENDBRANCH  51  54
ENDBRANCH  50  51
ENDBRANCH   8  50
TORSDOF 19
ENDMDL
MODEL 21
REMARK VINA RESULT:    -6.189      4.380      8.192
REMARK INTER + INTRA:         -15.225
REMARK INTER:                 -12.679
REMARK INTRA:                  -2.546
REMARK UNBOUND:                -2.705
REMARK SMILES CC[C@@H](C)[C@@H](NC(=O)[C@@H](O)Cc1ccc(O)c(Cl)c1)C(=O)N1[C@H](C(=O)NCCCCN=C(N)N)C[C@H]2CC[C@H](OS(=O)(=O)O)C[C@@H]21
REMARK SMILES IDX 22 1 36 2 46 3 35 4 23 5 45 6 37 7 39 8 38 9 20 10 21 11
REMARK SMILES IDX 5 12 6 13 7 14 8 15 9 17 11 18 12 19 17 20 19 21 15 22 14 23
REMARK SMILES IDX 13 24 18 25 16 26 10 28 3 30 4 31 2 32 1 33 24 34 25 35
REMARK SMILES IDX 26 36 27 38 28 39 29 40 30 41 31 42 32 43 33 44 34 45 40 50
REMARK SMILES IDX 41 51 42 52 43 53 44 54
REMARK H PARENT 6 16 16 27 10 29 26 37 33 46 33 47 34 48 34 49 44 55
ROOT
ATOM      1  N   UNL     1     -11.963  -5.106   6.350  1.00  0.00    -0.326 N 
ATOM      2  C   UNL     1     -13.704  -4.892   4.780  1.00  0.00     0.014 C 
ATOM      3  C   UNL     1     -12.356  -4.294   5.195  1.00  0.00     0.091 C 
ATOM      4  C   UNL     1     -14.316  -5.295   6.112  1.00  0.00     0.041 C 
ATOM      5  C   UNL     1     -13.098  -5.959   6.781  1.00  0.00     0.175 C 
ATOM      6  C   UNL     1     -11.438  -4.279   3.974  1.00  0.00     0.059 C 
ATOM      7  C   UNL     1     -14.460  -3.943   3.871  1.00  0.00     0.008 C 
ATOM      8  C   UNL     1     -12.185  -4.084   2.637  1.00  0.00     0.143 C 
ATOM      9  C   UNL     1     -13.514  -3.324   2.821  1.00  0.00     0.034 C 
ENDROOT
BRANCH   1  10
ATOM     10  C   UNL     1     -10.841  -5.018   7.156  1.00  0.00     0.246 C 
ATOM     11  O   UNL     1     -10.248  -6.054   7.477  1.00  0.00    -0.272 OA
BRANCH  10  12
ATOM     12  C   UNL     1     -10.326  -3.619   7.604  1.00  0.00     0.174 C 
BRANCH  12  13
ATOM     13  N   UNL     1      -9.037  -3.337   6.973  1.00  0.00    -0.342 N 
ATOM     14  C   UNL     1      -8.829  -2.400   5.986  1.00  0.00     0.249 C 
ATOM     15  O   UNL     1      -9.708  -1.671   5.542  1.00  0.00    -0.272 OA
ATOM     16  H   UNL     1      -8.253  -3.966   7.126  1.00  0.00     0.164 HD
BRANCH  14  17
ATOM     17  C   UNL     1      -7.361  -2.350   5.512  1.00  0.00     0.207 C 
BRANCH  17  18
ATOM     18  C   UNL     1      -7.291  -1.992   4.024  1.00  0.00     0.077 C 
BRANCH  18  19
ATOM     19  C   UNL     1      -6.191  -0.994   3.738  1.00  0.00    -0.043 A 
ATOM     20  C   UNL     1      -5.065   0.512   2.205  1.00  0.00     0.083 A 
ATOM     21  C   UNL     1      -6.110  -0.371   2.483  1.00  0.00     0.028 A 
ATOM     22  C   UNL     1      -4.097   0.775   3.175  1.00  0.00     0.134 A 
ATOM     23  C   UNL     1      -4.166   0.165   4.422  1.00  0.00     0.048 A 
ATOM     24  C   UNL     1      -5.210  -0.720   4.702  1.00  0.00     0.008 A 
ATOM     25  Cl  UNL     1      -4.982   1.268   0.657  1.00  0.00    -0.080 Cl
BRANCH  22  26
ATOM     26  O   UNL     1      -3.049   1.625   2.946  1.00  0.00    -0.506 OA
ATOM     27  H   UNL     1      -2.737   1.927   3.819  1.00  0.00     0.293 HD
ENDBRANCH  22  26
ENDBRANCH  18  19
ENDBRANCH  17  18
BRANCH  17  28
ATOM     28  O   UNL     1      -6.704  -3.609   5.730  1.00  0.00    -0.383 OA
ATOM     29  H   UNL     1      -7.339  -4.162   6.240  1.00  0.00     0.211 HD
ENDBRANCH  17  28
ENDBRANCH  14  17
ENDBRANCH  12  13
BRANCH  12  30
ATOM     30  C   UNL     1     -10.276  -3.465   9.148  1.00  0.00     0.018 C 
ATOM     31  C   UNL     1      -8.901  -3.880   9.695  1.00  0.00     0.010 C 
BRANCH  30  32
ATOM     32  C   UNL     1     -11.397  -4.236   9.887  1.00  0.00     0.002 C 
ATOM     33  C   UNL     1     -12.618  -3.407  10.264  1.00  0.00     0.004 C 
ENDBRANCH  30  32
ENDBRANCH  12  30
ENDBRANCH  10  12
ENDBRANCH   1  10
BRANCH   5  34
ATOM     34  C   UNL     1     -12.904  -7.420   6.295  1.00  0.00     0.242 C 
ATOM     35  O   UNL     1     -13.761  -8.288   6.461  1.00  0.00    -0.273 OA
ATOM     36  N   UNL     1     -11.684  -7.687   5.716  1.00  0.00    -0.354 N 
ATOM     37  H   UNL     1     -10.970  -6.958   5.715  1.00  0.00     0.163 HD
BRANCH  36  38
ATOM     38  C   UNL     1     -11.414  -8.927   5.018  1.00  0.00     0.116 C 
BRANCH  38  39
ATOM     39  C   UNL     1     -10.101  -9.527   5.515  1.00  0.00     0.023 C 
BRANCH  39  40
ATOM     40  C   UNL     1     -10.191 -10.010   6.959  1.00  0.00     0.026 C 
BRANCH  40  41
ATOM     41  C   UNL     1     -11.423 -10.892   7.160  1.00  0.00     0.146 C 
BRANCH  41  42
ATOM     42  N   UNL     1     -11.888 -10.781   8.537  1.00  0.00    -0.254 NA
ATOM     43  C   UNL     1     -11.617 -11.711   9.373  1.00  0.00     0.185 C 
ATOM     44  N   UNL     1     -10.930 -12.855   9.203  1.00  0.00    -0.370 N 
ATOM     45  N   UNL     1     -12.059 -11.592  10.636  1.00  0.00    -0.370 N 
ATOM     46  H   UNL     1     -11.002 -13.602   9.873  1.00  0.00     0.159 HD
ATOM     47  H   UNL     1     -10.512 -13.098   8.310  1.00  0.00     0.159 HD
ATOM     48  H   UNL     1     -12.580 -10.753  10.852  1.00  0.00     0.159 HD
ATOM     49  H   UNL     1     -11.696 -12.143  11.394  1.00  0.00     0.159 HD
ENDBRANCH  41  42
ENDBRANCH  40  41
ENDBRANCH  39  40
ENDBRANCH  38  39
ENDBRANCH  36  38
ENDBRANCH   5  34
BRANCH   8  50
ATOM     50  O   UNL     1     -12.467  -5.352   2.044  1.00  0.00    -0.245 OA
BRANCH  50  51
ATOM     51  S   UNL     1     -11.733  -5.769   0.653  1.00  0.00     0.397 S 
ATOM     52  O   UNL     1     -12.686  -5.606  -0.421  1.00  0.00    -0.169 OA
ATOM     53  O   UNL     1     -11.004  -7.006   0.840  1.00  0.00    -0.169 OA
BRANCH  51  54
ATOM     54  O   UNL     1     -10.661  -4.585   0.471  1.00  0.00    -0.264 OA
ATOM     55  H   UNL     1     -10.782  -3.956   1.212  1.00  0.00     0.236 HD
ENDBRANCH  51  54
ENDBRANCH  50  51
ENDBRANCH   8  50
TORSDOF 19
ENDMDL
MODEL 22
REMARK VINA RESULT:    -6.178     16.972     20.782
REMARK INTER + INTRA:         -15.203
REMARK INTER:                 -11.007
REMARK INTRA:                  -4.195
REMARK UNBOUND:                -2.705
REMARK SMILES CC[C@@H](C)[C@@H](NC(=O)[C@@H](O)Cc1ccc(O)c(Cl)c1)C(=O)N1[C@H](C(=O)NCCCCN=C(N)N)C[C@H]2CC[C@H](OS(=O)(=O)O)C[C@@H]21
REMARK SMILES IDX 22 1 36 2 46 3 35 4 23 5 45 6 37 7 39 8 38 9 20 10 21 11
REMARK SMILES IDX 5 12 6 13 7 14 8 15 9 17 11 18 12 19 17 20 19 21 15 22 14 23
REMARK SMILES IDX 13 24 18 25 16 26 10 28 3 30 4 31 2 32 1 33 24 34 25 35
REMARK SMILES IDX 26 36 27 38 28 39 29 40 30 41 31 42 32 43 33 44 34 45 40 50
REMARK SMILES IDX 41 51 42 52 43 53 44 54
REMARK H PARENT 6 16 16 27 10 29 26 37 33 46 33 47 34 48 34 49 44 55
ROOT
ATOM      1  N   UNL     1       0.150 -11.460  -9.423  1.00  0.00    -0.326 N 
ATOM      2  C   UNL     1       1.998 -10.180  -8.727  1.00  0.00     0.014 C 
ATOM      3  C   UNL     1       0.510 -10.083  -9.072  1.00  0.00     0.091 C 
ATOM      4  C   UNL     1       2.497 -11.247  -9.689  1.00  0.00     0.041 C 
ATOM      5  C   UNL     1       1.374 -12.290  -9.546  1.00  0.00     0.175 C 
ATOM      6  C   UNL     1      -0.216  -9.420  -7.903  1.00  0.00     0.059 C 
ATOM      7  C   UNL     1       2.647  -8.809  -8.735  1.00  0.00     0.008 C 
ATOM      8  C   UNL     1       0.645  -8.389  -7.141  1.00  0.00     0.143 C 
ATOM      9  C   UNL     1       1.739  -7.774  -8.037  1.00  0.00     0.034 C 
ENDROOT
BRANCH   1  10
ATOM     10  C   UNL     1      -1.064 -11.982  -9.839  1.00  0.00     0.246 C 
ATOM     11  O   UNL     1      -1.102 -13.135 -10.281  1.00  0.00    -0.272 OA
BRANCH  10  12
ATOM     12  C   UNL     1      -2.355 -11.124  -9.701  1.00  0.00     0.174 C 
BRANCH  12  13
ATOM     13  N   UNL     1      -3.431 -11.931  -9.127  1.00  0.00    -0.342 N 
ATOM     14  C   UNL     1      -3.626 -12.144  -7.781  1.00  0.00     0.249 C 
ATOM     15  O   UNL     1      -2.927 -11.652  -6.904  1.00  0.00    -0.272 OA
ATOM     16  H   UNL     1      -3.992 -12.526  -9.731  1.00  0.00     0.164 HD
BRANCH  14  17
ATOM     17  C   UNL     1      -4.838 -13.056  -7.492  1.00  0.00     0.207 C 
BRANCH  17  18
ATOM     18  C   UNL     1      -6.112 -12.220  -7.335  1.00  0.00     0.077 C 
BRANCH  18  19
ATOM     19  C   UNL     1      -7.115 -12.513  -8.428  1.00  0.00    -0.043 A 
ATOM     20  C   UNL     1      -8.134 -11.945 -10.554  1.00  0.00     0.083 A 
ATOM     21  C   UNL     1      -7.174 -11.701  -9.571  1.00  0.00     0.028 A 
ATOM     22  C   UNL     1      -9.038 -12.996 -10.402  1.00  0.00     0.134 A 
ATOM     23  C   UNL     1      -8.990 -13.809  -9.276  1.00  0.00     0.048 A 
ATOM     24  C   UNL     1      -8.032 -13.566  -8.288  1.00  0.00     0.008 A 
ATOM     25  Cl  UNL     1      -8.191 -10.935 -11.952  1.00  0.00    -0.080 Cl
BRANCH  22  26
ATOM     26  O   UNL     1     -10.003 -13.267 -11.335  1.00  0.00    -0.506 OA
ATOM     27  H   UNL     1     -10.791 -12.752 -11.080  1.00  0.00     0.293 HD
ENDBRANCH  22  26
ENDBRANCH  18  19
ENDBRANCH  17  18
BRANCH  17  28
ATOM     28  O   UNL     1      -4.628 -13.833  -6.302  1.00  0.00    -0.383 OA
ATOM     29  H   UNL     1      -5.068 -13.340  -5.573  1.00  0.00     0.211 HD
ENDBRANCH  17  28
ENDBRANCH  14  17
ENDBRANCH  12  13
BRANCH  12  30
ATOM     30  C   UNL     1      -2.770 -10.447 -11.035  1.00  0.00     0.018 C 
ATOM     31  C   UNL     1      -2.328  -8.975 -11.061  1.00  0.00     0.010 C 
BRANCH  30  32
ATOM     32  C   UNL     1      -4.284 -10.553 -11.342  1.00  0.00     0.002 C 
ATOM     33  C   UNL     1      -5.016  -9.225 -11.473  1.00  0.00     0.004 C 
ENDBRANCH  30  32
ENDBRANCH  12  30
ENDBRANCH  10  12
ENDBRANCH   1  10
BRANCH   5  34
ATOM     34  C   UNL     1       1.570 -13.171  -8.284  1.00  0.00     0.242 C 
ATOM     35  O   UNL     1       2.604 -13.807  -8.079  1.00  0.00    -0.273 OA
ATOM     36  N   UNL     1       0.485 -13.233  -7.438  1.00  0.00    -0.354 N 
ATOM     37  H   UNL     1      -0.386 -12.781  -7.722  1.00  0.00     0.163 HD
BRANCH  36  38
ATOM     38  C   UNL     1       0.565 -13.827  -6.120  1.00  0.00     0.116 C 
BRANCH  38  39
ATOM     39  C   UNL     1      -0.799 -14.387  -5.720  1.00  0.00     0.023 C 
BRANCH  39  40
ATOM     40  C   UNL     1      -0.844 -14.824  -4.260  1.00  0.00     0.026 C 
BRANCH  40  41
ATOM     41  C   UNL     1      -2.152 -14.386  -3.602  1.00  0.00     0.146 C 
BRANCH  41  42
ATOM     42  N   UNL     1      -2.559 -13.090  -4.129  1.00  0.00    -0.254 NA
ATOM     43  C   UNL     1      -2.183 -12.019  -3.536  1.00  0.00     0.185 C 
ATOM     44  N   UNL     1      -1.425 -11.860  -2.436  1.00  0.00    -0.370 N 
ATOM     45  N   UNL     1      -2.572 -10.834  -4.035  1.00  0.00    -0.370 N 
ATOM     46  H   UNL     1      -1.413 -10.983  -1.944  1.00  0.00     0.159 HD
ATOM     47  H   UNL     1      -1.035 -12.654  -1.938  1.00  0.00     0.159 HD
ATOM     48  H   UNL     1      -3.139 -10.865  -4.871  1.00  0.00     0.159 HD
ATOM     49  H   UNL     1      -2.135  -9.967  -3.779  1.00  0.00     0.159 HD
ENDBRANCH  41  42
ENDBRANCH  40  41
ENDBRANCH  39  40
ENDBRANCH  38  39
ENDBRANCH  36  38
ENDBRANCH   5  34
BRANCH   8  50
ATOM     50  O   UNL     1       1.274  -9.009  -6.019  1.00  0.00    -0.245 OA
BRANCH  50  51
ATOM     51  S   UNL     1       0.530  -8.993  -4.572  1.00  0.00     0.397 S 
ATOM     52  O   UNL     1       0.799 -10.254  -3.919  1.00  0.00    -0.169 OA
ATOM     53  O   UNL     1      -0.819  -8.489  -4.725  1.00  0.00    -0.169 OA
BRANCH  51  54
ATOM     54  O   UNL     1       1.383  -7.892  -3.769  1.00  0.00    -0.264 OA
ATOM     55  H   UNL     1       1.046  -7.866  -2.850  1.00  0.00     0.236 HD
ENDBRANCH  51  54
ENDBRANCH  50  51
ENDBRANCH   8  50
TORSDOF 19
ENDMDL
MODEL 23
REMARK VINA RESULT:    -6.172     17.791     20.790
REMARK INTER + INTRA:         -15.192
REMARK INTER:                 -10.753
REMARK INTRA:                  -4.439
REMARK UNBOUND:                -2.705
REMARK SMILES CC[C@@H](C)[C@@H](NC(=O)[C@@H](O)Cc1ccc(O)c(Cl)c1)C(=O)N1[C@H](C(=O)NCCCCN=C(N)N)C[C@H]2CC[C@H](OS(=O)(=O)O)C[C@@H]21
REMARK SMILES IDX 22 1 36 2 46 3 35 4 23 5 45 6 37 7 39 8 38 9 20 10 21 11
REMARK SMILES IDX 5 12 6 13 7 14 8 15 9 17 11 18 12 19 17 20 19 21 15 22 14 23
REMARK SMILES IDX 13 24 18 25 16 26 10 28 3 30 4 31 2 32 1 33 24 34 25 35
REMARK SMILES IDX 26 36 27 38 28 39 29 40 30 41 31 42 32 43 33 44 34 45 40 50
REMARK SMILES IDX 41 51 42 52 43 53 44 54
REMARK H PARENT 6 16 16 27 10 29 26 37 33 46 33 47 34 48 34 49 44 55
ROOT
ATOM      1  N   UNL     1      -0.589 -11.328  -5.660  1.00  0.00    -0.326 N 
ATOM      2  C   UNL     1       1.691 -11.503  -5.098  1.00  0.00     0.014 C 
ATOM      3  C   UNL     1       0.546 -12.246  -5.793  1.00  0.00     0.091 C 
ATOM      4  C   UNL     1       0.979 -10.773  -3.969  1.00  0.00     0.041 C 
ATOM      5  C   UNL     1      -0.246 -10.228  -4.726  1.00  0.00     0.175 C 
ATOM      6  C   UNL     1       1.005 -12.633  -7.198  1.00  0.00     0.059 C 
ATOM      7  C   UNL     1       2.831 -12.447  -4.771  1.00  0.00     0.008 C 
ATOM      8  C   UNL     1       2.518 -12.922  -7.301  1.00  0.00     0.143 C 
ATOM      9  C   UNL     1       3.110 -13.394  -5.957  1.00  0.00     0.034 C 
ENDROOT
BRANCH   1  10
ATOM     10  C   UNL     1      -1.900 -11.470  -6.083  1.00  0.00     0.246 C 
ATOM     11  O   UNL     1      -2.807 -11.443  -5.245  1.00  0.00    -0.272 OA
BRANCH  10  12
ATOM     12  C   UNL     1      -2.204 -11.618  -7.601  1.00  0.00     0.174 C 
BRANCH  12  13
ATOM     13  N   UNL     1      -2.212 -10.302  -8.239  1.00  0.00    -0.342 N 
ATOM     14  C   UNL     1      -1.284  -9.862  -9.156  1.00  0.00     0.249 C 
ATOM     15  O   UNL     1      -0.353 -10.545  -9.564  1.00  0.00    -0.272 OA
ATOM     16  H   UNL     1      -2.829  -9.575  -7.885  1.00  0.00     0.164 HD
BRANCH  14  17
ATOM     17  C   UNL     1      -1.555  -8.419  -9.632  1.00  0.00     0.207 C 
BRANCH  17  18
ATOM     18  C   UNL     1      -1.714  -8.379 -11.155  1.00  0.00     0.077 C 
BRANCH  18  19
ATOM     19  C   UNL     1      -2.929  -9.153 -11.614  1.00  0.00    -0.043 A 
ATOM     20  C   UNL     1      -5.294  -9.660 -11.425  1.00  0.00     0.083 A 
ATOM     21  C   UNL     1      -4.184  -8.909 -11.034  1.00  0.00     0.028 A 
ATOM     22  C   UNL     1      -5.158 -10.657 -12.392  1.00  0.00     0.134 A 
ATOM     23  C   UNL     1      -3.921 -10.908 -12.974  1.00  0.00     0.048 A 
ATOM     24  C   UNL     1      -2.808 -10.160 -12.584  1.00  0.00     0.008 A 
ATOM     25  Cl  UNL     1      -6.828  -9.346 -10.701  1.00  0.00    -0.080 Cl
BRANCH  22  26
ATOM     26  O   UNL     1      -6.215 -11.425 -12.799  1.00  0.00    -0.506 OA
ATOM     27  H   UNL     1      -5.855 -12.307 -13.010  1.00  0.00     0.293 HD
ENDBRANCH  22  26
ENDBRANCH  18  19
ENDBRANCH  17  18
BRANCH  17  28
ATOM     28  O   UNL     1      -0.490  -7.537  -9.241  1.00  0.00    -0.383 OA
ATOM     29  H   UNL     1      -0.812  -6.625  -9.423  1.00  0.00     0.211 HD
ENDBRANCH  17  28
ENDBRANCH  14  17
ENDBRANCH  12  13
BRANCH  12  30
ATOM     30  C   UNL     1      -3.506 -12.418  -7.877  1.00  0.00     0.018 C 
ATOM     31  C   UNL     1      -3.298 -13.914  -7.597  1.00  0.00     0.010 C 
BRANCH  30  32
ATOM     32  C   UNL     1      -4.068 -12.217  -9.306  1.00  0.00     0.002 C 
ATOM     33  C   UNL     1      -4.354 -13.498 -10.079  1.00  0.00     0.004 C 
ENDBRANCH  30  32
ENDBRANCH  12  30
ENDBRANCH  10  12
ENDBRANCH   1  10
BRANCH   5  34
ATOM     34  C   UNL     1       0.095  -8.930  -5.505  1.00  0.00     0.242 C 
ATOM     35  O   UNL     1      -0.731  -8.349  -6.208  1.00  0.00    -0.273 OA
ATOM     36  N   UNL     1       1.401  -8.507  -5.396  1.00  0.00    -0.354 N 
ATOM     37  H   UNL     1       2.068  -9.096  -4.897  1.00  0.00     0.163 HD
BRANCH  36  38
ATOM     38  C   UNL     1       1.837  -7.212  -5.875  1.00  0.00     0.116 C 
BRANCH  38  39
ATOM     39  C   UNL     1       2.396  -7.343  -7.290  1.00  0.00     0.023 C 
BRANCH  39  40
ATOM     40  C   UNL     1       3.220  -6.129  -7.706  1.00  0.00     0.026 C 
BRANCH  40  41
ATOM     41  C   UNL     1       3.416  -6.101  -9.222  1.00  0.00     0.146 C 
BRANCH  41  42
ATOM     42  N   UNL     1       2.127  -6.235  -9.888  1.00  0.00    -0.254 NA
ATOM     43  C   UNL     1       1.959  -5.725 -11.050  1.00  0.00     0.185 C 
ATOM     44  N   UNL     1       2.817  -5.038 -11.826  1.00  0.00    -0.370 N 
ATOM     45  N   UNL     1       0.762  -5.855 -11.645  1.00  0.00    -0.370 N 
ATOM     46  H   UNL     1       2.482  -4.489 -12.600  1.00  0.00     0.159 HD
ATOM     47  H   UNL     1       3.773  -4.859 -11.534  1.00  0.00     0.159 HD
ATOM     48  H   UNL     1       0.059  -6.368 -11.131  1.00  0.00     0.159 HD
ATOM     49  H   UNL     1       0.623  -5.699 -12.627  1.00  0.00     0.159 HD
ENDBRANCH  41  42
ENDBRANCH  40  41
ENDBRANCH  39  40
ENDBRANCH  38  39
ENDBRANCH  36  38
ENDBRANCH   5  34
BRANCH   8  50
ATOM     50  O   UNL     1       3.215 -11.746  -7.715  1.00  0.00    -0.245 OA
BRANCH  50  51
ATOM     51  S   UNL     1       3.587 -11.545  -9.285  1.00  0.00     0.397 S 
ATOM     52  O   UNL     1       3.178 -12.734  -9.997  1.00  0.00    -0.169 OA
ATOM     53  O   UNL     1       4.929 -11.013  -9.402  1.00  0.00    -0.169 OA
BRANCH  51  54
ATOM     54  O   UNL     1       2.557 -10.393  -9.729  1.00  0.00    -0.264 OA
ATOM     55  H   UNL     1       1.650 -10.741  -9.609  1.00  0.00     0.236 HD
ENDBRANCH  51  54
ENDBRANCH  50  51
ENDBRANCH   8  50
TORSDOF 19
ENDMDL
MODEL 24
REMARK VINA RESULT:    -6.133      3.252      5.498
REMARK INTER + INTRA:         -15.112
REMARK INTER:                 -12.810
REMARK INTRA:                  -2.302
REMARK UNBOUND:                -2.705
REMARK SMILES CC[C@@H](C)[C@@H](NC(=O)[C@@H](O)Cc1ccc(O)c(Cl)c1)C(=O)N1[C@H](C(=O)NCCCCN=C(N)N)C[C@H]2CC[C@H](OS(=O)(=O)O)C[C@@H]21
REMARK SMILES IDX 22 1 36 2 46 3 35 4 23 5 45 6 37 7 39 8 38 9 20 10 21 11
REMARK SMILES IDX 5 12 6 13 7 14 8 15 9 17 11 18 12 19 17 20 19 21 15 22 14 23
REMARK SMILES IDX 13 24 18 25 16 26 10 28 3 30 4 31 2 32 1 33 24 34 25 35
REMARK SMILES IDX 26 36 27 38 28 39 29 40 30 41 31 42 32 43 33 44 34 45 40 50
REMARK SMILES IDX 41 51 42 52 43 53 44 54
REMARK H PARENT 6 16 16 27 10 29 26 37 33 46 33 47 34 48 34 49 44 55
ROOT
ATOM      1  N   UNL     1      -8.474  -2.252   6.039  1.00  0.00    -0.326 N 
ATOM      2  C   UNL     1      -8.054  -0.045   5.337  1.00  0.00     0.014 C 
ATOM      3  C   UNL     1      -7.430  -1.224   6.088  1.00  0.00     0.091 C 
ATOM      4  C   UNL     1      -9.525  -0.151   5.709  1.00  0.00     0.041 C 
ATOM      5  C   UNL     1      -9.740  -1.666   5.536  1.00  0.00     0.175 C 
ATOM      6  C   UNL     1      -6.075  -1.537   5.456  1.00  0.00     0.059 C 
ATOM      7  C   UNL     1      -7.304   1.241   5.628  1.00  0.00     0.008 C 
ATOM      8  C   UNL     1      -5.356  -0.297   4.881  1.00  0.00     0.143 C 
ATOM      9  C   UNL     1      -5.780   1.001   5.596  1.00  0.00     0.034 C 
ENDROOT
BRANCH   1  10
ATOM     10  C   UNL     1      -8.486  -3.531   6.570  1.00  0.00     0.246 C 
ATOM     11  O   UNL     1      -7.587  -4.319   6.259  1.00  0.00    -0.272 OA
BRANCH  10  12
ATOM     12  C   UNL     1      -9.603  -3.932   7.577  1.00  0.00     0.174 C 
BRANCH  12  13
ATOM     13  N   UNL     1      -9.169  -3.644   8.944  1.00  0.00    -0.342 N 
ATOM     14  C   UNL     1      -9.352  -2.444   9.594  1.00  0.00     0.249 C 
ATOM     15  O   UNL     1      -9.931  -1.483   9.103  1.00  0.00    -0.272 OA
ATOM     16  H   UNL     1      -8.541  -4.287   9.419  1.00  0.00     0.164 HD
BRANCH  14  17
ATOM     17  C   UNL     1      -8.767  -2.446  11.023  1.00  0.00     0.207 C 
BRANCH  17  18
ATOM     18  C   UNL     1      -9.408  -1.339  11.865  1.00  0.00     0.077 C 
BRANCH  18  19
ATOM     19  C   UNL     1      -8.678  -1.135  13.174  1.00  0.00    -0.043 A 
ATOM     20  C   UNL     1      -7.349   0.263  14.645  1.00  0.00     0.083 A 
ATOM     21  C   UNL     1      -8.064   0.095  13.458  1.00  0.00     0.028 A 
ATOM     22  C   UNL     1      -7.243  -0.792  15.552  1.00  0.00     0.134 A 
ATOM     23  C   UNL     1      -7.847  -2.015  15.283  1.00  0.00     0.048 A 
ATOM     24  C   UNL     1      -8.561  -2.187  14.095  1.00  0.00     0.008 A 
ATOM     25  Cl  UNL     1      -6.600   1.781  14.976  1.00  0.00    -0.080 Cl
BRANCH  22  26
ATOM     26  O   UNL     1      -6.544  -0.678  16.723  1.00  0.00    -0.506 OA
ATOM     27  H   UNL     1      -5.668  -0.318  16.493  1.00  0.00     0.293 HD
ENDBRANCH  22  26
ENDBRANCH  18  19
ENDBRANCH  17  18
BRANCH  17  28
ATOM     28  O   UNL     1      -7.343  -2.263  10.998  1.00  0.00    -0.383 OA
ATOM     29  H   UNL     1      -7.040  -2.363  11.929  1.00  0.00     0.211 HD
ENDBRANCH  17  28
ENDBRANCH  14  17
ENDBRANCH  12  13
BRANCH  12  30
ATOM     30  C   UNL     1     -10.068  -5.403   7.401  1.00  0.00     0.018 C 
ATOM     31  C   UNL     1     -11.064  -5.525   6.237  1.00  0.00     0.010 C 
BRANCH  30  32
ATOM     32  C   UNL     1     -10.673  -6.021   8.685  1.00  0.00     0.002 C 
ATOM     33  C   UNL     1     -12.174  -5.829   8.856  1.00  0.00     0.004 C 
ENDBRANCH  30  32
ENDBRANCH  12  30
ENDBRANCH  10  12
ENDBRANCH   1  10
BRANCH   5  34
ATOM     34  C   UNL     1      -9.969  -2.045   4.048  1.00  0.00     0.242 C 
ATOM     35  O   UNL     1     -10.264  -3.187   3.698  1.00  0.00    -0.273 OA
ATOM     36  N   UNL     1      -9.765  -1.025   3.146  1.00  0.00    -0.354 N 
ATOM     37  H   UNL     1      -9.404  -0.133   3.486  1.00  0.00     0.163 HD
BRANCH  36  38
ATOM     38  C   UNL     1     -10.138  -1.140   1.751  1.00  0.00     0.116 C 
BRANCH  38  39
ATOM     39  C   UNL     1      -8.884  -1.209   0.883  1.00  0.00     0.023 C 
BRANCH  39  40
ATOM     40  C   UNL     1      -7.792  -2.074   1.504  1.00  0.00     0.026 C 
BRANCH  40  41
ATOM     41  C   UNL     1      -6.678  -2.347   0.494  1.00  0.00     0.146 C 
BRANCH  41  42
ATOM     42  N   UNL     1      -5.804  -3.399   0.999  1.00  0.00    -0.254 NA
ATOM     43  C   UNL     1      -4.728  -3.685   0.366  1.00  0.00     0.185 C 
ATOM     44  N   UNL     1      -4.219  -3.155  -0.760  1.00  0.00    -0.370 N 
ATOM     45  N   UNL     1      -3.939  -4.661   0.845  1.00  0.00    -0.370 N 
ATOM     46  H   UNL     1      -3.502  -3.636  -1.275  1.00  0.00     0.159 HD
ATOM     47  H   UNL     1      -4.683  -2.395  -1.248  1.00  0.00     0.159 HD
ATOM     48  H   UNL     1      -4.246  -5.108   1.698  1.00  0.00     0.159 HD
ATOM     49  H   UNL     1      -2.985  -4.781   0.553  1.00  0.00     0.159 HD
ENDBRANCH  41  42
ENDBRANCH  40  41
ENDBRANCH  39  40
ENDBRANCH  38  39
ENDBRANCH  36  38
ENDBRANCH   5  34
BRANCH   8  50
ATOM     50  O   UNL     1      -5.645  -0.164   3.489  1.00  0.00    -0.245 OA
BRANCH  50  51
ATOM     51  S   UNL     1      -4.434   0.120   2.441  1.00  0.00     0.397 S 
ATOM     52  O   UNL     1      -3.450   0.942   3.108  1.00  0.00    -0.169 OA
ATOM     53  O   UNL     1      -4.983   0.486   1.152  1.00  0.00    -0.169 OA
BRANCH  51  54
ATOM     54  O   UNL     1      -3.766  -1.336   2.299  1.00  0.00    -0.264 OA
ATOM     55  H   UNL     1      -2.911  -1.228   1.834  1.00  0.00     0.236 HD
ENDBRANCH  51  54
ENDBRANCH  50  51
ENDBRANCH   8  50
TORSDOF 19
ENDMDL
MODEL 25
REMARK VINA RESULT:    -6.091      9.746     15.295
REMARK INTER + INTRA:         -15.028
REMARK INTER:                 -11.298
REMARK INTRA:                  -3.730
REMARK UNBOUND:                -2.705
REMARK SMILES CC[C@@H](C)[C@@H](NC(=O)[C@@H](O)Cc1ccc(O)c(Cl)c1)C(=O)N1[C@H](C(=O)NCCCCN=C(N)N)C[C@H]2CC[C@H](OS(=O)(=O)O)C[C@@H]21
REMARK SMILES IDX 22 1 36 2 46 3 35 4 23 5 45 6 37 7 39 8 38 9 20 10 21 11
REMARK SMILES IDX 5 12 6 13 7 14 8 15 9 17 11 18 12 19 17 20 19 21 15 22 14 23
REMARK SMILES IDX 13 24 18 25 16 26 10 28 3 30 4 31 2 32 1 33 24 34 25 35
REMARK SMILES IDX 26 36 27 38 28 39 29 40 30 41 31 42 32 43 33 44 34 45 40 50
REMARK SMILES IDX 41 51 42 52 43 53 44 54
REMARK H PARENT 6 16 16 27 10 29 26 37 33 46 33 47 34 48 34 49 44 55
ROOT
ATOM      1  N   UNL     1      -4.935   2.841  -3.114  1.00  0.00    -0.326 N 
ATOM      2  C   UNL     1      -2.619   2.540  -2.815  1.00  0.00     0.014 C 
ATOM      3  C   UNL     1      -3.720   3.605  -2.815  1.00  0.00     0.091 C 
ATOM      4  C   UNL     1      -3.086   1.576  -3.895  1.00  0.00     0.041 C 
ATOM      5  C   UNL     1      -4.579   1.463  -3.532  1.00  0.00     0.175 C 
ATOM      6  C   UNL     1      -3.651   4.370  -1.495  1.00  0.00     0.059 C 
ATOM      7  C   UNL     1      -1.248   3.177  -2.931  1.00  0.00     0.008 C 
ATOM      8  C   UNL     1      -2.224   4.487  -0.918  1.00  0.00     0.143 C 
ATOM      9  C   UNL     1      -1.147   4.418  -2.019  1.00  0.00     0.034 C 
ENDROOT
BRANCH   1  10
ATOM     10  C   UNL     1      -6.241   3.275  -3.261  1.00  0.00     0.246 C 
ATOM     11  O   UNL     1      -7.151   2.638  -2.719  1.00  0.00    -0.272 OA
BRANCH  10  12
ATOM     12  C   UNL     1      -6.533   4.574  -4.067  1.00  0.00     0.174 C 
BRANCH  12  13
ATOM     13  N   UNL     1      -5.526   4.747  -5.114  1.00  0.00    -0.342 N 
ATOM     14  C   UNL     1      -5.724   4.486  -6.452  1.00  0.00     0.249 C 
ATOM     15  O   UNL     1      -6.788   4.101  -6.921  1.00  0.00    -0.272 OA
ATOM     16  H   UNL     1      -4.556   4.909  -4.858  1.00  0.00     0.164 HD
BRANCH  14  17
ATOM     17  C   UNL     1      -4.464   4.752  -7.303  1.00  0.00     0.207 C 
BRANCH  17  18
ATOM     18  C   UNL     1      -3.373   5.411  -6.454  1.00  0.00     0.077 C 
BRANCH  18  19
ATOM     19  C   UNL     1      -2.063   4.661  -6.540  1.00  0.00    -0.043 A 
ATOM     20  C   UNL     1      -0.841   2.568  -6.630  1.00  0.00     0.083 A 
ATOM     21  C   UNL     1      -2.053   3.259  -6.600  1.00  0.00     0.028 A 
ATOM     22  C   UNL     1       0.364   3.270  -6.599  1.00  0.00     0.134 A 
ATOM     23  C   UNL     1       0.369   4.659  -6.540  1.00  0.00     0.048 A 
ATOM     24  C   UNL     1      -0.843   5.353  -6.508  1.00  0.00     0.008 A 
ATOM     25  Cl  UNL     1      -0.849   0.845  -6.702  1.00  0.00    -0.080 Cl
BRANCH  22  26
ATOM     26  O   UNL     1       1.577   2.636  -6.616  1.00  0.00    -0.506 OA
ATOM     27  H   UNL     1       1.418   1.719  -6.324  1.00  0.00     0.293 HD
ENDBRANCH  22  26
ENDBRANCH  18  19
ENDBRANCH  17  18
BRANCH  17  28
ATOM     28  O   UNL     1      -4.767   5.593  -8.427  1.00  0.00    -0.383 OA
ATOM     29  H   UNL     1      -5.749   5.613  -8.495  1.00  0.00     0.211 HD
ENDBRANCH  17  28
ENDBRANCH  14  17
ENDBRANCH  12  13
BRANCH  12  30
ATOM     30  C   UNL     1      -6.665   5.826  -3.159  1.00  0.00     0.018 C 
ATOM     31  C   UNL     1      -8.136   6.090  -2.803  1.00  0.00     0.010 C 
BRANCH  30  32
ATOM     32  C   UNL     1      -6.026   7.101  -3.762  1.00  0.00     0.002 C 
ATOM     33  C   UNL     1      -6.930   7.907  -4.686  1.00  0.00     0.004 C 
ENDBRANCH  30  32
ENDBRANCH  12  30
ENDBRANCH  10  12
ENDBRANCH   1  10
BRANCH   5  34
ATOM     34  C   UNL     1      -4.811   0.459  -2.371  1.00  0.00     0.242 C 
ATOM     35  O   UNL     1      -4.614  -0.749  -2.497  1.00  0.00    -0.273 OA
ATOM     36  N   UNL     1      -5.303   1.011  -1.209  1.00  0.00    -0.354 N 
ATOM     37  H   UNL     1      -5.559   1.999  -1.204  1.00  0.00     0.163 HD
BRANCH  36  38
ATOM     38  C   UNL     1      -5.374   0.266   0.031  1.00  0.00     0.116 C 
BRANCH  38  39
ATOM     39  C   UNL     1      -6.826  -0.093   0.338  1.00  0.00     0.023 C 
BRANCH  39  40
ATOM     40  C   UNL     1      -6.947  -1.345   1.200  1.00  0.00     0.026 C 
BRANCH  40  41
ATOM     41  C   UNL     1      -6.968  -2.602   0.330  1.00  0.00     0.146 C 
BRANCH  41  42
ATOM     42  N   UNL     1      -6.068  -3.602   0.888  1.00  0.00    -0.254 NA
ATOM     43  C   UNL     1      -4.889  -3.731   0.406  1.00  0.00     0.185 C 
ATOM     44  N   UNL     1      -4.284  -3.063  -0.593  1.00  0.00    -0.370 N 
ATOM     45  N   UNL     1      -4.076  -4.662   0.932  1.00  0.00    -0.370 N 
ATOM     46  H   UNL     1      -3.453  -3.429  -1.025  1.00  0.00     0.159 HD
ATOM     47  H   UNL     1      -4.752  -2.313  -1.092  1.00  0.00     0.159 HD
ATOM     48  H   UNL     1      -4.452  -5.206   1.697  1.00  0.00     0.159 HD
ATOM     49  H   UNL     1      -3.083  -4.666   0.779  1.00  0.00     0.159 HD
ENDBRANCH  41  42
ENDBRANCH  40  41
ENDBRANCH  39  40
ENDBRANCH  38  39
ENDBRANCH  36  38
ENDBRANCH   5  34
BRANCH   8  50
ATOM     50  O   UNL     1      -1.985   3.435   0.017  1.00  0.00    -0.245 OA
BRANCH  50  51
ATOM     51  S   UNL     1      -2.000   3.759   1.611  1.00  0.00     0.397 S 
ATOM     52  O   UNL     1      -3.302   4.288   1.947  1.00  0.00    -0.169 OA
ATOM     53  O   UNL     1      -0.781   4.449   1.978  1.00  0.00    -0.169 OA
BRANCH  51  54
ATOM     54  O   UNL     1      -1.947   2.285   2.253  1.00  0.00    -0.264 OA
ATOM     55  H   UNL     1      -1.080   2.183   2.695  1.00  0.00     0.236 HD
ENDBRANCH  51  54
ENDBRANCH  50  51
ENDBRANCH   8  50
TORSDOF 19
ENDMDL
MODEL 26
REMARK VINA RESULT:    -6.086     13.007     18.743
REMARK INTER + INTRA:         -15.018
REMARK INTER:                 -12.953
REMARK INTRA:                  -2.065
REMARK UNBOUND:                -2.705
REMARK SMILES CC[C@@H](C)[C@@H](NC(=O)[C@@H](O)Cc1ccc(O)c(Cl)c1)C(=O)N1[C@H](C(=O)NCCCCN=C(N)N)C[C@H]2CC[C@H](OS(=O)(=O)O)C[C@@H]21
REMARK SMILES IDX 22 1 36 2 46 3 35 4 23 5 45 6 37 7 39 8 38 9 20 10 21 11
REMARK SMILES IDX 5 12 6 13 7 14 8 15 9 17 11 18 12 19 17 20 19 21 15 22 14 23
REMARK SMILES IDX 13 24 18 25 16 26 10 28 3 30 4 31 2 32 1 33 24 34 25 35
REMARK SMILES IDX 26 36 27 38 28 39 29 40 30 41 31 42 32 43 33 44 34 45 40 50
REMARK SMILES IDX 41 51 42 52 43 53 44 54
REMARK H PARENT 6 16 16 27 10 29 26 37 33 46 33 47 34 48 34 49 44 55
ROOT
ATOM      1  N   UNL     1      -3.891   4.220  -5.872  1.00  0.00    -0.326 N 
ATOM      2  C   UNL     1      -3.198   2.254  -4.778  1.00  0.00     0.014 C 
ATOM      3  C   UNL     1      -2.683   3.580  -5.344  1.00  0.00     0.091 C 
ATOM      4  C   UNL     1      -4.315   1.889  -5.744  1.00  0.00     0.041 C 
ATOM      5  C   UNL     1      -5.017   3.253  -5.876  1.00  0.00     0.175 C 
ATOM      6  C   UNL     1      -1.901   4.302  -4.248  1.00  0.00     0.059 C 
ATOM      7  C   UNL     1      -2.058   1.279  -4.558  1.00  0.00     0.008 C 
ATOM      8  C   UNL     1      -1.180   3.350  -3.269  1.00  0.00     0.143 C 
ATOM      9  C   UNL     1      -0.847   1.993  -3.921  1.00  0.00     0.034 C 
ENDROOT
BRANCH   1  10
ATOM     10  C   UNL     1      -4.042   5.433  -6.521  1.00  0.00     0.246 C 
ATOM     11  O   UNL     1      -4.199   6.458  -5.849  1.00  0.00    -0.272 OA
BRANCH  10  12
ATOM     12  C   UNL     1      -3.969   5.488  -8.074  1.00  0.00     0.174 C 
BRANCH  12  13
ATOM     13  N   UNL     1      -2.640   5.930  -8.495  1.00  0.00    -0.342 N 
ATOM     14  C   UNL     1      -1.565   5.099  -8.718  1.00  0.00     0.249 C 
ATOM     15  O   UNL     1      -1.611   3.880  -8.614  1.00  0.00    -0.272 OA
ATOM     16  H   UNL     1      -2.407   6.920  -8.471  1.00  0.00     0.164 HD
BRANCH  14  17
ATOM     17  C   UNL     1      -0.294   5.870  -9.136  1.00  0.00     0.207 C 
BRANCH  17  18
ATOM     18  C   UNL     1       0.689   4.935  -9.849  1.00  0.00     0.077 C 
BRANCH  18  19
ATOM     19  C   UNL     1       1.993   5.630 -10.170  1.00  0.00    -0.043 A 
ATOM     20  C   UNL     1       3.229   7.322 -11.391  1.00  0.00     0.083 A 
ATOM     21  C   UNL     1       2.017   6.715 -11.059  1.00  0.00     0.028 A 
ATOM     22  C   UNL     1       4.421   6.850 -10.840  1.00  0.00     0.134 A 
ATOM     23  C   UNL     1       4.411   5.775  -9.958  1.00  0.00     0.048 A 
ATOM     24  C   UNL     1       3.200   5.165  -9.625  1.00  0.00     0.008 A 
ATOM     25  Cl  UNL     1       3.239   8.655 -12.485  1.00  0.00    -0.080 Cl
BRANCH  22  26
ATOM     26  O   UNL     1       5.634   7.406 -11.143  1.00  0.00    -0.506 OA
ATOM     27  H   UNL     1       6.161   7.393 -10.323  1.00  0.00     0.293 HD
ENDBRANCH  22  26
ENDBRANCH  18  19
ENDBRANCH  17  18
BRANCH  17  28
ATOM     28  O   UNL     1       0.352   6.460  -7.997  1.00  0.00    -0.383 OA
ATOM     29  H   UNL     1       0.256   5.811  -7.263  1.00  0.00     0.211 HD
ENDBRANCH  17  28
ENDBRANCH  14  17
ENDBRANCH  12  13
BRANCH  12  30
ATOM     30  C   UNL     1      -5.103   6.344  -8.699  1.00  0.00     0.018 C 
ATOM     31  C   UNL     1      -6.299   5.462  -9.093  1.00  0.00     0.010 C 
BRANCH  30  32
ATOM     32  C   UNL     1      -4.647   7.192  -9.911  1.00  0.00     0.002 C 
ATOM     33  C   UNL     1      -4.721   8.701  -9.714  1.00  0.00     0.004 C 
ENDBRANCH  30  32
ENDBRANCH  12  30
ENDBRANCH  10  12
ENDBRANCH   1  10
BRANCH   5  34
ATOM     34  C   UNL     1      -5.976   3.520  -4.685  1.00  0.00     0.242 C 
ATOM     35  O   UNL     1      -6.722   4.499  -4.648  1.00  0.00    -0.273 OA
ATOM     36  N   UNL     1      -5.891   2.616  -3.650  1.00  0.00    -0.354 N 
ATOM     37  H   UNL     1      -5.169   1.895  -3.686  1.00  0.00     0.163 HD
BRANCH  36  38
ATOM     38  C   UNL     1      -6.853   2.587  -2.568  1.00  0.00     0.116 C 
BRANCH  38  39
ATOM     39  C   UNL     1      -6.124   2.488  -1.230  1.00  0.00     0.023 C 
BRANCH  39  40
ATOM     40  C   UNL     1      -5.359   1.178  -1.078  1.00  0.00     0.026 C 
BRANCH  40  41
ATOM     41  C   UNL     1      -6.058   0.255  -0.079  1.00  0.00     0.146 C 
BRANCH  41  42
ATOM     42  N   UNL     1      -5.098  -0.693   0.470  1.00  0.00    -0.254 NA
ATOM     43  C   UNL     1      -5.320  -1.950   0.368  1.00  0.00     0.185 C 
ATOM     44  N   UNL     1      -6.354  -2.603  -0.194  1.00  0.00    -0.370 N 
ATOM     45  N   UNL     1      -4.425  -2.808   0.885  1.00  0.00    -0.370 N 
ATOM     46  H   UNL     1      -6.520  -3.573   0.013  1.00  0.00     0.159 HD
ATOM     47  H   UNL     1      -7.116  -2.107  -0.644  1.00  0.00     0.159 HD
ATOM     48  H   UNL     1      -3.610  -2.397   1.320  1.00  0.00     0.159 HD
ATOM     49  H   UNL     1      -4.404  -3.783   0.644  1.00  0.00     0.159 HD
ENDBRANCH  41  42
ENDBRANCH  40  41
ENDBRANCH  39  40
ENDBRANCH  38  39
ENDBRANCH  36  38
ENDBRANCH   5  34
BRANCH   8  50
ATOM     50  O   UNL     1      -1.999   3.114  -2.123  1.00  0.00    -0.245 OA
BRANCH  50  51
ATOM     51  S   UNL     1      -1.975   4.172  -0.888  1.00  0.00     0.397 S 
ATOM     52  O   UNL     1      -3.079   5.090  -1.066  1.00  0.00    -0.169 OA
ATOM     53  O   UNL     1      -0.622   4.643  -0.677  1.00  0.00    -0.169 OA
BRANCH  51  54
ATOM     54  O   UNL     1      -2.377   3.241   0.359  1.00  0.00    -0.264 OA
ATOM     55  H   UNL     1      -3.292   2.926   0.214  1.00  0.00     0.236 HD
ENDBRANCH  51  54
ENDBRANCH  50  51
ENDBRANCH   8  50
TORSDOF 19
ENDMDL
MODEL 27
REMARK VINA RESULT:    -6.084     15.886     20.471
REMARK INTER + INTRA:         -15.014
REMARK INTER:                 -11.216
REMARK INTRA:                  -3.798
REMARK UNBOUND:                -2.705
REMARK SMILES CC[C@@H](C)[C@@H](NC(=O)[C@@H](O)Cc1ccc(O)c(Cl)c1)C(=O)N1[C@H](C(=O)NCCCCN=C(N)N)C[C@H]2CC[C@H](OS(=O)(=O)O)C[C@@H]21
REMARK SMILES IDX 22 1 36 2 46 3 35 4 23 5 45 6 37 7 39 8 38 9 20 10 21 11
REMARK SMILES IDX 5 12 6 13 7 14 8 15 9 17 11 18 12 19 17 20 19 21 15 22 14 23
REMARK SMILES IDX 13 24 18 25 16 26 10 28 3 30 4 31 2 32 1 33 24 34 25 35
REMARK SMILES IDX 26 36 27 38 28 39 29 40 30 41 31 42 32 43 33 44 34 45 40 50
REMARK SMILES IDX 41 51 42 52 43 53 44 54
REMARK H PARENT 6 16 16 27 10 29 26 37 33 46 33 47 34 48 34 49 44 55
ROOT
ATOM      1  N   UNL     1       0.760   4.855  -8.460  1.00  0.00    -0.326 N 
ATOM      2  C   UNL     1       3.089   4.919  -8.126  1.00  0.00     0.014 C 
ATOM      3  C   UNL     1       2.008   5.058  -9.201  1.00  0.00     0.091 C 
ATOM      4  C   UNL     1       2.508   3.861  -7.201  1.00  0.00     0.041 C 
ATOM      5  C   UNL     1       1.056   4.363  -7.091  1.00  0.00     0.175 C 
ATOM      6  C   UNL     1       2.213   6.388  -9.923  1.00  0.00     0.059 C 
ATOM      7  C   UNL     1       4.451   4.691  -8.753  1.00  0.00     0.008 C 
ATOM      8  C   UNL     1       3.691   6.827 -10.009  1.00  0.00     0.143 C 
ATOM      9  C   UNL     1       4.656   5.625  -9.963  1.00  0.00     0.034 C 
ENDROOT
BRANCH   1  10
ATOM     10  C   UNL     1      -0.549   4.848  -8.910  1.00  0.00     0.246 C 
ATOM     11  O   UNL     1      -0.828   4.220  -9.937  1.00  0.00    -0.272 OA
BRANCH  10  12
ATOM     12  C   UNL     1      -1.645   5.592  -8.094  1.00  0.00     0.174 C 
BRANCH  12  13
ATOM     13  N   UNL     1      -2.688   4.652  -7.684  1.00  0.00    -0.342 N 
ATOM     14  C   UNL     1      -3.183   4.529  -6.405  1.00  0.00     0.249 C 
ATOM     15  O   UNL     1      -2.820   5.223  -5.464  1.00  0.00    -0.272 OA
ATOM     16  H   UNL     1      -2.972   3.909  -8.317  1.00  0.00     0.164 HD
BRANCH  14  17
ATOM     17  C   UNL     1      -4.265   3.434  -6.288  1.00  0.00     0.207 C 
BRANCH  17  18
ATOM     18  C   UNL     1      -5.477   3.960  -5.514  1.00  0.00     0.077 C 
BRANCH  18  19
ATOM     19  C   UNL     1      -6.250   4.988  -6.309  1.00  0.00    -0.043 A 
ATOM     20  C   UNL     1      -7.482   5.613  -8.303  1.00  0.00     0.083 A 
ATOM     21  C   UNL     1      -6.812   4.648  -7.549  1.00  0.00     0.028 A 
ATOM     22  C   UNL     1      -7.592   6.919  -7.826  1.00  0.00     0.134 A 
ATOM     23  C   UNL     1      -7.040   7.270  -6.600  1.00  0.00     0.048 A 
ATOM     24  C   UNL     1      -6.367   6.307  -5.843  1.00  0.00     0.008 A 
ATOM     25  Cl  UNL     1      -8.166   5.176  -9.824  1.00  0.00    -0.080 Cl
BRANCH  22  26
ATOM     26  O   UNL     1      -8.230   7.901  -8.534  1.00  0.00    -0.506 OA
ATOM     27  H   UNL     1      -8.995   8.181  -7.998  1.00  0.00     0.293 HD
ENDBRANCH  22  26
ENDBRANCH  18  19
ENDBRANCH  17  18
BRANCH  17  28
ATOM     28  O   UNL     1      -3.749   2.266  -5.630  1.00  0.00    -0.383 OA
ATOM     29  H   UNL     1      -4.368   2.075  -4.890  1.00  0.00     0.211 HD
ENDBRANCH  17  28
ENDBRANCH  14  17
ENDBRANCH  12  13
BRANCH  12  30
ATOM     30  C   UNL     1      -2.220   6.823  -8.845  1.00  0.00     0.018 C 
ATOM     31  C   UNL     1      -1.543   8.119  -8.371  1.00  0.00     0.010 C 
BRANCH  30  32
ATOM     32  C   UNL     1      -3.759   6.956  -8.735  1.00  0.00     0.002 C 
ATOM     33  C   UNL     1      -4.520   6.819 -10.047  1.00  0.00     0.004 C 
ENDBRANCH  30  32
ENDBRANCH  12  30
ENDBRANCH  10  12
ENDBRANCH   1  10
BRANCH   5  34
ATOM     34  C   UNL     1       0.924   5.510  -6.054  1.00  0.00     0.242 C 
ATOM     35  O   UNL     1       1.233   6.672  -6.316  1.00  0.00    -0.273 OA
ATOM     36  N   UNL     1       0.488   5.124  -4.806  1.00  0.00    -0.354 N 
ATOM     37  H   UNL     1       0.363   4.129  -4.616  1.00  0.00     0.163 HD
BRANCH  36  38
ATOM     38  C   UNL     1       0.105   6.082  -3.790  1.00  0.00     0.116 C 
BRANCH  38  39
ATOM     39  C   UNL     1      -0.388   5.349  -2.545  1.00  0.00     0.023 C 
BRANCH  39  40
ATOM     40  C   UNL     1      -0.067   3.858  -2.582  1.00  0.00     0.026 C 
BRANCH  40  41
ATOM     41  C   UNL     1      -1.277   3.055  -3.061  1.00  0.00     0.146 C 
BRANCH  41  42
ATOM     42  N   UNL     1      -1.126   2.732  -4.473  1.00  0.00    -0.254 NA
ATOM     43  C   UNL     1      -0.780   1.548  -4.818  1.00  0.00     0.185 C 
ATOM     44  N   UNL     1      -0.512   0.469  -4.060  1.00  0.00    -0.370 N 
ATOM     45  N   UNL     1      -0.642   1.271  -6.125  1.00  0.00    -0.370 N 
ATOM     46  H   UNL     1      -0.019  -0.318  -4.445  1.00  0.00     0.159 HD
ATOM     47  H   UNL     1      -0.581   0.499  -3.047  1.00  0.00     0.159 HD
ATOM     48  H   UNL     1      -0.834   2.028  -6.767  1.00  0.00     0.159 HD
ATOM     49  H   UNL     1      -0.610   0.333  -6.482  1.00  0.00     0.159 HD
ENDBRANCH  41  42
ENDBRANCH  40  41
ENDBRANCH  39  40
ENDBRANCH  38  39
ENDBRANCH  36  38
ENDBRANCH   5  34
BRANCH   8  50
ATOM     50  O   UNL     1       4.005   7.702  -8.925  1.00  0.00    -0.245 OA
BRANCH  50  51
ATOM     51  S   UNL     1       5.346   8.620  -8.998  1.00  0.00     0.397 S 
ATOM     52  O   UNL     1       5.593   8.941 -10.385  1.00  0.00    -0.169 OA
ATOM     53  O   UNL     1       6.375   8.044  -8.156  1.00  0.00    -0.169 OA
BRANCH  51  54
ATOM     54  O   UNL     1       4.854   9.989  -8.312  1.00  0.00    -0.264 OA
ATOM     55  H   UNL     1       5.013   9.915  -7.349  1.00  0.00     0.236 HD
ENDBRANCH  51  54
ENDBRANCH  50  51
ENDBRANCH   8  50
TORSDOF 19
ENDMDL
MODEL 28
REMARK VINA RESULT:    -6.081      4.123      7.054
REMARK INTER + INTRA:         -15.007
REMARK INTER:                 -10.616
REMARK INTRA:                  -4.391
REMARK UNBOUND:                -2.705
REMARK SMILES CC[C@@H](C)[C@@H](NC(=O)[C@@H](O)Cc1ccc(O)c(Cl)c1)C(=O)N1[C@H](C(=O)NCCCCN=C(N)N)C[C@H]2CC[C@H](OS(=O)(=O)O)C[C@@H]21
REMARK SMILES IDX 22 1 36 2 46 3 35 4 23 5 45 6 37 7 39 8 38 9 20 10 21 11
REMARK SMILES IDX 5 12 6 13 7 14 8 15 9 17 11 18 12 19 17 20 19 21 15 22 14 23
REMARK SMILES IDX 13 24 18 25 16 26 10 28 3 30 4 31 2 32 1 33 24 34 25 35
REMARK SMILES IDX 26 36 27 38 28 39 29 40 30 41 31 42 32 43 33 44 34 45 40 50
REMARK SMILES IDX 41 51 42 52 43 53 44 54
REMARK H PARENT 6 16 16 27 10 29 26 37 33 46 33 47 34 48 34 49 44 55
ROOT
ATOM      1  N   UNL     1      -9.907  -2.025   2.671  1.00  0.00    -0.326 N 
ATOM      2  C   UNL     1      -9.051  -1.034   4.627  1.00  0.00     0.014 C 
ATOM      3  C   UNL     1      -8.876  -2.234   3.692  1.00  0.00     0.091 C 
ATOM      4  C   UNL     1     -10.554  -0.803   4.598  1.00  0.00     0.041 C 
ATOM      5  C   UNL     1     -10.820  -0.933   3.087  1.00  0.00     0.175 C 
ATOM      6  C   UNL     1      -7.416  -2.291   3.247  1.00  0.00     0.059 C 
ATOM      7  C   UNL     1      -8.362  -1.277   5.956  1.00  0.00     0.008 C 
ATOM      8  C   UNL     1      -6.423  -1.767   4.307  1.00  0.00     0.143 C 
ATOM      9  C   UNL     1      -6.973  -1.914   5.740  1.00  0.00     0.034 C 
ENDROOT
BRANCH   1  10
ATOM     10  C   UNL     1     -10.238  -2.801   1.573  1.00  0.00     0.246 C 
ATOM     11  O   UNL     1      -9.592  -2.672   0.528  1.00  0.00    -0.272 OA
BRANCH  10  12
ATOM     12  C   UNL     1     -11.385  -3.847   1.691  1.00  0.00     0.174 C 
BRANCH  12  13
ATOM     13  N   UNL     1     -11.398  -4.423   3.036  1.00  0.00    -0.342 N 
ATOM     14  C   UNL     1     -12.393  -4.230   3.968  1.00  0.00     0.249 C 
ATOM     15  O   UNL     1     -13.403  -3.569   3.762  1.00  0.00    -0.272 OA
ATOM     16  H   UNL     1     -10.559  -4.863   3.403  1.00  0.00     0.164 HD
BRANCH  14  17
ATOM     17  C   UNL     1     -12.109  -4.957   5.300  1.00  0.00     0.207 C 
BRANCH  17  18
ATOM     18  C   UNL     1     -10.604  -4.990   5.582  1.00  0.00     0.077 C 
BRANCH  18  19
ATOM     19  C   UNL     1     -10.258  -4.287   6.875  1.00  0.00    -0.043 A 
ATOM     20  C   UNL     1     -10.764  -2.618   8.561  1.00  0.00     0.083 A 
ATOM     21  C   UNL     1     -11.110  -3.300   7.394  1.00  0.00     0.028 A 
ATOM     22  C   UNL     1      -9.567  -2.915   9.214  1.00  0.00     0.134 A 
ATOM     23  C   UNL     1      -8.713  -3.890   8.711  1.00  0.00     0.048 A 
ATOM     24  C   UNL     1      -9.057  -4.573   7.542  1.00  0.00     0.008 A 
ATOM     25  Cl  UNL     1     -11.824  -1.409   9.183  1.00  0.00    -0.080 Cl
BRANCH  22  26
ATOM     26  O   UNL     1      -9.179  -2.266  10.355  1.00  0.00    -0.506 OA
ATOM     27  H   UNL     1      -9.624  -1.398  10.348  1.00  0.00     0.293 HD
ENDBRANCH  22  26
ENDBRANCH  18  19
ENDBRANCH  17  18
BRANCH  17  28
ATOM     28  O   UNL     1     -12.620  -6.299   5.276  1.00  0.00    -0.383 OA
ATOM     29  H   UNL     1     -12.530  -6.608   4.346  1.00  0.00     0.211 HD
ENDBRANCH  17  28
ENDBRANCH  14  17
ENDBRANCH  12  13
BRANCH  12  30
ATOM     30  C   UNL     1     -11.325  -4.932   0.583  1.00  0.00     0.018 C 
ATOM     31  C   UNL     1     -12.272  -4.582  -0.576  1.00  0.00     0.010 C 
BRANCH  30  32
ATOM     32  C   UNL     1     -11.618  -6.362   1.096  1.00  0.00     0.002 C 
ATOM     33  C   UNL     1     -12.406  -7.248   0.140  1.00  0.00     0.004 C 
ENDBRANCH  30  32
ENDBRANCH  12  30
ENDBRANCH  10  12
ENDBRANCH   1  10
BRANCH   5  34
ATOM     34  C   UNL     1     -10.486   0.381   2.332  1.00  0.00     0.242 C 
ATOM     35  O   UNL     1     -11.056   1.444   2.578  1.00  0.00    -0.273 OA
ATOM     36  N   UNL     1      -9.547   0.260   1.333  1.00  0.00    -0.354 N 
ATOM     37  H   UNL     1      -9.199  -0.670   1.096  1.00  0.00     0.163 HD
BRANCH  36  38
ATOM     38  C   UNL     1      -8.962   1.412   0.678  1.00  0.00     0.116 C 
BRANCH  38  39
ATOM     39  C   UNL     1      -7.728   0.986  -0.114  1.00  0.00     0.023 C 
BRANCH  39  40
ATOM     40  C   UNL     1      -6.681   0.305   0.760  1.00  0.00     0.026 C 
BRANCH  40  41
ATOM     41  C   UNL     1      -5.617  -0.377  -0.100  1.00  0.00     0.146 C 
BRANCH  41  42
ATOM     42  N   UNL     1      -5.233  -1.646   0.505  1.00  0.00    -0.254 NA
ATOM     43  C   UNL     1      -4.687  -2.551  -0.216  1.00  0.00     0.185 C 
ATOM     44  N   UNL     1      -4.377  -2.545  -1.526  1.00  0.00    -0.370 N 
ATOM     45  N   UNL     1      -4.344  -3.716   0.360  1.00  0.00    -0.370 N 
ATOM     46  H   UNL     1      -4.179  -3.404  -2.010  1.00  0.00     0.159 HD
ATOM     47  H   UNL     1      -4.556  -1.736  -2.112  1.00  0.00     0.159 HD
ATOM     48  H   UNL     1      -4.535  -3.800   1.349  1.00  0.00     0.159 HD
ATOM     49  H   UNL     1      -3.711  -4.368  -0.067  1.00  0.00     0.159 HD
ENDBRANCH  41  42
ENDBRANCH  40  41
ENDBRANCH  39  40
ENDBRANCH  38  39
ENDBRANCH  36  38
ENDBRANCH   5  34
BRANCH   8  50
ATOM     50  O   UNL     1      -6.136  -0.388   4.071  1.00  0.00    -0.245 OA
BRANCH  50  51
ATOM     51  S   UNL     1      -4.589   0.114   4.030  1.00  0.00     0.397 S 
ATOM     52  O   UNL     1      -4.571   1.458   3.498  1.00  0.00    -0.169 OA
ATOM     53  O   UNL     1      -3.753  -0.932   3.479  1.00  0.00    -0.169 OA
BRANCH  51  54
ATOM     54  O   UNL     1      -4.241   0.257   5.593  1.00  0.00    -0.264 OA
ATOM     55  H   UNL     1      -4.056  -0.639   5.940  1.00  0.00     0.236 HD
ENDBRANCH  51  54
ENDBRANCH  50  51
ENDBRANCH   8  50
TORSDOF 19
ENDMDL
MODEL 29
REMARK VINA RESULT:    -6.078      3.879      8.807
REMARK INTER + INTRA:         -15.001
REMARK INTER:                 -12.926
REMARK INTRA:                  -2.075
REMARK UNBOUND:                -2.705
REMARK SMILES CC[C@@H](C)[C@@H](NC(=O)[C@@H](O)Cc1ccc(O)c(Cl)c1)C(=O)N1[C@H](C(=O)NCCCCN=C(N)N)C[C@H]2CC[C@H](OS(=O)(=O)O)C[C@@H]21
REMARK SMILES IDX 22 1 36 2 46 3 35 4 23 5 45 6 37 7 39 8 38 9 20 10 21 11
REMARK SMILES IDX 5 12 6 13 7 14 8 15 9 17 11 18 12 19 17 20 19 21 15 22 14 23
REMARK SMILES IDX 13 24 18 25 16 26 10 28 3 30 4 31 2 32 1 33 24 34 25 35
REMARK SMILES IDX 26 36 27 38 28 39 29 40 30 41 31 42 32 43 33 44 34 45 40 50
REMARK SMILES IDX 41 51 42 52 43 53 44 54
REMARK H PARENT 6 16 16 27 10 29 26 37 33 46 33 47 34 48 34 49 44 55
ROOT
ATOM      1  N   UNL     1     -10.116  -2.445   6.626  1.00  0.00    -0.326 N 
ATOM      2  C   UNL     1      -7.802  -2.537   6.200  1.00  0.00     0.014 C 
ATOM      3  C   UNL     1      -9.137  -2.100   5.590  1.00  0.00     0.091 C 
ATOM      4  C   UNL     1      -8.187  -3.775   6.996  1.00  0.00     0.041 C 
ATOM      5  C   UNL     1      -9.473  -3.272   7.676  1.00  0.00     0.175 C 
ATOM      6  C   UNL     1      -9.018  -0.638   5.163  1.00  0.00     0.059 C 
ATOM      7  C   UNL     1      -6.728  -2.642   5.135  1.00  0.00     0.008 C 
ATOM      8  C   UNL     1      -7.597  -0.237   4.711  1.00  0.00     0.143 C 
ATOM      9  C   UNL     1      -6.800  -1.440   4.169  1.00  0.00     0.034 C 
ENDROOT
BRANCH   1  10
ATOM     10  C   UNL     1     -11.492  -2.299   6.629  1.00  0.00     0.246 C 
ATOM     11  O   UNL     1     -11.992  -1.322   7.199  1.00  0.00    -0.272 OA
BRANCH  10  12
ATOM     12  C   UNL     1     -12.376  -3.339   5.883  1.00  0.00     0.174 C 
BRANCH  12  13
ATOM     13  N   UNL     1     -11.755  -4.662   5.952  1.00  0.00    -0.342 N 
ATOM     14  C   UNL     1     -12.354  -5.790   6.465  1.00  0.00     0.249 C 
ATOM     15  O   UNL     1     -13.498  -5.817   6.902  1.00  0.00    -0.272 OA
ATOM     16  H   UNL     1     -10.759  -4.760   5.773  1.00  0.00     0.164 HD
BRANCH  14  17
ATOM     17  C   UNL     1     -11.434  -7.029   6.413  1.00  0.00     0.207 C 
BRANCH  17  18
ATOM     18  C   UNL     1     -10.781  -7.268   7.779  1.00  0.00     0.077 C 
BRANCH  18  19
ATOM     19  C   UNL     1     -10.845  -8.724   8.184  1.00  0.00    -0.043 A 
ATOM     20  C   UNL     1     -11.353 -10.427   9.835  1.00  0.00     0.083 A 
ATOM     21  C   UNL     1     -11.342  -9.087   9.445  1.00  0.00     0.028 A 
ATOM     22  C   UNL     1     -10.869 -11.409   8.971  1.00  0.00     0.134 A 
ATOM     23  C   UNL     1     -10.374 -11.064   7.719  1.00  0.00     0.048 A 
ATOM     24  C   UNL     1     -10.359  -9.724   7.327  1.00  0.00     0.008 A 
ATOM     25  Cl  UNL     1     -11.967 -10.853  11.389  1.00  0.00    -0.080 Cl
BRANCH  22  26
ATOM     26  O   UNL     1     -10.850 -12.734   9.313  1.00  0.00    -0.506 OA
ATOM     27  H   UNL     1     -11.658 -12.901   9.834  1.00  0.00     0.293 HD
ENDBRANCH  22  26
ENDBRANCH  18  19
ENDBRANCH  17  18
BRANCH  17  28
ATOM     28  O   UNL     1     -10.411  -6.871   5.417  1.00  0.00    -0.383 OA
ATOM     29  H   UNL     1     -10.162  -5.919   5.431  1.00  0.00     0.211 HD
ENDBRANCH  17  28
ENDBRANCH  14  17
ENDBRANCH  12  13
BRANCH  12  30
ATOM     30  C   UNL     1     -12.704  -2.914   4.426  1.00  0.00     0.018 C 
ATOM     31  C   UNL     1     -14.155  -2.420   4.314  1.00  0.00     0.010 C 
BRANCH  30  32
ATOM     32  C   UNL     1     -12.437  -4.023   3.380  1.00  0.00     0.002 C 
ATOM     33  C   UNL     1     -13.677  -4.582   2.694  1.00  0.00     0.004 C 
ENDBRANCH  30  32
ENDBRANCH  12  30
ENDBRANCH  10  12
ENDBRANCH   1  10
BRANCH   5  34
ATOM     34  C   UNL     1      -9.159  -2.418   8.934  1.00  0.00     0.242 C 
ATOM     35  O   UNL     1      -9.103  -1.189   8.897  1.00  0.00    -0.273 OA
ATOM     36  N   UNL     1      -8.896  -3.137  10.078  1.00  0.00    -0.354 N 
ATOM     37  H   UNL     1      -8.839  -4.154  10.018  1.00  0.00     0.163 HD
BRANCH  36  38
ATOM     38  C   UNL     1      -8.797  -2.509  11.380  1.00  0.00     0.116 C 
BRANCH  38  39
ATOM     39  C   UNL     1      -7.359  -2.589  11.886  1.00  0.00     0.023 C 
BRANCH  39  40
ATOM     40  C   UNL     1      -7.274  -3.104  13.319  1.00  0.00     0.026 C 
BRANCH  40  41
ATOM     41  C   UNL     1      -8.104  -2.230  14.260  1.00  0.00     0.146 C 
BRANCH  41  42
ATOM     42  N   UNL     1      -7.567  -0.876  14.276  1.00  0.00    -0.254 NA
ATOM     43  C   UNL     1      -7.345  -0.296  15.396  1.00  0.00     0.185 C 
ATOM     44  N   UNL     1      -7.529  -0.741  16.652  1.00  0.00    -0.370 N 
ATOM     45  N   UNL     1      -6.854   0.954  15.389  1.00  0.00    -0.370 N 
ATOM     46  H   UNL     1      -7.545  -0.100  17.426  1.00  0.00     0.159 HD
ATOM     47  H   UNL     1      -7.882  -1.675  16.840  1.00  0.00     0.159 HD
ATOM     48  H   UNL     1      -6.678   1.362  14.481  1.00  0.00     0.159 HD
ATOM     49  H   UNL     1      -6.437   1.379  16.198  1.00  0.00     0.159 HD
ENDBRANCH  41  42
ENDBRANCH  40  41
ENDBRANCH  39  40
ENDBRANCH  38  39
ENDBRANCH  36  38
ENDBRANCH   5  34
BRANCH   8  50
ATOM     50  O   UNL     1      -6.876   0.329   5.806  1.00  0.00    -0.245 OA
BRANCH  50  51
ATOM     51  S   UNL     1      -5.560   1.240   5.516  1.00  0.00     0.397 S 
ATOM     52  O   UNL     1      -5.826   2.049   4.348  1.00  0.00    -0.169 OA
ATOM     53  O   UNL     1      -4.370   0.421   5.618  1.00  0.00    -0.169 OA
BRANCH  51  54
ATOM     54  O   UNL     1      -5.573   2.255   6.763  1.00  0.00    -0.264 OA
ATOM     55  H   UNL     1      -4.913   1.936   7.413  1.00  0.00     0.236 HD
ENDBRANCH  51  54
ENDBRANCH  50  51
ENDBRANCH   8  50
TORSDOF 19
ENDMDL
MODEL 30
REMARK VINA RESULT:    -6.066     17.357     21.354
REMARK INTER + INTRA:         -14.976
REMARK INTER:                 -10.233
REMARK INTRA:                  -4.743
REMARK UNBOUND:                -2.705
REMARK SMILES CC[C@@H](C)[C@@H](NC(=O)[C@@H](O)Cc1ccc(O)c(Cl)c1)C(=O)N1[C@H](C(=O)NCCCCN=C(N)N)C[C@H]2CC[C@H](OS(=O)(=O)O)C[C@@H]21
REMARK SMILES IDX 22 1 36 2 46 3 35 4 23 5 45 6 37 7 39 8 38 9 20 10 21 11
REMARK SMILES IDX 5 12 6 13 7 14 8 15 9 17 11 18 12 19 17 20 19 21 15 22 14 23
REMARK SMILES IDX 13 24 18 25 16 26 10 28 3 30 4 31 2 32 1 33 24 34 25 35
REMARK SMILES IDX 26 36 27 38 28 39 29 40 30 41 31 42 32 43 33 44 34 45 40 50
REMARK SMILES IDX 41 51 42 52 43 53 44 54
REMARK H PARENT 6 16 16 27 10 29 26 37 33 46 33 47 34 48 34 49 44 55
ROOT
ATOM      1  N   UNL     1       2.075 -11.888  -7.219  1.00  0.00    -0.326 N 
ATOM      2  C   UNL     1       1.590 -12.123  -4.927  1.00  0.00     0.014 C 
ATOM      3  C   UNL     1       1.384 -11.195  -6.128  1.00  0.00     0.091 C 
ATOM      4  C   UNL     1       2.978 -12.691  -5.177  1.00  0.00     0.041 C 
ATOM      5  C   UNL     1       2.872 -13.017  -6.679  1.00  0.00     0.175 C 
ATOM      6  C   UNL     1      -0.112 -10.921  -6.276  1.00  0.00     0.059 C 
ATOM      7  C   UNL     1       1.307 -11.397  -3.627  1.00  0.00     0.008 C 
ATOM      8  C   UNL     1      -0.878 -10.914  -4.936  1.00  0.00     0.143 C 
ATOM      9  C   UNL     1       0.032 -10.535  -3.750  1.00  0.00     0.034 C 
ENDROOT
BRANCH   1  10
ATOM     10  C   UNL     1       2.242 -11.517  -8.542  1.00  0.00     0.246 C 
ATOM     11  O   UNL     1       1.795 -12.247  -9.433  1.00  0.00    -0.272 OA
BRANCH  10  12
ATOM     12  C   UNL     1       2.948 -10.171  -8.877  1.00  0.00     0.174 C 
BRANCH  12  13
ATOM     13  N   UNL     1       2.005  -9.261  -9.526  1.00  0.00    -0.342 N 
ATOM     14  C   UNL     1       1.294  -8.271  -8.886  1.00  0.00     0.249 C 
ATOM     15  O   UNL     1       1.395  -8.023  -7.691  1.00  0.00    -0.272 OA
ATOM     16  H   UNL     1       1.700  -9.446 -10.479  1.00  0.00     0.164 HD
BRANCH  14  17
ATOM     17  C   UNL     1       0.366  -7.490  -9.841  1.00  0.00     0.207 C 
BRANCH  17  18
ATOM     18  C   UNL     1       0.121  -8.293 -11.123  1.00  0.00     0.077 C 
BRANCH  18  19
ATOM     19  C   UNL     1      -1.140  -9.124 -11.033  1.00  0.00    -0.043 A 
ATOM     20  C   UNL     1      -3.560  -9.280 -11.044  1.00  0.00     0.083 A 
ATOM     21  C   UNL     1      -2.398  -8.519 -11.177  1.00  0.00     0.028 A 
ATOM     22  C   UNL     1      -3.473 -10.645 -10.766  1.00  0.00     0.134 A 
ATOM     23  C   UNL     1      -2.233 -11.256 -10.621  1.00  0.00     0.048 A 
ATOM     24  C   UNL     1      -1.068 -10.497 -10.752  1.00  0.00     0.008 A 
ATOM     25  Cl  UNL     1      -5.098  -8.520 -11.224  1.00  0.00    -0.080 Cl
BRANCH  22  26
ATOM     26  O   UNL     1      -4.585 -11.430 -10.616  1.00  0.00    -0.506 OA
ATOM     27  H   UNL     1      -5.345 -10.825 -10.530  1.00  0.00     0.293 HD
ENDBRANCH  22  26
ENDBRANCH  18  19
ENDBRANCH  17  18
BRANCH  17  28
ATOM     28  O   UNL     1       0.929  -6.213 -10.180  1.00  0.00    -0.383 OA
ATOM     29  H   UNL     1       1.860  -6.233  -9.860  1.00  0.00     0.211 HD
ENDBRANCH  17  28
ENDBRANCH  14  17
ENDBRANCH  12  13
BRANCH  12  30
ATOM     30  C   UNL     1       4.248 -10.365  -9.703  1.00  0.00     0.018 C 
ATOM     31  C   UNL     1       3.930 -10.479 -11.203  1.00  0.00     0.010 C 
BRANCH  30  32
ATOM     32  C   UNL     1       5.100 -11.574  -9.246  1.00  0.00     0.002 C 
ATOM     33  C   UNL     1       6.508 -11.634  -9.825  1.00  0.00     0.004 C 
ENDBRANCH  30  32
ENDBRANCH  12  30
ENDBRANCH  10  12
ENDBRANCH   1  10
BRANCH   5  34
ATOM     34  C   UNL     1       2.148 -14.368  -6.921  1.00  0.00     0.242 C 
ATOM     35  O   UNL     1       2.671 -15.451  -6.660  1.00  0.00    -0.273 OA
ATOM     36  N   UNL     1       0.902 -14.269  -7.499  1.00  0.00    -0.354 N 
ATOM     37  H   UNL     1       0.572 -13.352  -7.802  1.00  0.00     0.163 HD
BRANCH  36  38
ATOM     38  C   UNL     1       0.003 -15.401  -7.597  1.00  0.00     0.116 C 
BRANCH  38  39
ATOM     39  C   UNL     1      -0.215 -15.763  -9.064  1.00  0.00     0.023 C 
BRANCH  39  40
ATOM     40  C   UNL     1      -1.116 -14.765  -9.784  1.00  0.00     0.026 C 
BRANCH  40  41
ATOM     41  C   UNL     1      -2.571 -15.234  -9.763  1.00  0.00     0.146 C 
BRANCH  41  42
ATOM     42  N   UNL     1      -3.443 -14.119  -9.418  1.00  0.00    -0.254 NA
ATOM     43  C   UNL     1      -3.836 -13.973  -8.209  1.00  0.00     0.185 C 
ATOM     44  N   UNL     1      -3.570 -14.714  -7.117  1.00  0.00    -0.370 N 
ATOM     45  N   UNL     1      -4.643 -12.942  -7.913  1.00  0.00    -0.370 N 
ATOM     46  H   UNL     1      -4.136 -14.629  -6.290  1.00  0.00     0.159 HD
ATOM     47  H   UNL     1      -2.963 -15.526  -7.159  1.00  0.00     0.159 HD
ATOM     48  H   UNL     1      -4.886 -12.328  -8.679  1.00  0.00     0.159 HD
ATOM     49  H   UNL     1      -4.798 -12.624  -6.972  1.00  0.00     0.159 HD
ENDBRANCH  41  42
ENDBRANCH  40  41
ENDBRANCH  39  40
ENDBRANCH  38  39
ENDBRANCH  36  38
ENDBRANCH   5  34
BRANCH   8  50
ATOM     50  O   UNL     1      -1.437 -12.204  -4.684  1.00  0.00    -0.245 OA
BRANCH  50  51
ATOM     51  S   UNL     1      -3.035 -12.347  -4.413  1.00  0.00     0.397 S 
ATOM     52  O   UNL     1      -3.335 -13.751  -4.246  1.00  0.00    -0.169 OA
ATOM     53  O   UNL     1      -3.763 -11.521  -5.353  1.00  0.00    -0.169 OA
BRANCH  51  54
ATOM     54  O   UNL     1      -3.188 -11.690  -2.953  1.00  0.00    -0.264 OA
ATOM     55  H   UNL     1      -2.484 -11.017  -2.854  1.00  0.00     0.236 HD
ENDBRANCH  51  54
ENDBRANCH  50  51
ENDBRANCH   8  50
TORSDOF 19
ENDMDL
MODEL 31
REMARK VINA RESULT:    -6.041     16.580     21.328
REMARK INTER + INTRA:         -14.927
REMARK INTER:                 -11.697
REMARK INTRA:                  -3.230
REMARK UNBOUND:                -2.705
REMARK SMILES CC[C@@H](C)[C@@H](NC(=O)[C@@H](O)Cc1ccc(O)c(Cl)c1)C(=O)N1[C@H](C(=O)NCCCCN=C(N)N)C[C@H]2CC[C@H](OS(=O)(=O)O)C[C@@H]21
REMARK SMILES IDX 22 1 36 2 46 3 35 4 23 5 45 6 37 7 39 8 38 9 20 10 21 11
REMARK SMILES IDX 5 12 6 13 7 14 8 15 9 17 11 18 12 19 17 20 19 21 15 22 14 23
REMARK SMILES IDX 13 24 18 25 16 26 10 28 3 30 4 31 2 32 1 33 24 34 25 35
REMARK SMILES IDX 26 36 27 38 28 39 29 40 30 41 31 42 32 43 33 44 34 45 40 50
REMARK SMILES IDX 41 51 42 52 43 53 44 54
REMARK H PARENT 6 16 16 27 10 29 26 37 33 46 33 47 34 48 34 49 44 55
ROOT
ATOM      1  N   UNL     1       1.469   6.255  -7.511  1.00  0.00    -0.326 N 
ATOM      2  C   UNL     1      -0.603   5.165  -7.757  1.00  0.00     0.014 C 
ATOM      3  C   UNL     1       0.903   4.910  -7.648  1.00  0.00     0.091 C 
ATOM      4  C   UNL     1      -0.665   6.479  -8.522  1.00  0.00     0.041 C 
ATOM      5  C   UNL     1       0.427   7.275  -7.785  1.00  0.00     0.175 C 
ATOM      6  C   UNL     1       1.142   3.905  -6.522  1.00  0.00     0.059 C 
ATOM      7  C   UNL     1      -1.321   3.949  -8.309  1.00  0.00     0.008 C 
ATOM      8  C   UNL     1      -0.004   2.885  -6.346  1.00  0.00     0.143 C 
ATOM      9  C   UNL     1      -0.784   2.658  -7.656  1.00  0.00     0.034 C 
ENDROOT
BRANCH   1  10
ATOM     10  C   UNL     1       2.790   6.654  -7.393  1.00  0.00     0.246 C 
ATOM     11  O   UNL     1       3.199   7.059  -6.300  1.00  0.00    -0.272 OA
BRANCH  10  12
ATOM     12  C   UNL     1       3.737   6.544  -8.622  1.00  0.00     0.174 C 
BRANCH  12  13
ATOM     13  N   UNL     1       5.111   6.848  -8.221  1.00  0.00    -0.342 N 
ATOM     14  C   UNL     1       6.120   5.920  -8.094  1.00  0.00     0.249 C 
ATOM     15  O   UNL     1       5.984   4.727  -8.333  1.00  0.00    -0.272 OA
ATOM     16  H   UNL     1       5.334   7.764  -7.842  1.00  0.00     0.164 HD
BRANCH  14  17
ATOM     17  C   UNL     1       7.454   6.549  -7.638  1.00  0.00     0.207 C 
BRANCH  17  18
ATOM     18  C   UNL     1       7.361   6.999  -6.176  1.00  0.00     0.077 C 
BRANCH  18  19
ATOM     19  C   UNL     1       8.658   6.767  -5.434  1.00  0.00    -0.043 A 
ATOM     20  C   UNL     1       9.942   5.549  -3.775  1.00  0.00     0.083 A 
ATOM     21  C   UNL     1       8.760   5.729  -4.494  1.00  0.00     0.028 A 
ATOM     22  C   UNL     1      11.025   6.403  -3.987  1.00  0.00     0.134 A 
ATOM     23  C   UNL     1      10.938   7.434  -4.914  1.00  0.00     0.048 A 
ATOM     24  C   UNL     1       9.755   7.618  -5.635  1.00  0.00     0.008 A 
ATOM     25  Cl  UNL     1      10.049   4.269  -2.625  1.00  0.00    -0.080 Cl
BRANCH  22  26
ATOM     26  O   UNL     1      12.201   6.272  -3.298  1.00  0.00    -0.506 OA
ATOM     27  H   UNL     1      12.456   5.332  -3.356  1.00  0.00     0.293 HD
ENDBRANCH  22  26
ENDBRANCH  18  19
ENDBRANCH  17  18
BRANCH  17  28
ATOM     28  O   UNL     1       7.804   7.674  -8.461  1.00  0.00    -0.383 OA
ATOM     29  H   UNL     1       7.315   7.554  -9.307  1.00  0.00     0.211 HD
ENDBRANCH  17  28
ENDBRANCH  14  17
ENDBRANCH  12  13
BRANCH  12  30
ATOM     30  C   UNL     1       3.266   7.408  -9.822  1.00  0.00     0.018 C 
ATOM     31  C   UNL     1       2.611   6.532 -10.902  1.00  0.00     0.010 C 
BRANCH  30  32
ATOM     32  C   UNL     1       4.390   8.271 -10.447  1.00  0.00     0.002 C 
ATOM     33  C   UNL     1       5.113   7.640 -11.629  1.00  0.00     0.004 C 
ENDBRANCH  30  32
ENDBRANCH  12  30
ENDBRANCH  10  12
ENDBRANCH   1  10
BRANCH   5  34
ATOM     34  C   UNL     1      -0.106   7.886  -6.461  1.00  0.00     0.242 C 
ATOM     35  O   UNL     1      -0.792   8.908  -6.437  1.00  0.00    -0.273 OA
ATOM     36  N   UNL     1       0.290   7.234  -5.314  1.00  0.00    -0.354 N 
ATOM     37  H   UNL     1       0.956   6.465  -5.391  1.00  0.00     0.163 HD
BRANCH  36  38
ATOM     38  C   UNL     1      -0.283   7.534  -4.018  1.00  0.00     0.116 C 
BRANCH  38  39
ATOM     39  C   UNL     1      -1.403   6.544  -3.705  1.00  0.00     0.023 C 
BRANCH  39  40
ATOM     40  C   UNL     1      -2.787   7.134  -3.954  1.00  0.00     0.026 C 
BRANCH  40  41
ATOM     41  C   UNL     1      -3.335   6.679  -5.306  1.00  0.00     0.146 C 
BRANCH  41  42
ATOM     42  N   UNL     1      -3.543   5.236  -5.293  1.00  0.00    -0.254 NA
ATOM     43  C   UNL     1      -4.288   4.696  -6.183  1.00  0.00     0.185 C 
ATOM     44  N   UNL     1      -4.963   5.257  -7.204  1.00  0.00    -0.370 N 
ATOM     45  N   UNL     1      -4.471   3.366  -6.151  1.00  0.00    -0.370 N 
ATOM     46  H   UNL     1      -5.697   4.753  -7.671  1.00  0.00     0.159 HD
ATOM     47  H   UNL     1      -4.925   6.255  -7.383  1.00  0.00     0.159 HD
ATOM     48  H   UNL     1      -3.990   2.865  -5.417  1.00  0.00     0.159 HD
ATOM     49  H   UNL     1      -4.834   2.848  -6.931  1.00  0.00     0.159 HD
ENDBRANCH  41  42
ENDBRANCH  40  41
ENDBRANCH  39  40
ENDBRANCH  38  39
ENDBRANCH  36  38
ENDBRANCH   5  34
BRANCH   8  50
ATOM     50  O   UNL     1      -0.918   3.342  -5.348  1.00  0.00    -0.245 OA
BRANCH  50  51
ATOM     51  S   UNL     1      -1.453   2.306  -4.214  1.00  0.00     0.397 S 
ATOM     52  O   UNL     1      -2.584   1.591  -4.761  1.00  0.00    -0.169 OA
ATOM     53  O   UNL     1      -1.527   2.981  -2.935  1.00  0.00    -0.169 OA
BRANCH  51  54
ATOM     54  O   UNL     1      -0.252   1.239  -4.142  1.00  0.00    -0.264 OA
ATOM     55  H   UNL     1       0.555   1.674  -4.485  1.00  0.00     0.236 HD
ENDBRANCH  51  54
ENDBRANCH  50  51
ENDBRANCH   8  50
TORSDOF 19
ENDMDL
MODEL 32
REMARK VINA RESULT:    -6.037      9.580     14.266
REMARK INTER + INTRA:         -14.918
REMARK INTER:                 -10.866
REMARK INTRA:                  -4.051
REMARK UNBOUND:                -2.705
REMARK SMILES CC[C@@H](C)[C@@H](NC(=O)[C@@H](O)Cc1ccc(O)c(Cl)c1)C(=O)N1[C@H](C(=O)NCCCCN=C(N)N)C[C@H]2CC[C@H](OS(=O)(=O)O)C[C@@H]21
REMARK SMILES IDX 22 1 36 2 46 3 35 4 23 5 45 6 37 7 39 8 38 9 20 10 21 11
REMARK SMILES IDX 5 12 6 13 7 14 8 15 9 17 11 18 12 19 17 20 19 21 15 22 14 23
REMARK SMILES IDX 13 24 18 25 16 26 10 28 3 30 4 31 2 32 1 33 24 34 25 35
REMARK SMILES IDX 26 36 27 38 28 39 29 40 30 41 31 42 32 43 33 44 34 45 40 50
REMARK SMILES IDX 41 51 42 52 43 53 44 54
REMARK H PARENT 6 16 16 27 10 29 26 37 33 46 33 47 34 48 34 49 44 55
ROOT
ATOM      1  N   UNL     1      -1.596   3.799  -2.788  1.00  0.00    -0.326 N 
ATOM      2  C   UNL     1      -2.661   1.966  -3.812  1.00  0.00     0.014 C 
ATOM      3  C   UNL     1      -2.770   2.935  -2.631  1.00  0.00     0.091 C 
ATOM      4  C   UNL     1      -1.159   1.781  -3.956  1.00  0.00     0.041 C 
ATOM      5  C   UNL     1      -0.690   3.242  -3.823  1.00  0.00     0.175 C 
ATOM      6  C   UNL     1      -4.153   3.582  -2.661  1.00  0.00     0.059 C 
ATOM      7  C   UNL     1      -3.543   0.752  -3.599  1.00  0.00     0.008 C 
ATOM      8  C   UNL     1      -5.255   2.664  -3.233  1.00  0.00     0.143 C 
ATOM      9  C   UNL     1      -4.921   1.170  -3.044  1.00  0.00     0.034 C 
ENDROOT
BRANCH   1  10
ATOM     10  C   UNL     1      -1.156   4.851  -2.002  1.00  0.00     0.246 C 
ATOM     11  O   UNL     1      -1.253   6.005  -2.434  1.00  0.00    -0.272 OA
BRANCH  10  12
ATOM     12  C   UNL     1      -0.592   4.564  -0.581  1.00  0.00     0.174 C 
BRANCH  12  13
ATOM     13  N   UNL     1      -1.648   4.727   0.417  1.00  0.00    -0.342 N 
ATOM     14  C   UNL     1      -1.967   3.804   1.389  1.00  0.00     0.249 C 
ATOM     15  O   UNL     1      -1.374   2.744   1.543  1.00  0.00    -0.272 OA
ATOM     16  H   UNL     1      -2.324   5.481   0.318  1.00  0.00     0.164 HD
BRANCH  14  17
ATOM     17  C   UNL     1      -3.142   4.260   2.280  1.00  0.00     0.207 C 
BRANCH  17  18
ATOM     18  C   UNL     1      -4.479   3.854   1.653  1.00  0.00     0.077 C 
BRANCH  18  19
ATOM     19  C   UNL     1      -4.698   2.359   1.716  1.00  0.00    -0.043 A 
ATOM     20  C   UNL     1      -4.581   0.266   2.937  1.00  0.00     0.083 A 
ATOM     21  C   UNL     1      -4.425   1.652   2.898  1.00  0.00     0.028 A 
ATOM     22  C   UNL     1      -5.009  -0.421   1.801  1.00  0.00     0.134 A 
ATOM     23  C   UNL     1      -5.283   0.266   0.624  1.00  0.00     0.048 A 
ATOM     24  C   UNL     1      -5.126   1.654   0.581  1.00  0.00     0.008 A 
ATOM     25  Cl  UNL     1      -4.240  -0.584   4.398  1.00  0.00    -0.080 Cl
BRANCH  22  26
ATOM     26  O   UNL     1      -5.166  -1.781   1.788  1.00  0.00    -0.506 OA
ATOM     27  H   UNL     1      -5.968  -1.974   2.308  1.00  0.00     0.293 HD
ENDBRANCH  22  26
ENDBRANCH  18  19
ENDBRANCH  17  18
BRANCH  17  28
ATOM     28  O   UNL     1      -3.120   5.683   2.477  1.00  0.00    -0.383 OA
ATOM     29  H   UNL     1      -3.941   5.902   2.974  1.00  0.00     0.211 HD
ENDBRANCH  17  28
ENDBRANCH  14  17
ENDBRANCH  12  13
BRANCH  12  30
ATOM     30  C   UNL     1       0.668   5.409  -0.253  1.00  0.00     0.018 C 
ATOM     31  C   UNL     1       1.810   5.088  -1.230  1.00  0.00     0.010 C 
BRANCH  30  32
ATOM     32  C   UNL     1       1.158   5.254   1.207  1.00  0.00     0.002 C 
ATOM     33  C   UNL     1       2.281   6.196   1.621  1.00  0.00     0.004 C 
ENDBRANCH  30  32
ENDBRANCH  12  30
ENDBRANCH  10  12
ENDBRANCH   1  10
BRANCH   5  34
ATOM     34  C   UNL     1      -0.841   4.015  -5.160  1.00  0.00     0.242 C 
ATOM     35  O   UNL     1      -1.624   4.955  -5.291  1.00  0.00    -0.273 OA
ATOM     36  N   UNL     1      -0.075   3.540  -6.201  1.00  0.00    -0.354 N 
ATOM     37  H   UNL     1       0.464   2.684  -6.064  1.00  0.00     0.163 HD
BRANCH  36  38
ATOM     38  C   UNL     1       0.072   4.264  -7.446  1.00  0.00     0.116 C 
BRANCH  38  39
ATOM     39  C   UNL     1      -0.845   3.661  -8.508  1.00  0.00     0.023 C 
BRANCH  39  40
ATOM     40  C   UNL     1      -1.223   4.666  -9.590  1.00  0.00     0.026 C 
BRANCH  40  41
ATOM     41  C   UNL     1      -2.056   5.806  -9.004  1.00  0.00     0.146 C 
BRANCH  41  42
ATOM     42  N   UNL     1      -3.473   5.475  -9.087  1.00  0.00    -0.254 NA
ATOM     43  C   UNL     1      -4.225   5.649  -8.066  1.00  0.00     0.185 C 
ATOM     44  N   UNL     1      -3.926   6.118  -6.841  1.00  0.00    -0.370 N 
ATOM     45  N   UNL     1      -5.527   5.333  -8.162  1.00  0.00    -0.370 N 
ATOM     46  H   UNL     1      -4.554   5.972  -6.069  1.00  0.00     0.159 HD
ATOM     47  H   UNL     1      -2.986   6.417  -6.599  1.00  0.00     0.159 HD
ATOM     48  H   UNL     1      -5.838   4.980  -9.057  1.00  0.00     0.159 HD
ATOM     49  H   UNL     1      -6.215   5.655  -7.505  1.00  0.00     0.159 HD
ENDBRANCH  41  42
ENDBRANCH  40  41
ENDBRANCH  39  40
ENDBRANCH  38  39
ENDBRANCH  36  38
ENDBRANCH   5  34
BRANCH   8  50
ATOM     50  O   UNL     1      -5.429   2.916  -4.628  1.00  0.00    -0.245 OA
BRANCH  50  51
ATOM     51  S   UNL     1      -6.633   3.891  -5.124  1.00  0.00     0.397 S 
ATOM     52  O   UNL     1      -7.174   3.346  -6.348  1.00  0.00    -0.169 OA
ATOM     53  O   UNL     1      -6.209   5.273  -5.030  1.00  0.00    -0.169 OA
BRANCH  51  54
ATOM     54  O   UNL     1      -7.754   3.639  -3.999  1.00  0.00    -0.264 OA
ATOM     55  H   UNL     1      -7.320   3.708  -3.124  1.00  0.00     0.236 HD
ENDBRANCH  51  54
ENDBRANCH  50  51
ENDBRANCH   8  50
TORSDOF 19
ENDMDL
MODEL 33
REMARK VINA RESULT:    -6.006     15.759     19.536
REMARK INTER + INTRA:         -14.856
REMARK INTER:                 -11.780
REMARK INTRA:                  -3.076
REMARK UNBOUND:                -2.705
REMARK SMILES CC[C@@H](C)[C@@H](NC(=O)[C@@H](O)Cc1ccc(O)c(Cl)c1)C(=O)N1[C@H](C(=O)NCCCCN=C(N)N)C[C@H]2CC[C@H](OS(=O)(=O)O)C[C@@H]21
REMARK SMILES IDX 22 1 36 2 46 3 35 4 23 5 45 6 37 7 39 8 38 9 20 10 21 11
REMARK SMILES IDX 5 12 6 13 7 14 8 15 9 17 11 18 12 19 17 20 19 21 15 22 14 23
REMARK SMILES IDX 13 24 18 25 16 26 10 28 3 30 4 31 2 32 1 33 24 34 25 35
REMARK SMILES IDX 26 36 27 38 28 39 29 40 30 41 31 42 32 43 33 44 34 45 40 50
REMARK SMILES IDX 41 51 42 52 43 53 44 54
REMARK H PARENT 6 16 16 27 10 29 26 37 33 46 33 47 34 48 34 49 44 55
ROOT
ATOM      1  N   UNL     1      -0.109   5.053  -5.477  1.00  0.00    -0.326 N 
ATOM      2  C   UNL     1       0.057   2.796  -6.126  1.00  0.00     0.014 C 
ATOM      3  C   UNL     1      -0.179   3.701  -4.914  1.00  0.00     0.091 C 
ATOM      4  C   UNL     1       1.042   3.601  -6.959  1.00  0.00     0.041 C 
ATOM      5  C   UNL     1       0.397   4.996  -6.871  1.00  0.00     0.175 C 
ATOM      6  C   UNL     1      -1.476   3.268  -4.232  1.00  0.00     0.059 C 
ATOM      7  C   UNL     1       0.425   1.392  -5.690  1.00  0.00     0.008 C 
ATOM      8  C   UNL     1      -1.765   1.756  -4.351  1.00  0.00     0.143 C 
ATOM      9  C   UNL     1      -0.473   0.931  -4.523  1.00  0.00     0.034 C 
ENDROOT
BRANCH   1  10
ATOM     10  C   UNL     1      -0.228   6.282  -4.852  1.00  0.00     0.246 C 
ATOM     11  O   UNL     1      -1.304   6.886  -4.913  1.00  0.00    -0.272 OA
BRANCH  10  12
ATOM     12  C   UNL     1       0.977   6.856  -4.052  1.00  0.00     0.174 C 
BRANCH  12  13
ATOM     13  N   UNL     1       1.972   7.404  -4.973  1.00  0.00    -0.342 N 
ATOM     14  C   UNL     1       2.077   8.731  -5.325  1.00  0.00     0.249 C 
ATOM     15  O   UNL     1       1.356   9.614  -4.877  1.00  0.00    -0.272 OA
ATOM     16  H   UNL     1       2.534   6.774  -5.540  1.00  0.00     0.164 HD
BRANCH  14  17
ATOM     17  C   UNL     1       3.218   8.992  -6.332  1.00  0.00     0.207 C 
BRANCH  17  18
ATOM     18  C   UNL     1       4.475   8.214  -5.930  1.00  0.00     0.077 C 
BRANCH  18  19
ATOM     19  C   UNL     1       4.894   7.232  -7.001  1.00  0.00    -0.043 A 
ATOM     20  C   UNL     1       4.318   5.688  -8.780  1.00  0.00     0.083 A 
ATOM     21  C   UNL     1       3.932   6.630  -7.826  1.00  0.00     0.028 A 
ATOM     22  C   UNL     1       5.662   5.340  -8.915  1.00  0.00     0.134 A 
ATOM     23  C   UNL     1       6.626   5.929  -8.104  1.00  0.00     0.048 A 
ATOM     24  C   UNL     1       6.243   6.871  -7.147  1.00  0.00     0.008 A 
ATOM     25  Cl  UNL     1       3.120   4.959  -9.785  1.00  0.00    -0.080 Cl
BRANCH  22  26
ATOM     26  O   UNL     1       6.087   4.414  -9.829  1.00  0.00    -0.506 OA
ATOM     27  H   UNL     1       6.906   4.766 -10.224  1.00  0.00     0.293 HD
ENDBRANCH  22  26
ENDBRANCH  18  19
ENDBRANCH  17  18
BRANCH  17  28
ATOM     28  O   UNL     1       3.529  10.392  -6.410  1.00  0.00    -0.383 OA
ATOM     29  H   UNL     1       4.299  10.533  -5.814  1.00  0.00     0.211 HD
ENDBRANCH  17  28
ENDBRANCH  14  17
ENDBRANCH  12  13
BRANCH  12  30
ATOM     30  C   UNL     1       1.588   5.825  -3.065  1.00  0.00     0.018 C 
ATOM     31  C   UNL     1       0.673   5.627  -1.846  1.00  0.00     0.010 C 
BRANCH  30  32
ATOM     32  C   UNL     1       3.022   6.181  -2.602  1.00  0.00     0.002 C 
ATOM     33  C   UNL     1       3.115   7.308  -1.582  1.00  0.00     0.004 C 
ENDBRANCH  30  32
ENDBRANCH  12  30
ENDBRANCH  10  12
ENDBRANCH   1  10
BRANCH   5  34
ATOM     34  C   UNL     1      -0.767   5.153  -7.885  1.00  0.00     0.242 C 
ATOM     35  O   UNL     1      -1.061   4.271  -8.692  1.00  0.00    -0.273 OA
ATOM     36  N   UNL     1      -1.411   6.370  -7.854  1.00  0.00    -0.354 N 
ATOM     37  H   UNL     1      -1.045   7.104  -7.247  1.00  0.00     0.163 HD
BRANCH  36  38
ATOM     38  C   UNL     1      -2.646   6.610  -8.573  1.00  0.00     0.116 C 
BRANCH  38  39
ATOM     39  C   UNL     1      -3.821   6.609  -7.598  1.00  0.00     0.023 C 
BRANCH  39  40
ATOM     40  C   UNL     1      -5.083   7.211  -8.207  1.00  0.00     0.026 C 
BRANCH  40  41
ATOM     41  C   UNL     1      -6.334   6.631  -7.546  1.00  0.00     0.146 C 
BRANCH  41  42
ATOM     42  N   UNL     1      -7.288   6.223  -8.569  1.00  0.00    -0.254 NA
ATOM     43  C   UNL     1      -7.768   5.037  -8.550  1.00  0.00     0.185 C 
ATOM     44  N   UNL     1      -7.538   4.023  -7.695  1.00  0.00    -0.370 N 
ATOM     45  N   UNL     1      -8.643   4.679  -9.504  1.00  0.00    -0.370 N 
ATOM     46  H   UNL     1      -7.791   3.081  -7.937  1.00  0.00     0.159 HD
ATOM     47  H   UNL     1      -6.911   4.126  -6.903  1.00  0.00     0.159 HD
ATOM     48  H   UNL     1      -8.879   5.389 -10.185  1.00  0.00     0.159 HD
ATOM     49  H   UNL     1      -9.234   3.871  -9.425  1.00  0.00     0.159 HD
ENDBRANCH  41  42
ENDBRANCH  40  41
ENDBRANCH  39  40
ENDBRANCH  38  39
ENDBRANCH  36  38
ENDBRANCH   5  34
BRANCH   8  50
ATOM     50  O   UNL     1      -2.614   1.506  -5.471  1.00  0.00    -0.245 OA
BRANCH  50  51
ATOM     51  S   UNL     1      -4.198   1.866  -5.374  1.00  0.00     0.397 S 
ATOM     52  O   UNL     1      -4.428   3.074  -6.133  1.00  0.00    -0.169 OA
ATOM     53  O   UNL     1      -4.643   1.733  -4.002  1.00  0.00    -0.169 OA
BRANCH  51  54
ATOM     54  O   UNL     1      -4.865   0.678  -6.228  1.00  0.00    -0.264 OA
ATOM     55  H   UNL     1      -4.182  -0.009  -6.368  1.00  0.00     0.236 HD
ENDBRANCH  51  54
ENDBRANCH  50  51
ENDBRANCH   8  50
TORSDOF 19
ENDMDL
MODEL 34
REMARK VINA RESULT:    -5.999      4.707      6.972
REMARK INTER + INTRA:         -14.842
REMARK INTER:                 -10.621
REMARK INTRA:                  -4.221
REMARK UNBOUND:                -2.705
REMARK SMILES CC[C@@H](C)[C@@H](NC(=O)[C@@H](O)Cc1ccc(O)c(Cl)c1)C(=O)N1[C@H](C(=O)NCCCCN=C(N)N)C[C@H]2CC[C@H](OS(=O)(=O)O)C[C@@H]21
REMARK SMILES IDX 22 1 36 2 46 3 35 4 23 5 45 6 37 7 39 8 38 9 20 10 21 11
REMARK SMILES IDX 5 12 6 13 7 14 8 15 9 17 11 18 12 19 17 20 19 21 15 22 14 23
REMARK SMILES IDX 13 24 18 25 16 26 10 28 3 30 4 31 2 32 1 33 24 34 25 35
REMARK SMILES IDX 26 36 27 38 28 39 29 40 30 41 31 42 32 43 33 44 34 45 40 50
REMARK SMILES IDX 41 51 42 52 43 53 44 54
REMARK H PARENT 6 16 16 27 10 29 26 37 33 46 33 47 34 48 34 49 44 55
ROOT
ATOM      1  N   UNL     1     -11.176  -2.190   2.740  1.00  0.00    -0.326 N 
ATOM      2  C   UNL     1     -10.696  -3.045   0.600  1.00  0.00     0.014 C 
ATOM      3  C   UNL     1     -11.733  -3.091   1.726  1.00  0.00     0.091 C 
ATOM      4  C   UNL     1      -9.385  -2.902   1.357  1.00  0.00     0.041 C 
ATOM      5  C   UNL     1      -9.782  -1.828   2.387  1.00  0.00     0.175 C 
ATOM      6  C   UNL     1     -13.102  -2.759   1.136  1.00  0.00     0.059 C 
ATOM      7  C   UNL     1     -10.880  -4.210  -0.353  1.00  0.00     0.008 C 
ATOM      8  C   UNL     1     -13.277  -3.222  -0.327  1.00  0.00     0.143 C 
ATOM      9  C   UNL     1     -12.376  -4.427  -0.665  1.00  0.00     0.034 C 
ENDROOT
BRANCH   1  10
ATOM     10  C   UNL     1     -11.667  -1.848   3.989  1.00  0.00     0.246 C 
ATOM     11  O   UNL     1     -12.354  -0.828   4.107  1.00  0.00    -0.272 OA
BRANCH  10  12
ATOM     12  C   UNL     1     -11.381  -2.776   5.206  1.00  0.00     0.174 C 
BRANCH  12  13
ATOM     13  N   UNL     1      -9.941  -2.994   5.338  1.00  0.00    -0.342 N 
ATOM     14  C   UNL     1      -9.216  -2.804   6.493  1.00  0.00     0.249 C 
ATOM     15  O   UNL     1      -9.709  -2.452   7.558  1.00  0.00    -0.272 OA
ATOM     16  H   UNL     1      -9.374  -3.134   4.506  1.00  0.00     0.164 HD
BRANCH  14  17
ATOM     17  C   UNL     1      -7.712  -3.101   6.309  1.00  0.00     0.207 C 
BRANCH  17  18
ATOM     18  C   UNL     1      -7.255  -2.697   4.904  1.00  0.00     0.077 C 
BRANCH  18  19
ATOM     19  C   UNL     1      -6.539  -1.365   4.907  1.00  0.00    -0.043 A 
ATOM     20  C   UNL     1      -6.593   1.051   4.703  1.00  0.00     0.083 A 
ATOM     21  C   UNL     1      -7.262  -0.172   4.748  1.00  0.00     0.028 A 
ATOM     22  C   UNL     1      -5.203   1.092   4.813  1.00  0.00     0.134 A 
ATOM     23  C   UNL     1      -4.475  -0.082   4.971  1.00  0.00     0.048 A 
ATOM     24  C   UNL     1      -5.141  -1.309   5.015  1.00  0.00     0.008 A 
ATOM     25  Cl  UNL     1      -7.498   2.506   4.507  1.00  0.00    -0.080 Cl
BRANCH  22  26
ATOM     26  O   UNL     1      -4.502   2.267   4.763  1.00  0.00    -0.506 OA
ATOM     27  H   UNL     1      -4.572   2.596   3.848  1.00  0.00     0.293 HD
ENDBRANCH  22  26
ENDBRANCH  18  19
ENDBRANCH  17  18
BRANCH  17  28
ATOM     28  O   UNL     1      -7.431  -4.495   6.519  1.00  0.00    -0.383 OA
ATOM     29  H   UNL     1      -6.465  -4.603   6.368  1.00  0.00     0.211 HD
ENDBRANCH  17  28
ENDBRANCH  14  17
ENDBRANCH  12  13
BRANCH  12  30
ATOM     30  C   UNL     1     -12.178  -4.106   5.147  1.00  0.00     0.018 C 
ATOM     31  C   UNL     1     -12.795  -4.435   6.516  1.00  0.00     0.010 C 
BRANCH  30  32
ATOM     32  C   UNL     1     -11.346  -5.308   4.636  1.00  0.00     0.002 C 
ATOM     33  C   UNL     1     -12.055  -6.213   3.636  1.00  0.00     0.004 C 
ENDBRANCH  30  32
ENDBRANCH  12  30
ENDBRANCH  10  12
ENDBRANCH   1  10
BRANCH   5  34
ATOM     34  C   UNL     1      -9.721  -0.401   1.779  1.00  0.00     0.242 C 
ATOM     35  O   UNL     1     -10.734   0.259   1.548  1.00  0.00    -0.273 OA
ATOM     36  N   UNL     1      -8.458   0.049   1.466  1.00  0.00    -0.354 N 
ATOM     37  H   UNL     1      -7.669  -0.591   1.568  1.00  0.00     0.163 HD
BRANCH  36  38
ATOM     38  C   UNL     1      -8.197   1.424   1.095  1.00  0.00     0.116 C 
BRANCH  38  39
ATOM     39  C   UNL     1      -6.692   1.650   0.966  1.00  0.00     0.023 C 
BRANCH  39  40
ATOM     40  C   UNL     1      -5.987   0.491   0.269  1.00  0.00     0.026 C 
BRANCH  40  41
ATOM     41  C   UNL     1      -5.121  -0.289   1.257  1.00  0.00     0.146 C 
BRANCH  41  42
ATOM     42  N   UNL     1      -5.668  -1.627   1.442  1.00  0.00    -0.254 NA
ATOM     43  C   UNL     1      -5.371  -2.553   0.610  1.00  0.00     0.185 C 
ATOM     44  N   UNL     1      -4.589  -2.515  -0.484  1.00  0.00    -0.370 N 
ATOM     45  N   UNL     1      -5.890  -3.778   0.795  1.00  0.00    -0.370 N 
ATOM     46  H   UNL     1      -4.640  -3.243  -1.177  1.00  0.00     0.159 HD
ATOM     47  H   UNL     1      -4.106  -1.667  -0.765  1.00  0.00     0.159 HD
ATOM     48  H   UNL     1      -6.485  -3.896   1.604  1.00  0.00     0.159 HD
ATOM     49  H   UNL     1      -5.527  -4.597   0.340  1.00  0.00     0.159 HD
ENDBRANCH  41  42
ENDBRANCH  40  41
ENDBRANCH  39  40
ENDBRANCH  38  39
ENDBRANCH  36  38
ENDBRANCH   5  34
BRANCH   8  50
ATOM     50  O   UNL     1     -12.959  -2.154  -1.220  1.00  0.00    -0.245 OA
BRANCH  50  51
ATOM     51  S   UNL     1     -13.560  -2.165  -2.731  1.00  0.00     0.397 S 
ATOM     52  O   UNL     1     -14.838  -2.839  -2.698  1.00  0.00    -0.169 OA
ATOM     53  O   UNL     1     -12.521  -2.551  -3.664  1.00  0.00    -0.169 OA
BRANCH  51  54
ATOM     54  O   UNL     1     -13.891  -0.610  -2.973  1.00  0.00    -0.264 OA
ATOM     55  H   UNL     1     -14.110  -0.495  -3.920  1.00  0.00     0.236 HD
ENDBRANCH  51  54
ENDBRANCH  50  51
ENDBRANCH   8  50
TORSDOF 19
ENDMDL
MODEL 35
REMARK VINA RESULT:    -5.981     13.406     19.011
REMARK INTER + INTRA:         -14.805
REMARK INTER:                 -12.958
REMARK INTRA:                  -1.847
REMARK UNBOUND:                -2.705
REMARK SMILES CC[C@@H](C)[C@@H](NC(=O)[C@@H](O)Cc1ccc(O)c(Cl)c1)C(=O)N1[C@H](C(=O)NCCCCN=C(N)N)C[C@H]2CC[C@H](OS(=O)(=O)O)C[C@@H]21
REMARK SMILES IDX 22 1 36 2 46 3 35 4 23 5 45 6 37 7 39 8 38 9 20 10 21 11
REMARK SMILES IDX 5 12 6 13 7 14 8 15 9 17 11 18 12 19 17 20 19 21 15 22 14 23
REMARK SMILES IDX 13 24 18 25 16 26 10 28 3 30 4 31 2 32 1 33 24 34 25 35
REMARK SMILES IDX 26 36 27 38 28 39 29 40 30 41 31 42 32 43 33 44 34 45 40 50
REMARK SMILES IDX 41 51 42 52 43 53 44 54
REMARK H PARENT 6 16 16 27 10 29 26 37 33 46 33 47 34 48 34 49 44 55
ROOT
ATOM      1  N   UNL     1      -4.033   3.944  -6.239  1.00  0.00    -0.326 N 
ATOM      2  C   UNL     1      -2.776   2.196  -5.287  1.00  0.00     0.014 C 
ATOM      3  C   UNL     1      -2.659   3.436  -6.179  1.00  0.00     0.091 C 
ATOM      4  C   UNL     1      -4.147   1.649  -5.651  1.00  0.00     0.041 C 
ATOM      5  C   UNL     1      -4.968   2.952  -5.655  1.00  0.00     0.175 C 
ATOM      6  C   UNL     1      -1.575   4.345  -5.604  1.00  0.00     0.059 C 
ATOM      7  C   UNL     1      -1.557   1.307  -5.434  1.00  0.00     0.008 C 
ATOM      8  C   UNL     1      -0.434   3.581  -4.897  1.00  0.00     0.143 C 
ATOM      9  C   UNL     1      -0.265   2.151  -5.449  1.00  0.00     0.034 C 
ENDROOT
BRANCH   1  10
ATOM     10  C   UNL     1      -4.546   5.037  -6.916  1.00  0.00     0.246 C 
ATOM     11  O   UNL     1      -5.233   5.858  -6.300  1.00  0.00    -0.272 OA
BRANCH  10  12
ATOM     12  C   UNL     1      -4.211   5.232  -8.424  1.00  0.00     0.174 C 
BRANCH  12  13
ATOM     13  N   UNL     1      -2.935   5.931  -8.565  1.00  0.00    -0.342 N 
ATOM     14  C   UNL     1      -1.840   5.448  -9.246  1.00  0.00     0.249 C 
ATOM     15  O   UNL     1      -1.824   4.377  -9.839  1.00  0.00    -0.272 OA
ATOM     16  H   UNL     1      -2.747   6.755  -7.999  1.00  0.00     0.164 HD
BRANCH  14  17
ATOM     17  C   UNL     1      -0.636   6.414  -9.200  1.00  0.00     0.207 C 
BRANCH  17  18
ATOM     18  C   UNL     1       0.486   5.830  -8.336  1.00  0.00     0.077 C 
BRANCH  18  19
ATOM     19  C   UNL     1       1.827   5.902  -9.032  1.00  0.00    -0.043 A 
ATOM     20  C   UNL     1       4.209   5.448  -9.059  1.00  0.00     0.083 A 
ATOM     21  C   UNL     1       2.965   5.336  -8.437  1.00  0.00     0.028 A 
ATOM     22  C   UNL     1       4.325   6.125 -10.273  1.00  0.00     0.134 A 
ATOM     23  C   UNL     1       3.206   6.691 -10.873  1.00  0.00     0.048 A 
ATOM     24  C   UNL     1       1.959   6.582 -10.253  1.00  0.00     0.008 A 
ATOM     25  Cl  UNL     1       5.596   4.745  -8.312  1.00  0.00    -0.080 Cl
BRANCH  22  26
ATOM     26  O   UNL     1       5.525   6.270 -10.914  1.00  0.00    -0.506 OA
ATOM     27  H   UNL     1       5.460   7.081 -11.451  1.00  0.00     0.293 HD
ENDBRANCH  22  26
ENDBRANCH  18  19
ENDBRANCH  17  18
BRANCH  17  28
ATOM     28  O   UNL     1      -1.021   7.696  -8.678  1.00  0.00    -0.383 OA
ATOM     29  H   UNL     1      -1.716   7.518  -8.004  1.00  0.00     0.211 HD
ENDBRANCH  17  28
ENDBRANCH  14  17
ENDBRANCH  12  13
BRANCH  12  30
ATOM     30  C   UNL     1      -5.357   5.925  -9.208  1.00  0.00     0.018 C 
ATOM     31  C   UNL     1      -5.268   7.453  -9.069  1.00  0.00     0.010 C 
BRANCH  30  32
ATOM     32  C   UNL     1      -6.770   5.436  -8.806  1.00  0.00     0.002 C 
ATOM     33  C   UNL     1      -7.667   5.014  -9.963  1.00  0.00     0.004 C 
ENDBRANCH  30  32
ENDBRANCH  12  30
ENDBRANCH  10  12
ENDBRANCH   1  10
BRANCH   5  34
ATOM     34  C   UNL     1      -5.387   3.368  -4.219  1.00  0.00     0.242 C 
ATOM     35  O   UNL     1      -4.954   4.385  -3.677  1.00  0.00    -0.273 OA
ATOM     36  N   UNL     1      -6.233   2.491  -3.578  1.00  0.00    -0.354 N 
ATOM     37  H   UNL     1      -6.461   1.607  -4.034  1.00  0.00     0.163 HD
BRANCH  36  38
ATOM     38  C   UNL     1      -6.890   2.823  -2.331  1.00  0.00     0.116 C 
BRANCH  38  39
ATOM     39  C   UNL     1      -8.217   3.523  -2.614  1.00  0.00     0.023 C 
BRANCH  39  40
ATOM     40  C   UNL     1      -9.376   2.542  -2.750  1.00  0.00     0.026 C 
BRANCH  40  41
ATOM     41  C   UNL     1     -10.526   2.931  -1.820  1.00  0.00     0.146 C 
BRANCH  41  42
ATOM     42  N   UNL     1     -11.754   3.078  -2.591  1.00  0.00    -0.254 NA
ATOM     43  C   UNL     1     -12.165   4.247  -2.911  1.00  0.00     0.185 C 
ATOM     44  N   UNL     1     -11.631   5.454  -2.647  1.00  0.00    -0.370 N 
ATOM     45  N   UNL     1     -13.301   4.361  -3.618  1.00  0.00    -0.370 N 
ATOM     46  H   UNL     1     -12.181   6.290  -2.744  1.00  0.00     0.159 HD
ATOM     47  H   UNL     1     -10.761   5.551  -2.132  1.00  0.00     0.159 HD
ATOM     48  H   UNL     1     -13.763   3.497  -3.866  1.00  0.00     0.159 HD
ATOM     49  H   UNL     1     -13.558   5.203  -4.102  1.00  0.00     0.159 HD
ENDBRANCH  41  42
ENDBRANCH  40  41
ENDBRANCH  39  40
ENDBRANCH  38  39
ENDBRANCH  36  38
ENDBRANCH   5  34
BRANCH   8  50
ATOM     50  O   UNL     1      -0.696   3.498  -3.496  1.00  0.00    -0.245 OA
BRANCH  50  51
ATOM     51  S   UNL     1      -0.342   4.763  -2.536  1.00  0.00     0.397 S 
ATOM     52  O   UNL     1       0.264   4.251  -1.328  1.00  0.00    -0.169 OA
ATOM     53  O   UNL     1      -1.469   5.672  -2.495  1.00  0.00    -0.169 OA
BRANCH  51  54
ATOM     54  O   UNL     1       0.844   5.480  -3.351  1.00  0.00    -0.264 OA
ATOM     55  H   UNL     1       0.856   6.424  -3.092  1.00  0.00     0.236 HD
ENDBRANCH  51  54
ENDBRANCH  50  51
ENDBRANCH   8  50
TORSDOF 19
ENDMDL
MODEL 36
REMARK VINA RESULT:    -5.976     15.008     20.319
REMARK INTER + INTRA:         -14.795
REMARK INTER:                 -11.720
REMARK INTRA:                  -3.075
REMARK UNBOUND:                -2.705
REMARK SMILES CC[C@@H](C)[C@@H](NC(=O)[C@@H](O)Cc1ccc(O)c(Cl)c1)C(=O)N1[C@H](C(=O)NCCCCN=C(N)N)C[C@H]2CC[C@H](OS(=O)(=O)O)C[C@@H]21
REMARK SMILES IDX 22 1 36 2 46 3 35 4 23 5 45 6 37 7 39 8 38 9 20 10 21 11
REMARK SMILES IDX 5 12 6 13 7 14 8 15 9 17 11 18 12 19 17 20 19 21 15 22 14 23
REMARK SMILES IDX 13 24 18 25 16 26 10 28 3 30 4 31 2 32 1 33 24 34 25 35
REMARK SMILES IDX 26 36 27 38 28 39 29 40 30 41 31 42 32 43 33 44 34 45 40 50
REMARK SMILES IDX 41 51 42 52 43 53 44 54
REMARK H PARENT 6 16 16 27 10 29 26 37 33 46 33 47 34 48 34 49 44 55
ROOT
ATOM      1  N   UNL     1       0.801   6.095  -7.244  1.00  0.00    -0.326 N 
ATOM      2  C   UNL     1       2.986   5.346  -7.700  1.00  0.00     0.014 C 
ATOM      3  C   UNL     1       1.722   5.895  -8.367  1.00  0.00     0.091 C 
ATOM      4  C   UNL     1       2.427   4.508  -6.560  1.00  0.00     0.041 C 
ATOM      5  C   UNL     1       1.353   5.469  -6.017  1.00  0.00     0.175 C 
ATOM      6  C   UNL     1       2.109   7.108  -9.211  1.00  0.00     0.059 C 
ATOM      7  C   UNL     1       3.900   4.698  -8.721  1.00  0.00     0.008 C 
ATOM      8  C   UNL     1       3.530   7.021  -9.809  1.00  0.00     0.143 C 
ATOM      9  C   UNL     1       3.991   5.562  -9.996  1.00  0.00     0.034 C 
ENDROOT
BRANCH   1  10
ATOM     10  C   UNL     1      -0.504   6.555  -7.238  1.00  0.00     0.246 C 
ATOM     11  O   UNL     1      -0.720   7.750  -7.007  1.00  0.00    -0.272 OA
BRANCH  10  12
ATOM     12  C   UNL     1      -1.666   5.571  -7.562  1.00  0.00     0.174 C 
BRANCH  12  13
ATOM     13  N   UNL     1      -1.456   4.304  -6.862  1.00  0.00    -0.342 N 
ATOM     14  C   UNL     1      -2.450   3.547  -6.285  1.00  0.00     0.249 C 
ATOM     15  O   UNL     1      -3.638   3.841  -6.318  1.00  0.00    -0.272 OA
ATOM     16  H   UNL     1      -0.513   4.013  -6.620  1.00  0.00     0.164 HD
BRANCH  14  17
ATOM     17  C   UNL     1      -1.908   2.271  -5.606  1.00  0.00     0.207 C 
BRANCH  17  18
ATOM     18  C   UNL     1      -0.692   2.603  -4.735  1.00  0.00     0.077 C 
BRANCH  18  19
ATOM     19  C   UNL     1      -1.099   3.189  -3.402  1.00  0.00    -0.043 A 
ATOM     20  C   UNL     1      -0.596   4.563  -1.468  1.00  0.00     0.083 A 
ATOM     21  C   UNL     1      -0.239   4.063  -2.720  1.00  0.00     0.028 A 
ATOM     22  C   UNL     1      -1.810   4.193  -0.888  1.00  0.00     0.134 A 
ATOM     23  C   UNL     1      -2.672   3.328  -1.552  1.00  0.00     0.048 A 
ATOM     24  C   UNL     1      -2.316   2.824  -2.805  1.00  0.00     0.008 A 
ATOM     25  Cl  UNL     1       0.475   5.637  -0.646  1.00  0.00    -0.080 Cl
BRANCH  22  26
ATOM     26  O   UNL     1      -2.199   4.649   0.342  1.00  0.00    -0.506 OA
ATOM     27  H   UNL     1      -1.434   4.536   0.937  1.00  0.00     0.293 HD
ENDBRANCH  22  26
ENDBRANCH  18  19
ENDBRANCH  17  18
BRANCH  17  28
ATOM     28  O   UNL     1      -1.540   1.283  -6.582  1.00  0.00    -0.383 OA
ATOM     29  H   UNL     1      -0.556   1.254  -6.582  1.00  0.00     0.211 HD
ENDBRANCH  17  28
ENDBRANCH  14  17
ENDBRANCH  12  13
BRANCH  12  30
ATOM     30  C   UNL     1      -1.880   5.378  -9.087  1.00  0.00     0.018 C 
ATOM     31  C   UNL     1      -3.364   5.527  -9.454  1.00  0.00     0.010 C 
BRANCH  30  32
ATOM     32  C   UNL     1      -1.331   4.034  -9.626  1.00  0.00     0.002 C 
ATOM     33  C   UNL     1      -0.416   4.143 -10.839  1.00  0.00     0.004 C 
ENDBRANCH  30  32
ENDBRANCH  12  30
ENDBRANCH  10  12
ENDBRANCH   1  10
BRANCH   5  34
ATOM     34  C   UNL     1       1.968   6.543  -5.080  1.00  0.00     0.242 C 
ATOM     35  O   UNL     1       1.926   7.745  -5.341  1.00  0.00    -0.273 OA
ATOM     36  N   UNL     1       2.610   6.050  -3.966  1.00  0.00    -0.354 N 
ATOM     37  H   UNL     1       2.715   5.040  -3.867  1.00  0.00     0.163 HD
BRANCH  36  38
ATOM     38  C   UNL     1       3.048   6.907  -2.884  1.00  0.00     0.116 C 
BRANCH  38  39
ATOM     39  C   UNL     1       3.909   6.110  -1.907  1.00  0.00     0.023 C 
BRANCH  39  40
ATOM     40  C   UNL     1       5.133   6.889  -1.440  1.00  0.00     0.026 C 
BRANCH  40  41
ATOM     41  C   UNL     1       6.416   6.113  -1.739  1.00  0.00     0.146 C 
BRANCH  41  42
ATOM     42  N   UNL     1       7.170   6.794  -2.784  1.00  0.00    -0.254 NA
ATOM     43  C   UNL     1       8.232   6.254  -3.252  1.00  0.00     0.185 C 
ATOM     44  N   UNL     1       8.822   5.087  -2.934  1.00  0.00    -0.370 N 
ATOM     45  N   UNL     1       8.915   6.899  -4.212  1.00  0.00    -0.370 N 
ATOM     46  H   UNL     1       9.774   4.904  -3.202  1.00  0.00     0.159 HD
ATOM     47  H   UNL     1       8.430   4.465  -2.234  1.00  0.00     0.159 HD
ATOM     48  H   UNL     1       8.533   7.784  -4.516  1.00  0.00     0.159 HD
ATOM     49  H   UNL     1       9.604   6.447  -4.787  1.00  0.00     0.159 HD
ENDBRANCH  41  42
ENDBRANCH  40  41
ENDBRANCH  39  40
ENDBRANCH  38  39
ENDBRANCH  36  38
ENDBRANCH   5  34
BRANCH   8  50
ATOM     50  O   UNL     1       4.462   7.686  -8.956  1.00  0.00    -0.245 OA
BRANCH  50  51
ATOM     51  S   UNL     1       5.527   8.737  -9.594  1.00  0.00     0.397 S 
ATOM     52  O   UNL     1       5.286  10.032  -9.000  1.00  0.00    -0.169 OA
ATOM     53  O   UNL     1       5.585   8.558 -11.030  1.00  0.00    -0.169 OA
BRANCH  51  54
ATOM     54  O   UNL     1       6.918   8.222  -8.974  1.00  0.00    -0.264 OA
ATOM     55  H   UNL     1       7.283   8.943  -8.420  1.00  0.00     0.236 HD
ENDBRANCH  51  54
ENDBRANCH  50  51
ENDBRANCH   8  50
TORSDOF 19
ENDMDL
MODEL 37
REMARK VINA RESULT:    -5.972     14.256     17.858
REMARK INTER + INTRA:         -14.787
REMARK INTER:                 -10.237
REMARK INTRA:                  -4.550
REMARK UNBOUND:                -2.705
REMARK SMILES CC[C@@H](C)[C@@H](NC(=O)[C@@H](O)Cc1ccc(O)c(Cl)c1)C(=O)N1[C@H](C(=O)NCCCCN=C(N)N)C[C@H]2CC[C@H](OS(=O)(=O)O)C[C@@H]21
REMARK SMILES IDX 22 1 36 2 46 3 35 4 23 5 45 6 37 7 39 8 38 9 20 10 21 11
REMARK SMILES IDX 5 12 6 13 7 14 8 15 9 17 11 18 12 19 17 20 19 21 15 22 14 23
REMARK SMILES IDX 13 24 18 25 16 26 10 28 3 30 4 31 2 32 1 33 24 34 25 35
REMARK SMILES IDX 26 36 27 38 28 39 29 40 30 41 31 42 32 43 33 44 34 45 40 50
REMARK SMILES IDX 41 51 42 52 43 53 44 54
REMARK H PARENT 6 16 16 27 10 29 26 37 33 46 33 47 34 48 34 49 44 55
ROOT
ATOM      1  N   UNL     1       2.976   9.299  10.050  1.00  0.00    -0.326 N 
ATOM      2  C   UNL     1       1.161   8.058  10.892  1.00  0.00     0.014 C 
ATOM      3  C   UNL     1       1.516   9.358  10.164  1.00  0.00     0.091 C 
ATOM      4  C   UNL     1       2.342   7.868  11.833  1.00  0.00     0.041 C 
ATOM      5  C   UNL     1       3.506   8.186  10.876  1.00  0.00     0.175 C 
ATOM      6  C   UNL     1       0.691   9.433   8.881  1.00  0.00     0.059 C 
ATOM      7  C   UNL     1      -0.242   8.122  11.464  1.00  0.00     0.008 C 
ATOM      8  C   UNL     1      -0.695   8.762   8.993  1.00  0.00     0.143 C 
ATOM      9  C   UNL     1      -1.217   8.748  10.444  1.00  0.00     0.034 C 
ENDROOT
BRANCH   1  10
ATOM     10  C   UNL     1       3.860  10.210   9.497  1.00  0.00     0.246 C 
ATOM     11  O   UNL     1       4.350  11.086  10.218  1.00  0.00    -0.272 OA
BRANCH  10  12
ATOM     12  C   UNL     1       4.251  10.086   7.996  1.00  0.00     0.174 C 
BRANCH  12  13
ATOM     13  N   UNL     1       3.506   8.991   7.376  1.00  0.00    -0.342 N 
ATOM     14  C   UNL     1       3.033   8.990   6.083  1.00  0.00     0.249 C 
ATOM     15  O   UNL     1       3.210   9.908   5.291  1.00  0.00    -0.272 OA
ATOM     16  H   UNL     1       3.149   8.234   7.953  1.00  0.00     0.164 HD
BRANCH  14  17
ATOM     17  C   UNL     1       2.269   7.696   5.729  1.00  0.00     0.207 C 
BRANCH  17  18
ATOM     18  C   UNL     1       1.131   7.997   4.749  1.00  0.00     0.077 C 
BRANCH  18  19
ATOM     19  C   UNL     1       1.191   7.108   3.527  1.00  0.00    -0.043 A 
ATOM     20  C   UNL     1       2.252   6.471   1.441  1.00  0.00     0.083 A 
ATOM     21  C   UNL     1       2.227   7.259   2.592  1.00  0.00     0.028 A 
ATOM     22  C   UNL     1       1.245   5.531   1.216  1.00  0.00     0.134 A 
ATOM     23  C   UNL     1       0.214   5.371   2.134  1.00  0.00     0.048 A 
ATOM     24  C   UNL     1       0.185   6.160   3.286  1.00  0.00     0.008 A 
ATOM     25  Cl  UNL     1       3.532   6.671   0.303  1.00  0.00    -0.080 Cl
BRANCH  22  26
ATOM     26  O   UNL     1       1.222   4.743   0.097  1.00  0.00    -0.506 OA
ATOM     27  H   UNL     1       1.759   3.954   0.299  1.00  0.00     0.293 HD
ENDBRANCH  22  26
ENDBRANCH  18  19
ENDBRANCH  17  18
BRANCH  17  28
ATOM     28  O   UNL     1       1.732   7.073   6.907  1.00  0.00    -0.383 OA
ATOM     29  H   UNL     1       0.756   7.188   6.854  1.00  0.00     0.211 HD
ENDBRANCH  17  28
ENDBRANCH  14  17
ENDBRANCH  12  13
BRANCH  12  30
ATOM     30  C   UNL     1       5.784   9.954   7.784  1.00  0.00     0.018 C 
ATOM     31  C   UNL     1       6.292  11.016   6.796  1.00  0.00     0.010 C 
BRANCH  30  32
ATOM     32  C   UNL     1       6.229   8.544   7.325  1.00  0.00     0.002 C 
ATOM     33  C   UNL     1       7.619   8.470   6.706  1.00  0.00     0.004 C 
ENDBRANCH  30  32
ENDBRANCH  12  30
ENDBRANCH  10  12
ENDBRANCH   1  10
BRANCH   5  34
ATOM     34  C   UNL     1       3.867   6.965   9.989  1.00  0.00     0.242 C 
ATOM     35  O   UNL     1       3.135   6.574   9.079  1.00  0.00    -0.273 OA
ATOM     36  N   UNL     1       5.035   6.321  10.327  1.00  0.00    -0.354 N 
ATOM     37  H   UNL     1       5.536   6.619  11.165  1.00  0.00     0.163 HD
BRANCH  36  38
ATOM     38  C   UNL     1       5.631   5.306   9.483  1.00  0.00     0.116 C 
BRANCH  38  39
ATOM     39  C   UNL     1       7.114   5.608   9.277  1.00  0.00     0.023 C 
BRANCH  39  40
ATOM     40  C   UNL     1       7.780   6.143  10.540  1.00  0.00     0.026 C 
BRANCH  40  41
ATOM     41  C   UNL     1       8.289   7.567  10.322  1.00  0.00     0.146 C 
BRANCH  41  42
ATOM     42  N   UNL     1       7.262   8.523  10.715  1.00  0.00    -0.254 NA
ATOM     43  C   UNL     1       7.296   9.046  11.883  1.00  0.00     0.185 C 
ATOM     44  N   UNL     1       8.172   8.862  12.888  1.00  0.00    -0.370 N 
ATOM     45  N   UNL     1       6.337   9.921  12.227  1.00  0.00    -0.370 N 
ATOM     46  H   UNL     1       7.944   9.145  13.825  1.00  0.00     0.159 HD
ATOM     47  H   UNL     1       8.970   8.241  12.792  1.00  0.00     0.159 HD
ATOM     48  H   UNL     1       5.641  10.123  11.522  1.00  0.00     0.159 HD
ATOM     49  H   UNL     1       6.423  10.541  13.012  1.00  0.00     0.159 HD
ENDBRANCH  41  42
ENDBRANCH  40  41
ENDBRANCH  39  40
ENDBRANCH  38  39
ENDBRANCH  36  38
ENDBRANCH   5  34
BRANCH   8  50
ATOM     50  O   UNL     1      -0.627   7.415   8.522  1.00  0.00    -0.245 OA
BRANCH  50  51
ATOM     51  S   UNL     1      -1.727   6.883   7.449  1.00  0.00     0.397 S 
ATOM     52  O   UNL     1      -2.022   7.965   6.538  1.00  0.00    -0.169 OA
ATOM     53  O   UNL     1      -2.777   6.168   8.144  1.00  0.00    -0.169 OA
BRANCH  51  54
ATOM     54  O   UNL     1      -0.878   5.814   6.600  1.00  0.00    -0.264 OA
ATOM     55  H   UNL     1      -1.296   4.937   6.720  1.00  0.00     0.236 HD
ENDBRANCH  51  54
ENDBRANCH  50  51
ENDBRANCH   8  50
TORSDOF 19
ENDMDL
MODEL 38
REMARK VINA RESULT:    -5.957     13.936     19.022
REMARK INTER + INTRA:         -14.757
REMARK INTER:                 -10.410
REMARK INTRA:                  -4.346
REMARK UNBOUND:                -2.705
REMARK SMILES CC[C@@H](C)[C@@H](NC(=O)[C@@H](O)Cc1ccc(O)c(Cl)c1)C(=O)N1[C@H](C(=O)NCCCCN=C(N)N)C[C@H]2CC[C@H](OS(=O)(=O)O)C[C@@H]21
REMARK SMILES IDX 22 1 36 2 46 3 35 4 23 5 45 6 37 7 39 8 38 9 20 10 21 11
REMARK SMILES IDX 5 12 6 13 7 14 8 15 9 17 11 18 12 19 17 20 19 21 15 22 14 23
REMARK SMILES IDX 13 24 18 25 16 26 10 28 3 30 4 31 2 32 1 33 24 34 25 35
REMARK SMILES IDX 26 36 27 38 28 39 29 40 30 41 31 42 32 43 33 44 34 45 40 50
REMARK SMILES IDX 41 51 42 52 43 53 44 54
REMARK H PARENT 6 16 16 27 10 29 26 37 33 46 33 47 34 48 34 49 44 55
ROOT
ATOM      1  N   UNL     1      -0.027   4.747  -7.285  1.00  0.00    -0.326 N 
ATOM      2  C   UNL     1       2.216   5.462  -7.275  1.00  0.00     0.014 C 
ATOM      3  C   UNL     1       1.210   4.616  -8.061  1.00  0.00     0.091 C 
ATOM      4  C   UNL     1       1.783   5.244  -5.833  1.00  0.00     0.041 C 
ATOM      5  C   UNL     1       0.258   5.397  -5.982  1.00  0.00     0.175 C 
ATOM      6  C   UNL     1       1.208   5.093  -9.512  1.00  0.00     0.059 C 
ATOM      7  C   UNL     1       3.639   5.129  -7.681  1.00  0.00     0.008 C 
ATOM      8  C   UNL     1       2.576   5.623  -9.994  1.00  0.00     0.143 C 
ATOM      9  C   UNL     1       3.748   4.993  -9.215  1.00  0.00     0.034 C 
ENDROOT
BRANCH   1  10
ATOM     10  C   UNL     1      -1.273   4.185  -7.500  1.00  0.00     0.246 C 
ATOM     11  O   UNL     1      -1.992   4.642  -8.396  1.00  0.00    -0.272 OA
BRANCH  10  12
ATOM     12  C   UNL     1      -1.724   2.967  -6.643  1.00  0.00     0.174 C 
BRANCH  12  13
ATOM     13  N   UNL     1      -2.375   3.432  -5.419  1.00  0.00    -0.342 N 
ATOM     14  C   UNL     1      -3.736   3.488  -5.220  1.00  0.00     0.249 C 
ATOM     15  O   UNL     1      -4.562   3.124  -6.048  1.00  0.00    -0.272 OA
ATOM     16  H   UNL     1      -1.827   3.910  -4.708  1.00  0.00     0.164 HD
BRANCH  14  17
ATOM     17  C   UNL     1      -4.112   4.042  -3.829  1.00  0.00     0.207 C 
BRANCH  17  18
ATOM     18  C   UNL     1      -3.815   3.004  -2.742  1.00  0.00     0.077 C 
BRANCH  18  19
ATOM     19  C   UNL     1      -2.822   3.524  -1.726  1.00  0.00    -0.043 A 
ATOM     20  C   UNL     1      -0.652   4.471  -1.202  1.00  0.00     0.083 A 
ATOM     21  C   UNL     1      -1.585   4.039  -2.144  1.00  0.00     0.028 A 
ATOM     22  C   UNL     1      -0.945   4.391   0.160  1.00  0.00     0.134 A 
ATOM     23  C   UNL     1      -2.166   3.883   0.588  1.00  0.00     0.048 A 
ATOM     24  C   UNL     1      -3.102   3.447  -0.353  1.00  0.00     0.008 A 
ATOM     25  Cl  UNL     1       0.863   5.101  -1.735  1.00  0.00    -0.080 Cl
BRANCH  22  26
ATOM     26  O   UNL     1      -0.057   4.792   1.121  1.00  0.00    -0.506 OA
ATOM     27  H   UNL     1      -0.539   4.783   1.969  1.00  0.00     0.293 HD
ENDBRANCH  22  26
ENDBRANCH  18  19
ENDBRANCH  17  18
BRANCH  17  28
ATOM     28  O   UNL     1      -5.501   4.405  -3.775  1.00  0.00    -0.383 OA
ATOM     29  H   UNL     1      -6.002   3.606  -4.057  1.00  0.00     0.211 HD
ENDBRANCH  17  28
ENDBRANCH  14  17
ENDBRANCH  12  13
BRANCH  12  30
ATOM     30  C   UNL     1      -0.567   1.972  -6.358  1.00  0.00     0.018 C 
ATOM     31  C   UNL     1      -0.915   0.566  -6.871  1.00  0.00     0.010 C 
BRANCH  30  32
ATOM     32  C   UNL     1      -0.157   1.908  -4.866  1.00  0.00     0.002 C 
ATOM     33  C   UNL     1      -0.640   0.677  -4.111  1.00  0.00     0.004 C 
ENDBRANCH  30  32
ENDBRANCH  12  30
ENDBRANCH  10  12
ENDBRANCH   1  10
BRANCH   5  34
ATOM     34  C   UNL     1      -0.168   6.889  -6.007  1.00  0.00     0.242 C 
ATOM     35  O   UNL     1       0.523   7.779  -5.512  1.00  0.00    -0.273 OA
ATOM     36  N   UNL     1      -1.398   7.138  -6.575  1.00  0.00    -0.354 N 
ATOM     37  H   UNL     1      -1.977   6.347  -6.859  1.00  0.00     0.163 HD
BRANCH  36  38
ATOM     38  C   UNL     1      -1.853   8.479  -6.876  1.00  0.00     0.116 C 
BRANCH  38  39
ATOM     39  C   UNL     1      -2.547   8.499  -8.236  1.00  0.00     0.023 C 
BRANCH  39  40
ATOM     40  C   UNL     1      -3.933   9.130  -8.175  1.00  0.00     0.026 C 
BRANCH  40  41
ATOM     41  C   UNL     1      -4.981   8.198  -8.783  1.00  0.00     0.146 C 
BRANCH  41  42
ATOM     42  N   UNL     1      -5.729   7.537  -7.721  1.00  0.00    -0.254 NA
ATOM     43  C   UNL     1      -5.541   6.291  -7.495  1.00  0.00     0.185 C 
ATOM     44  N   UNL     1      -4.719   5.416  -8.102  1.00  0.00    -0.370 N 
ATOM     45  N   UNL     1      -6.243   5.700  -6.515  1.00  0.00    -0.370 N 
ATOM     46  H   UNL     1      -4.851   4.425  -7.989  1.00  0.00     0.159 HD
ATOM     47  H   UNL     1      -4.104   5.699  -8.859  1.00  0.00     0.159 HD
ATOM     48  H   UNL     1      -6.881   6.292  -6.000  1.00  0.00     0.159 HD
ATOM     49  H   UNL     1      -5.989   4.810  -6.124  1.00  0.00     0.159 HD
ENDBRANCH  41  42
ENDBRANCH  40  41
ENDBRANCH  39  40
ENDBRANCH  38  39
ENDBRANCH  36  38
ENDBRANCH   5  34
BRANCH   8  50
ATOM     50  O   UNL     1       2.636   7.040  -9.836  1.00  0.00    -0.245 OA
BRANCH  50  51
ATOM     51  S   UNL     1       2.832   7.987 -11.144  1.00  0.00     0.397 S 
ATOM     52  O   UNL     1       2.963   9.353 -10.691  1.00  0.00    -0.169 OA
ATOM     53  O   UNL     1       1.872   7.613 -12.162  1.00  0.00    -0.169 OA
BRANCH  51  54
ATOM     54  O   UNL     1       4.293   7.553 -11.657  1.00  0.00    -0.264 OA
ATOM     55  H   UNL     1       4.397   7.880 -12.574  1.00  0.00     0.236 HD
ENDBRANCH  51  54
ENDBRANCH  50  51
ENDBRANCH   8  50
TORSDOF 19
ENDMDL
MODEL 39
REMARK VINA RESULT:    -5.950      3.783      8.995
REMARK INTER + INTRA:         -14.741
REMARK INTER:                 -10.509
REMARK INTRA:                  -4.233
REMARK UNBOUND:                -2.705
REMARK SMILES CC[C@@H](C)[C@@H](NC(=O)[C@@H](O)Cc1ccc(O)c(Cl)c1)C(=O)N1[C@H](C(=O)NCCCCN=C(N)N)C[C@H]2CC[C@H](OS(=O)(=O)O)C[C@@H]21
REMARK SMILES IDX 22 1 36 2 46 3 35 4 23 5 45 6 37 7 39 8 38 9 20 10 21 11
REMARK SMILES IDX 5 12 6 13 7 14 8 15 9 17 11 18 12 19 17 20 19 21 15 22 14 23
REMARK SMILES IDX 13 24 18 25 16 26 10 28 3 30 4 31 2 32 1 33 24 34 25 35
REMARK SMILES IDX 26 36 27 38 28 39 29 40 30 41 31 42 32 43 33 44 34 45 40 50
REMARK SMILES IDX 41 51 42 52 43 53 44 54
REMARK H PARENT 6 16 16 27 10 29 26 37 33 46 33 47 34 48 34 49 44 55
ROOT
ATOM      1  N   UNL     1      -8.910  -1.818   4.362  1.00  0.00    -0.326 N 
ATOM      2  C   UNL     1      -6.721  -1.474   5.155  1.00  0.00     0.014 C 
ATOM      3  C   UNL     1      -7.749  -0.949   4.150  1.00  0.00     0.091 C 
ATOM      4  C   UNL     1      -7.001  -2.969   5.171  1.00  0.00     0.041 C 
ATOM      5  C   UNL     1      -8.539  -2.958   5.236  1.00  0.00     0.175 C 
ATOM      6  C   UNL     1      -7.918   0.553   4.371  1.00  0.00     0.059 C 
ATOM      7  C   UNL     1      -5.328  -0.982   4.814  1.00  0.00     0.008 C 
ATOM      8  C   UNL     1      -6.635   1.257   4.864  1.00  0.00     0.143 C 
ATOM      9  C   UNL     1      -5.359   0.510   4.423  1.00  0.00     0.034 C 
ENDROOT
BRANCH   1  10
ATOM     10  C   UNL     1     -10.139  -1.829   3.723  1.00  0.00     0.246 C 
ATOM     11  O   UNL     1     -11.168  -1.717   4.397  1.00  0.00    -0.272 OA
BRANCH  10  12
ATOM     12  C   UNL     1     -10.195  -1.940   2.171  1.00  0.00     0.174 C 
BRANCH  12  13
ATOM     13  N   UNL     1     -10.664  -3.270   1.783  1.00  0.00    -0.342 N 
ATOM     14  C   UNL     1     -11.948  -3.572   1.390  1.00  0.00     0.249 C 
ATOM     15  O   UNL     1     -12.845  -2.743   1.295  1.00  0.00    -0.272 OA
ATOM     16  H   UNL     1     -10.078  -4.082   1.961  1.00  0.00     0.164 HD
BRANCH  14  17
ATOM     17  C   UNL     1     -12.135  -5.068   1.061  1.00  0.00     0.207 C 
BRANCH  17  18
ATOM     18  C   UNL     1     -13.009  -5.745   2.121  1.00  0.00     0.077 C 
BRANCH  18  19
ATOM     19  C   UNL     1     -12.249  -5.983   3.407  1.00  0.00    -0.043 A 
ATOM     20  C   UNL     1     -10.959  -7.449   4.846  1.00  0.00     0.083 A 
ATOM     21  C   UNL     1     -11.616  -7.215   3.638  1.00  0.00     0.028 A 
ATOM     22  C   UNL     1     -10.929  -6.459   5.829  1.00  0.00     0.134 A 
ATOM     23  C   UNL     1     -11.551  -5.235   5.613  1.00  0.00     0.048 A 
ATOM     24  C   UNL     1     -12.213  -4.998   4.406  1.00  0.00     0.008 A 
ATOM     25  Cl  UNL     1     -10.187  -8.969   5.111  1.00  0.00    -0.080 Cl
BRANCH  22  26
ATOM     26  O   UNL     1     -10.306  -6.646   7.033  1.00  0.00    -0.506 OA
ATOM     27  H   UNL     1     -10.937  -7.122   7.604  1.00  0.00     0.293 HD
ENDBRANCH  22  26
ENDBRANCH  18  19
ENDBRANCH  17  18
BRANCH  17  28
ATOM     28  O   UNL     1     -10.868  -5.743   0.985  1.00  0.00    -0.383 OA
ATOM     29  H   UNL     1     -10.920  -6.491   1.623  1.00  0.00     0.211 HD
ENDBRANCH  17  28
ENDBRANCH  14  17
ENDBRANCH  12  13
BRANCH  12  30
ATOM     30  C   UNL     1      -8.849  -1.565   1.494  1.00  0.00     0.018 C 
ATOM     31  C   UNL     1      -9.025  -0.356   0.562  1.00  0.00     0.010 C 
BRANCH  30  32
ATOM     32  C   UNL     1      -8.192  -2.738   0.726  1.00  0.00     0.002 C 
ATOM     33  C   UNL     1      -6.699  -2.919   0.967  1.00  0.00     0.004 C 
ENDBRANCH  30  32
ENDBRANCH  12  30
ENDBRANCH  10  12
ENDBRANCH   1  10
BRANCH   5  34
ATOM     34  C   UNL     1      -9.049  -2.729   6.684  1.00  0.00     0.242 C 
ATOM     35  O   UNL     1      -9.520  -1.654   7.054  1.00  0.00    -0.273 OA
ATOM     36  N   UNL     1      -8.885  -3.797   7.538  1.00  0.00    -0.354 N 
ATOM     37  H   UNL     1      -8.378  -4.619   7.205  1.00  0.00     0.163 HD
BRANCH  36  38
ATOM     38  C   UNL     1      -9.492  -3.837   8.852  1.00  0.00     0.116 C 
BRANCH  38  39
ATOM     39  C   UNL     1      -8.452  -3.491   9.914  1.00  0.00     0.023 C 
BRANCH  39  40
ATOM     40  C   UNL     1      -9.034  -2.653  11.048  1.00  0.00     0.026 C 
BRANCH  40  41
ATOM     41  C   UNL     1      -9.629  -1.351  10.510  1.00  0.00     0.146 C 
BRANCH  41  42
ATOM     42  N   UNL     1      -8.752  -0.235  10.841  1.00  0.00    -0.254 NA
ATOM     43  C   UNL     1      -8.410   0.594   9.928  1.00  0.00     0.185 C 
ATOM     44  N   UNL     1      -8.736   0.627   8.623  1.00  0.00    -0.370 N 
ATOM     45  N   UNL     1      -7.598   1.613  10.253  1.00  0.00    -0.370 N 
ATOM     46  H   UNL     1      -8.205   1.185   7.976  1.00  0.00     0.159 HD
ATOM     47  H   UNL     1      -9.355  -0.064   8.210  1.00  0.00     0.159 HD
ATOM     48  H   UNL     1      -7.312   1.667  11.221  1.00  0.00     0.159 HD
ATOM     49  H   UNL     1      -7.479   2.422   9.669  1.00  0.00     0.159 HD
ENDBRANCH  41  42
ENDBRANCH  40  41
ENDBRANCH  39  40
ENDBRANCH  38  39
ENDBRANCH  36  38
ENDBRANCH   5  34
BRANCH   8  50
ATOM     50  O   UNL     1      -6.639   1.343   6.289  1.00  0.00    -0.245 OA
BRANCH  50  51
ATOM     51  S   UNL     1      -6.366   2.776   7.007  1.00  0.00     0.397 S 
ATOM     52  O   UNL     1      -7.603   3.215   7.613  1.00  0.00    -0.169 OA
ATOM     53  O   UNL     1      -5.612   3.631   6.115  1.00  0.00    -0.169 OA
BRANCH  51  54
ATOM     54  O   UNL     1      -5.404   2.362   8.228  1.00  0.00    -0.264 OA
ATOM     55  H   UNL     1      -5.961   2.266   9.027  1.00  0.00     0.236 HD
ENDBRANCH  51  54
ENDBRANCH  50  51
ENDBRANCH   8  50
TORSDOF 19
ENDMDL
MODEL 40
REMARK VINA RESULT:    -5.914      6.411     10.692
REMARK INTER + INTRA:         -14.669
REMARK INTER:                 -10.570
REMARK INTRA:                  -4.099
REMARK UNBOUND:                -2.705
REMARK SMILES CC[C@@H](C)[C@@H](NC(=O)[C@@H](O)Cc1ccc(O)c(Cl)c1)C(=O)N1[C@H](C(=O)NCCCCN=C(N)N)C[C@H]2CC[C@H](OS(=O)(=O)O)C[C@@H]21
REMARK SMILES IDX 22 1 36 2 46 3 35 4 23 5 45 6 37 7 39 8 38 9 20 10 21 11
REMARK SMILES IDX 5 12 6 13 7 14 8 15 9 17 11 18 12 19 17 20 19 21 15 22 14 23
REMARK SMILES IDX 13 24 18 25 16 26 10 28 3 30 4 31 2 32 1 33 24 34 25 35
REMARK SMILES IDX 26 36 27 38 28 39 29 40 30 41 31 42 32 43 33 44 34 45 40 50
REMARK SMILES IDX 41 51 42 52 43 53 44 54
REMARK H PARENT 6 16 16 27 10 29 26 37 33 46 33 47 34 48 34 49 44 55
ROOT
ATOM      1  N   UNL     1     -10.026  -1.488   0.728  1.00  0.00    -0.326 N 
ATOM      2  C   UNL     1     -12.006  -0.411   0.047  1.00  0.00     0.014 C 
ATOM      3  C   UNL     1     -10.657  -0.921  -0.467  1.00  0.00     0.091 C 
ATOM      4  C   UNL     1     -11.672   0.059   1.455  1.00  0.00     0.041 C 
ATOM      5  C   UNL     1     -10.805  -1.119   1.936  1.00  0.00     0.175 C 
ATOM      6  C   UNL     1     -10.911  -1.842  -1.659  1.00  0.00     0.059 C 
ATOM      7  C   UNL     1     -12.628   0.563  -0.934  1.00  0.00     0.008 C 
ATOM      8  C   UNL     1     -12.153  -1.455  -2.490  1.00  0.00     0.143 C 
ATOM      9  C   UNL     1     -12.478   0.048  -2.381  1.00  0.00     0.034 C 
ENDROOT
BRANCH   1  10
ATOM     10  C   UNL     1      -8.784  -2.079   0.881  1.00  0.00     0.246 C 
ATOM     11  O   UNL     1      -8.628  -3.251   0.522  1.00  0.00    -0.272 OA
BRANCH  10  12
ATOM     12  C   UNL     1      -7.604  -1.246   1.459  1.00  0.00     0.174 C 
BRANCH  12  13
ATOM     13  N   UNL     1      -7.622   0.103   0.894  1.00  0.00    -0.342 N 
ATOM     14  C   UNL     1      -7.660   1.267   1.629  1.00  0.00     0.249 C 
ATOM     15  O   UNL     1      -7.655   1.301   2.853  1.00  0.00    -0.272 OA
ATOM     16  H   UNL     1      -7.786   0.230  -0.101  1.00  0.00     0.164 HD
BRANCH  14  17
ATOM     17  C   UNL     1      -7.689   2.530   0.742  1.00  0.00     0.207 C 
BRANCH  17  18
ATOM     18  C   UNL     1      -7.730   2.144  -0.740  1.00  0.00     0.077 C 
BRANCH  18  19
ATOM     19  C   UNL     1      -8.955   2.699  -1.431  1.00  0.00    -0.043 A 
ATOM     20  C   UNL     1     -11.123   3.780  -1.321  1.00  0.00     0.083 A 
ATOM     21  C   UNL     1      -9.972   3.314  -0.685  1.00  0.00     0.028 A 
ATOM     22  C   UNL     1     -11.266   3.636  -2.701  1.00  0.00     0.134 A 
ATOM     23  C   UNL     1     -10.266   3.029  -3.453  1.00  0.00     0.048 A 
ATOM     24  C   UNL     1      -9.113   2.559  -2.819  1.00  0.00     0.008 A 
ATOM     25  Cl  UNL     1     -12.362   4.533  -0.387  1.00  0.00    -0.080 Cl
BRANCH  22  26
ATOM     26  O   UNL     1     -12.381   4.068  -3.367  1.00  0.00    -0.506 OA
ATOM     27  H   UNL     1     -12.257   3.829  -4.305  1.00  0.00     0.293 HD
ENDBRANCH  22  26
ENDBRANCH  18  19
ENDBRANCH  17  18
BRANCH  17  28
ATOM     28  O   UNL     1      -6.542   3.360   0.987  1.00  0.00    -0.383 OA
ATOM     29  H   UNL     1      -6.315   3.772   0.123  1.00  0.00     0.211 HD
ENDBRANCH  17  28
ENDBRANCH  14  17
ENDBRANCH  12  13
BRANCH  12  30
ATOM     30  C   UNL     1      -6.230  -1.946   1.277  1.00  0.00     0.018 C 
ATOM     31  C   UNL     1      -5.233  -1.480   2.350  1.00  0.00     0.010 C 
BRANCH  30  32
ATOM     32  C   UNL     1      -5.619  -1.759  -0.134  1.00  0.00     0.002 C 
ATOM     33  C   UNL     1      -4.440  -2.668  -0.458  1.00  0.00     0.004 C 
ENDBRANCH  30  32
ENDBRANCH  12  30
ENDBRANCH  10  12
ENDBRANCH   1  10
BRANCH   5  34
ATOM     34  C   UNL     1     -11.675  -2.311   2.416  1.00  0.00     0.242 C 
ATOM     35  O   UNL     1     -12.389  -2.244   3.416  1.00  0.00    -0.273 OA
ATOM     36  N   UNL     1     -11.548  -3.464   1.674  1.00  0.00    -0.354 N 
ATOM     37  H   UNL     1     -10.850  -3.495   0.929  1.00  0.00     0.163 HD
BRANCH  36  38
ATOM     38  C   UNL     1     -12.436  -4.595   1.845  1.00  0.00     0.116 C 
BRANCH  38  39
ATOM     39  C   UNL     1     -11.656  -5.897   1.678  1.00  0.00     0.023 C 
BRANCH  39  40
ATOM     40  C   UNL     1     -11.692  -6.763   2.933  1.00  0.00     0.026 C 
BRANCH  40  41
ATOM     41  C   UNL     1     -12.109  -5.937   4.150  1.00  0.00     0.146 C 
BRANCH  41  42
ATOM     42  N   UNL     1     -11.120  -6.087   5.209  1.00  0.00    -0.254 NA
ATOM     43  C   UNL     1     -10.488  -5.058   5.635  1.00  0.00     0.185 C 
ATOM     44  N   UNL     1     -10.576  -3.770   5.257  1.00  0.00    -0.370 N 
ATOM     45  N   UNL     1      -9.577  -5.218   6.609  1.00  0.00    -0.370 N 
ATOM     46  H   UNL     1      -9.854  -3.113   5.500  1.00  0.00     0.159 HD
ATOM     47  H   UNL     1     -11.228  -3.469   4.539  1.00  0.00     0.159 HD
ATOM     48  H   UNL     1      -9.454  -6.159   6.958  1.00  0.00     0.159 HD
ATOM     49  H   UNL     1      -9.220  -4.452   7.152  1.00  0.00     0.159 HD
ENDBRANCH  41  42
ENDBRANCH  40  41
ENDBRANCH  39  40
ENDBRANCH  38  39
ENDBRANCH  36  38
ENDBRANCH   5  34
BRANCH   8  50
ATOM     50  O   UNL     1     -13.290  -2.197  -2.048  1.00  0.00    -0.245 OA
BRANCH  50  51
ATOM     51  S   UNL     1     -13.762  -3.514  -2.877  1.00  0.00     0.397 S 
ATOM     52  O   UNL     1     -15.109  -3.285  -3.350  1.00  0.00    -0.169 OA
ATOM     53  O   UNL     1     -13.409  -4.708  -2.137  1.00  0.00    -0.169 OA
BRANCH  51  54
ATOM     54  O   UNL     1     -12.822  -3.444  -4.181  1.00  0.00    -0.264 OA
ATOM     55  H   UNL     1     -13.348  -3.758  -4.945  1.00  0.00     0.236 HD
ENDBRANCH  51  54
ENDBRANCH  50  51
ENDBRANCH   8  50
TORSDOF 19
ENDMDL
MODEL 41
REMARK VINA RESULT:    -5.884      6.331      9.916
REMARK INTER + INTRA:         -14.609
REMARK INTER:                 -11.073
REMARK INTRA:                  -3.536
REMARK UNBOUND:                -2.705
REMARK SMILES CC[C@@H](C)[C@@H](NC(=O)[C@@H](O)Cc1ccc(O)c(Cl)c1)C(=O)N1[C@H](C(=O)NCCCCN=C(N)N)C[C@H]2CC[C@H](OS(=O)(=O)O)C[C@@H]21
REMARK SMILES IDX 22 1 36 2 46 3 35 4 23 5 45 6 37 7 39 8 38 9 20 10 21 11
REMARK SMILES IDX 5 12 6 13 7 14 8 15 9 17 11 18 12 19 17 20 19 21 15 22 14 23
REMARK SMILES IDX 13 24 18 25 16 26 10 28 3 30 4 31 2 32 1 33 24 34 25 35
REMARK SMILES IDX 26 36 27 38 28 39 29 40 30 41 31 42 32 43 33 44 34 45 40 50
REMARK SMILES IDX 41 51 42 52 43 53 44 54
REMARK H PARENT 6 16 16 27 10 29 26 37 33 46 33 47 34 48 34 49 44 55
ROOT
ATOM      1  N   UNL     1     -10.384  -2.608   1.078  1.00  0.00    -0.326 N 
ATOM      2  C   UNL     1      -9.673  -1.263   2.875  1.00  0.00     0.014 C 
ATOM      3  C   UNL     1     -10.764  -2.248   2.447  1.00  0.00     0.091 C 
ATOM      4  C   UNL     1      -9.360  -0.528   1.580  1.00  0.00     0.041 C 
ATOM      5  C   UNL     1      -9.300  -1.714   0.601  1.00  0.00     0.175 C 
ATOM      6  C   UNL     1     -10.848  -3.360   3.491  1.00  0.00     0.059 C 
ATOM      7  C   UNL     1     -10.104  -0.471   4.094  1.00  0.00     0.008 C 
ATOM      8  C   UNL     1     -10.504  -2.895   4.923  1.00  0.00     0.143 C 
ATOM      9  C   UNL     1     -10.786  -1.392   5.127  1.00  0.00     0.034 C 
ENDROOT
BRANCH   1  10
ATOM     10  C   UNL     1     -11.009  -3.451   0.176  1.00  0.00     0.246 C 
ATOM     11  O   UNL     1     -10.601  -4.612   0.056  1.00  0.00    -0.272 OA
BRANCH  10  12
ATOM     12  C   UNL     1     -12.234  -2.936  -0.634  1.00  0.00     0.174 C 
BRANCH  12  13
ATOM     13  N   UNL     1     -11.956  -1.602  -1.164  1.00  0.00    -0.342 N 
ATOM     14  C   UNL     1     -12.093  -1.231  -2.483  1.00  0.00     0.249 C 
ATOM     15  O   UNL     1     -12.495  -1.981  -3.364  1.00  0.00    -0.272 OA
ATOM     16  H   UNL     1     -11.469  -0.922  -0.586  1.00  0.00     0.164 HD
BRANCH  14  17
ATOM     17  C   UNL     1     -11.706   0.242  -2.731  1.00  0.00     0.207 C 
BRANCH  17  18
ATOM     18  C   UNL     1     -11.184   0.883  -1.441  1.00  0.00     0.077 C 
BRANCH  18  19
ATOM     19  C   UNL     1     -10.617   2.263  -1.688  1.00  0.00    -0.043 A 
ATOM     20  C   UNL     1      -8.984   3.706  -2.753  1.00  0.00     0.083 A 
ATOM     21  C   UNL     1      -9.536   2.438  -2.566  1.00  0.00     0.028 A 
ATOM     22  C   UNL     1      -9.506   4.803  -2.068  1.00  0.00     0.134 A 
ATOM     23  C   UNL     1     -10.577   4.644  -1.196  1.00  0.00     0.048 A 
ATOM     24  C   UNL     1     -11.130   3.376  -1.004  1.00  0.00     0.008 A 
ATOM     25  Cl  UNL     1      -7.655   3.901  -3.835  1.00  0.00    -0.080 Cl
BRANCH  22  26
ATOM     26  O   UNL     1      -8.991   6.063  -2.211  1.00  0.00    -0.506 OA
ATOM     27  H   UNL     1      -9.593   6.545  -2.808  1.00  0.00     0.293 HD
ENDBRANCH  22  26
ENDBRANCH  18  19
ENDBRANCH  17  18
BRANCH  17  28
ATOM     28  O   UNL     1     -12.827   0.997  -3.219  1.00  0.00    -0.383 OA
ATOM     29  H   UNL     1     -13.316   0.396  -3.825  1.00  0.00     0.211 HD
ENDBRANCH  17  28
ENDBRANCH  14  17
ENDBRANCH  12  13
BRANCH  12  30
ATOM     30  C   UNL     1     -13.556  -2.987   0.179  1.00  0.00     0.018 C 
ATOM     31  C   UNL     1     -13.585  -4.220   1.096  1.00  0.00     0.010 C 
BRANCH  30  32
ATOM     32  C   UNL     1     -14.829  -2.948  -0.701  1.00  0.00     0.002 C 
ATOM     33  C   UNL     1     -14.866  -3.960  -1.839  1.00  0.00     0.004 C 
ENDBRANCH  30  32
ENDBRANCH  12  30
ENDBRANCH  10  12
ENDBRANCH   1  10
BRANCH   5  34
ATOM     34  C   UNL     1      -7.927  -2.435   0.660  1.00  0.00     0.242 C 
ATOM     35  O   UNL     1      -7.737  -3.533   0.136  1.00  0.00    -0.273 OA
ATOM     36  N   UNL     1      -6.954  -1.785   1.385  1.00  0.00    -0.354 N 
ATOM     37  H   UNL     1      -7.206  -0.938   1.896  1.00  0.00     0.163 HD
BRANCH  36  38
ATOM     38  C   UNL     1      -5.567  -2.201   1.366  1.00  0.00     0.116 C 
BRANCH  38  39
ATOM     39  C   UNL     1      -4.658  -0.982   1.503  1.00  0.00     0.023 C 
BRANCH  39  40
ATOM     40  C   UNL     1      -5.443   0.320   1.620  1.00  0.00     0.026 C 
BRANCH  40  41
ATOM     41  C   UNL     1      -5.376   0.868   3.046  1.00  0.00     0.146 C 
BRANCH  41  42
ATOM     42  N   UNL     1      -6.336   0.168   3.888  1.00  0.00    -0.254 NA
ATOM     43  C   UNL     1      -5.918  -0.633   4.795  1.00  0.00     0.185 C 
ATOM     44  N   UNL     1      -4.661  -0.970   5.139  1.00  0.00    -0.370 N 
ATOM     45  N   UNL     1      -6.819  -1.272   5.558  1.00  0.00    -0.370 N 
ATOM     46  H   UNL     1      -4.484  -1.787   5.698  1.00  0.00     0.159 HD
ATOM     47  H   UNL     1      -3.855  -0.568   4.671  1.00  0.00     0.159 HD
ATOM     48  H   UNL     1      -7.791  -1.067   5.370  1.00  0.00     0.159 HD
ATOM     49  H   UNL     1      -6.579  -1.719   6.425  1.00  0.00     0.159 HD
ENDBRANCH  41  42
ENDBRANCH  40  41
ENDBRANCH  39  40
ENDBRANCH  38  39
ENDBRANCH  36  38
ENDBRANCH   5  34
BRANCH   8  50
ATOM     50  O   UNL     1      -9.125  -3.139   5.200  1.00  0.00    -0.245 OA
BRANCH  50  51
ATOM     51  S   UNL     1      -8.704  -3.896   6.577  1.00  0.00     0.397 S 
ATOM     52  O   UNL     1      -9.535  -5.071   6.712  1.00  0.00    -0.169 OA
ATOM     53  O   UNL     1      -8.579  -2.927   7.646  1.00  0.00    -0.169 OA
BRANCH  51  54
ATOM     54  O   UNL     1      -7.232  -4.439   6.225  1.00  0.00    -0.264 OA
ATOM     55  H   UNL     1      -7.315  -5.059   5.471  1.00  0.00     0.236 HD
ENDBRANCH  51  54
ENDBRANCH  50  51
ENDBRANCH   8  50
TORSDOF 19
ENDMDL
MODEL 42
REMARK VINA RESULT:    -5.874     16.345     19.808
REMARK INTER + INTRA:         -14.588
REMARK INTER:                 -11.267
REMARK INTRA:                  -3.322
REMARK UNBOUND:                -2.705
REMARK SMILES CC[C@@H](C)[C@@H](NC(=O)[C@@H](O)Cc1ccc(O)c(Cl)c1)C(=O)N1[C@H](C(=O)NCCCCN=C(N)N)C[C@H]2CC[C@H](OS(=O)(=O)O)C[C@@H]21
REMARK SMILES IDX 22 1 36 2 46 3 35 4 23 5 45 6 37 7 39 8 38 9 20 10 21 11
REMARK SMILES IDX 5 12 6 13 7 14 8 15 9 17 11 18 12 19 17 20 19 21 15 22 14 23
REMARK SMILES IDX 13 24 18 25 16 26 10 28 3 30 4 31 2 32 1 33 24 34 25 35
REMARK SMILES IDX 26 36 27 38 28 39 29 40 30 41 31 42 32 43 33 44 34 45 40 50
REMARK SMILES IDX 41 51 42 52 43 53 44 54
REMARK H PARENT 6 16 16 27 10 29 26 37 33 46 33 47 34 48 34 49 44 55
ROOT
ATOM      1  N   UNL     1       0.162   5.637  -6.302  1.00  0.00    -0.326 N 
ATOM      2  C   UNL     1      -0.097   7.401  -4.764  1.00  0.00     0.014 C 
ATOM      3  C   UNL     1      -0.325   5.897  -4.944  1.00  0.00     0.091 C 
ATOM      4  C   UNL     1      -0.356   7.948  -6.160  1.00  0.00     0.041 C 
ATOM      5  C   UNL     1       0.419   6.919  -7.003  1.00  0.00     0.175 C 
ATOM      6  C   UNL     1       0.344   5.165  -3.782  1.00  0.00     0.059 C 
ATOM      7  C   UNL     1      -0.902   7.935  -3.596  1.00  0.00     0.008 C 
ATOM      8  C   UNL     1       0.350   5.968  -2.463  1.00  0.00     0.143 C 
ATOM      9  C   UNL     1      -0.816   6.974  -2.391  1.00  0.00     0.034 C 
ENDROOT
BRANCH   1  10
ATOM     10  C   UNL     1       0.192   4.455  -7.023  1.00  0.00     0.246 C 
ATOM     11  O   UNL     1       1.279   3.906  -7.232  1.00  0.00    -0.272 OA
BRANCH  10  12
ATOM     12  C   UNL     1      -1.142   3.823  -7.515  1.00  0.00     0.174 C 
BRANCH  12  13
ATOM     13  N   UNL     1      -2.180   4.849  -7.596  1.00  0.00    -0.342 N 
ATOM     14  C   UNL     1      -2.583   5.477  -8.753  1.00  0.00     0.249 C 
ATOM     15  O   UNL     1      -2.129   5.221  -9.861  1.00  0.00    -0.272 OA
ATOM     16  H   UNL     1      -2.535   5.275  -6.743  1.00  0.00     0.164 HD
BRANCH  14  17
ATOM     17  C   UNL     1      -3.688   6.527  -8.508  1.00  0.00     0.207 C 
BRANCH  17  18
ATOM     18  C   UNL     1      -4.832   6.344  -9.511  1.00  0.00     0.077 C 
BRANCH  18  19
ATOM     19  C   UNL     1      -5.969   5.537  -8.925  1.00  0.00    -0.043 A 
ATOM     20  C   UNL     1      -6.897   4.222  -7.110  1.00  0.00     0.083 A 
ATOM     21  C   UNL     1      -5.867   5.007  -7.629  1.00  0.00     0.028 A 
ATOM     22  C   UNL     1      -8.031   3.960  -7.880  1.00  0.00     0.134 A 
ATOM     23  C   UNL     1      -8.145   4.478  -9.164  1.00  0.00     0.048 A 
ATOM     24  C   UNL     1      -7.115   5.264  -9.687  1.00  0.00     0.008 A 
ATOM     25  Cl  UNL     1      -6.754   3.579  -5.516  1.00  0.00    -0.080 Cl
BRANCH  22  26
ATOM     26  O   UNL     1      -9.062   3.187  -7.418  1.00  0.00    -0.506 OA
ATOM     27  H   UNL     1      -9.207   2.488  -8.083  1.00  0.00     0.293 HD
ENDBRANCH  22  26
ENDBRANCH  18  19
ENDBRANCH  17  18
BRANCH  17  28
ATOM     28  O   UNL     1      -3.167   7.861  -8.618  1.00  0.00    -0.383 OA
ATOM     29  H   UNL     1      -3.489   8.345  -7.823  1.00  0.00     0.211 HD
ENDBRANCH  17  28
ENDBRANCH  14  17
ENDBRANCH  12  13
BRANCH  12  30
ATOM     30  C   UNL     1      -1.579   2.603  -6.660  1.00  0.00     0.018 C 
ATOM     31  C   UNL     1      -2.856   2.922  -5.867  1.00  0.00     0.010 C 
BRANCH  30  32
ATOM     32  C   UNL     1      -0.476   2.085  -5.706  1.00  0.00     0.002 C 
ATOM     33  C   UNL     1      -0.930   1.047  -4.688  1.00  0.00     0.004 C 
ENDBRANCH  30  32
ENDBRANCH  12  30
ENDBRANCH  10  12
ENDBRANCH   1  10
BRANCH   5  34
ATOM     34  C   UNL     1       1.939   7.233  -7.035  1.00  0.00     0.242 C 
ATOM     35  O   UNL     1       2.748   6.639  -6.324  1.00  0.00    -0.273 OA
ATOM     36  N   UNL     1       2.307   8.260  -7.876  1.00  0.00    -0.354 N 
ATOM     37  H   UNL     1       1.576   8.794  -8.349  1.00  0.00     0.163 HD
BRANCH  36  38
ATOM     38  C   UNL     1       3.692   8.542  -8.191  1.00  0.00     0.116 C 
BRANCH  38  39
ATOM     39  C   UNL     1       3.876   8.607  -9.705  1.00  0.00     0.023 C 
BRANCH  39  40
ATOM     40  C   UNL     1       2.757   7.897 -10.459  1.00  0.00     0.026 C 
BRANCH  40  41
ATOM     41  C   UNL     1       3.154   6.459 -10.790  1.00  0.00     0.146 C 
BRANCH  41  42
ATOM     42  N   UNL     1       3.091   5.641  -9.586  1.00  0.00    -0.254 NA
ATOM     43  C   UNL     1       4.129   4.997  -9.203  1.00  0.00     0.185 C 
ATOM     44  N   UNL     1       5.358   4.933  -9.747  1.00  0.00    -0.370 N 
ATOM     45  N   UNL     1       4.049   4.245  -8.093  1.00  0.00    -0.370 N 
ATOM     46  H   UNL     1       5.998   4.204  -9.484  1.00  0.00     0.159 HD
ATOM     47  H   UNL     1       5.597   5.454 -10.586  1.00  0.00     0.159 HD
ATOM     48  H   UNL     1       3.157   4.244  -7.615  1.00  0.00     0.159 HD
ATOM     49  H   UNL     1       4.859   3.910  -7.603  1.00  0.00     0.159 HD
ENDBRANCH  41  42
ENDBRANCH  40  41
ENDBRANCH  39  40
ENDBRANCH  38  39
ENDBRANCH  36  38
ENDBRANCH   5  34
BRANCH   8  50
ATOM     50  O   UNL     1       1.577   6.687  -2.333  1.00  0.00    -0.245 OA
BRANCH  50  51
ATOM     51  S   UNL     1       2.699   6.175  -1.272  1.00  0.00     0.397 S 
ATOM     52  O   UNL     1       3.002   7.271  -0.379  1.00  0.00    -0.169 OA
ATOM     53  O   UNL     1       3.742   5.457  -1.975  1.00  0.00    -0.169 OA
BRANCH  51  54
ATOM     54  O   UNL     1       1.870   5.112  -0.394  1.00  0.00    -0.264 OA
ATOM     55  H   UNL     1       1.670   4.344  -0.967  1.00  0.00     0.236 HD
ENDBRANCH  51  54
ENDBRANCH  50  51
ENDBRANCH   8  50
TORSDOF 19
ENDMDL
MODEL 43
REMARK VINA RESULT:    -5.856      4.807      8.111
REMARK INTER + INTRA:         -14.553
REMARK INTER:                 -11.277
REMARK INTRA:                  -3.276
REMARK UNBOUND:                -2.705
REMARK SMILES CC[C@@H](C)[C@@H](NC(=O)[C@@H](O)Cc1ccc(O)c(Cl)c1)C(=O)N1[C@H](C(=O)NCCCCN=C(N)N)C[C@H]2CC[C@H](OS(=O)(=O)O)C[C@@H]21
REMARK SMILES IDX 22 1 36 2 46 3 35 4 23 5 45 6 37 7 39 8 38 9 20 10 21 11
REMARK SMILES IDX 5 12 6 13 7 14 8 15 9 17 11 18 12 19 17 20 19 21 15 22 14 23
REMARK SMILES IDX 13 24 18 25 16 26 10 28 3 30 4 31 2 32 1 33 24 34 25 35
REMARK SMILES IDX 26 36 27 38 28 39 29 40 30 41 31 42 32 43 33 44 34 45 40 50
REMARK SMILES IDX 41 51 42 52 43 53 44 54
REMARK H PARENT 6 16 16 27 10 29 26 37 33 46 33 47 34 48 34 49 44 55
ROOT
ATOM      1  N   UNL     1     -10.153  -2.210   3.967  1.00  0.00    -0.326 N 
ATOM      2  C   UNL     1      -8.649  -0.466   3.474  1.00  0.00     0.014 C 
ATOM      3  C   UNL     1      -8.751  -1.830   4.164  1.00  0.00     0.091 C 
ATOM      4  C   UNL     1     -10.014   0.148   3.744  1.00  0.00     0.041 C 
ATOM      5  C   UNL     1     -10.922  -1.057   3.435  1.00  0.00     0.175 C 
ATOM      6  C   UNL     1      -7.667  -2.742   3.594  1.00  0.00     0.059 C 
ATOM      7  C   UNL     1      -7.401   0.272   3.915  1.00  0.00     0.008 C 
ATOM      8  C   UNL     1      -6.385  -1.993   3.168  1.00  0.00     0.143 C 
ATOM      9  C   UNL     1      -6.190  -0.683   3.959  1.00  0.00     0.034 C 
ENDROOT
BRANCH   1  10
ATOM     10  C   UNL     1     -10.835  -3.338   4.390  1.00  0.00     0.246 C 
ATOM     11  O   UNL     1     -11.547  -3.947   3.585  1.00  0.00    -0.272 OA
BRANCH  10  12
ATOM     12  C   UNL     1     -10.658  -3.837   5.854  1.00  0.00     0.174 C 
BRANCH  12  13
ATOM     13  N   UNL     1     -11.200  -5.189   5.988  1.00  0.00    -0.342 N 
ATOM     14  C   UNL     1     -10.724  -6.148   6.853  1.00  0.00     0.249 C 
ATOM     15  O   UNL     1      -9.800  -5.964   7.635  1.00  0.00    -0.272 OA
ATOM     16  H   UNL     1     -11.863  -5.536   5.300  1.00  0.00     0.164 HD
BRANCH  14  17
ATOM     17  C   UNL     1     -11.497  -7.481   6.748  1.00  0.00     0.207 C 
BRANCH  17  18
ATOM     18  C   UNL     1     -10.578  -8.593   6.231  1.00  0.00     0.077 C 
BRANCH  18  19
ATOM     19  C   UNL     1     -10.699  -9.852   7.060  1.00  0.00    -0.043 A 
ATOM     20  C   UNL     1     -11.661 -12.049   7.419  1.00  0.00     0.083 A 
ATOM     21  C   UNL     1     -11.513 -10.910   6.627  1.00  0.00     0.028 A 
ATOM     22  C   UNL     1     -11.000 -12.139   8.644  1.00  0.00     0.134 A 
ATOM     23  C   UNL     1     -10.191 -11.099   9.085  1.00  0.00     0.048 A 
ATOM     24  C   UNL     1     -10.042  -9.956   8.296  1.00  0.00     0.008 A 
ATOM     25  Cl  UNL     1     -12.666 -13.339   6.870  1.00  0.00    -0.080 Cl
BRANCH  22  26
ATOM     26  O   UNL     1     -11.123 -13.232   9.459  1.00  0.00    -0.506 OA
ATOM     27  H   UNL     1     -12.022 -13.201   9.836  1.00  0.00     0.293 HD
ENDBRANCH  22  26
ENDBRANCH  18  19
ENDBRANCH  17  18
BRANCH  17  28
ATOM     28  O   UNL     1     -12.630  -7.354   5.874  1.00  0.00    -0.383 OA
ATOM     29  H   UNL     1     -12.263  -7.208   4.972  1.00  0.00     0.211 HD
ENDBRANCH  17  28
ENDBRANCH  14  17
ENDBRANCH  12  13
BRANCH  12  30
ATOM     30  C   UNL     1     -11.251  -2.854   6.899  1.00  0.00     0.018 C 
ATOM     31  C   UNL     1     -12.558  -2.232   6.384  1.00  0.00     0.010 C 
BRANCH  30  32
ATOM     32  C   UNL     1     -10.266  -1.740   7.333  1.00  0.00     0.002 C 
ATOM     33  C   UNL     1      -8.888  -2.222   7.766  1.00  0.00     0.004 C 
ENDBRANCH  30  32
ENDBRANCH  12  30
ENDBRANCH  10  12
ENDBRANCH   1  10
BRANCH   5  34
ATOM     34  C   UNL     1     -11.165  -1.214   1.911  1.00  0.00     0.242 C 
ATOM     35  O   UNL     1     -11.735  -0.351   1.243  1.00  0.00    -0.273 OA
ATOM     36  N   UNL     1     -10.745  -2.409   1.371  1.00  0.00    -0.354 N 
ATOM     37  H   UNL     1     -10.389  -3.133   1.996  1.00  0.00     0.163 HD
BRANCH  36  38
ATOM     38  C   UNL     1     -10.696  -2.637  -0.059  1.00  0.00     0.116 C 
BRANCH  38  39
ATOM     39  C   UNL     1     -10.852  -4.127  -0.351  1.00  0.00     0.023 C 
BRANCH  39  40
ATOM     40  C   UNL     1     -12.272  -4.625  -0.102  1.00  0.00     0.026 C 
BRANCH  40  41
ATOM     41  C   UNL     1     -12.304  -6.151  -0.012  1.00  0.00     0.146 C 
BRANCH  41  42
ATOM     42  N   UNL     1     -11.466  -6.596   1.093  1.00  0.00    -0.254 NA
ATOM     43  C   UNL     1     -11.976  -6.733   2.259  1.00  0.00     0.185 C 
ATOM     44  N   UNL     1     -13.236  -6.525   2.682  1.00  0.00    -0.370 N 
ATOM     45  N   UNL     1     -11.186  -7.140   3.266  1.00  0.00    -0.370 N 
ATOM     46  H   UNL     1     -13.440  -6.435   3.663  1.00  0.00     0.159 HD
ATOM     47  H   UNL     1     -13.969  -6.226   2.047  1.00  0.00     0.159 HD
ATOM     48  H   UNL     1     -10.220  -7.328   3.031  1.00  0.00     0.159 HD
ATOM     49  H   UNL     1     -11.548  -7.494   4.133  1.00  0.00     0.159 HD
ENDBRANCH  41  42
ENDBRANCH  40  41
ENDBRANCH  39  40
ENDBRANCH  38  39
ENDBRANCH  36  38
ENDBRANCH   5  34
BRANCH   8  50
ATOM     50  O   UNL     1      -6.441  -1.678   1.776  1.00  0.00    -0.245 OA
BRANCH  50  51
ATOM     51  S   UNL     1      -6.314  -2.871   0.678  1.00  0.00     0.397 S 
ATOM     52  O   UNL     1      -7.648  -3.226   0.248  1.00  0.00    -0.169 OA
ATOM     53  O   UNL     1      -5.377  -3.869   1.150  1.00  0.00    -0.169 OA
BRANCH  51  54
ATOM     54  O   UNL     1      -5.640  -2.109  -0.568  1.00  0.00    -0.264 OA
ATOM     55  H   UNL     1      -6.305  -2.063  -1.285  1.00  0.00     0.236 HD
ENDBRANCH  51  54
ENDBRANCH  50  51
ENDBRANCH   8  50
TORSDOF 19
ENDMDL
MODEL 44
REMARK VINA RESULT:    -5.828      3.383      5.562
REMARK INTER + INTRA:         -14.496
REMARK INTER:                 -10.772
REMARK INTRA:                  -3.725
REMARK UNBOUND:                -2.705
REMARK SMILES CC[C@@H](C)[C@@H](NC(=O)[C@@H](O)Cc1ccc(O)c(Cl)c1)C(=O)N1[C@H](C(=O)NCCCCN=C(N)N)C[C@H]2CC[C@H](OS(=O)(=O)O)C[C@@H]21
REMARK SMILES IDX 22 1 36 2 46 3 35 4 23 5 45 6 37 7 39 8 38 9 20 10 21 11
REMARK SMILES IDX 5 12 6 13 7 14 8 15 9 17 11 18 12 19 17 20 19 21 15 22 14 23
REMARK SMILES IDX 13 24 18 25 16 26 10 28 3 30 4 31 2 32 1 33 24 34 25 35
REMARK SMILES IDX 26 36 27 38 28 39 29 40 30 41 31 42 32 43 33 44 34 45 40 50
REMARK SMILES IDX 41 51 42 52 43 53 44 54
REMARK H PARENT 6 16 16 27 10 29 26 37 33 46 33 47 34 48 34 49 44 55
ROOT
ATOM      1  N   UNL     1      -8.846  -2.161   6.191  1.00  0.00    -0.326 N 
ATOM      2  C   UNL     1      -8.148  -0.126   5.235  1.00  0.00     0.014 C 
ATOM      3  C   UNL     1      -7.663  -1.301   6.089  1.00  0.00     0.091 C 
ATOM      4  C   UNL     1      -9.597   0.028   5.669  1.00  0.00     0.041 C 
ATOM      5  C   UNL     1     -10.039  -1.447   5.673  1.00  0.00     0.175 C 
ATOM      6  C   UNL     1      -6.403  -1.877   5.446  1.00  0.00     0.059 C 
ATOM      7  C   UNL     1      -7.206   1.056   5.355  1.00  0.00     0.008 C 
ATOM      8  C   UNL     1      -5.543  -0.826   4.712  1.00  0.00     0.143 C 
ATOM      9  C   UNL     1      -5.737   0.589   5.295  1.00  0.00     0.034 C 
ENDROOT
BRANCH   1  10
ATOM     10  C   UNL     1      -9.016  -3.361   6.860  1.00  0.00     0.246 C 
ATOM     11  O   UNL     1      -8.303  -4.324   6.558  1.00  0.00    -0.272 OA
BRANCH  10  12
ATOM     12  C   UNL     1     -10.067  -3.460   8.004  1.00  0.00     0.174 C 
BRANCH  12  13
ATOM     13  N   UNL     1      -9.408  -3.314   9.301  1.00  0.00    -0.342 N 
ATOM     14  C   UNL     1      -9.152  -2.114   9.926  1.00  0.00     0.249 C 
ATOM     15  O   UNL     1      -9.477  -1.025   9.471  1.00  0.00    -0.272 OA
ATOM     16  H   UNL     1      -8.944  -4.114   9.724  1.00  0.00     0.164 HD
BRANCH  14  17
ATOM     17  C   UNL     1      -8.427  -2.290  11.278  1.00  0.00     0.207 C 
BRANCH  17  18
ATOM     18  C   UNL     1      -7.729  -0.988  11.685  1.00  0.00     0.077 C 
BRANCH  18  19
ATOM     19  C   UNL     1      -8.022  -0.619  13.122  1.00  0.00    -0.043 A 
ATOM     20  C   UNL     1      -8.902  -1.203  15.305  1.00  0.00     0.083 A 
ATOM     21  C   UNL     1      -8.587  -1.562  13.994  1.00  0.00     0.028 A 
ATOM     22  C   UNL     1      -8.657   0.096  15.752  1.00  0.00     0.134 A 
ATOM     23  C   UNL     1      -8.097   1.040  14.898  1.00  0.00     0.048 A 
ATOM     24  C   UNL     1      -7.783   0.684  13.585  1.00  0.00     0.008 A 
ATOM     25  Cl  UNL     1      -9.596  -2.376  16.362  1.00  0.00    -0.080 Cl
BRANCH  22  26
ATOM     26  O   UNL     1      -8.958   0.497  17.025  1.00  0.00    -0.506 OA
ATOM     27  H   UNL     1      -8.149   0.902  17.390  1.00  0.00     0.293 HD
ENDBRANCH  22  26
ENDBRANCH  18  19
ENDBRANCH  17  18
BRANCH  17  28
ATOM     28  O   UNL     1      -7.458  -3.349  11.211  1.00  0.00    -0.383 OA
ATOM     29  H   UNL     1      -6.698  -3.057  11.764  1.00  0.00     0.211 HD
ENDBRANCH  17  28
ENDBRANCH  14  17
ENDBRANCH  12  13
BRANCH  12  30
ATOM     30  C   UNL     1     -10.927  -4.750   7.918  1.00  0.00     0.018 C 
ATOM     31  C   UNL     1     -10.129  -5.971   8.402  1.00  0.00     0.010 C 
BRANCH  30  32
ATOM     32  C   UNL     1     -11.506  -5.018   6.508  1.00  0.00     0.002 C 
ATOM     33  C   UNL     1     -12.648  -4.101   6.088  1.00  0.00     0.004 C 
ENDBRANCH  30  32
ENDBRANCH  12  30
ENDBRANCH  10  12
ENDBRANCH   1  10
BRANCH   5  34
ATOM     34  C   UNL     1     -10.397  -1.940   4.245  1.00  0.00     0.242 C 
ATOM     35  O   UNL     1      -9.889  -2.945   3.749  1.00  0.00    -0.273 OA
ATOM     36  N   UNL     1     -11.283  -1.142   3.555  1.00  0.00    -0.354 N 
ATOM     37  H   UNL     1     -11.577  -0.259   3.973  1.00  0.00     0.163 HD
BRANCH  36  38
ATOM     38  C   UNL     1     -11.889  -1.559   2.308  1.00  0.00     0.116 C 
BRANCH  38  39
ATOM     39  C   UNL     1     -11.568  -0.546   1.211  1.00  0.00     0.023 C 
BRANCH  39  40
ATOM     40  C   UNL     1     -10.318  -0.919   0.421  1.00  0.00     0.026 C 
BRANCH  40  41
ATOM     41  C   UNL     1     -10.148  -2.437   0.360  1.00  0.00     0.146 C 
BRANCH  41  42
ATOM     42  N   UNL     1      -8.846  -2.765  -0.206  1.00  0.00    -0.254 NA
ATOM     43  C   UNL     1      -7.806  -2.732   0.538  1.00  0.00     0.185 C 
ATOM     44  N   UNL     1      -7.685  -2.429   1.844  1.00  0.00    -0.370 N 
ATOM     45  N   UNL     1      -6.614  -3.032  -0.004  1.00  0.00    -0.370 N 
ATOM     46  H   UNL     1      -6.786  -2.205   2.237  1.00  0.00     0.159 HD
ATOM     47  H   UNL     1      -8.491  -2.190   2.412  1.00  0.00     0.159 HD
ATOM     48  H   UNL     1      -6.618  -3.281  -0.984  1.00  0.00     0.159 HD
ATOM     49  H   UNL     1      -5.806  -3.259   0.549  1.00  0.00     0.159 HD
ENDBRANCH  41  42
ENDBRANCH  40  41
ENDBRANCH  39  40
ENDBRANCH  38  39
ENDBRANCH  36  38
ENDBRANCH   5  34
BRANCH   8  50
ATOM     50  O   UNL     1      -5.882  -0.796   3.326  1.00  0.00    -0.245 OA
BRANCH  50  51
ATOM     51  S   UNL     1      -4.700  -0.826   2.209  1.00  0.00     0.397 S 
ATOM     52  O   UNL     1      -4.435  -2.208   1.878  1.00  0.00    -0.169 OA
ATOM     53  O   UNL     1      -3.639   0.078   2.600  1.00  0.00    -0.169 OA
BRANCH  51  54
ATOM     54  O   UNL     1      -5.436  -0.201   0.924  1.00  0.00    -0.264 OA
ATOM     55  H   UNL     1      -6.172  -0.800   0.681  1.00  0.00     0.236 HD
ENDBRANCH  51  54
ENDBRANCH  50  51
ENDBRANCH   8  50
TORSDOF 19
ENDMDL
MODEL 45
REMARK VINA RESULT:    -5.788     15.086     18.354
REMARK INTER + INTRA:         -14.414
REMARK INTER:                  -9.151
REMARK INTRA:                  -5.263
REMARK UNBOUND:                -2.705
REMARK SMILES CC[C@@H](C)[C@@H](NC(=O)[C@@H](O)Cc1ccc(O)c(Cl)c1)C(=O)N1[C@H](C(=O)NCCCCN=C(N)N)C[C@H]2CC[C@H](OS(=O)(=O)O)C[C@@H]21
REMARK SMILES IDX 22 1 36 2 46 3 35 4 23 5 45 6 37 7 39 8 38 9 20 10 21 11
REMARK SMILES IDX 5 12 6 13 7 14 8 15 9 17 11 18 12 19 17 20 19 21 15 22 14 23
REMARK SMILES IDX 13 24 18 25 16 26 10 28 3 30 4 31 2 32 1 33 24 34 25 35
REMARK SMILES IDX 26 36 27 38 28 39 29 40 30 41 31 42 32 43 33 44 34 45 40 50
REMARK SMILES IDX 41 51 42 52 43 53 44 54
REMARK H PARENT 6 16 16 27 10 29 26 37 33 46 33 47 34 48 34 49 44 55
ROOT
ATOM      1  N   UNL     1      -5.170   6.380  -8.364  1.00  0.00    -0.326 N 
ATOM      2  C   UNL     1      -6.559   5.147  -6.918  1.00  0.00     0.014 C 
ATOM      3  C   UNL     1      -5.264   5.062  -7.730  1.00  0.00     0.091 C 
ATOM      4  C   UNL     1      -7.444   6.024  -7.790  1.00  0.00     0.041 C 
ATOM      5  C   UNL     1      -6.440   7.125  -8.177  1.00  0.00     0.175 C 
ATOM      6  C   UNL     1      -4.136   4.626  -6.796  1.00  0.00     0.059 C 
ATOM      7  C   UNL     1      -7.041   3.765  -6.521  1.00  0.00     0.008 C 
ATOM      8  C   UNL     1      -4.598   3.693  -5.657  1.00  0.00     0.143 C 
ATOM      9  C   UNL     1      -5.862   2.895  -6.039  1.00  0.00     0.034 C 
ENDROOT
BRANCH   1  10
ATOM     10  C   UNL     1      -4.215   6.883  -9.232  1.00  0.00     0.246 C 
ATOM     11  O   UNL     1      -4.498   7.009 -10.428  1.00  0.00    -0.272 OA
BRANCH  10  12
ATOM     12  C   UNL     1      -2.827   7.315  -8.678  1.00  0.00     0.174 C 
BRANCH  12  13
ATOM     13  N   UNL     1      -1.903   6.182  -8.709  1.00  0.00    -0.342 N 
ATOM     14  C   UNL     1      -0.578   6.253  -9.077  1.00  0.00     0.249 C 
ATOM     15  O   UNL     1      -0.013   7.293  -9.395  1.00  0.00    -0.272 OA
ATOM     16  H   UNL     1      -2.263   5.235  -8.623  1.00  0.00     0.164 HD
BRANCH  14  17
ATOM     17  C   UNL     1       0.130   4.882  -9.025  1.00  0.00     0.207 C 
BRANCH  17  18
ATOM     18  C   UNL     1       0.805   4.680  -7.664  1.00  0.00     0.077 C 
BRANCH  18  19
ATOM     19  C   UNL     1      -0.026   3.808  -6.749  1.00  0.00    -0.043 A 
ATOM     20  C   UNL     1      -0.883   3.298  -4.538  1.00  0.00     0.083 A 
ATOM     21  C   UNL     1      -0.157   4.131  -5.389  1.00  0.00     0.028 A 
ATOM     22  C   UNL     1      -1.481   2.140  -5.036  1.00  0.00     0.134 A 
ATOM     23  C   UNL     1      -1.360   1.808  -6.381  1.00  0.00     0.048 A 
ATOM     24  C   UNL     1      -0.632   2.639  -7.235  1.00  0.00     0.008 A 
ATOM     25  Cl  UNL     1      -1.032   3.712  -2.870  1.00  0.00    -0.080 Cl
BRANCH  22  26
ATOM     26  O   UNL     1      -2.194   1.288  -4.238  1.00  0.00    -0.506 OA
ATOM     27  H   UNL     1      -2.787   1.841  -3.696  1.00  0.00     0.293 HD
ENDBRANCH  22  26
ENDBRANCH  18  19
ENDBRANCH  17  18
BRANCH  17  28
ATOM     28  O   UNL     1       1.112   4.767 -10.066  1.00  0.00    -0.383 OA
ATOM     29  H   UNL     1       0.638   4.408 -10.850  1.00  0.00     0.211 HD
ENDBRANCH  17  28
ENDBRANCH  14  17
ENDBRANCH  12  13
BRANCH  12  30
ATOM     30  C   UNL     1      -2.919   7.965  -7.271  1.00  0.00     0.018 C 
ATOM     31  C   UNL     1      -2.777   9.493  -7.365  1.00  0.00     0.010 C 
BRANCH  30  32
ATOM     32  C   UNL     1      -1.897   7.398  -6.256  1.00  0.00     0.002 C 
ATOM     33  C   UNL     1      -2.423   7.208  -4.839  1.00  0.00     0.004 C 
ENDBRANCH  30  32
ENDBRANCH  12  30
ENDBRANCH  10  12
ENDBRANCH   1  10
BRANCH   5  34
ATOM     34  C   UNL     1      -6.295   8.187  -7.054  1.00  0.00     0.242 C 
ATOM     35  O   UNL     1      -5.824   7.916  -5.950  1.00  0.00    -0.273 OA
ATOM     36  N   UNL     1      -6.780   9.438  -7.365  1.00  0.00    -0.354 N 
ATOM     37  H   UNL     1      -7.267   9.569  -8.252  1.00  0.00     0.163 HD
BRANCH  36  38
ATOM     38  C   UNL     1      -6.534  10.592  -6.526  1.00  0.00     0.116 C 
BRANCH  38  39
ATOM     39  C   UNL     1      -7.630  10.709  -5.470  1.00  0.00     0.023 C 
BRANCH  39  40
ATOM     40  C   UNL     1      -7.068  10.859  -4.060  1.00  0.00     0.026 C 
BRANCH  40  41
ATOM     41  C   UNL     1      -7.313   9.591  -3.241  1.00  0.00     0.146 C 
BRANCH  41  42
ATOM     42  N   UNL     1      -6.083   9.193  -2.570  1.00  0.00    -0.254 NA
ATOM     43  C   UNL     1      -5.736   7.961  -2.565  1.00  0.00     0.185 C 
ATOM     44  N   UNL     1      -6.341   6.888  -3.106  1.00  0.00    -0.370 N 
ATOM     45  N   UNL     1      -4.600   7.613  -1.936  1.00  0.00    -0.370 N 
ATOM     46  H   UNL     1      -6.090   5.958  -2.818  1.00  0.00     0.159 HD
ATOM     47  H   UNL     1      -7.207   6.973  -3.630  1.00  0.00     0.159 HD
ATOM     48  H   UNL     1      -4.077   8.365  -1.508  1.00  0.00     0.159 HD
ATOM     49  H   UNL     1      -4.144   6.731  -2.086  1.00  0.00     0.159 HD
ENDBRANCH  41  42
ENDBRANCH  40  41
ENDBRANCH  39  40
ENDBRANCH  38  39
ENDBRANCH  36  38
ENDBRANCH   5  34
BRANCH   8  50
ATOM     50  O   UNL     1      -4.881   4.454  -4.483  1.00  0.00    -0.245 OA
BRANCH  50  51
ATOM     51  S   UNL     1      -5.149   3.688  -3.073  1.00  0.00     0.397 S 
ATOM     52  O   UNL     1      -4.414   2.443  -3.096  1.00  0.00    -0.169 OA
ATOM     53  O   UNL     1      -6.561   3.731  -2.758  1.00  0.00    -0.169 OA
BRANCH  51  54
ATOM     54  O   UNL     1      -4.378   4.633  -2.025  1.00  0.00    -0.264 OA
ATOM     55  H   UNL     1      -3.936   5.343  -2.534  1.00  0.00     0.236 HD
ENDBRANCH  51  54
ENDBRANCH  50  51
ENDBRANCH   8  50
TORSDOF 19
ENDMDL
MODEL 46
REMARK VINA RESULT:    -5.772     12.266     16.453
REMARK INTER + INTRA:         -14.382
REMARK INTER:                  -9.303
REMARK INTRA:                  -5.078
REMARK UNBOUND:                -2.705
REMARK SMILES CC[C@@H](C)[C@@H](NC(=O)[C@@H](O)Cc1ccc(O)c(Cl)c1)C(=O)N1[C@H](C(=O)NCCCCN=C(N)N)C[C@H]2CC[C@H](OS(=O)(=O)O)C[C@@H]21
REMARK SMILES IDX 22 1 36 2 46 3 35 4 23 5 45 6 37 7 39 8 38 9 20 10 21 11
REMARK SMILES IDX 5 12 6 13 7 14 8 15 9 17 11 18 12 19 17 20 19 21 15 22 14 23
REMARK SMILES IDX 13 24 18 25 16 26 10 28 3 30 4 31 2 32 1 33 24 34 25 35
REMARK SMILES IDX 26 36 27 38 28 39 29 40 30 41 31 42 32 43 33 44 34 45 40 50
REMARK SMILES IDX 41 51 42 52 43 53 44 54
REMARK H PARENT 6 16 16 27 10 29 26 37 33 46 33 47 34 48 34 49 44 55
ROOT
ATOM      1  N   UNL     1      -3.090   3.339  -6.191  1.00  0.00    -0.326 N 
ATOM      2  C   UNL     1      -0.808   2.807  -5.963  1.00  0.00     0.014 C 
ATOM      3  C   UNL     1      -1.762   3.920  -6.406  1.00  0.00     0.091 C 
ATOM      4  C   UNL     1      -1.549   1.546  -6.381  1.00  0.00     0.041 C 
ATOM      5  C   UNL     1      -2.969   1.890  -5.895  1.00  0.00     0.175 C 
ATOM      6  C   UNL     1      -1.399   5.196  -5.649  1.00  0.00     0.059 C 
ATOM      7  C   UNL     1       0.593   3.053  -6.486  1.00  0.00     0.008 C 
ATOM      8  C   UNL     1       0.105   5.317  -5.320  1.00  0.00     0.143 C 
ATOM      9  C   UNL     1       0.982   4.538  -6.322  1.00  0.00     0.034 C 
ENDROOT
BRANCH   1  10
ATOM     10  C   UNL     1      -4.344   3.876  -6.431  1.00  0.00     0.246 C 
ATOM     11  O   UNL     1      -5.346   3.198  -6.181  1.00  0.00    -0.272 OA
BRANCH  10  12
ATOM     12  C   UNL     1      -4.464   5.331  -6.970  1.00  0.00     0.174 C 
BRANCH  12  13
ATOM     13  N   UNL     1      -5.241   6.145  -6.036  1.00  0.00    -0.342 N 
ATOM     14  C   UNL     1      -4.789   7.291  -5.421  1.00  0.00     0.249 C 
ATOM     15  O   UNL     1      -3.680   7.775  -5.611  1.00  0.00    -0.272 OA
ATOM     16  H   UNL     1      -6.116   5.786  -5.662  1.00  0.00     0.164 HD
BRANCH  14  17
ATOM     17  C   UNL     1      -5.839   7.914  -4.477  1.00  0.00     0.207 C 
BRANCH  17  18
ATOM     18  C   UNL     1      -7.114   7.066  -4.459  1.00  0.00     0.077 C 
BRANCH  18  19
ATOM     19  C   UNL     1      -7.408   6.521  -3.079  1.00  0.00    -0.043 A 
ATOM     20  C   UNL     1      -8.518   4.908  -1.648  1.00  0.00     0.083 A 
ATOM     21  C   UNL     1      -8.209   5.379  -2.924  1.00  0.00     0.028 A 
ATOM     22  C   UNL     1      -8.033   5.573  -0.522  1.00  0.00     0.134 A 
ATOM     23  C   UNL     1      -7.239   6.705  -0.660  1.00  0.00     0.048 A 
ATOM     24  C   UNL     1      -6.928   7.180  -1.937  1.00  0.00     0.008 A 
ATOM     25  Cl  UNL     1      -9.504   3.503  -1.478  1.00  0.00    -0.080 Cl
BRANCH  22  26
ATOM     26  O   UNL     1      -8.318   5.155   0.750  1.00  0.00    -0.506 OA
ATOM     27  H   UNL     1      -9.287   5.210   0.852  1.00  0.00     0.293 HD
ENDBRANCH  22  26
ENDBRANCH  18  19
ENDBRANCH  17  18
BRANCH  17  28
ATOM     28  O   UNL     1      -6.164   9.255  -4.878  1.00  0.00    -0.383 OA
ATOM     29  H   UNL     1      -5.462   9.830  -4.497  1.00  0.00     0.211 HD
ENDBRANCH  17  28
ENDBRANCH  14  17
ENDBRANCH  12  13
BRANCH  12  30
ATOM     30  C   UNL     1      -5.024   5.391  -8.416  1.00  0.00     0.018 C 
ATOM     31  C   UNL     1      -4.200   6.356  -9.282  1.00  0.00     0.010 C 
BRANCH  30  32
ATOM     32  C   UNL     1      -6.525   5.764  -8.486  1.00  0.00     0.002 C 
ATOM     33  C   UNL     1      -7.321   5.060  -9.578  1.00  0.00     0.004 C 
ENDBRANCH  30  32
ENDBRANCH  12  30
ENDBRANCH  10  12
ENDBRANCH   1  10
BRANCH   5  34
ATOM     34  C   UNL     1      -3.134   1.623  -4.375  1.00  0.00     0.242 C 
ATOM     35  O   UNL     1      -2.180   1.639  -3.597  1.00  0.00    -0.273 OA
ATOM     36  N   UNL     1      -4.413   1.315  -3.970  1.00  0.00    -0.354 N 
ATOM     37  H   UNL     1      -5.139   1.199  -4.678  1.00  0.00     0.163 HD
BRANCH  36  38
ATOM     38  C   UNL     1      -4.787   1.250  -2.572  1.00  0.00     0.116 C 
BRANCH  38  39
ATOM     39  C   UNL     1      -5.751   2.386  -2.240  1.00  0.00     0.023 C 
BRANCH  39  40
ATOM     40  C   UNL     1      -5.136   3.415  -1.296  1.00  0.00     0.026 C 
BRANCH  40  41
ATOM     41  C   UNL     1      -3.943   2.819  -0.548  1.00  0.00     0.146 C 
BRANCH  41  42
ATOM     42  N   UNL     1      -3.122   3.890   0.002  1.00  0.00    -0.254 NA
ATOM     43  C   UNL     1      -2.135   4.342  -0.676  1.00  0.00     0.185 C 
ATOM     44  N   UNL     1      -1.684   3.985  -1.892  1.00  0.00    -0.370 N 
ATOM     45  N   UNL     1      -1.388   5.326  -0.150  1.00  0.00    -0.370 N 
ATOM     46  H   UNL     1      -0.762   4.249  -2.195  1.00  0.00     0.159 HD
ATOM     47  H   UNL     1      -2.142   3.262  -2.439  1.00  0.00     0.159 HD
ATOM     48  H   UNL     1      -1.665   5.661   0.763  1.00  0.00     0.159 HD
ATOM     49  H   UNL     1      -0.761   5.887  -0.699  1.00  0.00     0.159 HD
ENDBRANCH  41  42
ENDBRANCH  40  41
ENDBRANCH  39  40
ENDBRANCH  38  39
ENDBRANCH  36  38
ENDBRANCH   5  34
BRANCH   8  50
ATOM     50  O   UNL     1       0.362   4.816  -4.008  1.00  0.00    -0.245 OA
BRANCH  50  51
ATOM     51  S   UNL     1       1.041   5.789  -2.896  1.00  0.00     0.397 S 
ATOM     52  O   UNL     1       0.034   6.723  -2.445  1.00  0.00    -0.169 OA
ATOM     53  O   UNL     1       2.336   6.235  -3.366  1.00  0.00    -0.169 OA
BRANCH  51  54
ATOM     54  O   UNL     1       1.280   4.778  -1.668  1.00  0.00    -0.264 OA
ATOM     55  H   UNL     1       2.026   5.126  -1.137  1.00  0.00     0.236 HD
ENDBRANCH  51  54
ENDBRANCH  50  51
ENDBRANCH   8  50
TORSDOF 19
ENDMDL
MODEL 47
REMARK VINA RESULT:    -5.763      7.266     12.327
REMARK INTER + INTRA:         -14.364
REMARK INTER:                 -11.788
REMARK INTRA:                  -2.576
REMARK UNBOUND:                -2.705
REMARK SMILES CC[C@@H](C)[C@@H](NC(=O)[C@@H](O)Cc1ccc(O)c(Cl)c1)C(=O)N1[C@H](C(=O)NCCCCN=C(N)N)C[C@H]2CC[C@H](OS(=O)(=O)O)C[C@@H]21
REMARK SMILES IDX 22 1 36 2 46 3 35 4 23 5 45 6 37 7 39 8 38 9 20 10 21 11
REMARK SMILES IDX 5 12 6 13 7 14 8 15 9 17 11 18 12 19 17 20 19 21 15 22 14 23
REMARK SMILES IDX 13 24 18 25 16 26 10 28 3 30 4 31 2 32 1 33 24 34 25 35
REMARK SMILES IDX 26 36 27 38 28 39 29 40 30 41 31 42 32 43 33 44 34 45 40 50
REMARK SMILES IDX 41 51 42 52 43 53 44 54
REMARK H PARENT 6 16 16 27 10 29 26 37 33 46 33 47 34 48 34 49 44 55
ROOT
ATOM      1  N   UNL     1      -6.349   0.246   1.283  1.00  0.00    -0.326 N 
ATOM      2  C   UNL     1      -5.329  -0.848   3.101  1.00  0.00     0.014 C 
ATOM      3  C   UNL     1      -5.969   0.478   2.680  1.00  0.00     0.091 C 
ATOM      4  C   UNL     1      -4.640  -1.308   1.826  1.00  0.00     0.041 C 
ATOM      5  C   UNL     1      -5.752  -1.023   0.798  1.00  0.00     0.175 C 
ATOM      6  C   UNL     1      -7.069   0.823   3.682  1.00  0.00     0.059 C 
ATOM      7  C   UNL     1      -4.512  -0.677   4.367  1.00  0.00     0.008 C 
ATOM      8  C   UNL     1      -6.782   0.328   5.116  1.00  0.00     0.143 C 
ATOM      9  C   UNL     1      -5.270   0.195   5.390  1.00  0.00     0.034 C 
ENDROOT
BRANCH   1  10
ATOM     10  C   UNL     1      -6.953   1.098   0.374  1.00  0.00     0.246 C 
ATOM     11  O   UNL     1      -8.179   1.049   0.228  1.00  0.00    -0.272 OA
BRANCH  10  12
ATOM     12  C   UNL     1      -6.085   2.124  -0.410  1.00  0.00     0.174 C 
BRANCH  12  13
ATOM     13  N   UNL     1      -5.252   1.426  -1.389  1.00  0.00    -0.342 N 
ATOM     14  C   UNL     1      -4.988   1.874  -2.664  1.00  0.00     0.249 C 
ATOM     15  O   UNL     1      -5.405   2.934  -3.115  1.00  0.00    -0.272 OA
ATOM     16  H   UNL     1      -4.967   0.466  -1.216  1.00  0.00     0.164 HD
BRANCH  14  17
ATOM     17  C   UNL     1      -4.090   0.906  -3.462  1.00  0.00     0.207 C 
BRANCH  17  18
ATOM     18  C   UNL     1      -4.010   1.336  -4.930  1.00  0.00     0.077 C 
BRANCH  18  19
ATOM     19  C   UNL     1      -2.598   1.700  -5.333  1.00  0.00    -0.043 A 
ATOM     20  C   UNL     1      -1.068   2.876  -6.803  1.00  0.00     0.083 A 
ATOM     21  C   UNL     1      -2.372   2.580  -6.403  1.00  0.00     0.028 A 
ATOM     22  C   UNL     1       0.014   2.296  -6.141  1.00  0.00     0.134 A 
ATOM     23  C   UNL     1      -0.196   1.423  -5.080  1.00  0.00     0.048 A 
ATOM     24  C   UNL     1      -1.499   1.123  -4.678  1.00  0.00     0.008 A 
ATOM     25  Cl  UNL     1      -0.810   3.959  -8.120  1.00  0.00    -0.080 Cl
BRANCH  22  26
ATOM     26  O   UNL     1       1.310   2.547  -6.504  1.00  0.00    -0.506 OA
ATOM     27  H   UNL     1       1.343   2.496  -7.477  1.00  0.00     0.293 HD
ENDBRANCH  22  26
ENDBRANCH  18  19
ENDBRANCH  17  18
BRANCH  17  28
ATOM     28  O   UNL     1      -4.586  -0.441  -3.387  1.00  0.00    -0.383 OA
ATOM     29  H   UNL     1      -5.458  -0.435  -3.842  1.00  0.00     0.211 HD
ENDBRANCH  17  28
ENDBRANCH  14  17
ENDBRANCH  12  13
BRANCH  12  30
ATOM     30  C   UNL     1      -5.255   3.045   0.524  1.00  0.00     0.018 C 
ATOM     31  C   UNL     1      -5.426   4.520   0.129  1.00  0.00     0.010 C 
BRANCH  30  32
ATOM     32  C   UNL     1      -3.751   2.680   0.581  1.00  0.00     0.002 C 
ATOM     33  C   UNL     1      -3.153   2.603   1.980  1.00  0.00     0.004 C 
ENDBRANCH  30  32
ENDBRANCH  12  30
ENDBRANCH  10  12
ENDBRANCH   1  10
BRANCH   5  34
ATOM     34  C   UNL     1      -6.812  -2.156   0.773  1.00  0.00     0.242 C 
ATOM     35  O   UNL     1      -6.514  -3.339   0.941  1.00  0.00    -0.273 OA
ATOM     36  N   UNL     1      -8.097  -1.749   0.496  1.00  0.00    -0.354 N 
ATOM     37  H   UNL     1      -8.261  -0.773   0.247  1.00  0.00     0.163 HD
BRANCH  36  38
ATOM     38  C   UNL     1      -9.236  -2.632   0.644  1.00  0.00     0.116 C 
BRANCH  38  39
ATOM     39  C   UNL     1      -9.566  -3.282  -0.697  1.00  0.00     0.023 C 
BRANCH  39  40
ATOM     40  C   UNL     1     -10.920  -2.840  -1.242  1.00  0.00     0.026 C 
BRANCH  40  41
ATOM     41  C   UNL     1     -11.340  -1.503  -0.631  1.00  0.00     0.146 C 
BRANCH  41  42
ATOM     42  N   UNL     1     -11.087  -0.427  -1.581  1.00  0.00    -0.254 NA
ATOM     43  C   UNL     1     -12.011  -0.067  -2.390  1.00  0.00     0.185 C 
ATOM     44  N   UNL     1     -13.265  -0.533  -2.534  1.00  0.00    -0.370 N 
ATOM     45  N   UNL     1     -11.757   0.924  -3.261  1.00  0.00    -0.370 N 
ATOM     46  H   UNL     1     -13.796  -0.329  -3.364  1.00  0.00     0.159 HD
ATOM     47  H   UNL     1     -13.629  -1.276  -1.946  1.00  0.00     0.159 HD
ATOM     48  H   UNL     1     -10.835   1.338  -3.212  1.00  0.00     0.159 HD
ATOM     49  H   UNL     1     -12.482   1.416  -3.751  1.00  0.00     0.159 HD
ENDBRANCH  41  42
ENDBRANCH  40  41
ENDBRANCH  39  40
ENDBRANCH  38  39
ENDBRANCH  36  38
ENDBRANCH   5  34
BRANCH   8  50
ATOM     50  O   UNL     1      -7.394  -0.944   5.327  1.00  0.00    -0.245 OA
BRANCH  50  51
ATOM     51  S   UNL     1      -8.894  -1.019   5.952  1.00  0.00     0.397 S 
ATOM     52  O   UNL     1      -9.708  -1.817   5.063  1.00  0.00    -0.169 OA
ATOM     53  O   UNL     1      -9.308   0.300   6.383  1.00  0.00    -0.169 OA
BRANCH  51  54
ATOM     54  O   UNL     1      -8.666  -1.921   7.264  1.00  0.00    -0.264 OA
ATOM     55  H   UNL     1      -8.841  -1.359   8.046  1.00  0.00     0.236 HD
ENDBRANCH  51  54
ENDBRANCH  50  51
ENDBRANCH   8  50
TORSDOF 19
ENDMDL
MODEL 48
REMARK VINA RESULT:    -5.756     13.089     18.383
REMARK INTER + INTRA:         -14.350
REMARK INTER:                 -10.357
REMARK INTRA:                  -3.993
REMARK UNBOUND:                -2.705
REMARK SMILES CC[C@@H](C)[C@@H](NC(=O)[C@@H](O)Cc1ccc(O)c(Cl)c1)C(=O)N1[C@H](C(=O)NCCCCN=C(N)N)C[C@H]2CC[C@H](OS(=O)(=O)O)C[C@@H]21
REMARK SMILES IDX 22 1 36 2 46 3 35 4 23 5 45 6 37 7 39 8 38 9 20 10 21 11
REMARK SMILES IDX 5 12 6 13 7 14 8 15 9 17 11 18 12 19 17 20 19 21 15 22 14 23
REMARK SMILES IDX 13 24 18 25 16 26 10 28 3 30 4 31 2 32 1 33 24 34 25 35
REMARK SMILES IDX 26 36 27 38 28 39 29 40 30 41 31 42 32 43 33 44 34 45 40 50
REMARK SMILES IDX 41 51 42 52 43 53 44 54
REMARK H PARENT 6 16 16 27 10 29 26 37 33 46 33 47 34 48 34 49 44 55
ROOT
ATOM      1  N   UNL     1      -4.211   4.019  -5.990  1.00  0.00    -0.326 N 
ATOM      2  C   UNL     1      -3.022   2.242  -5.005  1.00  0.00     0.014 C 
ATOM      3  C   UNL     1      -2.842   3.619  -5.652  1.00  0.00     0.091 C 
ATOM      4  C   UNL     1      -4.189   1.656  -5.784  1.00  0.00     0.041 C 
ATOM      5  C   UNL     1      -5.134   2.871  -5.814  1.00  0.00     0.175 C 
ATOM      6  C   UNL     1      -2.045   4.502  -4.694  1.00  0.00     0.059 C 
ATOM      7  C   UNL     1      -1.707   1.490  -4.957  1.00  0.00     0.008 C 
ATOM      8  C   UNL     1      -1.027   3.724  -3.832  1.00  0.00     0.143 C 
ATOM      9  C   UNL     1      -0.560   2.425  -4.519  1.00  0.00     0.034 C 
ENDROOT
BRANCH   1  10
ATOM     10  C   UNL     1      -4.671   5.166  -6.615  1.00  0.00     0.246 C 
ATOM     11  O   UNL     1      -5.359   5.966  -5.972  1.00  0.00    -0.272 OA
BRANCH  10  12
ATOM     12  C   UNL     1      -4.280   5.443  -8.095  1.00  0.00     0.174 C 
BRANCH  12  13
ATOM     13  N   UNL     1      -2.930   6.003  -8.158  1.00  0.00    -0.342 N 
ATOM     14  C   UNL     1      -1.889   5.476  -8.888  1.00  0.00     0.249 C 
ATOM     15  O   UNL     1      -1.987   4.482  -9.597  1.00  0.00    -0.272 OA
ATOM     16  H   UNL     1      -2.657   6.732  -7.503  1.00  0.00     0.164 HD
BRANCH  14  17
ATOM     17  C   UNL     1      -0.584   6.286  -8.734  1.00  0.00     0.207 C 
BRANCH  17  18
ATOM     18  C   UNL     1       0.127   5.914  -7.429  1.00  0.00     0.077 C 
BRANCH  18  19
ATOM     19  C   UNL     1       1.581   5.569  -7.659  1.00  0.00    -0.043 A 
ATOM     20  C   UNL     1       3.736   6.091  -8.643  1.00  0.00     0.083 A 
ATOM     21  C   UNL     1       2.408   6.436  -8.390  1.00  0.00     0.028 A 
ATOM     22  C   UNL     1       4.245   4.881  -8.170  1.00  0.00     0.134 A 
ATOM     23  C   UNL     1       3.438   4.013  -7.445  1.00  0.00     0.048 A 
ATOM     24  C   UNL     1       2.107   4.355  -7.191  1.00  0.00     0.008 A 
ATOM     25  Cl  UNL     1       4.736   7.169  -9.544  1.00  0.00    -0.080 Cl
BRANCH  22  26
ATOM     26  O   UNL     1       5.538   4.495  -8.402  1.00  0.00    -0.506 OA
ATOM     27  H   UNL     1       5.521   3.917  -9.187  1.00  0.00     0.293 HD
ENDBRANCH  22  26
ENDBRANCH  18  19
ENDBRANCH  17  18
BRANCH  17  28
ATOM     28  O   UNL     1      -0.847   7.698  -8.748  1.00  0.00    -0.383 OA
ATOM     29  H   UNL     1      -1.270   7.904  -7.884  1.00  0.00     0.211 HD
ENDBRANCH  17  28
ENDBRANCH  14  17
ENDBRANCH  12  13
BRANCH  12  30
ATOM     30  C   UNL     1      -5.321   6.323  -8.837  1.00  0.00     0.018 C 
ATOM     31  C   UNL     1      -6.436   5.457  -9.444  1.00  0.00     0.010 C 
BRANCH  30  32
ATOM     32  C   UNL     1      -4.703   7.234  -9.926  1.00  0.00     0.002 C 
ATOM     33  C   UNL     1      -4.667   8.719  -9.589  1.00  0.00     0.004 C 
ENDBRANCH  30  32
ENDBRANCH  12  30
ENDBRANCH  10  12
ENDBRANCH   1  10
BRANCH   5  34
ATOM     34  C   UNL     1      -5.934   3.007  -4.491  1.00  0.00     0.242 C 
ATOM     35  O   UNL     1      -5.607   2.418  -3.461  1.00  0.00    -0.273 OA
ATOM     36  N   UNL     1      -7.065   3.789  -4.568  1.00  0.00    -0.354 N 
ATOM     37  H   UNL     1      -7.350   4.153  -5.478  1.00  0.00     0.163 HD
BRANCH  36  38
ATOM     38  C   UNL     1      -7.804   4.197  -3.391  1.00  0.00     0.116 C 
BRANCH  38  39
ATOM     39  C   UNL     1      -7.620   5.694  -3.157  1.00  0.00     0.023 C 
BRANCH  39  40
ATOM     40  C   UNL     1      -8.019   6.117  -1.747  1.00  0.00     0.026 C 
BRANCH  40  41
ATOM     41  C   UNL     1      -7.617   5.052  -0.727  1.00  0.00     0.146 C 
BRANCH  41  42
ATOM     42  N   UNL     1      -6.497   5.532   0.071  1.00  0.00    -0.254 NA
ATOM     43  C   UNL     1      -5.312   5.120  -0.187  1.00  0.00     0.185 C 
ATOM     44  N   UNL     1      -4.881   4.262  -1.130  1.00  0.00    -0.370 N 
ATOM     45  N   UNL     1      -4.294   5.572   0.563  1.00  0.00    -0.370 N 
ATOM     46  H   UNL     1      -3.969   3.843  -1.063  1.00  0.00     0.159 HD
ATOM     47  H   UNL     1      -5.519   3.836  -1.794  1.00  0.00     0.159 HD
ATOM     48  H   UNL     1      -4.532   6.230   1.292  1.00  0.00     0.159 HD
ATOM     49  H   UNL     1      -3.333   5.488   0.282  1.00  0.00     0.159 HD
ENDBRANCH  41  42
ENDBRANCH  40  41
ENDBRANCH  39  40
ENDBRANCH  38  39
ENDBRANCH  36  38
ENDBRANCH   5  34
BRANCH   8  50
ATOM     50  O   UNL     1      -1.608   3.387  -2.572  1.00  0.00    -0.245 OA
BRANCH  50  51
ATOM     51  S   UNL     1      -1.303   4.317  -1.273  1.00  0.00     0.397 S 
ATOM     52  O   UNL     1       0.099   4.668  -1.294  1.00  0.00    -0.169 OA
ATOM     53  O   UNL     1      -1.923   3.734  -0.101  1.00  0.00    -0.169 OA
BRANCH  51  54
ATOM     54  O   UNL     1      -2.098   5.668  -1.633  1.00  0.00    -0.264 OA
ATOM     55  H   UNL     1      -2.181   5.714  -2.607  1.00  0.00     0.236 HD
ENDBRANCH  51  54
ENDBRANCH  50  51
ENDBRANCH   8  50
TORSDOF 19
ENDMDL
MODEL 49
REMARK VINA RESULT:    -5.732     16.320     20.616
REMARK INTER + INTRA:         -14.301
REMARK INTER:                 -10.905
REMARK INTRA:                  -3.396
REMARK UNBOUND:                -2.705
REMARK SMILES CC[C@@H](C)[C@@H](NC(=O)[C@@H](O)Cc1ccc(O)c(Cl)c1)C(=O)N1[C@H](C(=O)NCCCCN=C(N)N)C[C@H]2CC[C@H](OS(=O)(=O)O)C[C@@H]21
REMARK SMILES IDX 22 1 36 2 46 3 35 4 23 5 45 6 37 7 39 8 38 9 20 10 21 11
REMARK SMILES IDX 5 12 6 13 7 14 8 15 9 17 11 18 12 19 17 20 19 21 15 22 14 23
REMARK SMILES IDX 13 24 18 25 16 26 10 28 3 30 4 31 2 32 1 33 24 34 25 35
REMARK SMILES IDX 26 36 27 38 28 39 29 40 30 41 31 42 32 43 33 44 34 45 40 50
REMARK SMILES IDX 41 51 42 52 43 53 44 54
REMARK H PARENT 6 16 16 27 10 29 26 37 33 46 33 47 34 48 34 49 44 55
ROOT
ATOM      1  N   UNL     1       0.927   4.823  -8.469  1.00  0.00    -0.326 N 
ATOM      2  C   UNL     1       3.259   5.086  -8.282  1.00  0.00     0.014 C 
ATOM      3  C   UNL     1       2.113   5.058  -9.297  1.00  0.00     0.091 C 
ATOM      4  C   UNL     1       2.813   4.066  -7.246  1.00  0.00     0.041 C 
ATOM      5  C   UNL     1       1.335   4.466  -7.087  1.00  0.00     0.175 C 
ATOM      6  C   UNL     1       2.174   6.337 -10.130  1.00  0.00     0.059 C 
ATOM      7  C   UNL     1       4.598   4.909  -8.970  1.00  0.00     0.008 C 
ATOM      8  C   UNL     1       3.606   6.876 -10.337  1.00  0.00     0.143 C 
ATOM      9  C   UNL     1       4.664   5.756 -10.259  1.00  0.00     0.034 C 
ENDROOT
BRANCH   1  10
ATOM     10  C   UNL     1      -0.400   4.684  -8.838  1.00  0.00     0.246 C 
ATOM     11  O   UNL     1      -0.687   3.932  -9.775  1.00  0.00    -0.272 OA
BRANCH  10  12
ATOM     12  C   UNL     1      -1.501   5.441  -8.040  1.00  0.00     0.174 C 
BRANCH  12  13
ATOM     13  N   UNL     1      -2.536   4.503  -7.606  1.00  0.00    -0.342 N 
ATOM     14  C   UNL     1      -2.616   3.939  -6.353  1.00  0.00     0.249 C 
ATOM     15  O   UNL     1      -1.835   4.186  -5.443  1.00  0.00    -0.272 OA
ATOM     16  H   UNL     1      -3.158   4.085  -8.294  1.00  0.00     0.164 HD
BRANCH  14  17
ATOM     17  C   UNL     1      -3.813   2.974  -6.209  1.00  0.00     0.207 C 
BRANCH  17  18
ATOM     18  C   UNL     1      -4.892   3.590  -5.313  1.00  0.00     0.077 C 
BRANCH  18  19
ATOM     19  C   UNL     1      -5.728   4.606  -6.057  1.00  0.00    -0.043 A 
ATOM     20  C   UNL     1      -7.126   5.199  -7.949  1.00  0.00     0.083 A 
ATOM     21  C   UNL     1      -6.396   4.246  -7.238  1.00  0.00     0.028 A 
ATOM     22  C   UNL     1      -7.194   6.514  -7.487  1.00  0.00     0.134 A 
ATOM     23  C   UNL     1      -6.538   6.884  -6.319  1.00  0.00     0.048 A 
ATOM     24  C   UNL     1      -5.804   5.933  -5.606  1.00  0.00     0.008 A 
ATOM     25  Cl  UNL     1      -7.939   4.737  -9.398  1.00  0.00    -0.080 Cl
BRANCH  22  26
ATOM     26  O   UNL     1      -7.889   7.485  -8.156  1.00  0.00    -0.506 OA
ATOM     27  H   UNL     1      -7.991   7.174  -9.075  1.00  0.00     0.293 HD
ENDBRANCH  22  26
ENDBRANCH  18  19
ENDBRANCH  17  18
BRANCH  17  28
ATOM     28  O   UNL     1      -3.398   1.714  -5.658  1.00  0.00    -0.383 OA
ATOM     29  H   UNL     1      -3.980   1.552  -4.882  1.00  0.00     0.211 HD
ENDBRANCH  17  28
ENDBRANCH  14  17
ENDBRANCH  12  13
BRANCH  12  30
ATOM     30  C   UNL     1      -2.086   6.647  -8.823  1.00  0.00     0.018 C 
ATOM     31  C   UNL     1      -1.395   7.955  -8.406  1.00  0.00     0.010 C 
BRANCH  30  32
ATOM     32  C   UNL     1      -3.622   6.791  -8.687  1.00  0.00     0.002 C 
ATOM     33  C   UNL     1      -4.410   6.593  -9.975  1.00  0.00     0.004 C 
ENDBRANCH  30  32
ENDBRANCH  12  30
ENDBRANCH  10  12
ENDBRANCH   1  10
BRANCH   5  34
ATOM     34  C   UNL     1       1.170   5.680  -6.134  1.00  0.00     0.242 C 
ATOM     35  O   UNL     1       1.307   6.842  -6.518  1.00  0.00    -0.273 OA
ATOM     36  N   UNL     1       0.913   5.361  -4.819  1.00  0.00    -0.354 N 
ATOM     37  H   UNL     1       0.930   4.380  -4.539  1.00  0.00     0.163 HD
BRANCH  36  38
ATOM     38  C   UNL     1       0.521   6.358  -3.845  1.00  0.00     0.116 C 
BRANCH  38  39
ATOM     39  C   UNL     1      -0.183   5.684  -2.669  1.00  0.00     0.023 C 
BRANCH  39  40
ATOM     40  C   UNL     1       0.436   6.060  -1.327  1.00  0.00     0.026 C 
BRANCH  40  41
ATOM     41  C   UNL     1       1.666   5.201  -1.037  1.00  0.00     0.146 C 
BRANCH  41  42
ATOM     42  N   UNL     1       2.872   5.918  -1.432  1.00  0.00    -0.254 NA
ATOM     43  C   UNL     1       3.480   6.652  -0.578  1.00  0.00     0.185 C 
ATOM     44  N   UNL     1       3.190   6.900   0.712  1.00  0.00    -0.370 N 
ATOM     45  N   UNL     1       4.587   7.308  -0.964  1.00  0.00    -0.370 N 
ATOM     46  H   UNL     1       3.608   7.681   1.190  1.00  0.00     0.159 HD
ATOM     47  H   UNL     1       2.391   6.473   1.170  1.00  0.00     0.159 HD
ATOM     48  H   UNL     1       4.881   7.168  -1.921  1.00  0.00     0.159 HD
ATOM     49  H   UNL     1       5.241   7.702  -0.311  1.00  0.00     0.159 HD
ENDBRANCH  41  42
ENDBRANCH  40  41
ENDBRANCH  39  40
ENDBRANCH  38  39
ENDBRANCH  36  38
ENDBRANCH   5  34
BRANCH   8  50
ATOM     50  O   UNL     1       3.910   7.856  -9.344  1.00  0.00    -0.245 OA
BRANCH  50  51
ATOM     51  S   UNL     1       3.236   9.334  -9.442  1.00  0.00     0.397 S 
ATOM     52  O   UNL     1       2.623   9.459 -10.745  1.00  0.00    -0.169 OA
ATOM     53  O   UNL     1       4.165  10.325  -8.940  1.00  0.00    -0.169 OA
BRANCH  51  54
ATOM     54  O   UNL     1       2.021   9.218  -8.395  1.00  0.00    -0.264 OA
ATOM     55  H   UNL     1       1.199   9.071  -8.907  1.00  0.00     0.236 HD
ENDBRANCH  51  54
ENDBRANCH  50  51
ENDBRANCH   8  50
TORSDOF 19
ENDMDL
MODEL 50
REMARK VINA RESULT:    -5.704     13.650     19.341
REMARK INTER + INTRA:         -14.245
REMARK INTER:                 -10.934
REMARK INTRA:                  -3.312
REMARK UNBOUND:                -2.705
REMARK SMILES CC[C@@H](C)[C@@H](NC(=O)[C@@H](O)Cc1ccc(O)c(Cl)c1)C(=O)N1[C@H](C(=O)NCCCCN=C(N)N)C[C@H]2CC[C@H](OS(=O)(=O)O)C[C@@H]21
REMARK SMILES IDX 22 1 36 2 46 3 35 4 23 5 45 6 37 7 39 8 38 9 20 10 21 11
REMARK SMILES IDX 5 12 6 13 7 14 8 15 9 17 11 18 12 19 17 20 19 21 15 22 14 23
REMARK SMILES IDX 13 24 18 25 16 26 10 28 3 30 4 31 2 32 1 33 24 34 25 35
REMARK SMILES IDX 26 36 27 38 28 39 29 40 30 41 31 42 32 43 33 44 34 45 40 50
REMARK SMILES IDX 41 51 42 52 43 53 44 54
REMARK H PARENT 6 16 16 27 10 29 26 37 33 46 33 47 34 48 34 49 44 55
ROOT
ATOM      1  N   UNL     1      -2.003   4.272  -5.990  1.00  0.00    -0.326 N 
ATOM      2  C   UNL     1       0.107   4.439  -4.957  1.00  0.00     0.014 C 
ATOM      3  C   UNL     1      -1.196   5.207  -5.200  1.00  0.00     0.091 C 
ATOM      4  C   UNL     1       0.271   3.644  -6.243  1.00  0.00     0.041 C 
ATOM      5  C   UNL     1      -1.168   3.127  -6.430  1.00  0.00     0.175 C 
ATOM      6  C   UNL     1      -1.740   5.673  -3.850  1.00  0.00     0.059 C 
ATOM      7  C   UNL     1       1.214   5.376  -4.516  1.00  0.00     0.008 C 
ATOM      8  C   UNL     1      -0.642   5.982  -2.810  1.00  0.00     0.143 C 
ATOM      9  C   UNL     1       0.688   6.388  -3.476  1.00  0.00     0.034 C 
ENDROOT
BRANCH   1  10
ATOM     10  C   UNL     1      -3.273   4.424  -6.519  1.00  0.00     0.246 C 
ATOM     11  O   UNL     1      -4.247   4.038  -5.864  1.00  0.00    -0.272 OA
BRANCH  10  12
ATOM     12  C   UNL     1      -3.449   5.113  -7.903  1.00  0.00     0.174 C 
BRANCH  12  13
ATOM     13  N   UNL     1      -2.169   5.655  -8.358  1.00  0.00    -0.342 N 
ATOM     14  C   UNL     1      -1.396   5.117  -9.362  1.00  0.00     0.249 C 
ATOM     15  O   UNL     1      -1.714   4.130 -10.013  1.00  0.00    -0.272 OA
ATOM     16  H   UNL     1      -1.704   6.375  -7.811  1.00  0.00     0.164 HD
BRANCH  14  17
ATOM     17  C   UNL     1      -0.091   5.907  -9.597  1.00  0.00     0.207 C 
BRANCH  17  18
ATOM     18  C   UNL     1       0.963   5.015 -10.261  1.00  0.00     0.077 C 
BRANCH  18  19
ATOM     19  C   UNL     1       2.315   5.690 -10.318  1.00  0.00    -0.043 A 
ATOM     20  C   UNL     1       4.637   5.806  -9.627  1.00  0.00     0.083 A 
ATOM     21  C   UNL     1       3.404   5.154  -9.612  1.00  0.00     0.028 A 
ATOM     22  C   UNL     1       4.791   6.994 -10.342  1.00  0.00     0.134 A 
ATOM     23  C   UNL     1       3.721   7.536 -11.044  1.00  0.00     0.048 A 
ATOM     24  C   UNL     1       2.485   6.887 -11.031  1.00  0.00     0.008 A 
ATOM     25  Cl  UNL     1       5.963   5.132  -8.754  1.00  0.00    -0.080 Cl
BRANCH  22  26
ATOM     26  O   UNL     1       5.978   7.675 -10.376  1.00  0.00    -0.506 OA
ATOM     27  H   UNL     1       6.368   7.513 -11.255  1.00  0.00     0.293 HD
ENDBRANCH  22  26
ENDBRANCH  18  19
ENDBRANCH  17  18
BRANCH  17  28
ATOM     28  O   UNL     1       0.431   6.423  -8.362  1.00  0.00    -0.383 OA
ATOM     29  H   UNL     1       1.005   7.184  -8.606  1.00  0.00     0.211 HD
ENDBRANCH  17  28
ENDBRANCH  14  17
ENDBRANCH  12  13
BRANCH  12  30
ATOM     30  C   UNL     1      -4.577   6.181  -7.902  1.00  0.00     0.018 C 
ATOM     31  C   UNL     1      -4.977   6.554  -9.338  1.00  0.00     0.010 C 
BRANCH  30  32
ATOM     32  C   UNL     1      -4.223   7.457  -7.100  1.00  0.00     0.002 C 
ATOM     33  C   UNL     1      -5.157   7.777  -5.940  1.00  0.00     0.004 C 
ENDBRANCH  30  32
ENDBRANCH  12  30
ENDBRANCH  10  12
ENDBRANCH   1  10
BRANCH   5  34
ATOM     34  C   UNL     1      -1.444   1.876  -5.554  1.00  0.00     0.242 C 
ATOM     35  O   UNL     1      -0.798   0.835  -5.672  1.00  0.00    -0.273 OA
ATOM     36  N   UNL     1      -2.498   1.997  -4.676  1.00  0.00    -0.354 N 
ATOM     37  H   UNL     1      -3.071   2.841  -4.709  1.00  0.00     0.163 HD
BRANCH  36  38
ATOM     38  C   UNL     1      -2.758   1.018  -3.641  1.00  0.00     0.116 C 
BRANCH  38  39
ATOM     39  C   UNL     1      -4.256   0.733  -3.563  1.00  0.00     0.023 C 
BRANCH  39  40
ATOM     40  C   UNL     1      -4.960   1.595  -2.520  1.00  0.00     0.026 C 
BRANCH  40  41
ATOM     41  C   UNL     1      -6.036   2.463  -3.172  1.00  0.00     0.146 C 
BRANCH  41  42
ATOM     42  N   UNL     1      -6.490   3.477  -2.229  1.00  0.00    -0.254 NA
ATOM     43  C   UNL     1      -6.126   4.694  -2.385  1.00  0.00     0.185 C 
ATOM     44  N   UNL     1      -5.346   5.250  -3.330  1.00  0.00    -0.370 N 
ATOM     45  N   UNL     1      -6.551   5.613  -1.502  1.00  0.00    -0.370 N 
ATOM     46  H   UNL     1      -4.946   6.163  -3.193  1.00  0.00     0.159 HD
ATOM     47  H   UNL     1      -4.949   4.700  -4.085  1.00  0.00     0.159 HD
ATOM     48  H   UNL     1      -7.152   5.278  -0.761  1.00  0.00     0.159 HD
ATOM     49  H   UNL     1      -6.511   6.600  -1.683  1.00  0.00     0.159 HD
ENDBRANCH  41  42
ENDBRANCH  40  41
ENDBRANCH  39  40
ENDBRANCH  38  39
ENDBRANCH  36  38
ENDBRANCH   5  34
BRANCH   8  50
ATOM     50  O   UNL     1      -0.408   4.837  -1.990  1.00  0.00    -0.245 OA
BRANCH  50  51
ATOM     51  S   UNL     1      -0.422   4.992  -0.371  1.00  0.00     0.397 S 
ATOM     52  O   UNL     1      -1.435   4.104   0.154  1.00  0.00    -0.169 OA
ATOM     53  O   UNL     1      -0.386   6.396  -0.017  1.00  0.00    -0.169 OA
BRANCH  51  54
ATOM     54  O   UNL     1       0.988   4.341   0.042  1.00  0.00    -0.264 OA
ATOM     55  H   UNL     1       1.362   4.875   0.772  1.00  0.00     0.236 HD
ENDBRANCH  51  54
ENDBRANCH  50  51
ENDBRANCH   8  50
TORSDOF 19
ENDMDL
