MODEL 1
REMARK VINA RESULT:    -6.789      0.000      0.000
REMARK INTER + INTRA:         -26.458
REMARK INTER:                 -20.284
REMARK INTRA:                  -6.174
REMARK UNBOUND:                -6.174
REMARK SMILES C=C1C(=O)N[C@H](C)C(=O)N[C@@H](CC(C)C)C(=O)N[C@@H](C(=O)O)[C@H](C)C(=O)N[C@@H](CCCN=C(N)N)C(=O)N[C@@H](/C=C/C(C)=C/[C@H](C)[C@H](Cc2ccccc2)OC)[C@H](C)C(=O)N[C@@H](C(=O)O)CCC(=O)N1C
REMARK SMILES IDX 39 1 38 2 37 3 36 4 28 6 27 7 25 8 26 9 23 11 24 12 19 13
REMARK SMILES IDX 18 14 16 15 17 16 11 18 10 19 8 20 9 21 12 24 13 25 14 26
REMARK SMILES IDX 15 27 20 28 21 29 22 30 29 32 30 33 31 34 32 35 33 36 34 37
REMARK SMILES IDX 35 38 57 43 58 44 59 45 60 46 61 47 62 49 66 50 67 51 68 52
REMARK SMILES IDX 69 53 70 54 71 55 2 56 1 57 3 58 4 59 5 60 6 62 7 63 63 65
REMARK SMILES IDX 64 66 65 67 40 69 41 70 42 71 44 72 43 73 45 74 46 75 47 76
REMARK SMILES IDX 55 77 56 78 48 79 49 80 50 81 54 82 51 83 53 84 52 85
REMARK H PARENT 38 5 27 10 18 17 10 22 22 31 34 39 34 40 35 41 35 42 61 48
REMARK H PARENT 5 61 65 68
REMARK Flexibility Score:  369.900
ROOT
ATOM      1  C   UNL     1       1.873   5.029   4.288  1.00  0.00     0.117 C 
ENDROOT
BRANCH   1   2
ATOM      2  N   UNL     1       1.882   6.356   4.904  1.00  0.00    -0.347 N 
ATOM      3  O   UNL     1      -0.305   6.395   5.599  1.00  0.00    -0.273 OA
ATOM      4  C   UNL     1       0.814   6.897   5.593  1.00  0.00     0.243 C 
ATOM      5  H   UNL     1       2.727   6.907   4.879  1.00  0.00     0.164 HD
BRANCH   4   6
ATOM      6  C   UNL     1       1.114   8.281   6.223  1.00  0.00     0.171 C 
BRANCH   6   7
ATOM      7  N   UNL     1       1.975   8.132   7.407  1.00  0.00    -0.344 N 
ATOM      8  C   UNL     1       1.424   8.001   8.664  1.00  0.00     0.226 C 
ATOM      9  O   UNL     1       0.215   8.025   8.861  1.00  0.00    -0.275 OA
ATOM     10  H   UNL     1       2.979   8.175   7.292  1.00  0.00     0.164 HD
BRANCH   8  11
ATOM     11  C   UNL     1       2.441   7.801   9.774  1.00  0.00     0.109 C 
ATOM     12  C   UNL     1       3.856   7.792   9.196  1.00  0.00     0.021 C 
BRANCH  11  13
ATOM     13  C   UNL     1       2.203   8.836  10.891  1.00  0.00     0.204 C 
BRANCH  13  14
ATOM     14  N   UNL     1       0.956   8.584  11.621  1.00  0.00    -0.340 N 
ATOM     15  C   UNL     1       0.091   9.590  11.994  1.00  0.00     0.243 C 
ATOM     16  O   UNL     1       0.274  10.766  11.687  1.00  0.00    -0.273 OA
ATOM     17  H   UNL     1       0.822   7.658  12.036  1.00  0.00     0.164 HD
BRANCH  15  18
ATOM     18  C   UNL     1      -1.046   9.112  12.931  1.00  0.00     0.171 C 
BRANCH  18  19
ATOM     19  N   UNL     1      -1.882  10.279  13.204  1.00  0.00    -0.343 N 
ATOM     20  C   UNL     1      -2.393  10.532  14.462  1.00  0.00     0.242 CG0
ATOM     21  O   UNL     1      -2.280   9.719  15.378  1.00  0.00    -0.273 OA
ATOM     22  H   UNL     1      -2.101  10.921  12.451  1.00  0.00     0.164 HD
ATOM     23  G   UNL     1      -3.185  11.850  14.575  1.00  0.00     0.000 G0
ENDBRANCH  18  19
BRANCH  18  24
ATOM     24  C   UNL     1      -1.851   7.985  12.274  1.00  0.00     0.038 C 
BRANCH  24  25
ATOM     25  C   UNL     1      -2.151   6.784  13.197  1.00  0.00    -0.015 C 
ATOM     26  C   UNL     1      -3.476   6.936  13.943  1.00  0.00     0.007 C 
ATOM     27  C   UNL     1      -1.010   6.611  14.203  1.00  0.00     0.007 C 
ENDBRANCH  24  25
ENDBRANCH  18  24
ENDBRANCH  15  18
ENDBRANCH  13  14
BRANCH  13  28
ATOM     28  C   UNL     1       3.333   8.880  11.925  1.00  0.00     0.327 C 
ATOM     29  O   UNL     1       3.687   7.961  12.648  1.00  0.00    -0.250 OA
BRANCH  28  30
ATOM     30  O   UNL     1       3.870  10.108  12.069  1.00  0.00    -0.480 OA
ATOM     31  H   UNL     1       4.832   9.943  12.145  1.00  0.00     0.296 HD
ENDBRANCH  28  30
ENDBRANCH  13  28
ENDBRANCH  11  13
ENDBRANCH   8  11
ENDBRANCH   6   7
BRANCH   6  32
ATOM     32  C   UNL     1       1.779   9.178   5.173  1.00  0.00     0.037 C 
BRANCH  32  33
ATOM     33  C   UNL     1       1.526  10.668   5.440  1.00  0.00     0.026 C 
BRANCH  33  34
ATOM     34  C   UNL     1       0.093  10.946   5.896  1.00  0.00     0.146 C 
BRANCH  34  35
ATOM     35  N   UNL     1      -0.787  10.898   4.737  1.00  0.00    -0.254 NA
ATOM     36  C   UNL     1      -1.858  10.198   4.806  1.00  0.00     0.185 C 
ATOM     37  N   UNL     1      -2.678  10.152   3.745  1.00  0.00    -0.370 N 
ATOM     38  N   UNL     1      -2.319   9.460   5.831  1.00  0.00    -0.370 N 
ATOM     39  H   UNL     1      -2.404  10.692   2.935  1.00  0.00     0.159 HD
ATOM     40  H   UNL     1      -3.610   9.774   3.779  1.00  0.00     0.159 HD
ATOM     41  H   UNL     1      -3.106   8.842   5.715  1.00  0.00     0.159 HD
ATOM     42  H   UNL     1      -1.796   9.390   6.689  1.00  0.00     0.159 HD
ENDBRANCH  34  35
ENDBRANCH  33  34
ENDBRANCH  32  33
ENDBRANCH   6  32
ENDBRANCH   4   6
ENDBRANCH   1   2
BRANCH   1  43
ATOM     43  C   UNL     1       3.077   4.216   4.844  1.00  0.00     0.102 C 
ATOM     44  C   UNL     1       2.830   2.698   4.872  1.00  0.00     0.020 C 
BRANCH  43  45
ATOM     45  C   UNL     1       3.560   4.792   6.178  1.00  0.00     0.225 C 
ATOM     46  O   UNL     1       3.976   5.941   6.302  1.00  0.00    -0.275 OA
ATOM     47  N   UNL     1       3.591   3.905   7.230  1.00  0.00    -0.342 N 
ATOM     48  H   UNL     1       3.110   3.020   7.152  1.00  0.00     0.164 HD
BRANCH  47  49
ATOM     49  C   UNL     1       3.997   4.324   8.575  1.00  0.00     0.192 C 
BRANCH  49  50
ATOM     50  C   UNL     1       5.306   3.628   8.957  1.00  0.00     0.047 C 
BRANCH  50  51
ATOM     51  C   UNL     1       5.844   2.739   7.828  1.00  0.00     0.103 C 
BRANCH  51  52
ATOM     52  C   UNL     1       5.466   1.272   8.024  1.00  0.00     0.226 C 
ATOM     53  O   UNL     1       4.301   0.913   7.843  1.00  0.00    -0.275 OA
BRANCH  52  54
ATOM     54  N   UNL     1       6.517   0.390   8.333  1.00  0.00    -0.311 N 
ATOM     55  C   UNL     1       6.587  -0.273   9.643  1.00  0.00     0.153 C 
BRANCH  54  56
ATOM     56  C   UNL     1       7.532   0.105   7.405  1.00  0.00     0.102 C 
ATOM     57  C   UNL     1       8.849   0.152   7.667  1.00  0.00     0.043 C 
BRANCH  56  58
ATOM     58  C   UNL     1       7.196  -0.334   5.999  1.00  0.00     0.268 C 
ATOM     59  O   UNL     1       7.130   0.439   5.053  1.00  0.00    -0.268 OA
ATOM     60  N   UNL     1       7.037  -1.695   5.882  1.00  0.00    -0.339 N 
ATOM     61  H   UNL     1       7.097  -2.266   6.717  1.00  0.00     0.164 HD
BRANCH  60  62
ATOM     62  C   UNL     1       6.769  -2.340   4.598  1.00  0.00     0.168 CG0
ATOM     63  C   UNL     1       5.311  -2.770   4.495  1.00  0.00     0.041 C 
ATOM     64  G   UNL     1       7.709  -3.550   4.421  1.00  0.00     0.000 G0
ENDBRANCH  60  62
ENDBRANCH  56  58
ENDBRANCH  54  56
ENDBRANCH  52  54
ENDBRANCH  51  52
ENDBRANCH  50  51
ENDBRANCH  49  50
BRANCH  49  65
ATOM     65  C   UNL     1       2.921   3.995   9.621  1.00  0.00     0.326 C 
ATOM     66  O   UNL     1       1.836   4.549   9.723  1.00  0.00    -0.250 OA
BRANCH  65  67
ATOM     67  O   UNL     1       3.274   3.043  10.513  1.00  0.00    -0.480 OA
ATOM     68  H   UNL     1       3.900   3.507  11.110  1.00  0.00     0.296 HD
ENDBRANCH  65  67
ENDBRANCH  49  65
ENDBRANCH  47  49
ENDBRANCH  43  45
ENDBRANCH   1  43
BRANCH   1  69
ATOM     69  C   UNL     1       1.771   5.258   2.791  1.00  0.00    -0.001 C 
ATOM     70  C   UNL     1       2.535   6.065   2.034  1.00  0.00     0.001 C 
BRANCH  70  71
ATOM     71  C   UNL     1       2.441   6.262   0.586  1.00  0.00    -0.055 C 
ATOM     72  C   UNL     1       3.421   6.967  -0.017  1.00  0.00    -0.018 C 
ATOM     73  C   UNL     1       1.262   5.655  -0.130  1.00  0.00     0.044 C 
BRANCH  72  74
ATOM     74  C   UNL     1       3.587   7.323  -1.487  1.00  0.00     0.038 C 
ATOM     75  C   UNL     1       3.928   6.026  -2.231  1.00  0.00     0.015 C 
BRANCH  74  76
ATOM     76  C   UNL     1       4.656   8.449  -1.613  1.00  0.00     0.128 C 
BRANCH  76  77
ATOM     77  O   UNL     1       4.025   9.737  -1.521  1.00  0.00    -0.381 OA
ATOM     78  C   UNL     1       4.401  10.476  -0.367  1.00  0.00     0.195 C 
ENDBRANCH  76  77
BRANCH  76  79
ATOM     79  C   UNL     1       5.849   8.295  -0.637  1.00  0.00     0.068 C 
BRANCH  79  80
ATOM     80  C   UNL     1       7.241   8.274  -1.220  1.00  0.00    -0.045 A 
ATOM     81  C   UNL     1       8.152   7.266  -0.878  1.00  0.00     0.004 A 
ATOM     82  C   UNL     1       7.655   9.288  -2.098  1.00  0.00     0.004 A 
ATOM     83  C   UNL     1       9.443   7.262  -1.411  1.00  0.00     0.000 A 
ATOM     84  C   UNL     1       8.947   9.283  -2.630  1.00  0.00     0.000 A 
ATOM     85  C   UNL     1       9.839   8.270  -2.288  1.00  0.00     0.000 A 
ENDBRANCH  79  80
ENDBRANCH  76  79
ENDBRANCH  74  76
ENDBRANCH  72  74
ENDBRANCH  70  71
ENDBRANCH   1  69
TORSDOF 17
ENDMDL
MODEL 2
REMARK VINA RESULT:    -6.410      3.188      4.532
REMARK INTER + INTRA:         -25.325
REMARK INTER:                 -18.656
REMARK INTRA:                  -6.669
REMARK UNBOUND:                -6.174
REMARK SMILES C=C1C(=O)N[C@H](C)C(=O)N[C@@H](CC(C)C)C(=O)N[C@@H](C(=O)O)[C@H](C)C(=O)N[C@@H](CCCN=C(N)N)C(=O)N[C@@H](/C=C/C(C)=C/[C@H](C)[C@H](Cc2ccccc2)OC)[C@H](C)C(=O)N[C@@H](C(=O)O)CCC(=O)N1C
REMARK SMILES IDX 39 1 38 2 37 3 36 4 28 6 27 7 25 8 26 9 23 11 24 12 19 13
REMARK SMILES IDX 18 14 16 15 17 16 11 18 10 19 8 20 9 21 12 24 13 25 14 26
REMARK SMILES IDX 15 27 20 28 21 29 22 30 29 32 30 33 31 34 32 35 33 36 34 37
REMARK SMILES IDX 35 38 57 43 58 44 59 45 60 46 61 47 62 49 66 50 67 51 68 52
REMARK SMILES IDX 69 53 70 54 71 55 2 56 1 57 3 58 4 59 5 60 6 62 7 63 63 65
REMARK SMILES IDX 64 66 65 67 40 69 41 70 42 71 44 72 43 73 45 74 46 75 47 76
REMARK SMILES IDX 55 77 56 78 48 79 49 80 50 81 54 82 51 83 53 84 52 85
REMARK H PARENT 38 5 27 10 18 17 10 22 22 31 34 39 34 40 35 41 35 42 61 48
REMARK H PARENT 5 61 65 68
REMARK Flexibility Score:  369.900
ROOT
ATOM      1  C   UNL     1       2.072   4.793   4.805  1.00  0.00     0.117 C 
ENDROOT
BRANCH   1   2
ATOM      2  N   UNL     1       1.976   6.115   5.427  1.00  0.00    -0.347 N 
ATOM      3  O   UNL     1      -0.274   6.085   5.880  1.00  0.00    -0.273 OA
ATOM      4  C   UNL     1       0.824   6.618   5.999  1.00  0.00     0.243 C 
ATOM      5  H   UNL     1       2.802   6.689   5.497  1.00  0.00     0.164 HD
BRANCH   4   6
ATOM      6  C   UNL     1       1.013   8.004   6.666  1.00  0.00     0.171 C 
BRANCH   6   7
ATOM      7  N   UNL     1       1.311   7.850   8.099  1.00  0.00    -0.344 N 
ATOM      8  C   UNL     1       0.293   7.800   9.026  1.00  0.00     0.226 C 
ATOM      9  O   UNL     1      -0.888   7.902   8.717  1.00  0.00    -0.275 OA
ATOM     10  H   UNL     1       2.277   7.830   8.400  1.00  0.00     0.164 HD
BRANCH   8  11
ATOM     11  C   UNL     1       0.760   7.582  10.455  1.00  0.00     0.109 C 
ATOM     12  C   UNL     1       2.287   7.613  10.521  1.00  0.00     0.021 C 
BRANCH  11  13
ATOM     13  C   UNL     1       0.050   8.580  11.393  1.00  0.00     0.204 C 
BRANCH  13  14
ATOM     14  N   UNL     1      -0.518   7.920  12.572  1.00  0.00    -0.340 N 
ATOM     15  C   UNL     1      -1.875   7.831  12.799  1.00  0.00     0.243 C 
ATOM     16  O   UNL     1      -2.707   8.247  11.995  1.00  0.00    -0.273 OA
ATOM     17  H   UNL     1       0.112   7.691  13.345  1.00  0.00     0.164 HD
BRANCH  15  18
ATOM     18  C   UNL     1      -2.233   7.280  14.201  1.00  0.00     0.171 C 
BRANCH  18  19
ATOM     19  N   UNL     1      -3.602   6.777  14.116  1.00  0.00    -0.343 N 
ATOM     20  C   UNL     1      -4.667   7.463  14.668  1.00  0.00     0.242 CG0
ATOM     21  O   UNL     1      -4.496   8.458  15.370  1.00  0.00    -0.273 OA
ATOM     22  H   UNL     1      -3.781   5.897  13.645  1.00  0.00     0.164 HD
ATOM     23  G   UNL     1      -6.044   6.818  14.409  1.00  0.00     0.000 G0
ENDBRANCH  18  19
BRANCH  18  24
ATOM     24  C   UNL     1      -1.253   6.176  14.615  1.00  0.00     0.038 C 
BRANCH  24  25
ATOM     25  C   UNL     1      -0.707   6.305  16.053  1.00  0.00    -0.015 C 
ATOM     26  C   UNL     1       0.338   7.413  16.185  1.00  0.00     0.007 C 
ATOM     27  C   UNL     1      -0.101   4.970  16.495  1.00  0.00     0.007 C 
ENDBRANCH  24  25
ENDBRANCH  18  24
ENDBRANCH  15  18
ENDBRANCH  13  14
BRANCH  13  28
ATOM     28  C   UNL     1       0.972   9.695  11.897  1.00  0.00     0.327 C 
ATOM     29  O   UNL     1       1.399  10.631  11.239  1.00  0.00    -0.250 OA
BRANCH  28  30
ATOM     30  O   UNL     1       1.395   9.499  13.162  1.00  0.00    -0.480 OA
ATOM     31  H   UNL     1       2.363   9.372  13.076  1.00  0.00     0.296 HD
ENDBRANCH  28  30
ENDBRANCH  13  28
ENDBRANCH  11  13
ENDBRANCH   8  11
ENDBRANCH   6   7
BRANCH   6  32
ATOM     32  C   UNL     1       2.141   8.757   5.950  1.00  0.00     0.037 C 
BRANCH  32  33
ATOM     33  C   UNL     1       1.607   9.876   5.046  1.00  0.00     0.026 C 
BRANCH  33  34
ATOM     34  C   UNL     1       0.461  10.656   5.693  1.00  0.00     0.146 C 
BRANCH  34  35
ATOM     35  N   UNL     1      -0.639  10.747   4.743  1.00  0.00    -0.254 NA
ATOM     36  C   UNL     1      -1.704  10.071   4.969  1.00  0.00     0.185 C 
ATOM     37  N   UNL     1      -2.726  10.152   4.104  1.00  0.00    -0.370 N 
ATOM     38  N   UNL     1      -1.978   9.245   5.995  1.00  0.00    -0.370 N 
ATOM     39  H   UNL     1      -2.600  10.764   3.308  1.00  0.00     0.159 HD
ATOM     40  H   UNL     1      -3.647   9.796   4.296  1.00  0.00     0.159 HD
ATOM     41  H   UNL     1      -2.798   8.662   5.989  1.00  0.00     0.159 HD
ATOM     42  H   UNL     1      -1.292   9.076   6.714  1.00  0.00     0.159 HD
ENDBRANCH  34  35
ENDBRANCH  33  34
ENDBRANCH  32  33
ENDBRANCH   6  32
ENDBRANCH   4   6
ENDBRANCH   1   2
BRANCH   1  43
ATOM     43  C   UNL     1       3.339   4.078   5.357  1.00  0.00     0.102 C 
ATOM     44  C   UNL     1       3.273   2.545   5.245  1.00  0.00     0.020 C 
BRANCH  43  45
ATOM     45  C   UNL     1       3.691   4.584   6.759  1.00  0.00     0.225 C 
ATOM     46  O   UNL     1       2.957   4.429   7.731  1.00  0.00    -0.275 OA
ATOM     47  N   UNL     1       4.852   5.316   6.850  1.00  0.00    -0.342 N 
ATOM     48  H   UNL     1       5.513   5.304   6.086  1.00  0.00     0.164 HD
BRANCH  47  49
ATOM     49  C   UNL     1       5.333   5.833   8.135  1.00  0.00     0.192 C 
BRANCH  49  50
ATOM     50  C   UNL     1       5.942   7.223   7.934  1.00  0.00     0.047 C 
BRANCH  50  51
ATOM     51  C   UNL     1       5.864   7.688   6.474  1.00  0.00     0.103 C 
BRANCH  51  52
ATOM     52  C   UNL     1       7.215   8.174   5.953  1.00  0.00     0.226 C 
ATOM     53  O   UNL     1       7.713   9.202   6.417  1.00  0.00    -0.275 OA
BRANCH  52  54
ATOM     54  N   UNL     1       7.854   7.354   5.006  1.00  0.00    -0.311 N 
ATOM     55  C   UNL     1       8.149   5.945   5.302  1.00  0.00     0.153 C 
BRANCH  54  56
ATOM     56  C   UNL     1       8.229   7.846   3.745  1.00  0.00     0.102 C 
ATOM     57  C   UNL     1       7.475   8.652   2.980  1.00  0.00     0.043 C 
BRANCH  56  58
ATOM     58  C   UNL     1       9.583   7.523   3.158  1.00  0.00     0.268 C 
ATOM     59  O   UNL     1       9.737   6.777   2.200  1.00  0.00    -0.268 OA
ATOM     60  N   UNL     1      10.611   8.203   3.766  1.00  0.00    -0.339 N 
ATOM     61  H   UNL     1      10.401   8.795   4.561  1.00  0.00     0.164 HD
BRANCH  60  62
ATOM     62  C   UNL     1      11.997   8.086   3.314  1.00  0.00     0.168 CG0
ATOM     63  C   UNL     1      12.744   7.022   4.109  1.00  0.00     0.041 C 
ATOM     64  G   UNL     1      12.699   9.454   3.440  1.00  0.00     0.000 G0
ENDBRANCH  60  62
ENDBRANCH  56  58
ENDBRANCH  54  56
ENDBRANCH  52  54
ENDBRANCH  51  52
ENDBRANCH  50  51
ENDBRANCH  49  50
BRANCH  49  65
ATOM     65  C   UNL     1       6.382   4.903   8.764  1.00  0.00     0.326 C 
ATOM     66  O   UNL     1       7.143   4.171   8.148  1.00  0.00    -0.250 OA
BRANCH  65  67
ATOM     67  O   UNL     1       6.387   4.890  10.115  1.00  0.00    -0.480 OA
ATOM     68  H   UNL     1       6.178   5.818  10.356  1.00  0.00     0.296 HD
ENDBRANCH  65  67
ENDBRANCH  49  65
ENDBRANCH  47  49
ENDBRANCH  43  45
ENDBRANCH   1  43
BRANCH   1  69
ATOM     69  C   UNL     1       1.950   5.019   3.310  1.00  0.00    -0.001 C 
ATOM     70  C   UNL     1       2.463   6.034   2.592  1.00  0.00     0.001 C 
BRANCH  70  71
ATOM     71  C   UNL     1       2.356   6.229   1.144  1.00  0.00    -0.055 C 
ATOM     72  C   UNL     1       3.339   6.922   0.531  1.00  0.00    -0.018 C 
ATOM     73  C   UNL     1       1.162   5.638   0.442  1.00  0.00     0.044 C 
BRANCH  72  74
ATOM     74  C   UNL     1       3.494   7.273  -0.942  1.00  0.00     0.038 C 
ATOM     75  C   UNL     1       4.023   6.022  -1.653  1.00  0.00     0.015 C 
BRANCH  74  76
ATOM     76  C   UNL     1       4.407   8.529  -1.064  1.00  0.00     0.128 C 
BRANCH  76  77
ATOM     77  O   UNL     1       3.649   9.717  -0.780  1.00  0.00    -0.381 OA
ATOM     78  C   UNL     1       4.243  10.552   0.204  1.00  0.00     0.195 C 
ENDBRANCH  76  77
BRANCH  76  79
ATOM     79  C   UNL     1       5.714   8.439  -0.235  1.00  0.00     0.068 C 
BRANCH  79  80
ATOM     80  C   UNL     1       7.027   8.474  -0.979  1.00  0.00    -0.045 A 
ATOM     81  C   UNL     1       7.289   9.464  -1.936  1.00  0.00     0.004 A 
ATOM     82  C   UNL     1       8.000   7.491  -0.743  1.00  0.00     0.004 A 
ATOM     83  C   UNL     1       8.500   9.480  -2.630  1.00  0.00     0.000 A 
ATOM     84  C   UNL     1       9.211   7.508  -1.438  1.00  0.00     0.000 A 
ATOM     85  C   UNL     1       9.461   8.503  -2.380  1.00  0.00     0.000 A 
ENDBRANCH  79  80
ENDBRANCH  76  79
ENDBRANCH  74  76
ENDBRANCH  72  74
ENDBRANCH  70  71
ENDBRANCH   1  69
TORSDOF 17
ENDMDL
MODEL 3
REMARK VINA RESULT:    -6.292     11.767     16.772
REMARK INTER + INTRA:         -24.973
REMARK INTER:                 -17.776
REMARK INTRA:                  -7.197
REMARK UNBOUND:                -6.174
REMARK SMILES C=C1C(=O)N[C@H](C)C(=O)N[C@@H](CC(C)C)C(=O)N[C@@H](C(=O)O)[C@H](C)C(=O)N[C@@H](CCCN=C(N)N)C(=O)N[C@@H](/C=C/C(C)=C/[C@H](C)[C@H](Cc2ccccc2)OC)[C@H](C)C(=O)N[C@@H](C(=O)O)CCC(=O)N1C
REMARK SMILES IDX 39 1 38 2 37 3 36 4 28 6 27 7 25 8 26 9 23 11 24 12 19 13
REMARK SMILES IDX 18 14 16 15 17 16 11 18 10 19 8 20 9 21 12 24 13 25 14 26
REMARK SMILES IDX 15 27 20 28 21 29 22 30 29 32 30 33 31 34 32 35 33 36 34 37
REMARK SMILES IDX 35 38 57 43 58 44 59 45 60 46 61 47 62 49 66 50 67 51 68 52
REMARK SMILES IDX 69 53 70 54 71 55 2 56 1 57 3 58 4 59 5 60 6 62 7 63 63 65
REMARK SMILES IDX 64 66 65 67 40 69 41 70 42 71 44 72 43 73 45 74 46 75 47 76
REMARK SMILES IDX 55 77 56 78 48 79 49 80 50 81 54 82 51 83 53 84 52 85
REMARK H PARENT 38 5 27 10 18 17 10 22 22 31 34 39 34 40 35 41 35 42 61 48
REMARK H PARENT 5 61 65 68
REMARK Flexibility Score:  369.900
ROOT
ATOM      1  C   UNL     1       3.842  -8.326   9.629  1.00  0.00     0.117 C 
ENDROOT
BRANCH   1   2
ATOM      2  N   UNL     1       3.832  -8.619  11.063  1.00  0.00    -0.347 N 
ATOM      3  O   UNL     1       1.734  -9.545  11.179  1.00  0.00    -0.273 OA
ATOM      4  C   UNL     1       2.811  -9.291  11.708  1.00  0.00     0.243 C 
ATOM      5  H   UNL     1       4.631  -8.368  11.625  1.00  0.00     0.164 HD
BRANCH   4   6
ATOM      6  C   UNL     1       3.087  -9.548  13.211  1.00  0.00     0.171 C 
BRANCH   6   7
ATOM      7  N   UNL     1       1.989  -9.016  14.034  1.00  0.00    -0.344 N 
ATOM      8  C   UNL     1       2.240  -8.104  15.037  1.00  0.00     0.226 C 
ATOM      9  O   UNL     1       3.369  -7.713  15.306  1.00  0.00    -0.275 OA
ATOM     10  H   UNL     1       1.051  -9.366  13.886  1.00  0.00     0.164 HD
BRANCH   8  11
ATOM     11  C   UNL     1       0.998  -7.610  15.758  1.00  0.00     0.109 C 
ATOM     12  C   UNL     1       1.323  -7.316  17.223  1.00  0.00     0.021 C 
BRANCH  11  13
ATOM     13  C   UNL     1       0.379  -6.431  14.982  1.00  0.00     0.204 C 
BRANCH  13  14
ATOM     14  N   UNL     1      -0.883  -6.800  14.333  1.00  0.00    -0.340 N 
ATOM     15  C   UNL     1      -0.985  -7.049  12.982  1.00  0.00     0.243 C 
ATOM     16  O   UNL     1      -0.010  -7.039  12.233  1.00  0.00    -0.273 OA
ATOM     17  H   UNL     1      -1.750  -6.678  14.864  1.00  0.00     0.164 HD
BRANCH  15  18
ATOM     18  C   UNL     1      -2.445  -7.213  12.491  1.00  0.00     0.171 C 
BRANCH  18  19
ATOM     19  N   UNL     1      -2.996  -5.866  12.357  1.00  0.00    -0.343 N 
ATOM     20  C   UNL     1      -3.566  -5.202  13.427  1.00  0.00     0.242 CG0
ATOM     21  O   UNL     1      -3.757  -5.762  14.504  1.00  0.00    -0.273 OA
ATOM     22  H   UNL     1      -2.966  -5.404  11.456  1.00  0.00     0.164 HD
ATOM     23  G   UNL     1      -4.020  -3.762  13.113  1.00  0.00     0.000 G0
ENDBRANCH  18  19
BRANCH  18  24
ATOM     24  C   UNL     1      -2.487  -7.972  11.159  1.00  0.00     0.038 C 
BRANCH  24  25
ATOM     25  C   UNL     1      -3.822  -8.690  10.868  1.00  0.00    -0.015 C 
ATOM     26  C   UNL     1      -3.806 -10.155  11.302  1.00  0.00     0.007 C 
ATOM     27  C   UNL     1      -4.139  -8.599   9.373  1.00  0.00     0.007 C 
ENDBRANCH  24  25
ENDBRANCH  18  24
ENDBRANCH  15  18
ENDBRANCH  13  14
BRANCH  13  28
ATOM     28  C   UNL     1       0.096  -5.210  15.863  1.00  0.00     0.327 C 
ATOM     29  O   UNL     1       0.923  -4.412  16.279  1.00  0.00    -0.250 OA
BRANCH  28  30
ATOM     30  O   UNL     1      -1.188  -5.134  16.265  1.00  0.00    -0.480 OA
ATOM     31  H   UNL     1      -1.676  -4.852  15.463  1.00  0.00     0.296 HD
ENDBRANCH  28  30
ENDBRANCH  13  28
ENDBRANCH  11  13
ENDBRANCH   8  11
ENDBRANCH   6   7
BRANCH   6  32
ATOM     32  C   UNL     1       3.263 -11.053  13.440  1.00  0.00     0.037 C 
BRANCH  32  33
ATOM     33  C   UNL     1       3.294 -11.840  12.122  1.00  0.00     0.026 C 
BRANCH  33  34
ATOM     34  C   UNL     1       2.402 -13.081  12.160  1.00  0.00     0.146 C 
BRANCH  34  35
ATOM     35  N   UNL     1       1.094 -12.737  11.621  1.00  0.00    -0.254 NA
ATOM     36  C   UNL     1       0.564 -13.514  10.752  1.00  0.00     0.185 C 
ATOM     37  N   UNL     1      -0.643 -13.209  10.252  1.00  0.00    -0.370 N 
ATOM     38  N   UNL     1       1.050 -14.654  10.229  1.00  0.00    -0.370 N 
ATOM     39  H   UNL     1      -1.082 -12.367  10.604  1.00  0.00     0.159 HD
ATOM     40  H   UNL     1      -1.197 -13.847   9.706  1.00  0.00     0.159 HD
ATOM     41  H   UNL     1       0.600 -15.103   9.449  1.00  0.00     0.159 HD
ATOM     42  H   UNL     1       1.958 -14.997  10.503  1.00  0.00     0.159 HD
ENDBRANCH  34  35
ENDBRANCH  33  34
ENDBRANCH  32  33
ENDBRANCH   6  32
ENDBRANCH   4   6
ENDBRANCH   1   2
BRANCH   1  43
ATOM     43  C   UNL     1       5.263  -8.628   9.072  1.00  0.00     0.102 C 
ATOM     44  C   UNL     1       5.827  -7.500   8.191  1.00  0.00     0.020 C 
BRANCH  43  45
ATOM     45  C   UNL     1       5.315 -10.012   8.419  1.00  0.00     0.225 C 
ATOM     46  O   UNL     1       6.356 -10.648   8.276  1.00  0.00    -0.275 OA
ATOM     47  N   UNL     1       4.123 -10.471   7.908  1.00  0.00    -0.342 N 
ATOM     48  H   UNL     1       3.259 -10.014   8.164  1.00  0.00     0.164 HD
BRANCH  47  49
ATOM     49  C   UNL     1       4.015 -11.795   7.286  1.00  0.00     0.192 C 
BRANCH  49  50
ATOM     50  C   UNL     1       3.485 -11.650   5.857  1.00  0.00     0.047 C 
BRANCH  50  51
ATOM     51  C   UNL     1       4.451 -12.233   4.817  1.00  0.00     0.103 C 
BRANCH  51  52
ATOM     52  C   UNL     1       5.623 -11.296   4.533  1.00  0.00     0.226 C 
ATOM     53  O   UNL     1       5.560 -10.117   4.885  1.00  0.00    -0.275 OA
BRANCH  52  54
ATOM     54  N   UNL     1       6.759 -11.876   3.939  1.00  0.00    -0.311 N 
ATOM     55  C   UNL     1       7.881 -12.352   4.759  1.00  0.00     0.153 C 
BRANCH  54  56
ATOM     56  C   UNL     1       6.862 -12.025   2.546  1.00  0.00     0.102 C 
ATOM     57  C   UNL     1       6.272 -11.226   1.642  1.00  0.00     0.043 C 
BRANCH  56  58
ATOM     58  C   UNL     1       7.715 -13.117   1.944  1.00  0.00     0.268 C 
ATOM     59  O   UNL     1       7.435 -14.305   2.021  1.00  0.00    -0.268 OA
ATOM     60  N   UNL     1       8.798 -12.634   1.249  1.00  0.00    -0.339 N 
ATOM     61  H   UNL     1       8.967 -11.635   1.242  1.00  0.00     0.164 HD
BRANCH  60  62
ATOM     62  C   UNL     1       9.721 -13.515   0.535  1.00  0.00     0.168 CG0
ATOM     63  C   UNL     1       9.278 -13.718  -0.909  1.00  0.00     0.041 C 
ATOM     64  G   UNL     1       9.819 -14.867   1.271  1.00  0.00     0.000 G0
ENDBRANCH  60  62
ENDBRANCH  56  58
ENDBRANCH  54  56
ENDBRANCH  52  54
ENDBRANCH  51  52
ENDBRANCH  50  51
ENDBRANCH  49  50
BRANCH  49  65
ATOM     65  C   UNL     1       3.083 -12.721   8.083  1.00  0.00     0.326 C 
ATOM     66  O   UNL     1       3.435 -13.696   8.731  1.00  0.00    -0.250 OA
BRANCH  65  67
ATOM     67  O   UNL     1       1.769 -12.422   7.982  1.00  0.00    -0.480 OA
ATOM     68  H   UNL     1       1.668 -11.628   8.550  1.00  0.00     0.296 HD
ENDBRANCH  65  67
ENDBRANCH  49  65
ENDBRANCH  47  49
ENDBRANCH  43  45
ENDBRANCH   1  43
BRANCH   1  69
ATOM     69  C   UNL     1       3.277  -6.926   9.479  1.00  0.00    -0.001 C 
ATOM     70  C   UNL     1       3.585  -5.838  10.206  1.00  0.00     0.001 C 
BRANCH  70  71
ATOM     71  C   UNL     1       3.049  -4.485  10.038  1.00  0.00    -0.055 C 
ATOM     72  C   UNL     1       2.253  -4.000  11.013  1.00  0.00    -0.018 C 
ATOM     73  C   UNL     1       3.430  -3.729   8.792  1.00  0.00     0.044 C 
BRANCH  72  74
ATOM     74  C   UNL     1       1.565  -2.646  11.110  1.00  0.00     0.038 C 
ATOM     75  C   UNL     1       2.476  -1.733  11.940  1.00  0.00     0.015 C 
BRANCH  74  76
ATOM     76  C   UNL     1       0.137  -2.850  11.697  1.00  0.00     0.128 C 
BRANCH  76  77
ATOM     77  O   UNL     1      -0.363  -1.606  12.216  1.00  0.00    -0.381 OA
ATOM     78  C   UNL     1      -1.768  -1.602  12.433  1.00  0.00     0.195 C 
ENDBRANCH  76  77
BRANCH  76  79
ATOM     79  C   UNL     1      -0.853  -3.534  10.720  1.00  0.00     0.068 C 
BRANCH  79  80
ATOM     80  C   UNL     1      -0.482  -3.583   9.257  1.00  0.00    -0.045 A 
ATOM     81  C   UNL     1      -0.394  -2.411   8.495  1.00  0.00     0.004 A 
ATOM     82  C   UNL     1      -0.245  -4.816   8.629  1.00  0.00     0.004 A 
ATOM     83  C   UNL     1      -0.065  -2.467   7.139  1.00  0.00     0.000 A 
ATOM     84  C   UNL     1       0.084  -4.870   7.273  1.00  0.00     0.000 A 
ATOM     85  C   UNL     1       0.176  -3.696   6.529  1.00  0.00     0.000 A 
ENDBRANCH  79  80
ENDBRANCH  76  79
ENDBRANCH  74  76
ENDBRANCH  72  74
ENDBRANCH  70  71
ENDBRANCH   1  69
TORSDOF 17
ENDMDL
MODEL 4
REMARK VINA RESULT:    -6.275      4.498      9.425
REMARK INTER + INTRA:         -24.922
REMARK INTER:                 -16.362
REMARK INTRA:                  -8.560
REMARK UNBOUND:                -6.174
REMARK SMILES C=C1C(=O)N[C@H](C)C(=O)N[C@@H](CC(C)C)C(=O)N[C@@H](C(=O)O)[C@H](C)C(=O)N[C@@H](CCCN=C(N)N)C(=O)N[C@@H](/C=C/C(C)=C/[C@H](C)[C@H](Cc2ccccc2)OC)[C@H](C)C(=O)N[C@@H](C(=O)O)CCC(=O)N1C
REMARK SMILES IDX 39 1 38 2 37 3 36 4 28 6 27 7 25 8 26 9 23 11 24 12 19 13
REMARK SMILES IDX 18 14 16 15 17 16 11 18 10 19 8 20 9 21 12 24 13 25 14 26
REMARK SMILES IDX 15 27 20 28 21 29 22 30 29 32 30 33 31 34 32 35 33 36 34 37
REMARK SMILES IDX 35 38 57 43 58 44 59 45 60 46 61 47 62 49 66 50 67 51 68 52
REMARK SMILES IDX 69 53 70 54 71 55 2 56 1 57 3 58 4 59 5 60 6 62 7 63 63 65
REMARK SMILES IDX 64 66 65 67 40 69 41 70 42 71 44 72 43 73 45 74 46 75 47 76
REMARK SMILES IDX 55 77 56 78 48 79 49 80 50 81 54 82 51 83 53 84 52 85
REMARK H PARENT 38 5 27 10 18 17 10 22 22 31 34 39 34 40 35 41 35 42 61 48
REMARK H PARENT 5 61 65 68
REMARK Flexibility Score:  369.900
ROOT
ATOM      1  C   UNL     1       5.869   0.771   9.208  1.00  0.00     0.117 C 
ENDROOT
BRANCH   1   2
ATOM      2  N   UNL     1       4.879   1.759   8.778  1.00  0.00    -0.347 N 
ATOM      3  O   UNL     1       6.017   3.645   9.424  1.00  0.00    -0.273 OA
ATOM      4  C   UNL     1       5.073   3.126   8.838  1.00  0.00     0.243 C 
ATOM      5  H   UNL     1       4.014   1.445   8.364  1.00  0.00     0.164 HD
BRANCH   4   6
ATOM      6  C   UNL     1       3.904   3.949   8.239  1.00  0.00     0.171 C 
BRANCH   6   7
ATOM      7  N   UNL     1       3.773   5.238   8.936  1.00  0.00    -0.344 N 
ATOM      8  C   UNL     1       2.760   5.445   9.847  1.00  0.00     0.226 C 
ATOM      9  O   UNL     1       1.919   4.592  10.104  1.00  0.00    -0.275 OA
ATOM     10  H   UNL     1       4.409   5.990   8.701  1.00  0.00     0.164 HD
BRANCH   8  11
ATOM     11  C   UNL     1       2.793   6.806  10.521  1.00  0.00     0.109 C 
ATOM     12  C   UNL     1       4.096   7.529  10.182  1.00  0.00     0.021 C 
BRANCH  11  13
ATOM     13  C   UNL     1       1.509   7.588  10.178  1.00  0.00     0.204 C 
BRANCH  13  14
ATOM     14  N   UNL     1       0.635   7.751  11.344  1.00  0.00    -0.340 N 
ATOM     15  C   UNL     1      -0.694   7.387  11.339  1.00  0.00     0.243 C 
ATOM     16  O   UNL     1      -1.226   6.842  10.373  1.00  0.00    -0.273 OA
ATOM     17  H   UNL     1       0.970   8.330  12.118  1.00  0.00     0.164 HD
BRANCH  15  18
ATOM     18  C   UNL     1      -1.465   7.842  12.602  1.00  0.00     0.171 C 
BRANCH  18  19
ATOM     19  N   UNL     1      -2.675   8.515  12.135  1.00  0.00    -0.343 N 
ATOM     20  C   UNL     1      -3.113   9.700  12.694  1.00  0.00     0.242 CG0
ATOM     21  O   UNL     1      -2.582  10.173  13.696  1.00  0.00    -0.273 OA
ATOM     22  H   UNL     1      -3.215   8.102  11.383  1.00  0.00     0.164 HD
ATOM     23  G   UNL     1      -4.363  10.300  12.017  1.00  0.00     0.000 G0
ENDBRANCH  18  19
BRANCH  18  24
ATOM     24  C   UNL     1      -1.799   6.641  13.495  1.00  0.00     0.038 C 
BRANCH  24  25
ATOM     25  C   UNL     1      -1.719   6.922  15.011  1.00  0.00    -0.015 C 
ATOM     26  C   UNL     1      -0.578   7.875  15.369  1.00  0.00     0.007 C 
ATOM     27  C   UNL     1      -1.548   5.604  15.770  1.00  0.00     0.007 C 
ENDBRANCH  24  25
ENDBRANCH  18  24
ENDBRANCH  15  18
ENDBRANCH  13  14
BRANCH  13  28
ATOM     28  C   UNL     1       1.786   8.987   9.619  1.00  0.00     0.327 C 
ATOM     29  O   UNL     1       1.908  10.014  10.270  1.00  0.00    -0.250 OA
BRANCH  28  30
ATOM     30  O   UNL     1       1.775   9.030   8.272  1.00  0.00    -0.480 OA
ATOM     31  H   UNL     1       1.636   9.976   8.061  1.00  0.00     0.296 HD
ENDBRANCH  28  30
ENDBRANCH  13  28
ENDBRANCH  11  13
ENDBRANCH   8  11
ENDBRANCH   6   7
BRANCH   6  32
ATOM     32  C   UNL     1       4.152   4.159   6.741  1.00  0.00     0.037 C 
BRANCH  32  33
ATOM     33  C   UNL     1       3.782   5.578   6.287  1.00  0.00     0.026 C 
BRANCH  33  34
ATOM     34  C   UNL     1       2.359   5.663   5.734  1.00  0.00     0.146 C 
BRANCH  34  35
ATOM     35  N   UNL     1       1.511   6.319   6.719  1.00  0.00    -0.254 NA
ATOM     36  C   UNL     1       0.315   6.636   6.387  1.00  0.00     0.185 C 
ATOM     37  N   UNL     1      -0.477   7.237   7.289  1.00  0.00    -0.370 N 
ATOM     38  N   UNL     1      -0.312   6.453   5.212  1.00  0.00    -0.370 N 
ATOM     39  H   UNL     1      -0.079   7.400   8.205  1.00  0.00     0.159 HD
ATOM     40  H   UNL     1      -1.467   7.357   7.166  1.00  0.00     0.159 HD
ATOM     41  H   UNL     1      -1.209   6.872   5.029  1.00  0.00     0.159 HD
ATOM     42  H   UNL     1       0.169   6.027   4.435  1.00  0.00     0.159 HD
ENDBRANCH  34  35
ENDBRANCH  33  34
ENDBRANCH  32  33
ENDBRANCH   6  32
ENDBRANCH   4   6
ENDBRANCH   1   2
BRANCH   1  43
ATOM     43  C   UNL     1       6.446   0.068   7.946  1.00  0.00     0.102 C 
ATOM     44  C   UNL     1       7.639   0.812   7.322  1.00  0.00     0.020 C 
BRANCH  43  45
ATOM     45  C   UNL     1       5.335  -0.271   6.948  1.00  0.00     0.225 C 
ATOM     46  O   UNL     1       4.938   0.515   6.093  1.00  0.00    -0.275 OA
ATOM     47  N   UNL     1       4.731  -1.495   7.127  1.00  0.00    -0.342 N 
ATOM     48  H   UNL     1       5.163  -2.183   7.727  1.00  0.00     0.164 HD
BRANCH  47  49
ATOM     49  C   UNL     1       3.676  -1.968   6.225  1.00  0.00     0.192 C 
BRANCH  49  50
ATOM     50  C   UNL     1       2.705  -2.867   6.996  1.00  0.00     0.047 C 
BRANCH  50  51
ATOM     51  C   UNL     1       3.360  -3.511   8.226  1.00  0.00     0.103 C 
BRANCH  51  52
ATOM     52  C   UNL     1       3.337  -5.037   8.154  1.00  0.00     0.226 C 
ATOM     53  O   UNL     1       2.670  -5.597   7.281  1.00  0.00    -0.275 OA
BRANCH  52  54
ATOM     54  N   UNL     1       4.160  -5.720   9.068  1.00  0.00    -0.311 N 
ATOM     55  C   UNL     1       5.180  -5.005   9.848  1.00  0.00     0.153 C 
BRANCH  54  56
ATOM     56  C   UNL     1       4.036  -7.104   9.273  1.00  0.00     0.102 C 
ATOM     57  C   UNL     1       3.139  -7.683  10.089  1.00  0.00     0.043 C 
BRANCH  56  58
ATOM     58  C   UNL     1       4.911  -8.081   8.523  1.00  0.00     0.268 C 
ATOM     59  O   UNL     1       5.909  -8.595   9.010  1.00  0.00    -0.268 OA
ATOM     60  N   UNL     1       4.436  -8.379   7.269  1.00  0.00    -0.339 N 
ATOM     61  H   UNL     1       3.607  -7.901   6.935  1.00  0.00     0.164 HD
BRANCH  60  62
ATOM     62  C   UNL     1       5.095  -9.350   6.396  1.00  0.00     0.168 CG0
ATOM     63  C   UNL     1       4.137 -10.464   5.995  1.00  0.00     0.041 C 
ATOM     64  G   UNL     1       6.336  -9.926   7.109  1.00  0.00     0.000 G0
ENDBRANCH  60  62
ENDBRANCH  56  58
ENDBRANCH  54  56
ENDBRANCH  52  54
ENDBRANCH  51  52
ENDBRANCH  50  51
ENDBRANCH  49  50
BRANCH  49  65
ATOM     65  C   UNL     1       4.256  -2.749   5.035  1.00  0.00     0.326 C 
ATOM     66  O   UNL     1       4.216  -3.962   4.894  1.00  0.00    -0.250 OA
BRANCH  65  67
ATOM     67  O   UNL     1       4.902  -1.989   4.124  1.00  0.00    -0.480 OA
ATOM     68  H   UNL     1       5.425  -2.640   3.608  1.00  0.00     0.296 HD
ENDBRANCH  65  67
ENDBRANCH  49  65
ENDBRANCH  47  49
ENDBRANCH  43  45
ENDBRANCH   1  43
BRANCH   1  69
ATOM     69  C   UNL     1       5.191  -0.072  10.272  1.00  0.00    -0.001 C 
ATOM     70  C   UNL     1       3.903  -0.025  10.655  1.00  0.00     0.001 C 
BRANCH  70  71
ATOM     71  C   UNL     1       3.256  -0.860  11.669  1.00  0.00    -0.055 C 
ATOM     72  C   UNL     1       2.371  -1.788  11.247  1.00  0.00    -0.018 C 
ATOM     73  C   UNL     1       3.628  -0.629  13.110  1.00  0.00     0.044 C 
BRANCH  72  74
ATOM     74  C   UNL     1       1.559  -2.785  12.061  1.00  0.00     0.038 C 
ATOM     75  C   UNL     1       2.141  -4.176  11.783  1.00  0.00     0.015 C 
BRANCH  74  76
ATOM     76  C   UNL     1       0.054  -2.622  11.697  1.00  0.00     0.128 C 
BRANCH  76  77
ATOM     77  O   UNL     1      -0.673  -2.114  12.828  1.00  0.00    -0.381 OA
ATOM     78  C   UNL     1      -1.590  -3.048  13.383  1.00  0.00     0.195 C 
ENDBRANCH  76  77
BRANCH  76  79
ATOM     79  C   UNL     1      -0.196  -1.801  10.407  1.00  0.00     0.068 C 
BRANCH  79  80
ATOM     80  C   UNL     1      -0.457  -2.557   9.127  1.00  0.00    -0.045 A 
ATOM     81  C   UNL     1      -0.415  -3.957   9.094  1.00  0.00     0.004 A 
ATOM     82  C   UNL     1      -0.719  -1.862   7.936  1.00  0.00     0.004 A 
ATOM     83  C   UNL     1      -0.644  -4.649   7.902  1.00  0.00     0.000 A 
ATOM     84  C   UNL     1      -0.947  -2.555   6.745  1.00  0.00     0.000 A 
ATOM     85  C   UNL     1      -0.911  -3.948   6.729  1.00  0.00     0.000 A 
ENDBRANCH  79  80
ENDBRANCH  76  79
ENDBRANCH  74  76
ENDBRANCH  72  74
ENDBRANCH  70  71
ENDBRANCH   1  69
TORSDOF 17
ENDMDL
MODEL 5
REMARK VINA RESULT:    -6.217      3.889     12.526
REMARK INTER + INTRA:         -24.748
REMARK INTER:                 -20.287
REMARK INTRA:                  -4.461
REMARK UNBOUND:                -6.174
REMARK SMILES C=C1C(=O)N[C@H](C)C(=O)N[C@@H](CC(C)C)C(=O)N[C@@H](C(=O)O)[C@H](C)C(=O)N[C@@H](CCCN=C(N)N)C(=O)N[C@@H](/C=C/C(C)=C/[C@H](C)[C@H](Cc2ccccc2)OC)[C@H](C)C(=O)N[C@@H](C(=O)O)CCC(=O)N1C
REMARK SMILES IDX 39 1 38 2 37 3 36 4 28 6 27 7 25 8 26 9 23 11 24 12 19 13
REMARK SMILES IDX 18 14 16 15 17 16 11 18 10 19 8 20 9 21 12 24 13 25 14 26
REMARK SMILES IDX 15 27 20 28 21 29 22 30 29 32 30 33 31 34 32 35 33 36 34 37
REMARK SMILES IDX 35 38 57 43 58 44 59 45 60 46 61 47 62 49 66 50 67 51 68 52
REMARK SMILES IDX 69 53 70 54 71 55 2 56 1 57 3 58 4 59 5 60 6 62 7 63 63 65
REMARK SMILES IDX 64 66 65 67 40 69 41 70 42 71 44 72 43 73 45 74 46 75 47 76
REMARK SMILES IDX 55 77 56 78 48 79 49 80 50 81 54 82 51 83 53 84 52 85
REMARK H PARENT 38 5 27 10 18 17 10 22 22 31 34 39 34 40 35 41 35 42 61 48
REMARK H PARENT 5 61 65 68
REMARK Flexibility Score:  369.900
ROOT
ATOM      1  C   UNL     1       2.289   4.837   4.810  1.00  0.00     0.117 C 
ENDROOT
BRANCH   1   2
ATOM      2  N   UNL     1       3.006   6.050   4.414  1.00  0.00    -0.347 N 
ATOM      3  O   UNL     1       2.513   5.989   2.173  1.00  0.00    -0.273 OA
ATOM      4  C   UNL     1       2.984   6.580   3.139  1.00  0.00     0.243 C 
ATOM      5  H   UNL     1       3.513   6.574   5.111  1.00  0.00     0.164 HD
BRANCH   4   6
ATOM      6  C   UNL     1       3.755   7.918   3.007  1.00  0.00     0.171 C 
BRANCH   6   7
ATOM      7  N   UNL     1       3.689   8.415   1.623  1.00  0.00    -0.344 N 
ATOM      8  C   UNL     1       4.837   8.772   0.949  1.00  0.00     0.226 C 
ATOM      9  O   UNL     1       5.948   8.717   1.462  1.00  0.00    -0.275 OA
ATOM     10  H   UNL     1       2.783   8.539   1.189  1.00  0.00     0.164 HD
BRANCH   8  11
ATOM     11  C   UNL     1       4.608   9.213  -0.486  1.00  0.00     0.109 C 
ATOM     12  C   UNL     1       5.041  10.668  -0.665  1.00  0.00     0.021 C 
BRANCH  11  13
ATOM     13  C   UNL     1       5.277   8.214  -1.451  1.00  0.00     0.204 C 
BRANCH  13  14
ATOM     14  N   UNL     1       4.615   8.183  -2.759  1.00  0.00    -0.340 N 
ATOM     15  C   UNL     1       4.055   7.040  -3.288  1.00  0.00     0.243 C 
ATOM     16  O   UNL     1       4.018   5.977  -2.671  1.00  0.00    -0.273 OA
ATOM     17  H   UNL     1       4.744   8.985  -3.382  1.00  0.00     0.164 HD
BRANCH  15  18
ATOM     18  C   UNL     1       3.602   7.197  -4.760  1.00  0.00     0.171 C 
BRANCH  18  19
ATOM     19  N   UNL     1       2.908   8.480  -4.850  1.00  0.00    -0.343 N 
ATOM     20  C   UNL     1       1.775   8.643  -5.623  1.00  0.00     0.242 CG0
ATOM     21  O   UNL     1       1.375   7.756  -6.374  1.00  0.00    -0.273 OA
ATOM     22  H   UNL     1       3.268   9.277  -4.337  1.00  0.00     0.164 HD
ATOM     23  G   UNL     1       1.137  10.045  -5.531  1.00  0.00     0.000 G0
ENDBRANCH  18  19
BRANCH  18  24
ATOM     24  C   UNL     1       4.807   7.142  -5.706  1.00  0.00     0.038 C 
BRANCH  24  25
ATOM     25  C   UNL     1       4.448   7.007  -7.201  1.00  0.00    -0.015 C 
ATOM     26  C   UNL     1       5.183   5.850  -7.878  1.00  0.00     0.007 C 
ATOM     27  C   UNL     1       4.768   8.316  -7.928  1.00  0.00     0.007 C 
ENDBRANCH  24  25
ENDBRANCH  18  24
ENDBRANCH  15  18
ENDBRANCH  13  14
BRANCH  13  28
ATOM     28  C   UNL     1       6.758   8.514  -1.699  1.00  0.00     0.327 C 
ATOM     29  O   UNL     1       7.221   9.143  -2.639  1.00  0.00    -0.250 OA
BRANCH  28  30
ATOM     30  O   UNL     1       7.576   7.905  -0.817  1.00  0.00    -0.480 OA
ATOM     31  H   UNL     1       8.410   7.771  -1.314  1.00  0.00     0.296 HD
ENDBRANCH  28  30
ENDBRANCH  13  28
ENDBRANCH  11  13
ENDBRANCH   8  11
ENDBRANCH   6   7
BRANCH   6  32
ATOM     32  C   UNL     1       3.162   8.939   3.984  1.00  0.00     0.037 C 
BRANCH  32  33
ATOM     33  C   UNL     1       1.972   9.697   3.379  1.00  0.00     0.026 C 
BRANCH  33  34
ATOM     34  C   UNL     1       1.279  10.605   4.396  1.00  0.00     0.146 C 
BRANCH  34  35
ATOM     35  N   UNL     1       0.656   9.776   5.418  1.00  0.00    -0.254 NA
ATOM     36  C   UNL     1      -0.577   9.455   5.282  1.00  0.00     0.185 C 
ATOM     37  N   UNL     1      -1.160   8.687   6.215  1.00  0.00    -0.370 N 
ATOM     38  N   UNL     1      -1.431   9.783   4.296  1.00  0.00    -0.370 N 
ATOM     39  H   UNL     1      -0.577   8.390   6.987  1.00  0.00     0.159 HD
ATOM     40  H   UNL     1      -2.059   8.253   6.096  1.00  0.00     0.159 HD
ATOM     41  H   UNL     1      -2.415   9.585   4.373  1.00  0.00     0.159 HD
ATOM     42  H   UNL     1      -1.133  10.371   3.534  1.00  0.00     0.159 HD
ENDBRANCH  34  35
ENDBRANCH  33  34
ENDBRANCH  32  33
ENDBRANCH   6  32
ENDBRANCH   4   6
ENDBRANCH   1   2
BRANCH   1  43
ATOM     43  C   UNL     1       0.989   5.252   5.557  1.00  0.00     0.102 C 
ATOM     44  C   UNL     1      -0.086   5.848   4.632  1.00  0.00     0.020 C 
BRANCH  43  45
ATOM     45  C   UNL     1       1.309   6.120   6.778  1.00  0.00     0.225 C 
ATOM     46  O   UNL     1       1.831   7.228   6.694  1.00  0.00    -0.275 OA
ATOM     47  N   UNL     1       1.059   5.539   8.000  1.00  0.00    -0.342 N 
ATOM     48  H   UNL     1       0.496   4.701   8.050  1.00  0.00     0.164 HD
BRANCH  47  49
ATOM     49  C   UNL     1       1.284   6.265   9.254  1.00  0.00     0.192 C 
BRANCH  49  50
ATOM     50  C   UNL     1       0.247   7.382   9.394  1.00  0.00     0.047 C 
BRANCH  50  51
ATOM     51  C   UNL     1      -0.613   7.223  10.655  1.00  0.00     0.103 C 
BRANCH  51  52
ATOM     52  C   UNL     1      -0.262   8.257  11.723  1.00  0.00     0.226 C 
ATOM     53  O   UNL     1       0.877   8.726  11.767  1.00  0.00    -0.275 OA
BRANCH  52  54
ATOM     54  N   UNL     1      -1.312   8.674  12.562  1.00  0.00    -0.311 N 
ATOM     55  C   UNL     1      -1.955   9.981  12.377  1.00  0.00     0.153 C 
BRANCH  54  56
ATOM     56  C   UNL     1      -1.788   7.856  13.600  1.00  0.00     0.102 C 
ATOM     57  C   UNL     1      -2.795   6.974  13.484  1.00  0.00     0.043 C 
BRANCH  56  58
ATOM     58  C   UNL     1      -1.141   7.882  14.965  1.00  0.00     0.268 C 
ATOM     59  O   UNL     1      -1.127   8.874  15.681  1.00  0.00    -0.268 OA
ATOM     60  N   UNL     1      -0.632   6.663  15.345  1.00  0.00    -0.339 N 
ATOM     61  H   UNL     1      -0.674   5.892  14.689  1.00  0.00     0.164 HD
BRANCH  60  62
ATOM     62  C   UNL     1      -0.018   6.449  16.655  1.00  0.00     0.168 CG0
ATOM     63  C   UNL     1       0.273   4.972  16.888  1.00  0.00     0.041 C 
ATOM     64  G   UNL     1      -0.945   7.003  17.757  1.00  0.00     0.000 G0
ENDBRANCH  60  62
ENDBRANCH  56  58
ENDBRANCH  54  56
ENDBRANCH  52  54
ENDBRANCH  51  52
ENDBRANCH  50  51
ENDBRANCH  49  50
BRANCH  49  65
ATOM     65  C   UNL     1       2.695   6.870   9.313  1.00  0.00     0.326 C 
ATOM     66  O   UNL     1       3.740   6.236   9.336  1.00  0.00    -0.250 OA
BRANCH  65  67
ATOM     67  O   UNL     1       2.727   8.218   9.400  1.00  0.00    -0.480 OA
ATOM     68  H   UNL     1       3.666   8.414   9.607  1.00  0.00     0.296 HD
ENDBRANCH  65  67
ENDBRANCH  49  65
ENDBRANCH  47  49
ENDBRANCH  43  45
ENDBRANCH   1  43
BRANCH   1  69
ATOM     69  C   UNL     1       3.300   3.962   5.527  1.00  0.00    -0.001 C 
ATOM     70  C   UNL     1       3.331   2.618   5.573  1.00  0.00     0.001 C 
BRANCH  70  71
ATOM     71  C   UNL     1       4.325   1.784   6.251  1.00  0.00    -0.055 C 
ATOM     72  C   UNL     1       4.623   0.589   5.699  1.00  0.00    -0.018 C 
ATOM     73  C   UNL     1       4.951   2.321   7.512  1.00  0.00     0.044 C 
BRANCH  72  74
ATOM     74  C   UNL     1       5.605  -0.473   6.173  1.00  0.00     0.038 C 
ATOM     75  C   UNL     1       6.308  -1.028   4.929  1.00  0.00     0.015 C 
BRANCH  74  76
ATOM     76  C   UNL     1       4.831  -1.532   7.012  1.00  0.00     0.128 C 
BRANCH  76  77
ATOM     77  O   UNL     1       5.318  -1.538   8.365  1.00  0.00    -0.381 OA
ATOM     78  C   UNL     1       6.115  -2.672   8.680  1.00  0.00     0.195 C 
ENDBRANCH  76  77
BRANCH  76  79
ATOM     79  C   UNL     1       3.289  -1.395   6.931  1.00  0.00     0.068 C 
BRANCH  79  80
ATOM     80  C   UNL     1       2.500  -2.582   6.432  1.00  0.00    -0.045 A 
ATOM     81  C   UNL     1       1.313  -2.976   7.064  1.00  0.00     0.004 A 
ATOM     82  C   UNL     1       2.961  -3.329   5.338  1.00  0.00     0.004 A 
ATOM     83  C   UNL     1       0.596  -4.083   6.605  1.00  0.00     0.000 A 
ATOM     84  C   UNL     1       2.244  -4.436   4.880  1.00  0.00     0.000 A 
ATOM     85  C   UNL     1       1.061  -4.812   5.513  1.00  0.00     0.000 A 
ENDBRANCH  79  80
ENDBRANCH  76  79
ENDBRANCH  74  76
ENDBRANCH  72  74
ENDBRANCH  70  71
ENDBRANCH   1  69
TORSDOF 17
ENDMDL
MODEL 6
REMARK VINA RESULT:    -6.134      3.462     11.402
REMARK INTER + INTRA:         -24.500
REMARK INTER:                 -18.193
REMARK INTRA:                  -6.307
REMARK UNBOUND:                -6.174
REMARK SMILES C=C1C(=O)N[C@H](C)C(=O)N[C@@H](CC(C)C)C(=O)N[C@@H](C(=O)O)[C@H](C)C(=O)N[C@@H](CCCN=C(N)N)C(=O)N[C@@H](/C=C/C(C)=C/[C@H](C)[C@H](Cc2ccccc2)OC)[C@H](C)C(=O)N[C@@H](C(=O)O)CCC(=O)N1C
REMARK SMILES IDX 39 1 38 2 37 3 36 4 28 6 27 7 25 8 26 9 23 11 24 12 19 13
REMARK SMILES IDX 18 14 16 15 17 16 11 18 10 19 8 20 9 21 12 24 13 25 14 26
REMARK SMILES IDX 15 27 20 28 21 29 22 30 29 32 30 33 31 34 32 35 33 36 34 37
REMARK SMILES IDX 35 38 57 43 58 44 59 45 60 46 61 47 62 49 66 50 67 51 68 52
REMARK SMILES IDX 69 53 70 54 71 55 2 56 1 57 3 58 4 59 5 60 6 62 7 63 63 65
REMARK SMILES IDX 64 66 65 67 40 69 41 70 42 71 44 72 43 73 45 74 46 75 47 76
REMARK SMILES IDX 55 77 56 78 48 79 49 80 50 81 54 82 51 83 53 84 52 85
REMARK H PARENT 38 5 27 10 18 17 10 22 22 31 34 39 34 40 35 41 35 42 61 48
REMARK H PARENT 5 61 65 68
REMARK Flexibility Score:  369.900
ROOT
ATOM      1  C   UNL     1       4.605   6.133   8.857  1.00  0.00     0.117 C 
ENDROOT
BRANCH   1   2
ATOM      2  N   UNL     1       4.218   4.733   8.674  1.00  0.00    -0.347 N 
ATOM      3  O   UNL     1       6.010   4.079   7.396  1.00  0.00    -0.273 OA
ATOM      4  C   UNL     1       5.001   3.792   8.033  1.00  0.00     0.243 C 
ATOM      5  H   UNL     1       3.354   4.402   9.075  1.00  0.00     0.164 HD
BRANCH   4   6
ATOM      6  C   UNL     1       4.400   2.364   8.051  1.00  0.00     0.171 C 
BRANCH   6   7
ATOM      7  N   UNL     1       5.183   1.465   7.189  1.00  0.00    -0.344 N 
ATOM      8  C   UNL     1       4.746   1.152   5.920  1.00  0.00     0.226 C 
ATOM      9  O   UNL     1       3.694   1.578   5.460  1.00  0.00    -0.275 OA
ATOM     10  H   UNL     1       6.024   1.040   7.558  1.00  0.00     0.164 HD
BRANCH   8  11
ATOM     11  C   UNL     1       5.691   0.258   5.136  1.00  0.00     0.109 C 
ATOM     12  C   UNL     1       7.127   0.763   5.271  1.00  0.00     0.021 C 
BRANCH  11  13
ATOM     13  C   UNL     1       5.479  -1.213   5.549  1.00  0.00     0.204 C 
BRANCH  13  14
ATOM     14  N   UNL     1       4.059  -1.551   5.675  1.00  0.00    -0.340 N 
ATOM     15  C   UNL     1       3.551  -2.266   6.739  1.00  0.00     0.243 C 
ATOM     16  O   UNL     1       4.247  -2.618   7.690  1.00  0.00    -0.273 OA
ATOM     17  H   UNL     1       3.459  -1.423   4.855  1.00  0.00     0.164 HD
BRANCH  15  18
ATOM     18  C   UNL     1       2.071  -2.682   6.555  1.00  0.00     0.171 C 
BRANCH  18  19
ATOM     19  N   UNL     1       2.077  -4.099   6.196  1.00  0.00    -0.343 N 
ATOM     20  C   UNL     1       2.204  -4.519   4.886  1.00  0.00     0.242 CG0
ATOM     21  O   UNL     1       2.185  -3.723   3.950  1.00  0.00    -0.273 OA
ATOM     22  H   UNL     1       1.978  -4.797   6.925  1.00  0.00     0.164 HD
ATOM     23  G   UNL     1       2.268  -6.050   4.712  1.00  0.00     0.000 G0
ENDBRANCH  18  19
BRANCH  18  24
ATOM     24  C   UNL     1       1.274  -2.431   7.840  1.00  0.00     0.038 C 
BRANCH  24  25
ATOM     25  C   UNL     1      -0.003  -3.286   7.985  1.00  0.00    -0.015 C 
ATOM     26  C   UNL     1      -1.153  -2.771   7.120  1.00  0.00     0.007 C 
ATOM     27  C   UNL     1      -0.436  -3.320   9.453  1.00  0.00     0.007 C 
ENDBRANCH  24  25
ENDBRANCH  18  24
ENDBRANCH  15  18
ENDBRANCH  13  14
BRANCH  13  28
ATOM     28  C   UNL     1       6.098  -2.211   4.565  1.00  0.00     0.327 C 
ATOM     29  O   UNL     1       7.290  -2.437   4.419  1.00  0.00    -0.250 OA
BRANCH  28  30
ATOM     30  O   UNL     1       5.190  -2.775   3.743  1.00  0.00    -0.480 OA
ATOM     31  H   UNL     1       5.243  -2.241   2.923  1.00  0.00     0.296 HD
ENDBRANCH  28  30
ENDBRANCH  13  28
ENDBRANCH  11  13
ENDBRANCH   8  11
ENDBRANCH   6   7
BRANCH   6  32
ATOM     32  C   UNL     1       4.370   1.849   9.495  1.00  0.00     0.037 C 
BRANCH  32  33
ATOM     33  C   UNL     1       5.581   0.965   9.819  1.00  0.00     0.026 C 
BRANCH  33  34
ATOM     34  C   UNL     1       5.196  -0.293  10.599  1.00  0.00     0.146 C 
BRANCH  34  35
ATOM     35  N   UNL     1       3.790  -0.584  10.355  1.00  0.00    -0.254 NA
ATOM     36  C   UNL     1       2.983  -0.597  11.351  1.00  0.00     0.185 C 
ATOM     37  N   UNL     1       1.685  -0.860  11.137  1.00  0.00    -0.370 N 
ATOM     38  N   UNL     1       3.243  -0.377  12.652  1.00  0.00    -0.370 N 
ATOM     39  H   UNL     1       1.407  -1.027  10.178  1.00  0.00     0.159 HD
ATOM     40  H   UNL     1       0.968  -0.719  11.827  1.00  0.00     0.159 HD
ATOM     41  H   UNL     1       2.549  -0.554  13.359  1.00  0.00     0.159 HD
ATOM     42  H   UNL     1       4.183  -0.183  12.961  1.00  0.00     0.159 HD
ENDBRANCH  34  35
ENDBRANCH  33  34
ENDBRANCH  32  33
ENDBRANCH   6  32
ENDBRANCH   4   6
ENDBRANCH   1   2
BRANCH   1  43
ATOM     43  C   UNL     1       4.579   6.459  10.378  1.00  0.00     0.102 C 
ATOM     44  C   UNL     1       5.731   5.808  11.162  1.00  0.00     0.020 C 
BRANCH  43  45
ATOM     45  C   UNL     1       3.194   6.193  10.975  1.00  0.00     0.225 C 
ATOM     46  O   UNL     1       2.713   5.068  11.080  1.00  0.00    -0.275 OA
ATOM     47  N   UNL     1       2.467   7.313  11.306  1.00  0.00    -0.342 N 
ATOM     48  H   UNL     1       2.927   8.211  11.356  1.00  0.00     0.164 HD
BRANCH  47  49
ATOM     49  C   UNL     1       1.139   7.212  11.919  1.00  0.00     0.192 C 
BRANCH  49  50
ATOM     50  C   UNL     1       0.237   8.326  11.382  1.00  0.00     0.047 C 
BRANCH  50  51
ATOM     51  C   UNL     1      -1.197   7.842  11.130  1.00  0.00     0.103 C 
BRANCH  51  52
ATOM     52  C   UNL     1      -2.036   7.846  12.406  1.00  0.00     0.226 C 
ATOM     53  O   UNL     1      -2.387   6.777  12.909  1.00  0.00    -0.275 OA
BRANCH  52  54
ATOM     54  N   UNL     1      -2.297   9.104  12.981  1.00  0.00    -0.311 N 
ATOM     55  C   UNL     1      -3.265  10.027  12.373  1.00  0.00     0.153 C 
BRANCH  54  56
ATOM     56  C   UNL     1      -1.649   9.521  14.156  1.00  0.00     0.102 C 
ATOM     57  C   UNL     1      -1.683   8.865  15.327  1.00  0.00     0.043 C 
BRANCH  56  58
ATOM     58  C   UNL     1      -0.796  10.768  14.169  1.00  0.00     0.268 C 
ATOM     59  O   UNL     1       0.206  10.901  13.479  1.00  0.00    -0.268 OA
ATOM     60  N   UNL     1      -1.295  11.756  14.984  1.00  0.00    -0.339 N 
ATOM     61  H   UNL     1      -2.125  11.562  15.531  1.00  0.00     0.164 HD
BRANCH  60  62
ATOM     62  C   UNL     1      -0.659  13.068  15.097  1.00  0.00     0.168 CG0
ATOM     63  C   UNL     1      -1.598  14.076  15.747  1.00  0.00     0.041 C 
ATOM     64  G   UNL     1      -0.221  13.552  13.699  1.00  0.00     0.000 G0
ENDBRANCH  60  62
ENDBRANCH  56  58
ENDBRANCH  54  56
ENDBRANCH  52  54
ENDBRANCH  51  52
ENDBRANCH  50  51
ENDBRANCH  49  50
BRANCH  49  65
ATOM     65  C   UNL     1       1.214   7.312  13.451  1.00  0.00     0.326 C 
ATOM     66  O   UNL     1       1.906   8.099  14.079  1.00  0.00    -0.250 OA
BRANCH  65  67
ATOM     67  O   UNL     1       0.475   6.394  14.113  1.00  0.00    -0.480 OA
ATOM     68  H   UNL     1       1.141   5.751  14.437  1.00  0.00     0.296 HD
ENDBRANCH  65  67
ENDBRANCH  49  65
ENDBRANCH  47  49
ENDBRANCH  43  45
ENDBRANCH   1  43
BRANCH   1  69
ATOM     69  C   UNL     1       3.727   6.941   7.919  1.00  0.00    -0.001 C 
ATOM     70  C   UNL     1       3.608   8.279   7.861  1.00  0.00     0.001 C 
BRANCH  70  71
ATOM     71  C   UNL     1       2.773   9.049   6.937  1.00  0.00    -0.055 C 
ATOM     72  C   UNL     1       2.284   8.411   5.853  1.00  0.00    -0.018 C 
ATOM     73  C   UNL     1       2.512  10.496   7.265  1.00  0.00     0.044 C 
BRANCH  72  74
ATOM     74  C   UNL     1       1.397   8.947   4.738  1.00  0.00     0.038 C 
ATOM     75  C   UNL     1       0.094   8.140   4.768  1.00  0.00     0.015 C 
BRANCH  74  76
ATOM     76  C   UNL     1       2.182   8.872   3.395  1.00  0.00     0.128 C 
BRANCH  76  77
ATOM     77  O   UNL     1       3.162   9.922   3.339  1.00  0.00    -0.381 OA
ATOM     78  C   UNL     1       4.449   9.481   2.928  1.00  0.00     0.195 C 
ENDBRANCH  76  77
BRANCH  76  79
ATOM     79  C   UNL     1       2.782   7.476   3.093  1.00  0.00     0.068 C 
BRANCH  79  80
ATOM     80  C   UNL     1       2.272   6.734   1.881  1.00  0.00    -0.045 A 
ATOM     81  C   UNL     1       1.105   5.961   1.946  1.00  0.00     0.004 A 
ATOM     82  C   UNL     1       2.980   6.786   0.671  1.00  0.00     0.004 A 
ATOM     83  C   UNL     1       0.648   5.266   0.824  1.00  0.00     0.000 A 
ATOM     84  C   UNL     1       2.523   6.090  -0.450  1.00  0.00     0.000 A 
ATOM     85  C   UNL     1       1.357   5.332  -0.374  1.00  0.00     0.000 A 
ENDBRANCH  79  80
ENDBRANCH  76  79
ENDBRANCH  74  76
ENDBRANCH  72  74
ENDBRANCH  70  71
ENDBRANCH   1  69
TORSDOF 17
ENDMDL
MODEL 7
REMARK VINA RESULT:    -6.099      3.927     12.937
REMARK INTER + INTRA:         -24.394
REMARK INTER:                 -19.587
REMARK INTRA:                  -4.807
REMARK UNBOUND:                -6.174
REMARK SMILES C=C1C(=O)N[C@H](C)C(=O)N[C@@H](CC(C)C)C(=O)N[C@@H](C(=O)O)[C@H](C)C(=O)N[C@@H](CCCN=C(N)N)C(=O)N[C@@H](/C=C/C(C)=C/[C@H](C)[C@H](Cc2ccccc2)OC)[C@H](C)C(=O)N[C@@H](C(=O)O)CCC(=O)N1C
REMARK SMILES IDX 39 1 38 2 37 3 36 4 28 6 27 7 25 8 26 9 23 11 24 12 19 13
REMARK SMILES IDX 18 14 16 15 17 16 11 18 10 19 8 20 9 21 12 24 13 25 14 26
REMARK SMILES IDX 15 27 20 28 21 29 22 30 29 32 30 33 31 34 32 35 33 36 34 37
REMARK SMILES IDX 35 38 57 43 58 44 59 45 60 46 61 47 62 49 66 50 67 51 68 52
REMARK SMILES IDX 69 53 70 54 71 55 2 56 1 57 3 58 4 59 5 60 6 62 7 63 63 65
REMARK SMILES IDX 64 66 65 67 40 69 41 70 42 71 44 72 43 73 45 74 46 75 47 76
REMARK SMILES IDX 55 77 56 78 48 79 49 80 50 81 54 82 51 83 53 84 52 85
REMARK H PARENT 38 5 27 10 18 17 10 22 22 31 34 39 34 40 35 41 35 42 61 48
REMARK H PARENT 5 61 65 68
REMARK Flexibility Score:  369.900
ROOT
ATOM      1  C   UNL     1       2.944   5.280   7.708  1.00  0.00     0.117 C 
ENDROOT
BRANCH   1   2
ATOM      2  N   UNL     1       3.702   4.067   8.015  1.00  0.00    -0.347 N 
ATOM      3  O   UNL     1       3.367   2.976   6.023  1.00  0.00    -0.273 OA
ATOM      4  C   UNL     1       3.929   3.048   7.111  1.00  0.00     0.243 C 
ATOM      5  H   UNL     1       4.134   3.971   8.921  1.00  0.00     0.164 HD
BRANCH   4   6
ATOM      6  C   UNL     1       4.835   1.917   7.662  1.00  0.00     0.171 C 
BRANCH   6   7
ATOM      7  N   UNL     1       5.592   1.286   6.569  1.00  0.00    -0.344 N 
ATOM      8  C   UNL     1       5.200   0.069   6.053  1.00  0.00     0.226 C 
ATOM      9  O   UNL     1       4.234  -0.550   6.483  1.00  0.00    -0.275 OA
ATOM     10  H   UNL     1       6.435   1.734   6.233  1.00  0.00     0.164 HD
BRANCH   8  11
ATOM     11  C   UNL     1       6.050  -0.422   4.895  1.00  0.00     0.109 C 
ATOM     12  C   UNL     1       6.993   0.686   4.427  1.00  0.00     0.021 C 
BRANCH  11  13
ATOM     13  C   UNL     1       6.745  -1.743   5.282  1.00  0.00     0.204 C 
BRANCH  13  14
ATOM     14  N   UNL     1       6.696  -1.990   6.727  1.00  0.00    -0.340 N 
ATOM     15  C   UNL     1       7.623  -1.473   7.606  1.00  0.00     0.243 C 
ATOM     16  O   UNL     1       8.524  -0.717   7.246  1.00  0.00    -0.273 OA
ATOM     17  H   UNL     1       6.071  -2.725   7.068  1.00  0.00     0.164 HD
BRANCH  15  18
ATOM     18  C   UNL     1       7.493  -2.034   9.043  1.00  0.00     0.171 C 
BRANCH  18  19
ATOM     19  N   UNL     1       8.330  -1.194   9.898  1.00  0.00    -0.343 N 
ATOM     20  C   UNL     1       9.391  -1.713  10.615  1.00  0.00     0.242 CG0
ATOM     21  O   UNL     1       9.598  -2.923  10.673  1.00  0.00    -0.273 OA
ATOM     22  H   UNL     1       8.127  -0.204   9.974  1.00  0.00     0.164 HD
ATOM     23  G   UNL     1      10.205  -0.662  11.397  1.00  0.00     0.000 G0
ENDBRANCH  18  19
BRANCH  18  24
ATOM     24  C   UNL     1       6.029  -2.018   9.500  1.00  0.00     0.038 C 
BRANCH  24  25
ATOM     25  C   UNL     1       5.818  -2.328  10.997  1.00  0.00    -0.015 C 
ATOM     26  C   UNL     1       6.129  -3.785  11.342  1.00  0.00     0.007 C 
ATOM     27  C   UNL     1       4.375  -2.003  11.392  1.00  0.00     0.007 C 
ENDBRANCH  24  25
ENDBRANCH  18  24
ENDBRANCH  15  18
ENDBRANCH  13  14
BRANCH  13  28
ATOM     28  C   UNL     1       6.138  -2.969   4.592  1.00  0.00     0.327 C 
ATOM     29  O   UNL     1       5.040  -3.455   4.817  1.00  0.00    -0.250 OA
BRANCH  28  30
ATOM     30  O   UNL     1       6.994  -3.579   3.748  1.00  0.00    -0.480 OA
ATOM     31  H   UNL     1       6.564  -3.503   2.871  1.00  0.00     0.296 HD
ENDBRANCH  28  30
ENDBRANCH  13  28
ENDBRANCH  11  13
ENDBRANCH   8  11
ENDBRANCH   6   7
BRANCH   6  32
ATOM     32  C   UNL     1       5.780   2.499   8.718  1.00  0.00     0.037 C 
BRANCH  32  33
ATOM     33  C   UNL     1       6.035   1.517   9.871  1.00  0.00     0.026 C 
BRANCH  33  34
ATOM     34  C   UNL     1       6.194   2.225  11.217  1.00  0.00     0.146 C 
BRANCH  34  35
ATOM     35  N   UNL     1       4.876   2.602  11.708  1.00  0.00    -0.254 NA
ATOM     36  C   UNL     1       4.798   3.413  12.697  1.00  0.00     0.185 C 
ATOM     37  N   UNL     1       3.588   3.772  13.154  1.00  0.00    -0.370 N 
ATOM     38  N   UNL     1       5.790   3.998  13.390  1.00  0.00    -0.370 N 
ATOM     39  H   UNL     1       2.787   3.380  12.675  1.00  0.00     0.159 HD
ATOM     40  H   UNL     1       3.440   4.527  13.801  1.00  0.00     0.159 HD
ATOM     41  H   UNL     1       5.603   4.509  14.238  1.00  0.00     0.159 HD
ATOM     42  H   UNL     1       6.754   3.807  13.166  1.00  0.00     0.159 HD
ENDBRANCH  34  35
ENDBRANCH  33  34
ENDBRANCH  32  33
ENDBRANCH   6  32
ENDBRANCH   4   6
ENDBRANCH   1   2
BRANCH   1  43
ATOM     43  C   UNL     1       3.541   5.926   6.424  1.00  0.00     0.102 C 
ATOM     44  C   UNL     1       4.513   7.082   6.715  1.00  0.00     0.020 C 
BRANCH  43  45
ATOM     45  C   UNL     1       2.438   6.278   5.421  1.00  0.00     0.225 C 
ATOM     46  O   UNL     1       1.348   5.715   5.398  1.00  0.00    -0.275 OA
ATOM     47  N   UNL     1       2.778   7.214   4.471  1.00  0.00    -0.342 N 
ATOM     48  H   UNL     1       3.612   7.772   4.595  1.00  0.00     0.164 HD
BRANCH  47  49
ATOM     49  C   UNL     1       1.812   7.676   3.470  1.00  0.00     0.192 C 
BRANCH  49  50
ATOM     50  C   UNL     1       2.558   8.247   2.261  1.00  0.00     0.047 C 
BRANCH  50  51
ATOM     51  C   UNL     1       3.259   7.156   1.441  1.00  0.00     0.103 C 
BRANCH  51  52
ATOM     52  C   UNL     1       3.273   7.480  -0.052  1.00  0.00     0.226 C 
ATOM     53  O   UNL     1       3.877   8.476  -0.454  1.00  0.00    -0.275 OA
BRANCH  52  54
ATOM     54  N   UNL     1       2.640   6.553  -0.901  1.00  0.00    -0.311 N 
ATOM     55  C   UNL     1       1.599   5.651  -0.393  1.00  0.00     0.153 C 
BRANCH  54  56
ATOM     56  C   UNL     1       2.975   6.460  -2.262  1.00  0.00     0.102 C 
ATOM     57  C   UNL     1       4.020   5.772  -2.751  1.00  0.00     0.043 C 
BRANCH  56  58
ATOM     58  C   UNL     1       2.119   7.118  -3.318  1.00  0.00     0.268 C 
ATOM     59  O   UNL     1       0.988   7.532  -3.101  1.00  0.00    -0.268 OA
ATOM     60  N   UNL     1       2.763   7.263  -4.523  1.00  0.00    -0.339 N 
ATOM     61  H   UNL     1       3.697   6.884  -4.625  1.00  0.00     0.164 HD
BRANCH  60  62
ATOM     62  C   UNL     1       2.139   7.931  -5.665  1.00  0.00     0.168 CG0
ATOM     63  C   UNL     1       3.167   8.241  -6.746  1.00  0.00     0.041 C 
ATOM     64  G   UNL     1       1.440   9.221  -5.190  1.00  0.00     0.000 G0
ENDBRANCH  60  62
ENDBRANCH  56  58
ENDBRANCH  54  56
ENDBRANCH  52  54
ENDBRANCH  51  52
ENDBRANCH  50  51
ENDBRANCH  49  50
BRANCH  49  65
ATOM     65  C   UNL     1       0.872   8.748   4.041  1.00  0.00     0.326 C 
ATOM     66  O   UNL     1       1.130   9.939   4.142  1.00  0.00    -0.250 OA
BRANCH  65  67
ATOM     67  O   UNL     1      -0.305   8.276   4.508  1.00  0.00    -0.480 OA
ATOM     68  H   UNL     1      -0.904   9.051   4.453  1.00  0.00     0.296 HD
ENDBRANCH  65  67
ENDBRANCH  49  65
ENDBRANCH  47  49
ENDBRANCH  43  45
ENDBRANCH   1  43
BRANCH   1  69
ATOM     69  C   UNL     1       2.908   6.094   8.988  1.00  0.00    -0.001 C 
ATOM     70  C   UNL     1       1.846   6.714   9.533  1.00  0.00     0.001 C 
BRANCH  70  71
ATOM     71  C   UNL     1       1.819   7.479  10.781  1.00  0.00    -0.055 C 
ATOM     72  C   UNL     1       1.317   6.872  11.878  1.00  0.00    -0.018 C 
ATOM     73  C   UNL     1       2.360   8.884  10.756  1.00  0.00     0.044 C 
BRANCH  72  74
ATOM     74  C   UNL     1       1.167   7.412  13.293  1.00  0.00     0.038 C 
ATOM     75  C   UNL     1       2.503   7.181  14.009  1.00  0.00     0.015 C 
BRANCH  74  76
ATOM     76  C   UNL     1      -0.060   6.726  13.963  1.00  0.00     0.128 C 
BRANCH  76  77
ATOM     77  O   UNL     1      -0.237   7.232  15.297  1.00  0.00    -0.381 OA
ATOM     78  C   UNL     1      -0.271   6.218  16.293  1.00  0.00     0.195 C 
ENDBRANCH  76  77
BRANCH  76  79
ATOM     79  C   UNL     1      -1.357   6.793  13.119  1.00  0.00     0.068 C 
BRANCH  79  80
ATOM     80  C   UNL     1      -2.565   7.463  13.730  1.00  0.00    -0.045 A 
ATOM     81  C   UNL     1      -2.738   8.851  13.648  1.00  0.00     0.004 A 
ATOM     82  C   UNL     1      -3.523   6.703  14.417  1.00  0.00     0.004 A 
ATOM     83  C   UNL     1      -3.850   9.465  14.228  1.00  0.00     0.000 A 
ATOM     84  C   UNL     1      -4.635   7.318  14.997  1.00  0.00     0.000 A 
ATOM     85  C   UNL     1      -4.799   8.698  14.901  1.00  0.00     0.000 A 
ENDBRANCH  79  80
ENDBRANCH  76  79
ENDBRANCH  74  76
ENDBRANCH  72  74
ENDBRANCH  70  71
ENDBRANCH   1  69
TORSDOF 17
ENDMDL
MODEL 8
REMARK VINA RESULT:    -6.093      8.371     16.670
REMARK INTER + INTRA:         -24.378
REMARK INTER:                 -17.808
REMARK INTRA:                  -6.570
REMARK UNBOUND:                -6.174
REMARK SMILES C=C1C(=O)N[C@H](C)C(=O)N[C@@H](CC(C)C)C(=O)N[C@@H](C(=O)O)[C@H](C)C(=O)N[C@@H](CCCN=C(N)N)C(=O)N[C@@H](/C=C/C(C)=C/[C@H](C)[C@H](Cc2ccccc2)OC)[C@H](C)C(=O)N[C@@H](C(=O)O)CCC(=O)N1C
REMARK SMILES IDX 39 1 38 2 37 3 36 4 28 6 27 7 25 8 26 9 23 11 24 12 19 13
REMARK SMILES IDX 18 14 16 15 17 16 11 18 10 19 8 20 9 21 12 24 13 25 14 26
REMARK SMILES IDX 15 27 20 28 21 29 22 30 29 32 30 33 31 34 32 35 33 36 34 37
REMARK SMILES IDX 35 38 57 43 58 44 59 45 60 46 61 47 62 49 66 50 67 51 68 52
REMARK SMILES IDX 69 53 70 54 71 55 2 56 1 57 3 58 4 59 5 60 6 62 7 63 63 65
REMARK SMILES IDX 64 66 65 67 40 69 41 70 42 71 44 72 43 73 45 74 46 75 47 76
REMARK SMILES IDX 55 77 56 78 48 79 49 80 50 81 54 82 51 83 53 84 52 85
REMARK H PARENT 38 5 27 10 18 17 10 22 22 31 34 39 34 40 35 41 35 42 61 48
REMARK H PARENT 5 61 65 68
REMARK Flexibility Score:  369.900
ROOT
ATOM      1  C   UNL     1       1.184  -4.960   6.921  1.00  0.00     0.117 C 
ENDROOT
BRANCH   1   2
ATOM      2  N   UNL     1       2.362  -5.566   7.543  1.00  0.00    -0.347 N 
ATOM      3  O   UNL     1       2.715  -7.224   5.995  1.00  0.00    -0.273 OA
ATOM      4  C   UNL     1       3.090  -6.596   6.980  1.00  0.00     0.243 C 
ATOM      5  H   UNL     1       2.710  -5.191   8.412  1.00  0.00     0.164 HD
BRANCH   4   6
ATOM      6  C   UNL     1       4.342  -6.995   7.801  1.00  0.00     0.171 C 
BRANCH   6   7
ATOM      7  N   UNL     1       4.857  -8.299   7.354  1.00  0.00    -0.344 N 
ATOM      8  C   UNL     1       5.219  -9.263   8.269  1.00  0.00     0.226 C 
ATOM      9  O   UNL     1       5.155  -9.082   9.479  1.00  0.00    -0.275 OA
ATOM     10  H   UNL     1       4.988  -8.461   6.363  1.00  0.00     0.164 HD
BRANCH   8  11
ATOM     11  C   UNL     1       5.678 -10.572   7.651  1.00  0.00     0.109 C 
ATOM     12  C   UNL     1       6.848 -11.149   8.448  1.00  0.00     0.021 C 
BRANCH  11  13
ATOM     13  C   UNL     1       4.475 -11.522   7.486  1.00  0.00     0.204 C 
BRANCH  13  14
ATOM     14  N   UNL     1       3.551 -11.443   8.622  1.00  0.00    -0.340 N 
ATOM     15  C   UNL     1       2.864 -12.536   9.105  1.00  0.00     0.243 C 
ATOM     16  O   UNL     1       3.024 -13.669   8.654  1.00  0.00    -0.273 OA
ATOM     17  H   UNL     1       3.260 -10.515   8.941  1.00  0.00     0.164 HD
BRANCH  15  18
ATOM     18  C   UNL     1       1.795 -12.175  10.166  1.00  0.00     0.171 C 
BRANCH  18  19
ATOM     19  N   UNL     1       0.786 -13.231  10.120  1.00  0.00    -0.343 N 
ATOM     20  C   UNL     1      -0.540 -12.987  10.422  1.00  0.00     0.242 CG0
ATOM     21  O   UNL     1      -0.908 -11.903  10.870  1.00  0.00    -0.273 OA
ATOM     22  H   UNL     1       1.063 -14.173   9.866  1.00  0.00     0.164 HD
ATOM     23  G   UNL     1      -1.469 -14.204  10.241  1.00  0.00     0.000 G0
ENDBRANCH  18  19
BRANCH  18  24
ATOM     24  C   UNL     1       2.430 -12.065  11.558  1.00  0.00     0.038 C 
BRANCH  24  25
ATOM     25  C   UNL     1       2.419 -10.644  12.160  1.00  0.00    -0.015 C 
ATOM     26  C   UNL     1       1.775  -9.618  11.228  1.00  0.00     0.007 C 
ATOM     27  C   UNL     1       3.851 -10.213  12.490  1.00  0.00     0.007 C 
ENDBRANCH  24  25
ENDBRANCH  18  24
ENDBRANCH  15  18
ENDBRANCH  13  14
BRANCH  13  28
ATOM     28  C   UNL     1       3.660 -11.250   6.218  1.00  0.00     0.327 C 
ATOM     29  O   UNL     1       3.904 -10.406   5.370  1.00  0.00    -0.250 OA
BRANCH  28  30
ATOM     30  O   UNL     1       2.523 -11.973   6.155  1.00  0.00    -0.480 OA
ATOM     31  H   UNL     1       1.828 -11.312   5.954  1.00  0.00     0.296 HD
ENDBRANCH  28  30
ENDBRANCH  13  28
ENDBRANCH  11  13
ENDBRANCH   8  11
ENDBRANCH   6   7
BRANCH   6  32
ATOM     32  C   UNL     1       5.410  -5.905   7.653  1.00  0.00     0.037 C 
BRANCH  32  33
ATOM     33  C   UNL     1       6.031  -5.515   9.002  1.00  0.00     0.026 C 
BRANCH  33  34
ATOM     34  C   UNL     1       5.657  -4.095   9.428  1.00  0.00     0.146 C 
BRANCH  34  35
ATOM     35  N   UNL     1       6.795  -3.495  10.111  1.00  0.00    -0.254 NA
ATOM     36  C   UNL     1       7.524  -2.658   9.472  1.00  0.00     0.185 C 
ATOM     37  N   UNL     1       8.572  -2.095  10.093  1.00  0.00    -0.370 N 
ATOM     38  N   UNL     1       7.400  -2.226   8.204  1.00  0.00    -0.370 N 
ATOM     39  H   UNL     1       8.726  -2.363  11.056  1.00  0.00     0.159 HD
ATOM     40  H   UNL     1       9.081  -1.310   9.724  1.00  0.00     0.159 HD
ATOM     41  H   UNL     1       8.119  -1.670   7.770  1.00  0.00     0.159 HD
ATOM     42  H   UNL     1       6.664  -2.577   7.612  1.00  0.00     0.159 HD
ENDBRANCH  34  35
ENDBRANCH  33  34
ENDBRANCH  32  33
ENDBRANCH   6  32
ENDBRANCH   4   6
ENDBRANCH   1   2
BRANCH   1  43
ATOM     43  C   UNL     1       1.660  -3.911   5.876  1.00  0.00     0.102 C 
ATOM     44  C   UNL     1       1.767  -4.473   4.448  1.00  0.00     0.020 C 
BRANCH  43  45
ATOM     45  C   UNL     1       2.923  -3.190   6.356  1.00  0.00     0.225 C 
ATOM     46  O   UNL     1       3.107  -2.866   7.526  1.00  0.00    -0.275 OA
ATOM     47  N   UNL     1       3.816  -2.837   5.370  1.00  0.00    -0.342 N 
ATOM     48  H   UNL     1       3.726  -3.239   4.447  1.00  0.00     0.164 HD
BRANCH  47  49
ATOM     49  C   UNL     1       5.085  -2.175   5.685  1.00  0.00     0.192 C 
BRANCH  49  50
ATOM     50  C   UNL     1       4.950  -0.668   5.454  1.00  0.00     0.047 C 
BRANCH  50  51
ATOM     51  C   UNL     1       4.709   0.103   6.759  1.00  0.00     0.103 C 
BRANCH  51  52
ATOM     52  C   UNL     1       4.318   1.557   6.504  1.00  0.00     0.226 C 
ATOM     53  O   UNL     1       3.649   1.843   5.509  1.00  0.00    -0.275 OA
BRANCH  52  54
ATOM     54  N   UNL     1       4.696   2.490   7.488  1.00  0.00    -0.311 N 
ATOM     55  C   UNL     1       4.399   2.254   8.907  1.00  0.00     0.153 C 
BRANCH  54  56
ATOM     56  C   UNL     1       5.373   3.674   7.152  1.00  0.00     0.102 C 
ATOM     57  C   UNL     1       6.708   3.813   7.120  1.00  0.00     0.043 C 
BRANCH  56  58
ATOM     58  C   UNL     1       4.611   4.913   6.745  1.00  0.00     0.268 C 
ATOM     59  O   UNL     1       5.157   5.970   6.457  1.00  0.00    -0.268 OA
ATOM     60  N   UNL     1       3.254   4.712   6.667  1.00  0.00    -0.339 N 
ATOM     61  H   UNL     1       2.879   3.809   6.933  1.00  0.00     0.164 HD
BRANCH  60  62
ATOM     62  C   UNL     1       2.334   5.762   6.231  1.00  0.00     0.168 CG0
ATOM     63  C   UNL     1       1.947   5.578   4.769  1.00  0.00     0.041 C 
ATOM     64  G   UNL     1       2.984   7.144   6.454  1.00  0.00     0.000 G0
ENDBRANCH  60  62
ENDBRANCH  56  58
ENDBRANCH  54  56
ENDBRANCH  52  54
ENDBRANCH  51  52
ENDBRANCH  50  51
ENDBRANCH  49  50
BRANCH  49  65
ATOM     65  C   UNL     1       6.237  -2.720   4.828  1.00  0.00     0.326 C 
ATOM     66  O   UNL     1       6.187  -3.715   4.119  1.00  0.00    -0.250 OA
BRANCH  65  67
ATOM     67  O   UNL     1       7.399  -2.039   4.946  1.00  0.00    -0.480 OA
ATOM     68  H   UNL     1       7.855  -2.487   5.690  1.00  0.00     0.296 HD
ENDBRANCH  65  67
ENDBRANCH  49  65
ENDBRANCH  47  49
ENDBRANCH  43  45
ENDBRANCH   1  43
BRANCH   1  69
ATOM     69  C   UNL     1       0.288  -4.508   8.060  1.00  0.00    -0.001 C 
ATOM     70  C   UNL     1       0.601  -4.435   9.365  1.00  0.00     0.001 C 
BRANCH  70  71
ATOM     71  C   UNL     1      -0.265  -3.975  10.453  1.00  0.00    -0.055 C 
ATOM     72  C   UNL     1      -0.477  -4.819  11.485  1.00  0.00    -0.018 C 
ATOM     73  C   UNL     1      -0.851  -2.592  10.347  1.00  0.00     0.044 C 
BRANCH  72  74
ATOM     74  C   UNL     1      -1.316  -4.615  12.739  1.00  0.00     0.038 C 
ATOM     75  C   UNL     1      -0.418  -3.934  13.779  1.00  0.00     0.015 C 
BRANCH  74  76
ATOM     76  C   UNL     1      -1.898  -5.990  13.180  1.00  0.00     0.128 C 
BRANCH  76  77
ATOM     77  O   UNL     1      -3.334  -5.929  13.208  1.00  0.00    -0.381 OA
ATOM     78  C   UNL     1      -3.851  -4.607  13.120  1.00  0.00     0.195 C 
ENDBRANCH  76  77
BRANCH  76  79
ATOM     79  C   UNL     1      -1.366  -7.192  12.360  1.00  0.00     0.068 C 
BRANCH  79  80
ATOM     80  C   UNL     1      -2.346  -7.949  11.497  1.00  0.00    -0.045 A 
ATOM     81  C   UNL     1      -2.708  -7.474  10.230  1.00  0.00     0.004 A 
ATOM     82  C   UNL     1      -2.933  -9.134  11.966  1.00  0.00     0.004 A 
ATOM     83  C   UNL     1      -3.626  -8.173   9.443  1.00  0.00     0.000 A 
ATOM     84  C   UNL     1      -3.852  -9.831  11.179  1.00  0.00     0.000 A 
ATOM     85  C   UNL     1      -4.197  -9.352   9.918  1.00  0.00     0.000 A 
ENDBRANCH  79  80
ENDBRANCH  76  79
ENDBRANCH  74  76
ENDBRANCH  72  74
ENDBRANCH  70  71
ENDBRANCH   1  69
TORSDOF 17
ENDMDL
MODEL 9
REMARK VINA RESULT:    -6.017      4.004     12.746
REMARK INTER + INTRA:         -24.152
REMARK INTER:                 -18.478
REMARK INTRA:                  -5.674
REMARK UNBOUND:                -6.174
REMARK SMILES C=C1C(=O)N[C@H](C)C(=O)N[C@@H](CC(C)C)C(=O)N[C@@H](C(=O)O)[C@H](C)C(=O)N[C@@H](CCCN=C(N)N)C(=O)N[C@@H](/C=C/C(C)=C/[C@H](C)[C@H](Cc2ccccc2)OC)[C@H](C)C(=O)N[C@@H](C(=O)O)CCC(=O)N1C
REMARK SMILES IDX 39 1 38 2 37 3 36 4 28 6 27 7 25 8 26 9 23 11 24 12 19 13
REMARK SMILES IDX 18 14 16 15 17 16 11 18 10 19 8 20 9 21 12 24 13 25 14 26
REMARK SMILES IDX 15 27 20 28 21 29 22 30 29 32 30 33 31 34 32 35 33 36 34 37
REMARK SMILES IDX 35 38 57 43 58 44 59 45 60 46 61 47 62 49 66 50 67 51 68 52
REMARK SMILES IDX 69 53 70 54 71 55 2 56 1 57 3 58 4 59 5 60 6 62 7 63 63 65
REMARK SMILES IDX 64 66 65 67 40 69 41 70 42 71 44 72 43 73 45 74 46 75 47 76
REMARK SMILES IDX 55 77 56 78 48 79 49 80 50 81 54 82 51 83 53 84 52 85
REMARK H PARENT 38 5 27 10 18 17 10 22 22 31 34 39 34 40 35 41 35 42 61 48
REMARK H PARENT 5 61 65 68
REMARK Flexibility Score:  369.900
ROOT
ATOM      1  C   UNL     1       2.276   5.190   4.627  1.00  0.00     0.117 C 
ENDROOT
BRANCH   1   2
ATOM      2  N   UNL     1       3.042   6.363   4.203  1.00  0.00    -0.347 N 
ATOM      3  O   UNL     1       2.445   6.342   1.986  1.00  0.00    -0.273 OA
ATOM      4  C   UNL     1       2.992   6.901   2.931  1.00  0.00     0.243 C 
ATOM      5  H   UNL     1       3.609   6.854   4.878  1.00  0.00     0.164 HD
BRANCH   4   6
ATOM      6  C   UNL     1       3.831   8.194   2.768  1.00  0.00     0.171 C 
BRANCH   6   7
ATOM      7  N   UNL     1       3.783   8.665   1.375  1.00  0.00    -0.344 N 
ATOM      8  C   UNL     1       4.945   8.859   0.658  1.00  0.00     0.226 C 
ATOM      9  O   UNL     1       6.056   8.674   1.140  1.00  0.00    -0.275 OA
ATOM     10  H   UNL     1       2.886   8.893   0.964  1.00  0.00     0.164 HD
BRANCH   8  11
ATOM     11  C   UNL     1       4.727   9.294  -0.780  1.00  0.00     0.109 C 
ATOM     12  C   UNL     1       5.150  10.752  -0.959  1.00  0.00     0.021 C 
BRANCH  11  13
ATOM     13  C   UNL     1       5.414   8.298  -1.736  1.00  0.00     0.204 C 
BRANCH  13  14
ATOM     14  N   UNL     1       4.717   8.197  -3.022  1.00  0.00    -0.340 N 
ATOM     15  C   UNL     1       4.087   7.046  -3.444  1.00  0.00     0.243 C 
ATOM     16  O   UNL     1       4.012   6.039  -2.742  1.00  0.00    -0.273 OA
ATOM     17  H   UNL     1       4.870   8.939  -3.711  1.00  0.00     0.164 HD
BRANCH  15  18
ATOM     18  C   UNL     1       3.604   7.109  -4.913  1.00  0.00     0.171 C 
BRANCH  18  19
ATOM     19  N   UNL     1       2.778   8.309  -5.032  1.00  0.00    -0.343 N 
ATOM     20  C   UNL     1       1.521   8.275  -5.603  1.00  0.00     0.242 CG0
ATOM     21  O   UNL     1       1.092   7.265  -6.156  1.00  0.00    -0.273 OA
ATOM     22  H   UNL     1       3.137   9.195  -4.694  1.00  0.00     0.164 HD
ATOM     23  G   UNL     1       0.769   9.622  -5.569  1.00  0.00     0.000 G0
ENDBRANCH  18  19
BRANCH  18  24
ATOM     24  C   UNL     1       4.798   7.150  -5.875  1.00  0.00     0.038 C 
BRANCH  24  25
ATOM     25  C   UNL     1       4.420   7.259  -7.367  1.00  0.00    -0.015 C 
ATOM     26  C   UNL     1       5.114   6.200  -8.225  1.00  0.00     0.007 C 
ATOM     27  C   UNL     1       4.774   8.655  -7.887  1.00  0.00     0.007 C 
ENDBRANCH  24  25
ENDBRANCH  18  24
ENDBRANCH  15  18
ENDBRANCH  13  14
BRANCH  13  28
ATOM     28  C   UNL     1       6.872   8.658  -2.037  1.00  0.00     0.327 C 
ATOM     29  O   UNL     1       7.278   9.278  -3.007  1.00  0.00    -0.250 OA
BRANCH  28  30
ATOM     30  O   UNL     1       7.742   8.114  -1.161  1.00  0.00    -0.480 OA
ATOM     31  H   UNL     1       8.567   8.003  -1.679  1.00  0.00     0.296 HD
ENDBRANCH  28  30
ENDBRANCH  13  28
ENDBRANCH  11  13
ENDBRANCH   8  11
ENDBRANCH   6   7
BRANCH   6  32
ATOM     32  C   UNL     1       3.297   9.264   3.726  1.00  0.00     0.037 C 
BRANCH  32  33
ATOM     33  C   UNL     1       4.419  10.148   4.290  1.00  0.00     0.026 C 
BRANCH  33  34
ATOM     34  C   UNL     1       5.703   9.362   4.560  1.00  0.00     0.146 C 
BRANCH  34  35
ATOM     35  N   UNL     1       6.025   9.461   5.977  1.00  0.00    -0.254 NA
ATOM     36  C   UNL     1       5.958   8.404   6.698  1.00  0.00     0.185 C 
ATOM     37  N   UNL     1       6.258   8.484   8.004  1.00  0.00    -0.370 N 
ATOM     38  N   UNL     1       5.616   7.155   6.336  1.00  0.00    -0.370 N 
ATOM     39  H   UNL     1       6.536   9.392   8.352  1.00  0.00     0.159 HD
ATOM     40  H   UNL     1       6.397   7.680   8.592  1.00  0.00     0.159 HD
ATOM     41  H   UNL     1       5.466   6.436   7.025  1.00  0.00     0.159 HD
ATOM     42  H   UNL     1       5.350   6.952   5.385  1.00  0.00     0.159 HD
ENDBRANCH  34  35
ENDBRANCH  33  34
ENDBRANCH  32  33
ENDBRANCH   6  32
ENDBRANCH   4   6
ENDBRANCH   1   2
BRANCH   1  43
ATOM     43  C   UNL     1       1.069   5.670   5.484  1.00  0.00     0.102 C 
ATOM     44  C   UNL     1       0.027   6.466   4.681  1.00  0.00     0.020 C 
BRANCH  43  45
ATOM     45  C   UNL     1       1.545   6.376   6.757  1.00  0.00     0.225 C 
ATOM     46  O   UNL     1       1.959   7.532   6.769  1.00  0.00    -0.275 OA
ATOM     47  N   UNL     1       1.569   5.598   7.892  1.00  0.00    -0.342 N 
ATOM     48  H   UNL     1       1.089   4.710   7.900  1.00  0.00     0.164 HD
BRANCH  47  49
ATOM     49  C   UNL     1       1.968   6.150   9.191  1.00  0.00     0.192 C 
BRANCH  49  50
ATOM     50  C   UNL     1       0.951   7.204   9.635  1.00  0.00     0.047 C 
BRANCH  50  51
ATOM     51  C   UNL     1       0.392   6.920  11.036  1.00  0.00     0.103 C 
BRANCH  51  52
ATOM     52  C   UNL     1       0.855   7.954  12.060  1.00  0.00     0.226 C 
ATOM     53  O   UNL     1       2.009   8.385  12.012  1.00  0.00    -0.275 OA
BRANCH  52  54
ATOM     54  N   UNL     1      -0.115   8.414  12.969  1.00  0.00    -0.311 N 
ATOM     55  C   UNL     1      -0.508   9.829  13.003  1.00  0.00     0.153 C 
BRANCH  54  56
ATOM     56  C   UNL     1      -0.746   7.542  13.871  1.00  0.00     0.102 C 
ATOM     57  C   UNL     1      -0.145   6.950  14.916  1.00  0.00     0.043 C 
BRANCH  56  58
ATOM     58  C   UNL     1      -2.220   7.232  13.746  1.00  0.00     0.268 C 
ATOM     59  O   UNL     1      -2.725   6.778  12.728  1.00  0.00    -0.268 OA
ATOM     60  N   UNL     1      -2.918   7.449  14.910  1.00  0.00    -0.339 N 
ATOM     61  H   UNL     1      -2.427   7.837  15.707  1.00  0.00     0.164 HD
BRANCH  60  62
ATOM     62  C   UNL     1      -4.345   7.154  15.029  1.00  0.00     0.168 CG0
ATOM     63  C   UNL     1      -5.172   8.434  14.995  1.00  0.00     0.041 C 
ATOM     64  G   UNL     1      -4.604   6.371  16.333  1.00  0.00     0.000 G0
ENDBRANCH  60  62
ENDBRANCH  56  58
ENDBRANCH  54  56
ENDBRANCH  52  54
ENDBRANCH  51  52
ENDBRANCH  50  51
ENDBRANCH  49  50
BRANCH  49  65
ATOM     65  C   UNL     1       3.366   6.784   9.132  1.00  0.00     0.326 C 
ATOM     66  O   UNL     1       4.417   6.175   8.993  1.00  0.00    -0.250 OA
BRANCH  65  67
ATOM     67  O   UNL     1       3.386   8.123   9.310  1.00  0.00    -0.480 OA
ATOM     68  H   UNL     1       4.150   8.266   9.909  1.00  0.00     0.296 HD
ENDBRANCH  65  67
ENDBRANCH  49  65
ENDBRANCH  47  49
ENDBRANCH  43  45
ENDBRANCH   1  43
BRANCH   1  69
ATOM     69  C   UNL     1       3.278   4.231   5.243  1.00  0.00    -0.001 C 
ATOM     70  C   UNL     1       3.130   2.908   5.436  1.00  0.00     0.001 C 
BRANCH  70  71
ATOM     71  C   UNL     1       4.112   1.988   6.013  1.00  0.00    -0.055 C 
ATOM     72  C   UNL     1       4.394   0.860   5.326  1.00  0.00    -0.018 C 
ATOM     73  C   UNL     1       4.745   2.368   7.326  1.00  0.00     0.044 C 
BRANCH  72  74
ATOM     74  C   UNL     1       5.361  -0.262   5.674  1.00  0.00     0.038 C 
ATOM     75  C   UNL     1       6.333  -0.404   4.496  1.00  0.00     0.015 C 
BRANCH  74  76
ATOM     76  C   UNL     1       4.542  -1.545   6.003  1.00  0.00     0.128 C 
BRANCH  76  77
ATOM     77  O   UNL     1       4.435  -2.372   4.832  1.00  0.00    -0.381 OA
ATOM     78  C   UNL     1       3.339  -3.277   4.870  1.00  0.00     0.195 C 
ENDBRANCH  76  77
BRANCH  76  79
ATOM     79  C   UNL     1       5.059  -2.322   7.240  1.00  0.00     0.068 C 
BRANCH  79  80
ATOM     80  C   UNL     1       4.280  -2.201   8.527  1.00  0.00    -0.045 A 
ATOM     81  C   UNL     1       4.150  -3.291   9.397  1.00  0.00     0.004 A 
ATOM     82  C   UNL     1       3.645  -0.994   8.859  1.00  0.00     0.004 A 
ATOM     83  C   UNL     1       3.415  -3.175  10.579  1.00  0.00     0.000 A 
ATOM     84  C   UNL     1       2.910  -0.880  10.040  1.00  0.00     0.000 A 
ATOM     85  C   UNL     1       2.796  -1.969  10.901  1.00  0.00     0.000 A 
ENDBRANCH  79  80
ENDBRANCH  76  79
ENDBRANCH  74  76
ENDBRANCH  72  74
ENDBRANCH  70  71
ENDBRANCH   1  69
TORSDOF 17
ENDMDL
MODEL 10
REMARK VINA RESULT:    -5.867      4.812     12.478
REMARK INTER + INTRA:         -23.703
REMARK INTER:                 -14.108
REMARK INTRA:                  -9.595
REMARK UNBOUND:                -6.174
REMARK SMILES C=C1C(=O)N[C@H](C)C(=O)N[C@@H](CC(C)C)C(=O)N[C@@H](C(=O)O)[C@H](C)C(=O)N[C@@H](CCCN=C(N)N)C(=O)N[C@@H](/C=C/C(C)=C/[C@H](C)[C@H](Cc2ccccc2)OC)[C@H](C)C(=O)N[C@@H](C(=O)O)CCC(=O)N1C
REMARK SMILES IDX 39 1 38 2 37 3 36 4 28 6 27 7 25 8 26 9 23 11 24 12 19 13
REMARK SMILES IDX 18 14 16 15 17 16 11 18 10 19 8 20 9 21 12 24 13 25 14 26
REMARK SMILES IDX 15 27 20 28 21 29 22 30 29 32 30 33 31 34 32 35 33 36 34 37
REMARK SMILES IDX 35 38 57 43 58 44 59 45 60 46 61 47 62 49 66 50 67 51 68 52
REMARK SMILES IDX 69 53 70 54 71 55 2 56 1 57 3 58 4 59 5 60 6 62 7 63 63 65
REMARK SMILES IDX 64 66 65 67 40 69 41 70 42 71 44 72 43 73 45 74 46 75 47 76
REMARK SMILES IDX 55 77 56 78 48 79 49 80 50 81 54 82 51 83 53 84 52 85
REMARK H PARENT 38 5 27 10 18 17 10 22 22 31 34 39 34 40 35 41 35 42 61 48
REMARK H PARENT 5 61 65 68
REMARK Flexibility Score:  369.900
ROOT
ATOM      1  C   UNL     1       4.958   2.218   6.370  1.00  0.00     0.117 C 
ENDROOT
BRANCH   1   2
ATOM      2  N   UNL     1       5.614   2.463   7.655  1.00  0.00    -0.347 N 
ATOM      3  O   UNL     1       7.773   2.065   6.986  1.00  0.00    -0.273 OA
ATOM      4  C   UNL     1       6.983   2.456   7.839  1.00  0.00     0.243 C 
ATOM      5  H   UNL     1       5.053   2.702   8.459  1.00  0.00     0.164 HD
BRANCH   4   6
ATOM      6  C   UNL     1       7.421   2.832   9.277  1.00  0.00     0.171 C 
BRANCH   6   7
ATOM      7  N   UNL     1       8.827   2.461   9.500  1.00  0.00    -0.344 N 
ATOM      8  C   UNL     1       9.178   1.627  10.539  1.00  0.00     0.226 C 
ATOM      9  O   UNL     1       8.358   1.177  11.331  1.00  0.00    -0.275 OA
ATOM     10  H   UNL     1       9.541   2.867   8.908  1.00  0.00     0.164 HD
BRANCH   8  11
ATOM     11  C   UNL     1      10.659   1.296  10.603  1.00  0.00     0.109 C 
ATOM     12  C   UNL     1      11.120   1.223  12.059  1.00  0.00     0.021 C 
BRANCH  11  13
ATOM     13  C   UNL     1      10.947   0.032   9.768  1.00  0.00     0.204 C 
BRANCH  13  14
ATOM     14  N   UNL     1      10.103  -1.098  10.169  1.00  0.00    -0.340 N 
ATOM     15  C   UNL     1      10.588  -2.183  10.866  1.00  0.00     0.243 C 
ATOM     16  O   UNL     1      11.752  -2.252  11.255  1.00  0.00    -0.273 OA
ATOM     17  H   UNL     1       9.173  -1.175   9.750  1.00  0.00     0.164 HD
BRANCH  15  18
ATOM     18  C   UNL     1       9.568  -3.342  10.994  1.00  0.00     0.171 C 
BRANCH  18  19
ATOM     19  N   UNL     1      10.238  -4.409  11.736  1.00  0.00    -0.343 N 
ATOM     20  C   UNL     1      10.670  -5.566  11.117  1.00  0.00     0.242 CG0
ATOM     21  O   UNL     1      10.395  -5.810   9.944  1.00  0.00    -0.273 OA
ATOM     22  H   UNL     1      10.386  -4.304  12.733  1.00  0.00     0.164 HD
ATOM     23  G   UNL     1      11.425  -6.540  12.045  1.00  0.00     0.000 G0
ENDBRANCH  18  19
BRANCH  18  24
ATOM     24  C   UNL     1       8.299  -2.869  11.714  1.00  0.00     0.038 C 
BRANCH  24  25
ATOM     25  C   UNL     1       7.218  -3.955  11.895  1.00  0.00    -0.015 C 
ATOM     26  C   UNL     1       7.036  -4.814  10.644  1.00  0.00     0.007 C 
ATOM     27  C   UNL     1       5.886  -3.299  12.268  1.00  0.00     0.007 C 
ENDBRANCH  24  25
ENDBRANCH  18  24
ENDBRANCH  15  18
ENDBRANCH  13  14
BRANCH  13  28
ATOM     28  C   UNL     1      10.741   0.242   8.265  1.00  0.00     0.327 C 
ATOM     29  O   UNL     1      11.524   0.777   7.495  1.00  0.00    -0.250 OA
BRANCH  28  30
ATOM     30  O   UNL     1       9.514  -0.126   7.843  1.00  0.00    -0.480 OA
ATOM     31  H   UNL     1       9.255  -0.847   8.454  1.00  0.00     0.296 HD
ENDBRANCH  28  30
ENDBRANCH  13  28
ENDBRANCH  11  13
ENDBRANCH   8  11
ENDBRANCH   6   7
BRANCH   6  32
ATOM     32  C   UNL     1       7.210   4.335   9.491  1.00  0.00     0.037 C 
BRANCH  32  33
ATOM     33  C   UNL     1       7.847   5.174   8.375  1.00  0.00     0.026 C 
BRANCH  33  34
ATOM     34  C   UNL     1       9.320   5.482   8.643  1.00  0.00     0.146 C 
BRANCH  34  35
ATOM     35  N   UNL     1      10.137   4.727   7.703  1.00  0.00    -0.254 NA
ATOM     36  C   UNL     1      11.305   4.350   8.069  1.00  0.00     0.185 C 
ATOM     37  N   UNL     1      12.064   3.649   7.212  1.00  0.00    -0.370 N 
ATOM     38  N   UNL     1      11.930   4.554   9.242  1.00  0.00    -0.370 N 
ATOM     39  H   UNL     1      11.659   3.445   6.308  1.00  0.00     0.159 HD
ATOM     40  H   UNL     1      12.909   3.172   7.479  1.00  0.00     0.159 HD
ATOM     41  H   UNL     1      12.904   4.327   9.360  1.00  0.00     0.159 HD
ATOM     42  H   UNL     1      11.483   5.081   9.976  1.00  0.00     0.159 HD
ENDBRANCH  34  35
ENDBRANCH  33  34
ENDBRANCH  32  33
ENDBRANCH   6  32
ENDBRANCH   4   6
ENDBRANCH   1   2
BRANCH   1  43
ATOM     43  C   UNL     1       3.651   3.060   6.312  1.00  0.00     0.102 C 
ATOM     44  C   UNL     1       2.842   2.846   5.021  1.00  0.00     0.020 C 
BRANCH  43  45
ATOM     45  C   UNL     1       3.930   4.531   6.634  1.00  0.00     0.225 C 
ATOM     46  O   UNL     1       4.046   4.956   7.780  1.00  0.00    -0.275 OA
ATOM     47  N   UNL     1       3.950   5.381   5.552  1.00  0.00    -0.342 N 
ATOM     48  H   UNL     1       4.005   5.000   4.618  1.00  0.00     0.164 HD
BRANCH  47  49
ATOM     49  C   UNL     1       4.240   6.809   5.705  1.00  0.00     0.192 C 
BRANCH  49  50
ATOM     50  C   UNL     1       3.920   7.542   4.400  1.00  0.00     0.047 C 
BRANCH  50  51
ATOM     51  C   UNL     1       2.525   8.183   4.420  1.00  0.00     0.103 C 
BRANCH  51  52
ATOM     52  C   UNL     1       1.467   7.272   3.800  1.00  0.00     0.226 C 
ATOM     53  O   UNL     1       1.400   7.160   2.575  1.00  0.00    -0.275 OA
BRANCH  52  54
ATOM     54  N   UNL     1       0.665   6.542   4.698  1.00  0.00    -0.311 N 
ATOM     55  C   UNL     1       0.094   5.243   4.317  1.00  0.00     0.153 C 
BRANCH  54  56
ATOM     56  C   UNL     1       0.386   7.023   5.988  1.00  0.00     0.102 C 
ATOM     57  C   UNL     1       0.725   6.402   7.129  1.00  0.00     0.043 C 
BRANCH  56  58
ATOM     58  C   UNL     1      -0.305   8.351   6.187  1.00  0.00     0.268 C 
ATOM     59  O   UNL     1       0.222   9.303   6.746  1.00  0.00    -0.268 OA
ATOM     60  N   UNL     1      -1.556   8.400   5.620  1.00  0.00    -0.339 N 
ATOM     61  H   UNL     1      -1.926   7.564   5.183  1.00  0.00     0.164 HD
BRANCH  60  62
ATOM     62  C   UNL     1      -2.375   9.611   5.641  1.00  0.00     0.168 CG0
ATOM     63  C   UNL     1      -2.030  10.525   4.471  1.00  0.00     0.041 C 
ATOM     64  G   UNL     1      -2.176  10.346   6.983  1.00  0.00     0.000 G0
ENDBRANCH  60  62
ENDBRANCH  56  58
ENDBRANCH  54  56
ENDBRANCH  52  54
ENDBRANCH  51  52
ENDBRANCH  50  51
ENDBRANCH  49  50
BRANCH  49  65
ATOM     65  C   UNL     1       5.712   7.052   6.077  1.00  0.00     0.326 C 
ATOM     66  O   UNL     1       6.107   7.798   6.961  1.00  0.00    -0.250 OA
BRANCH  65  67
ATOM     67  O   UNL     1       6.605   6.406   5.295  1.00  0.00    -0.480 OA
ATOM     68  H   UNL     1       6.942   7.109   4.699  1.00  0.00     0.296 HD
ENDBRANCH  65  67
ENDBRANCH  49  65
ENDBRANCH  47  49
ENDBRANCH  43  45
ENDBRANCH   1  43
BRANCH   1  69
ATOM     69  C   UNL     1       4.867   0.710   6.222  1.00  0.00    -0.001 C 
ATOM     70  C   UNL     1       5.305  -0.038   5.194  1.00  0.00     0.001 C 
BRANCH  70  71
ATOM     71  C   UNL     1       5.230  -1.496   5.072  1.00  0.00    -0.055 C 
ATOM     72  C   UNL     1       4.074  -2.096   5.426  1.00  0.00    -0.018 C 
ATOM     73  C   UNL     1       6.444  -2.220   4.553  1.00  0.00     0.044 C 
BRANCH  72  74
ATOM     74  C   UNL     1       3.710  -3.574   5.402  1.00  0.00     0.038 C 
ATOM     75  C   UNL     1       2.483  -3.724   4.494  1.00  0.00     0.015 C 
BRANCH  74  76
ATOM     76  C   UNL     1       3.503  -4.062   6.866  1.00  0.00     0.128 C 
BRANCH  76  77
ATOM     77  O   UNL     1       2.924  -5.378   6.867  1.00  0.00    -0.381 OA
ATOM     78  C   UNL     1       3.441  -6.228   7.883  1.00  0.00     0.195 C 
ENDBRANCH  76  77
BRANCH  76  79
ATOM     79  C   UNL     1       4.774  -3.966   7.748  1.00  0.00     0.068 C 
BRANCH  79  80
ATOM     80  C   UNL     1       5.000  -2.691   8.524  1.00  0.00    -0.045 A 
ATOM     81  C   UNL     1       3.958  -2.085   9.237  1.00  0.00     0.004 A 
ATOM     82  C   UNL     1       6.261  -2.074   8.518  1.00  0.00     0.004 A 
ATOM     83  C   UNL     1       4.172  -0.898   9.941  1.00  0.00     0.000 A 
ATOM     84  C   UNL     1       6.474  -0.887   9.222  1.00  0.00     0.000 A 
ATOM     85  C   UNL     1       5.431  -0.300   9.934  1.00  0.00     0.000 A 
ENDBRANCH  79  80
ENDBRANCH  76  79
ENDBRANCH  74  76
ENDBRANCH  72  74
ENDBRANCH  70  71
ENDBRANCH   1  69
TORSDOF 17
ENDMDL
