MODEL 1
REMARK VINA RESULT:    -6.290      0.000      0.000
REMARK INTER + INTRA:         -12.506
REMARK INTER:                 -10.702
REMARK INTRA:                  -1.804
REMARK UNBOUND:                -1.804
REMARK SMILES CC[C@H](C)[C@@H]1NC(=O)[C@H]2CSC(=N2)[C@@H]([C@@H](C)CC)NC(=O)c2csc(n2)CNC(=O)[C@H]2N=C1O[C@@H]2C
REMARK SMILES IDX 27 1 25 2 22 3 26 4 23 5 24 6 20 7 19 8 21 9 14 11 12 12
REMARK SMILES IDX 11 13 10 14 13 15 9 16 15 18 16 19 17 20 18 21 28 22 29 23
REMARK SMILES IDX 30 24 31 26 32 27 35 28 33 29 34 30 36 31 5 32 6 33 7 34
REMARK SMILES IDX 8 35 3 38 4 39 2 40 1 41
REMARK H PARENT 19 10 28 25 6 36
REMARK Flexibility Score:   91.900
ROOT
ATOM      1  C   UNL     1       2.383   1.379   0.782  1.00  0.00     0.183 C 
ENDROOT
BRANCH   1   2
ATOM      2  C   UNL     1       1.947   0.592   1.984  1.00  0.00     0.113 A 
ATOM      3  C   UNL     1       1.134   0.166   4.015  1.00  0.00     0.139 A 
ATOM      4  N   UNL     1       1.298   1.118   3.006  1.00  0.00    -0.234 NA
ATOM      5  C   UNL     1       1.619  -1.089   3.701  1.00  0.00     0.101 A 
ATOM      6  S   UNL     1       2.314  -1.078   2.132  1.00  0.00    -0.125 S 
BRANCH   3   7
ATOM      7  C   UNL     1       0.527   0.548   5.292  1.00  0.00     0.271 C 
ATOM      8  N   UNL     1      -0.760   0.081   5.400  1.00  0.00    -0.341 N 
ATOM      9  O   UNL     1       1.093   1.229   6.138  1.00  0.00    -0.267 OA
ATOM     10  H   UNL     1      -1.087  -0.492   4.623  1.00  0.00     0.164 HD
BRANCH   8  11
ATOM     11  C   UNL     1      -1.677   0.454   6.464  1.00  0.00     0.140 C 
BRANCH  11  12
ATOM     12  C   UNL     1      -2.982   0.925   5.815  1.00  0.00     0.091 C 
ATOM     13  S   UNL     1      -4.468   0.039   6.067  1.00  0.00    -0.106 SA
ATOM     14  C   UNL     1      -5.414   1.394   5.339  1.00  0.00     0.113 C 
ATOM     15  N   UNL     1      -3.022   1.938   5.008  1.00  0.00    -0.267 NA
ATOM     16  C   UNL     1      -4.401   2.096   4.448  1.00  0.00     0.205 CG0
ATOM     17  G   UNL     1      -4.474   1.556   3.011  1.00  0.00     0.000 G0
ENDBRANCH  11  12
BRANCH  11  18
ATOM     18  C   UNL     1      -1.809  -0.609   7.584  1.00  0.00     0.015 C 
ATOM     19  C   UNL     1      -1.620  -2.019   7.008  1.00  0.00     0.010 C 
BRANCH  18  20
ATOM     20  C   UNL     1      -0.900  -0.373   8.807  1.00  0.00     0.002 C 
ATOM     21  C   UNL     1      -0.501   1.088   8.979  1.00  0.00     0.004 C 
ENDBRANCH  18  20
ENDBRANCH  11  18
ENDBRANCH   8  11
ENDBRANCH   3   7
ENDBRANCH   1   2
BRANCH   1  22
ATOM     22  N   UNL     1       1.230   2.109   0.301  1.00  0.00    -0.348 N 
ATOM     23  C   UNL     1       0.394   1.678  -0.693  1.00  0.00     0.249 C 
ATOM     24  O   UNL     1       0.492   0.577  -1.224  1.00  0.00    -0.272 OA
ATOM     25  H   UNL     1       1.068   3.049   0.660  1.00  0.00     0.163 HD
BRANCH  23  26
ATOM     26  C   UNL     1      -0.709   2.694  -1.024  1.00  0.00     0.238 C 
ATOM     27  N   UNL     1      -2.033   2.012  -0.985  1.00  0.00    -0.236 NA
ATOM     28  C   UNL     1      -0.793   3.801   0.013  1.00  0.00     0.206 C 
ATOM     29  C   UNL     1      -2.602   2.526   0.063  1.00  0.00     0.208 C 
ATOM     30  O   UNL     1      -1.946   3.468   0.784  1.00  0.00    -0.474 OA
ATOM     31  C   UNL     1      -1.006   5.173  -0.613  1.00  0.00     0.056 C 
BRANCH  29  32
ATOM     32  C   UNL     1      -3.964   2.139   0.634  1.00  0.00     0.171 C 
BRANCH  32  33
ATOM     33  N   UNL     1      -4.047   2.468   2.049  1.00  0.00    -0.342 N 
ATOM     34  C   UNL     1      -4.453   1.561   2.998  1.00  0.00     0.246 CG0
ATOM     35  O   UNL     1      -4.802   0.415   2.724  1.00  0.00    -0.273 OA
ATOM     36  H   UNL     1      -3.839   3.403   2.383  1.00  0.00     0.164 HD
ATOM     37  G   UNL     1      -4.414   2.088   4.441  1.00  0.00     0.000 G0
ENDBRANCH  32  33
BRANCH  32  38
ATOM     38  C   UNL     1      -5.104   2.788  -0.195  1.00  0.00     0.017 C 
ATOM     39  C   UNL     1      -6.440   2.103   0.120  1.00  0.00     0.010 C 
BRANCH  38  40
ATOM     40  C   UNL     1      -5.191   4.319  -0.004  1.00  0.00     0.002 C 
ATOM     41  C   UNL     1      -4.899   5.109  -1.273  1.00  0.00     0.004 C 
ENDBRANCH  38  40
ENDBRANCH  32  38
ENDBRANCH  29  32
ENDBRANCH  23  26
ENDBRANCH   1  22
TORSDOF 4
ENDMDL
MODEL 2
REMARK VINA RESULT:    -6.049      2.409      7.795
REMARK INTER + INTRA:         -12.096
REMARK INTER:                 -10.794
REMARK INTRA:                  -1.302
REMARK UNBOUND:                -1.804
REMARK SMILES CC[C@H](C)[C@@H]1NC(=O)[C@H]2CSC(=N2)[C@@H]([C@@H](C)CC)NC(=O)c2csc(n2)CNC(=O)[C@H]2N=C1O[C@@H]2C
REMARK SMILES IDX 27 1 25 2 22 3 26 4 23 5 24 6 20 7 19 8 21 9 14 11 12 12
REMARK SMILES IDX 11 13 10 14 13 15 9 16 15 18 16 19 17 20 18 21 28 22 29 23
REMARK SMILES IDX 30 24 31 26 32 27 35 28 33 29 34 30 36 31 5 32 6 33 7 34
REMARK SMILES IDX 8 35 3 38 4 39 2 40 1 41
REMARK H PARENT 19 10 28 25 6 36
REMARK Flexibility Score:   91.900
ROOT
ATOM      1  C   UNL     1      -3.604   2.111   7.728  1.00  0.00     0.183 C 
ENDROOT
BRANCH   1   2
ATOM      2  C   UNL     1      -4.323   2.544   6.482  1.00  0.00     0.113 A 
ATOM      3  C   UNL     1      -4.695   3.571   4.539  1.00  0.00     0.139 A 
ATOM      4  N   UNL     1      -3.747   3.215   5.501  1.00  0.00    -0.234 NA
ATOM      5  C   UNL     1      -5.970   3.105   4.792  1.00  0.00     0.101 A 
ATOM      6  S   UNL     1      -5.996   2.227   6.267  1.00  0.00    -0.125 S 
BRANCH   3   7
ATOM      7  C   UNL     1      -4.306   4.409   3.403  1.00  0.00     0.271 C 
ATOM      8  N   UNL     1      -4.657   3.834   2.207  1.00  0.00    -0.341 N 
ATOM      9  O   UNL     1      -3.711   5.473   3.514  1.00  0.00    -0.267 OA
ATOM     10  H   UNL     1      -5.170   2.955   2.274  1.00  0.00     0.164 HD
BRANCH   8  11
ATOM     11  C   UNL     1      -4.242   4.333   0.906  1.00  0.00     0.140 C 
BRANCH  11  12
ATOM     12  C   UNL     1      -2.950   3.609   0.516  1.00  0.00     0.091 C 
ATOM     13  S   UNL     1      -2.908   2.558  -0.880  1.00  0.00    -0.106 SA
ATOM     14  C   UNL     1      -1.106   2.486  -0.788  1.00  0.00     0.113 C 
ATOM     15  N   UNL     1      -1.875   3.688   1.236  1.00  0.00    -0.267 NA
ATOM     16  C   UNL     1      -0.812   2.797   0.671  1.00  0.00     0.205 CG0
ATOM     17  G   UNL     1      -0.693   1.501   1.489  1.00  0.00     0.000 G0
ENDBRANCH  11  12
BRANCH  11  18
ATOM     18  C   UNL     1      -5.372   4.345  -0.155  1.00  0.00     0.015 C 
ATOM     19  C   UNL     1      -6.683   4.844   0.466  1.00  0.00     0.010 C 
BRANCH  18  20
ATOM     20  C   UNL     1      -5.033   5.114  -1.449  1.00  0.00     0.002 C 
ATOM     21  C   UNL     1      -6.235   5.286  -2.370  1.00  0.00     0.004 C 
ENDBRANCH  18  20
ENDBRANCH  11  18
ENDBRANCH   8  11
ENDBRANCH   3   7
ENDBRANCH   1   2
BRANCH   1  22
ATOM     22  N   UNL     1      -2.234   1.831   7.361  1.00  0.00    -0.348 N 
ATOM     23  C   UNL     1      -1.779   0.621   6.914  1.00  0.00     0.249 C 
ATOM     24  O   UNL     1      -2.515  -0.336   6.696  1.00  0.00    -0.272 OA
ATOM     25  H   UNL     1      -1.532   2.552   7.523  1.00  0.00     0.163 HD
BRANCH  23  26
ATOM     26  C   UNL     1      -0.264   0.612   6.657  1.00  0.00     0.238 C 
ATOM     27  N   UNL     1       0.030  -0.255   5.483  1.00  0.00    -0.236 NA
ATOM     28  C   UNL     1       0.258   1.990   6.287  1.00  0.00     0.206 C 
ATOM     29  C   UNL     1       0.412   0.593   4.575  1.00  0.00     0.208 C 
ATOM     30  O   UNL     1       0.467   1.914   4.878  1.00  0.00    -0.474 OA
ATOM     31  C   UNL     1       1.586   2.311   6.959  1.00  0.00     0.056 C 
BRANCH  29  32
ATOM     32  C   UNL     1       0.773   0.268   3.128  1.00  0.00     0.171 C 
BRANCH  32  33
ATOM     33  N   UNL     1       0.480   1.394   2.255  1.00  0.00    -0.342 N 
ATOM     34  C   UNL     1      -0.676   1.478   1.517  1.00  0.00     0.246 CG0
ATOM     35  O   UNL     1      -1.537   0.602   1.518  1.00  0.00    -0.273 OA
ATOM     36  H   UNL     1       1.147   2.148   2.130  1.00  0.00     0.164 HD
ATOM     37  G   UNL     1      -0.820   2.775   0.704  1.00  0.00     0.000 G0
ENDBRANCH  32  33
BRANCH  32  38
ATOM     38  C   UNL     1       2.251  -0.193   3.028  1.00  0.00     0.017 C 
ATOM     39  C   UNL     1       2.362  -1.406   2.095  1.00  0.00     0.010 C 
BRANCH  38  40
ATOM     40  C   UNL     1       3.209   0.942   2.603  1.00  0.00     0.002 C 
ATOM     41  C   UNL     1       4.295   0.492   1.634  1.00  0.00     0.004 C 
ENDBRANCH  38  40
ENDBRANCH  32  38
ENDBRANCH  29  32
ENDBRANCH  23  26
ENDBRANCH   1  22
TORSDOF 4
ENDMDL
MODEL 3
REMARK VINA RESULT:    -5.996      2.667      8.060
REMARK INTER + INTRA:         -12.007
REMARK INTER:                 -10.348
REMARK INTRA:                  -1.659
REMARK UNBOUND:                -1.804
REMARK SMILES CC[C@H](C)[C@@H]1NC(=O)[C@H]2CSC(=N2)[C@@H]([C@@H](C)CC)NC(=O)c2csc(n2)CNC(=O)[C@H]2N=C1O[C@@H]2C
REMARK SMILES IDX 27 1 25 2 22 3 26 4 23 5 24 6 20 7 19 8 21 9 14 11 12 12
REMARK SMILES IDX 11 13 10 14 13 15 9 16 15 18 16 19 17 20 18 21 28 22 29 23
REMARK SMILES IDX 30 24 31 26 32 27 35 28 33 29 34 30 36 31 5 32 6 33 7 34
REMARK SMILES IDX 8 35 3 38 4 39 2 40 1 41
REMARK H PARENT 19 10 28 25 6 36
REMARK Flexibility Score:   91.900
ROOT
ATOM      1  C   UNL     1      -3.636   3.753   5.918  1.00  0.00     0.183 C 
ENDROOT
BRANCH   1   2
ATOM      2  C   UNL     1      -4.563   4.145   4.803  1.00  0.00     0.113 A 
ATOM      3  C   UNL     1      -5.311   4.463   2.728  1.00  0.00     0.139 A 
ATOM      4  N   UNL     1      -4.333   3.873   3.532  1.00  0.00    -0.234 NA
ATOM      5  C   UNL     1      -6.300   5.127   3.426  1.00  0.00     0.101 A 
ATOM      6  S   UNL     1      -5.996   5.038   5.113  1.00  0.00    -0.125 S 
BRANCH   3   7
ATOM      7  C   UNL     1      -5.208   4.380   1.270  1.00  0.00     0.271 C 
ATOM      8  N   UNL     1      -4.358   3.374   0.878  1.00  0.00    -0.341 N 
ATOM      9  O   UNL     1      -5.786   5.140   0.502  1.00  0.00    -0.267 OA
ATOM     10  H   UNL     1      -3.969   2.809   1.632  1.00  0.00     0.164 HD
BRANCH   8  11
ATOM     11  C   UNL     1      -3.912   3.168  -0.490  1.00  0.00     0.140 C 
BRANCH  11  12
ATOM     12  C   UNL     1      -2.386   3.034  -0.470  1.00  0.00     0.091 C 
ATOM     13  S   UNL     1      -1.524   2.505  -1.896  1.00  0.00    -0.106 SA
ATOM     14  C   UNL     1       0.045   2.978  -1.138  1.00  0.00     0.113 C 
ATOM     15  N   UNL     1      -1.693   3.231   0.606  1.00  0.00    -0.267 NA
ATOM     16  C   UNL     1      -0.250   2.924   0.352  1.00  0.00     0.205 CG0
ATOM     17  G   UNL     1       0.129   1.552   0.932  1.00  0.00     0.000 G0
ENDBRANCH  11  12
BRANCH  11  18
ATOM     18  C   UNL     1      -4.691   2.063  -1.247  1.00  0.00     0.015 C 
ATOM     19  C   UNL     1      -5.208   1.003  -0.265  1.00  0.00     0.010 C 
BRANCH  18  20
ATOM     20  C   UNL     1      -5.820   2.581  -2.161  1.00  0.00     0.002 C 
ATOM     21  C   UNL     1      -7.181   1.982  -1.825  1.00  0.00     0.004 C 
ENDBRANCH  18  20
ENDBRANCH  11  18
ENDBRANCH   8  11
ENDBRANCH   3   7
ENDBRANCH   1   2
BRANCH   1  22
ATOM     22  N   UNL     1      -3.194   2.401   5.659  1.00  0.00    -0.348 N 
ATOM     23  C   UNL     1      -2.372   1.679   6.479  1.00  0.00     0.249 C 
ATOM     24  O   UNL     1      -1.990   2.082   7.573  1.00  0.00    -0.272 OA
ATOM     25  H   UNL     1      -3.436   1.976   4.764  1.00  0.00     0.163 HD
BRANCH  23  26
ATOM     26  C   UNL     1      -2.031   0.293   5.911  1.00  0.00     0.238 C 
ATOM     27  N   UNL     1      -1.781   0.411   4.447  1.00  0.00    -0.236 NA
ATOM     28  C   UNL     1      -0.746  -0.263   6.500  1.00  0.00     0.206 C 
ATOM     29  C   UNL     1      -0.505   0.186   4.345  1.00  0.00     0.208 C 
ATOM     30  O   UNL     1       0.215  -0.090   5.459  1.00  0.00    -0.474 OA
ATOM     31  C   UNL     1      -0.847  -1.747   6.826  1.00  0.00     0.056 C 
BRANCH  29  32
ATOM     32  C   UNL     1       0.324   0.250   3.065  1.00  0.00     0.171 C 
BRANCH  32  33
ATOM     33  N   UNL     1       0.051   1.475   2.330  1.00  0.00    -0.342 N 
ATOM     34  C   UNL     1       0.149   1.556   0.962  1.00  0.00     0.246 CG0
ATOM     35  O   UNL     1       0.497   0.611   0.258  1.00  0.00    -0.273 OA
ATOM     36  H   UNL     1      -0.188   2.335   2.814  1.00  0.00     0.164 HD
ATOM     37  G   UNL     1      -0.239   2.923   0.375  1.00  0.00     0.000 G0
ENDBRANCH  32  33
BRANCH  32  38
ATOM     38  C   UNL     1       1.832   0.073   3.386  1.00  0.00     0.017 C 
ATOM     39  C   UNL     1       2.374  -1.183   2.692  1.00  0.00     0.010 C 
BRANCH  38  40
ATOM     40  C   UNL     1       2.673   1.323   3.040  1.00  0.00     0.002 C 
ATOM     41  C   UNL     1       3.662   1.096   1.903  1.00  0.00     0.004 C 
ENDBRANCH  38  40
ENDBRANCH  32  38
ENDBRANCH  29  32
ENDBRANCH  23  26
ENDBRANCH   1  22
TORSDOF 4
ENDMDL
MODEL 4
REMARK VINA RESULT:    -5.794      2.506      5.877
REMARK INTER + INTRA:         -11.663
REMARK INTER:                 -10.044
REMARK INTRA:                  -1.619
REMARK UNBOUND:                -1.804
REMARK SMILES CC[C@H](C)[C@@H]1NC(=O)[C@H]2CSC(=N2)[C@@H]([C@@H](C)CC)NC(=O)c2csc(n2)CNC(=O)[C@H]2N=C1O[C@@H]2C
REMARK SMILES IDX 27 1 25 2 22 3 26 4 23 5 24 6 20 7 19 8 21 9 14 11 12 12
REMARK SMILES IDX 11 13 10 14 13 15 9 16 15 18 16 19 17 20 18 21 28 22 29 23
REMARK SMILES IDX 30 24 31 26 32 27 35 28 33 29 34 30 36 31 5 32 6 33 7 34
REMARK SMILES IDX 8 35 3 38 4 39 2 40 1 41
REMARK H PARENT 19 10 28 25 6 36
REMARK Flexibility Score:   91.900
ROOT
ATOM      1  C   UNL     1      -3.836   4.180   6.097  1.00  0.00     0.183 C 
ENDROOT
BRANCH   1   2
ATOM      2  C   UNL     1      -2.886   3.020   6.180  1.00  0.00     0.113 A 
ATOM      3  C   UNL     1      -1.582   1.340   5.513  1.00  0.00     0.139 A 
ATOM      4  N   UNL     1      -2.320   2.461   5.127  1.00  0.00    -0.234 NA
ATOM      5  C   UNL     1      -1.561   1.112   6.875  1.00  0.00     0.101 A 
ATOM      6  S   UNL     1      -2.497   2.299   7.689  1.00  0.00    -0.125 S 
BRANCH   3   7
ATOM      7  C   UNL     1      -0.945   0.497   4.500  1.00  0.00     0.271 C 
ATOM      8  N   UNL     1      -0.305   1.249   3.545  1.00  0.00    -0.341 N 
ATOM      9  O   UNL     1      -1.008  -0.726   4.494  1.00  0.00    -0.267 OA
ATOM     10  H   UNL     1      -0.318   2.257   3.697  1.00  0.00     0.164 HD
BRANCH   8  11
ATOM     11  C   UNL     1       0.256   0.707   2.319  1.00  0.00     0.140 C 
BRANCH  11  12
ATOM     12  C   UNL     1      -0.373   1.459   1.142  1.00  0.00     0.091 C 
ATOM     13  S   UNL     1       0.555   2.638   0.244  1.00  0.00    -0.106 SA
ATOM     14  C   UNL     1      -0.724   2.692  -1.029  1.00  0.00     0.113 C 
ATOM     15  N   UNL     1      -1.619   1.308   0.818  1.00  0.00    -0.267 NA
ATOM     16  C   UNL     1      -1.977   2.244  -0.294  1.00  0.00     0.205 CG0
ATOM     17  G   UNL     1      -2.757   3.457   0.240  1.00  0.00     0.000 G0
ENDBRANCH  11  12
BRANCH  11  18
ATOM     18  C   UNL     1       1.803   0.606   2.324  1.00  0.00     0.015 C 
ATOM     19  C   UNL     1       2.403   1.643   3.283  1.00  0.00     0.010 C 
BRANCH  18  20
ATOM     20  C   UNL     1       2.356  -0.806   2.604  1.00  0.00     0.002 C 
ATOM     21  C   UNL     1       3.847  -0.930   2.313  1.00  0.00     0.004 C 
ENDBRANCH  18  20
ENDBRANCH  11  18
ENDBRANCH   8  11
ENDBRANCH   3   7
ENDBRANCH   1   2
BRANCH   1  22
ATOM     22  N   UNL     1      -4.737   3.922   4.996  1.00  0.00    -0.348 N 
ATOM     23  C   UNL     1      -5.918   4.581   4.784  1.00  0.00     0.249 C 
ATOM     24  O   UNL     1      -6.293   5.526   5.469  1.00  0.00    -0.272 OA
ATOM     25  H   UNL     1      -4.532   3.140   4.375  1.00  0.00     0.163 HD
BRANCH  23  26
ATOM     26  C   UNL     1      -6.686   4.049   3.564  1.00  0.00     0.238 C 
ATOM     27  N   UNL     1      -6.384   4.904   2.383  1.00  0.00    -0.236 NA
ATOM     28  C   UNL     1      -6.240   2.649   3.177  1.00  0.00     0.206 C 
ATOM     29  C   UNL     1      -5.679   4.122   1.621  1.00  0.00     0.208 C 
ATOM     30  O   UNL     1      -5.428   2.851   2.022  1.00  0.00    -0.474 OA
ATOM     31  C   UNL     1      -7.408   1.748   2.800  1.00  0.00     0.056 C 
BRANCH  29  32
ATOM     32  C   UNL     1      -5.028   4.498   0.293  1.00  0.00     0.171 C 
BRANCH  32  33
ATOM     33  N   UNL     1      -4.099   3.467  -0.141  1.00  0.00    -0.342 N 
ATOM     34  C   UNL     1      -2.773   3.464   0.221  1.00  0.00     0.246 CG0
ATOM     35  O   UNL     1      -2.266   4.341   0.914  1.00  0.00    -0.273 OA
ATOM     36  H   UNL     1      -4.395   2.724  -0.765  1.00  0.00     0.164 HD
ATOM     37  G   UNL     1      -1.975   2.254  -0.294  1.00  0.00     0.000 G0
ENDBRANCH  32  33
BRANCH  32  38
ATOM     38  C   UNL     1      -6.112   4.809  -0.773  1.00  0.00     0.017 C 
ATOM     39  C   UNL     1      -5.514   5.663  -1.899  1.00  0.00     0.010 C 
BRANCH  38  40
ATOM     40  C   UNL     1      -6.797   3.538  -1.325  1.00  0.00     0.002 C 
ATOM     41  C   UNL     1      -8.054   3.826  -2.135  1.00  0.00     0.004 C 
ENDBRANCH  38  40
ENDBRANCH  32  38
ENDBRANCH  29  32
ENDBRANCH  23  26
ENDBRANCH   1  22
TORSDOF 4
ENDMDL
MODEL 5
REMARK VINA RESULT:    -5.763      2.226      6.674
REMARK INTER + INTRA:         -11.610
REMARK INTER:                  -9.904
REMARK INTRA:                  -1.706
REMARK UNBOUND:                -1.804
REMARK SMILES CC[C@H](C)[C@@H]1NC(=O)[C@H]2CSC(=N2)[C@@H]([C@@H](C)CC)NC(=O)c2csc(n2)CNC(=O)[C@H]2N=C1O[C@@H]2C
REMARK SMILES IDX 27 1 25 2 22 3 26 4 23 5 24 6 20 7 19 8 21 9 14 11 12 12
REMARK SMILES IDX 11 13 10 14 13 15 9 16 15 18 16 19 17 20 18 21 28 22 29 23
REMARK SMILES IDX 30 24 31 26 32 27 35 28 33 29 34 30 36 31 5 32 6 33 7 34
REMARK SMILES IDX 8 35 3 38 4 39 2 40 1 41
REMARK H PARENT 19 10 28 25 6 36
REMARK Flexibility Score:   91.900
ROOT
ATOM      1  C   UNL     1       0.849   2.439   0.359  1.00  0.00     0.183 C 
ENDROOT
BRANCH   1   2
ATOM      2  C   UNL     1      -0.529   2.994   0.135  1.00  0.00     0.113 A 
ATOM      3  C   UNL     1      -2.753   3.067   0.012  1.00  0.00     0.139 A 
ATOM      4  N   UNL     1      -1.637   2.345   0.442  1.00  0.00    -0.234 NA
ATOM      5  C   UNL     1      -2.457   4.286  -0.565  1.00  0.00     0.101 A 
ATOM      6  S   UNL     1      -0.759   4.530  -0.596  1.00  0.00    -0.125 S 
BRANCH   3   7
ATOM      7  C   UNL     1      -4.094   2.496   0.155  1.00  0.00     0.271 C 
ATOM      8  N   UNL     1      -4.845   3.192   1.070  1.00  0.00    -0.341 N 
ATOM      9  O   UNL     1      -4.477   1.501  -0.446  1.00  0.00    -0.267 OA
ATOM     10  H   UNL     1      -4.397   4.015   1.472  1.00  0.00     0.164 HD
BRANCH   8  11
ATOM     11  C   UNL     1      -6.142   2.758   1.561  1.00  0.00     0.140 C 
BRANCH  11  12
ATOM     12  C   UNL     1      -5.963   2.285   3.006  1.00  0.00     0.091 C 
ATOM     13  S   UNL     1      -6.778   3.106   4.317  1.00  0.00    -0.106 SA
ATOM     14  C   UNL     1      -6.340   1.766   5.445  1.00  0.00     0.113 C 
ATOM     15  N   UNL     1      -5.156   1.320   3.318  1.00  0.00    -0.267 NA
ATOM     16  C   UNL     1      -5.106   1.151   4.804  1.00  0.00     0.205 CG0
ATOM     17  G   UNL     1      -3.825   1.771   5.384  1.00  0.00     0.000 G0
ENDBRANCH  11  12
BRANCH  11  18
ATOM     18  C   UNL     1      -7.285   3.774   1.306  1.00  0.00     0.015 C 
ATOM     19  C   UNL     1      -6.716   5.098   0.779  1.00  0.00     0.010 C 
BRANCH  18  20
ATOM     20  C   UNL     1      -8.423   3.252   0.405  1.00  0.00     0.002 C 
ATOM     21  C   UNL     1      -8.021   3.149  -1.062  1.00  0.00     0.004 C 
ENDBRANCH  18  20
ENDBRANCH  11  18
ENDBRANCH   8  11
ENDBRANCH   3   7
ENDBRANCH   1   2
BRANCH   1  22
ATOM     22  N   UNL     1       0.797   1.619   1.549  1.00  0.00    -0.348 N 
ATOM     23  C   UNL     1       1.869   1.342   2.352  1.00  0.00     0.249 C 
ATOM     24  O   UNL     1       2.979   1.837   2.187  1.00  0.00    -0.272 OA
ATOM     25  H   UNL     1      -0.075   1.139   1.768  1.00  0.00     0.163 HD
BRANCH  23  26
ATOM     26  C   UNL     1       1.517   0.397   3.511  1.00  0.00     0.238 C 
ATOM     27  N   UNL     1       0.972   1.194   4.645  1.00  0.00    -0.236 NA
ATOM     28  C   UNL     1       0.416  -0.579   3.134  1.00  0.00     0.206 C 
ATOM     29  C   UNL     1      -0.281   0.848   4.677  1.00  0.00     0.208 C 
ATOM     30  O   UNL     1      -0.743  -0.064   3.787  1.00  0.00    -0.474 OA
ATOM     31  C   UNL     1       0.681  -1.987   3.651  1.00  0.00     0.056 C 
BRANCH  29  32
ATOM     32  C   UNL     1      -1.352   1.413   5.606  1.00  0.00     0.171 C 
BRANCH  32  33
ATOM     33  N   UNL     1      -2.679   0.993   5.185  1.00  0.00    -0.342 N 
ATOM     34  C   UNL     1      -3.799   1.764   5.384  1.00  0.00     0.246 CG0
ATOM     35  O   UNL     1      -3.770   2.852   5.954  1.00  0.00    -0.273 OA
ATOM     36  H   UNL     1      -2.830   0.085   4.757  1.00  0.00     0.164 HD
ATOM     37  G   UNL     1      -5.094   1.166   4.813  1.00  0.00     0.000 G0
ENDBRANCH  32  33
BRANCH  32  38
ATOM     38  C   UNL     1      -1.047   1.034   7.079  1.00  0.00     0.017 C 
ATOM     39  C   UNL     1      -1.186   2.267   7.980  1.00  0.00     0.010 C 
BRANCH  38  40
ATOM     40  C   UNL     1      -1.909  -0.144   7.589  1.00  0.00     0.002 C 
ATOM     41  C   UNL     1      -1.092  -1.288   8.175  1.00  0.00     0.004 C 
ENDBRANCH  38  40
ENDBRANCH  32  38
ENDBRANCH  29  32
ENDBRANCH  23  26
ENDBRANCH   1  22
TORSDOF 4
ENDMDL
MODEL 6
REMARK VINA RESULT:    -5.749      2.580      8.161
REMARK INTER + INTRA:         -11.586
REMARK INTER:                 -10.091
REMARK INTRA:                  -1.495
REMARK UNBOUND:                -1.804
REMARK SMILES CC[C@H](C)[C@@H]1NC(=O)[C@H]2CSC(=N2)[C@@H]([C@@H](C)CC)NC(=O)c2csc(n2)CNC(=O)[C@H]2N=C1O[C@@H]2C
REMARK SMILES IDX 27 1 25 2 22 3 26 4 23 5 24 6 20 7 19 8 21 9 14 11 12 12
REMARK SMILES IDX 11 13 10 14 13 15 9 16 15 18 16 19 17 20 18 21 28 22 29 23
REMARK SMILES IDX 30 24 31 26 32 27 35 28 33 29 34 30 36 31 5 32 6 33 7 34
REMARK SMILES IDX 8 35 3 38 4 39 2 40 1 41
REMARK H PARENT 19 10 28 25 6 36
REMARK Flexibility Score:   91.900
ROOT
ATOM      1  C   UNL     1      -4.927   1.484   5.336  1.00  0.00     0.183 C 
ENDROOT
BRANCH   1   2
ATOM      2  C   UNL     1      -5.368   1.694   3.916  1.00  0.00     0.113 A 
ATOM      3  C   UNL     1      -5.613   2.682   1.934  1.00  0.00     0.139 A 
ATOM      4  N   UNL     1      -4.940   2.686   3.157  1.00  0.00    -0.234 NA
ATOM      5  C   UNL     1      -6.504   1.639   1.775  1.00  0.00     0.101 A 
ATOM      6  S   UNL     1      -6.523   0.657   3.183  1.00  0.00    -0.125 S 
BRANCH   3   7
ATOM      7  C   UNL     1      -5.376   3.753   0.963  1.00  0.00     0.271 C 
ATOM      8  N   UNL     1      -4.521   3.352  -0.033  1.00  0.00    -0.341 N 
ATOM      9  O   UNL     1      -5.858   4.875   1.056  1.00  0.00    -0.267 OA
ATOM     10  H   UNL     1      -4.219   2.379   0.010  1.00  0.00     0.164 HD
BRANCH   8  11
ATOM     11  C   UNL     1      -3.953   4.244  -1.031  1.00  0.00     0.140 C 
BRANCH  11  12
ATOM     12  C   UNL     1      -2.433   4.052  -1.022  1.00  0.00     0.091 C 
ATOM     13  S   UNL     1      -1.571   3.732  -2.508  1.00  0.00    -0.106 SA
ATOM     14  C   UNL     1       0.003   4.017  -1.671  1.00  0.00     0.113 C 
ATOM     15  N   UNL     1      -1.748   4.045   0.078  1.00  0.00    -0.267 NA
ATOM     16  C   UNL     1      -0.314   3.730  -0.212  1.00  0.00     0.205 CG0
ATOM     17  G   UNL     1       0.008   2.268   0.138  1.00  0.00     0.000 G0
ENDBRANCH  11  12
BRANCH  11  18
ATOM     18  C   UNL     1      -4.649   4.168  -2.414  1.00  0.00     0.015 C 
ATOM     19  C   UNL     1      -4.900   2.706  -2.807  1.00  0.00     0.010 C 
BRANCH  18  20
ATOM     20  C   UNL     1      -5.933   5.013  -2.536  1.00  0.00     0.002 C 
ATOM     21  C   UNL     1      -7.198   4.165  -2.619  1.00  0.00     0.004 C 
ENDBRANCH  18  20
ENDBRANCH  11  18
ENDBRANCH   8  11
ENDBRANCH   3   7
ENDBRANCH   1   2
BRANCH   1  22
ATOM     22  N   UNL     1      -3.514   1.178   5.310  1.00  0.00    -0.348 N 
ATOM     23  C   UNL     1      -2.990  -0.072   5.123  1.00  0.00     0.249 C 
ATOM     24  O   UNL     1      -3.675  -1.057   4.871  1.00  0.00    -0.272 OA
ATOM     25  H   UNL     1      -2.853   1.922   5.529  1.00  0.00     0.163 HD
BRANCH  23  26
ATOM     26  C   UNL     1      -1.456  -0.093   5.200  1.00  0.00     0.238 C 
ATOM     27  N   UNL     1      -0.904  -0.539   3.891  1.00  0.00    -0.236 NA
ATOM     28  C   UNL     1      -0.880   1.293   5.434  1.00  0.00     0.206 C 
ATOM     29  C   UNL     1      -0.342   0.535   3.423  1.00  0.00     0.208 C 
ATOM     30  O   UNL     1      -0.367   1.674   4.158  1.00  0.00    -0.474 OA
ATOM     31  C   UNL     1       0.267   1.288   6.436  1.00  0.00     0.056 C 
BRANCH  29  32
ATOM     32  C   UNL     1       0.329   0.685   2.061  1.00  0.00     0.171 C 
BRANCH  32  33
ATOM     33  N   UNL     1       0.108   2.015   1.517  1.00  0.00    -0.342 N 
ATOM     34  C   UNL     1       0.013   2.258   0.167  1.00  0.00     0.246 CG0
ATOM     35  O   UNL     1       0.133   1.377  -0.682  1.00  0.00    -0.273 OA
ATOM     36  H   UNL     1       0.053   2.827   2.122  1.00  0.00     0.164 HD
ATOM     37  G   UNL     1      -0.280   3.722  -0.198  1.00  0.00     0.000 G0
ENDBRANCH  32  33
BRANCH  32  38
ATOM     38  C   UNL     1       1.835   0.323   2.155  1.00  0.00     0.017 C 
ATOM     39  C   UNL     1       2.542   1.263   3.140  1.00  0.00     0.010 C 
BRANCH  38  40
ATOM     40  C   UNL     1       2.077  -1.161   2.511  1.00  0.00     0.002 C 
ATOM     41  C   UNL     1       3.548  -1.510   2.702  1.00  0.00     0.004 C 
ENDBRANCH  38  40
ENDBRANCH  32  38
ENDBRANCH  29  32
ENDBRANCH  23  26
ENDBRANCH   1  22
TORSDOF 4
ENDMDL
MODEL 7
REMARK VINA RESULT:    -5.689      2.862      7.195
REMARK INTER + INTRA:         -11.484
REMARK INTER:                  -9.930
REMARK INTRA:                  -1.554
REMARK UNBOUND:                -1.804
REMARK SMILES CC[C@H](C)[C@@H]1NC(=O)[C@H]2CSC(=N2)[C@@H]([C@@H](C)CC)NC(=O)c2csc(n2)CNC(=O)[C@H]2N=C1O[C@@H]2C
REMARK SMILES IDX 27 1 25 2 22 3 26 4 23 5 24 6 20 7 19 8 21 9 14 11 12 12
REMARK SMILES IDX 11 13 10 14 13 15 9 16 15 18 16 19 17 20 18 21 28 22 29 23
REMARK SMILES IDX 30 24 31 26 32 27 35 28 33 29 34 30 36 31 5 32 6 33 7 34
REMARK SMILES IDX 8 35 3 38 4 39 2 40 1 41
REMARK H PARENT 19 10 28 25 6 36
REMARK Flexibility Score:   91.900
ROOT
ATOM      1  C   UNL     1      -1.613   1.085   6.293  1.00  0.00     0.183 C 
ENDROOT
BRANCH   1   2
ATOM      2  C   UNL     1      -2.356   2.371   6.074  1.00  0.00     0.113 A 
ATOM      3  C   UNL     1      -3.440   3.997   5.002  1.00  0.00     0.139 A 
ATOM      4  N   UNL     1      -2.932   2.698   4.931  1.00  0.00    -0.234 NA
ATOM      5  C   UNL     1      -3.285   4.606   6.232  1.00  0.00     0.101 A 
ATOM      6  S   UNL     1      -2.469   3.553   7.314  1.00  0.00    -0.125 S 
BRANCH   3   7
ATOM      7  C   UNL     1      -4.039   4.615   3.816  1.00  0.00     0.271 C 
ATOM      8  N   UNL     1      -3.652   3.977   2.664  1.00  0.00    -0.341 N 
ATOM      9  O   UNL     1      -4.765   5.600   3.856  1.00  0.00    -0.267 OA
ATOM     10  H   UNL     1      -3.063   3.155   2.791  1.00  0.00     0.164 HD
BRANCH   8  11
ATOM     11  C   UNL     1      -3.930   4.469   1.324  1.00  0.00     0.140 C 
BRANCH  11  12
ATOM     12  C   UNL     1      -2.628   4.405   0.521  1.00  0.00     0.091 C 
ATOM     13  S   UNL     1      -2.667   4.268  -1.222  1.00  0.00    -0.106 SA
ATOM     14  C   UNL     1      -0.898   4.622  -1.301  1.00  0.00     0.113 C 
ATOM     15  N   UNL     1      -1.467   4.375   1.095  1.00  0.00    -0.267 NA
ATOM     16  C   UNL     1      -0.390   4.204   0.070  1.00  0.00     0.205 CG0
ATOM     17  G   UNL     1       0.116   2.753   0.043  1.00  0.00     0.000 G0
ENDBRANCH  11  12
BRANCH  11  18
ATOM     18  C   UNL     1      -5.180   3.831   0.665  1.00  0.00     0.015 C 
ATOM     19  C   UNL     1      -5.376   2.395   1.169  1.00  0.00     0.010 C 
BRANCH  18  20
ATOM     20  C   UNL     1      -6.474   4.658   0.801  1.00  0.00     0.002 C 
ATOM     21  C   UNL     1      -7.723   3.879   0.402  1.00  0.00     0.004 C 
ENDBRANCH  18  20
ENDBRANCH  11  18
ENDBRANCH   8  11
ENDBRANCH   3   7
ENDBRANCH   1   2
BRANCH   1  22
ATOM     22  N   UNL     1      -1.426   0.468   4.998  1.00  0.00    -0.348 N 
ATOM     23  C   UNL     1      -2.386  -0.237   4.325  1.00  0.00     0.249 C 
ATOM     24  O   UNL     1      -3.542  -0.344   4.719  1.00  0.00    -0.272 OA
ATOM     25  H   UNL     1      -0.493   0.478   4.587  1.00  0.00     0.163 HD
BRANCH  23  26
ATOM     26  C   UNL     1      -1.876  -0.821   2.999  1.00  0.00     0.238 C 
ATOM     27  N   UNL     1      -1.337   0.279   2.152  1.00  0.00    -0.236 NA
ATOM     28  C   UNL     1      -0.715  -1.779   3.209  1.00  0.00     0.206 C 
ATOM     29  C   UNL     1      -0.058   0.047   2.141  1.00  0.00     0.208 C 
ATOM     30  O   UNL     1       0.430  -1.028   2.807  1.00  0.00    -0.474 OA
ATOM     31  C   UNL     1      -0.815  -3.020   2.333  1.00  0.00     0.056 C 
BRANCH  29  32
ATOM     32  C   UNL     1       1.012   0.910   1.478  1.00  0.00     0.171 C 
BRANCH  32  33
ATOM     33  N   UNL     1       0.533   2.268   1.278  1.00  0.00    -0.342 N 
ATOM     34  C   UNL     1       0.157   2.748   0.046  1.00  0.00     0.246 CG0
ATOM     35  O   UNL     1       0.219   2.078  -0.981  1.00  0.00    -0.273 OA
ATOM     36  H   UNL     1       0.496   2.929   2.047  1.00  0.00     0.164 HD
ATOM     37  G   UNL     1      -0.375   4.190   0.059  1.00  0.00     0.000 G0
ENDBRANCH  32  33
BRANCH  32  38
ATOM     38  C   UNL     1       2.332   0.858   2.292  1.00  0.00     0.017 C 
ATOM     39  C   UNL     1       3.532   0.755   1.342  1.00  0.00     0.010 C 
BRANCH  38  40
ATOM     40  C   UNL     1       2.482   2.043   3.273  1.00  0.00     0.002 C 
ATOM     41  C   UNL     1       1.940   1.753   4.667  1.00  0.00     0.004 C 
ENDBRANCH  38  40
ENDBRANCH  32  38
ENDBRANCH  29  32
ENDBRANCH  23  26
ENDBRANCH   1  22
TORSDOF 4
ENDMDL
MODEL 8
REMARK VINA RESULT:    -5.508      2.922      6.063
REMARK INTER + INTRA:         -11.175
REMARK INTER:                 -10.153
REMARK INTRA:                  -1.022
REMARK UNBOUND:                -1.804
REMARK SMILES CC[C@H](C)[C@@H]1NC(=O)[C@H]2CSC(=N2)[C@@H]([C@@H](C)CC)NC(=O)c2csc(n2)CNC(=O)[C@H]2N=C1O[C@@H]2C
REMARK SMILES IDX 27 1 25 2 22 3 26 4 23 5 24 6 20 7 19 8 21 9 14 11 12 12
REMARK SMILES IDX 11 13 10 14 13 15 9 16 15 18 16 19 17 20 18 21 28 22 29 23
REMARK SMILES IDX 30 24 31 26 32 27 35 28 33 29 34 30 36 31 5 32 6 33 7 34
REMARK SMILES IDX 8 35 3 38 4 39 2 40 1 41
REMARK H PARENT 19 10 28 25 6 36
REMARK Flexibility Score:   91.900
ROOT
ATOM      1  C   UNL     1      -3.494   4.002   5.555  1.00  0.00     0.183 C 
ENDROOT
BRANCH   1   2
ATOM      2  C   UNL     1      -2.558   2.865   5.261  1.00  0.00     0.113 A 
ATOM      3  C   UNL     1      -1.438   1.335   4.090  1.00  0.00     0.139 A 
ATOM      4  N   UNL     1      -2.229   2.485   4.040  1.00  0.00    -0.234 NA
ATOM      5  C   UNL     1      -1.136   0.903   5.366  1.00  0.00     0.101 A 
ATOM      6  S   UNL     1      -1.871   1.932   6.528  1.00  0.00    -0.125 S 
BRANCH   3   7
ATOM      7  C   UNL     1      -1.033   0.671   2.849  1.00  0.00     0.271 C 
ATOM      8  N   UNL     1      -0.100   1.407   2.162  1.00  0.00    -0.341 N 
ATOM      9  O   UNL     1      -1.501  -0.394   2.464  1.00  0.00    -0.267 OA
ATOM     10  H   UNL     1       0.211   2.262   2.621  1.00  0.00     0.164 HD
BRANCH   8  11
ATOM     11  C   UNL     1       0.352   1.100   0.815  1.00  0.00     0.140 C 
BRANCH  11  12
ATOM     12  C   UNL     1      -0.273   2.125  -0.135  1.00  0.00     0.091 C 
ATOM     13  S   UNL     1      -0.573   3.763   0.398  1.00  0.00    -0.106 SA
ATOM     14  C   UNL     1      -0.907   4.269  -1.303  1.00  0.00     0.113 C 
ATOM     15  N   UNL     1      -0.668   1.805  -1.328  1.00  0.00    -0.267 NA
ATOM     16  C   UNL     1      -1.333   2.976  -1.981  1.00  0.00     0.205 CG0
ATOM     17  G   UNL     1      -2.863   2.824  -1.951  1.00  0.00     0.000 G0
ENDBRANCH  11  12
BRANCH  11  18
ATOM     18  C   UNL     1       1.884   0.895   0.696  1.00  0.00     0.015 C 
ATOM     19  C   UNL     1       2.589   1.370   1.974  1.00  0.00     0.010 C 
BRANCH  18  20
ATOM     20  C   UNL     1       2.316  -0.535   0.312  1.00  0.00     0.002 C 
ATOM     21  C   UNL     1       2.871  -1.325   1.492  1.00  0.00     0.004 C 
ENDBRANCH  18  20
ENDBRANCH  11  18
ENDBRANCH   8  11
ENDBRANCH   3   7
ENDBRANCH   1   2
BRANCH   1  22
ATOM     22  N   UNL     1      -4.032   4.457   4.292  1.00  0.00    -0.348 N 
ATOM     23  C   UNL     1      -5.218   4.038   3.754  1.00  0.00     0.249 C 
ATOM     24  O   UNL     1      -5.994   3.289   4.337  1.00  0.00    -0.272 OA
ATOM     25  H   UNL     1      -3.457   5.067   3.712  1.00  0.00     0.163 HD
BRANCH  23  26
ATOM     26  C   UNL     1      -5.497   4.655   2.375  1.00  0.00     0.238 C 
ATOM     27  N   UNL     1      -4.547   4.083   1.380  1.00  0.00    -0.236 NA
ATOM     28  C   UNL     1      -6.883   4.301   1.863  1.00  0.00     0.206 C 
ATOM     29  C   UNL     1      -5.311   3.352   0.625  1.00  0.00     0.208 C 
ATOM     30  O   UNL     1      -6.642   3.300   0.875  1.00  0.00    -0.474 OA
ATOM     31  C   UNL     1      -7.580   5.481   1.200  1.00  0.00     0.056 C 
BRANCH  29  32
ATOM     32  C   UNL     1      -4.857   2.465  -0.531  1.00  0.00     0.171 C 
BRANCH  32  33
ATOM     33  N   UNL     1      -3.424   2.590  -0.751  1.00  0.00    -0.342 N 
ATOM     34  C   UNL     1      -2.882   2.818  -1.993  1.00  0.00     0.246 CG0
ATOM     35  O   UNL     1      -3.559   2.908  -3.014  1.00  0.00    -0.273 OA
ATOM     36  H   UNL     1      -2.765   2.474   0.012  1.00  0.00     0.164 HD
ATOM     37  G   UNL     1      -1.353   2.977  -2.000  1.00  0.00     0.000 G0
ENDBRANCH  32  33
BRANCH  32  38
ATOM     38  C   UNL     1      -5.296   0.996  -0.293  1.00  0.00     0.017 C 
ATOM     39  C   UNL     1      -4.912   0.555   1.124  1.00  0.00     0.010 C 
BRANCH  38  40
ATOM     40  C   UNL     1      -6.799   0.764  -0.574  1.00  0.00     0.002 C 
ATOM     41  C   UNL     1      -7.193  -0.707  -0.598  1.00  0.00     0.004 C 
ENDBRANCH  38  40
ENDBRANCH  32  38
ENDBRANCH  29  32
ENDBRANCH  23  26
ENDBRANCH   1  22
TORSDOF 4
ENDMDL
MODEL 9
REMARK VINA RESULT:    -5.335      2.301      3.843
REMARK INTER + INTRA:         -10.882
REMARK INTER:                  -9.805
REMARK INTRA:                  -1.078
REMARK UNBOUND:                -1.804
REMARK SMILES CC[C@H](C)[C@@H]1NC(=O)[C@H]2CSC(=N2)[C@@H]([C@@H](C)CC)NC(=O)c2csc(n2)CNC(=O)[C@H]2N=C1O[C@@H]2C
REMARK SMILES IDX 27 1 25 2 22 3 26 4 23 5 24 6 20 7 19 8 21 9 14 11 12 12
REMARK SMILES IDX 11 13 10 14 13 15 9 16 15 18 16 19 17 20 18 21 28 22 29 23
REMARK SMILES IDX 30 24 31 26 32 27 35 28 33 29 34 30 36 31 5 32 6 33 7 34
REMARK SMILES IDX 8 35 3 38 4 39 2 40 1 41
REMARK H PARENT 19 10 28 25 6 36
REMARK Flexibility Score:   91.900
ROOT
ATOM      1  C   UNL     1       1.071   0.853   2.738  1.00  0.00     0.183 C 
ENDROOT
BRANCH   1   2
ATOM      2  C   UNL     1       0.109   0.999   3.882  1.00  0.00     0.113 A 
ATOM      3  C   UNL     1      -1.618   1.754   5.070  1.00  0.00     0.139 A 
ATOM      4  N   UNL     1      -0.996   1.718   3.820  1.00  0.00    -0.234 NA
ATOM      5  C   UNL     1      -0.989   1.003   6.044  1.00  0.00     0.101 A 
ATOM      6  S   UNL     1       0.416   0.258   5.400  1.00  0.00    -0.125 S 
BRANCH   3   7
ATOM      7  C   UNL     1      -2.814   2.576   5.271  1.00  0.00     0.271 C 
ATOM      8  N   UNL     1      -3.840   2.186   4.446  1.00  0.00    -0.341 N 
ATOM      9  O   UNL     1      -2.870   3.515   6.054  1.00  0.00    -0.267 OA
ATOM     10  H   UNL     1      -3.652   1.370   3.864  1.00  0.00     0.164 HD
BRANCH   8  11
ATOM     11  C   UNL     1      -5.082   2.923   4.283  1.00  0.00     0.140 C 
BRANCH  11  12
ATOM     12  C   UNL     1      -5.710   2.496   2.953  1.00  0.00     0.091 C 
ATOM     13  S   UNL     1      -6.559   0.974   2.820  1.00  0.00    -0.106 SA
ATOM     14  C   UNL     1      -7.208   1.462   1.207  1.00  0.00     0.113 C 
ATOM     15  N   UNL     1      -5.575   3.200   1.873  1.00  0.00    -0.267 NA
ATOM     16  C   UNL     1      -6.199   2.487   0.714  1.00  0.00     0.205 CG0
ATOM     17  G   UNL     1      -5.126   1.817  -0.160  1.00  0.00     0.000 G0
ENDBRANCH  11  12
BRANCH  11  18
ATOM     18  C   UNL     1      -6.008   2.883   5.526  1.00  0.00     0.015 C 
ATOM     19  C   UNL     1      -7.337   3.588   5.226  1.00  0.00     0.010 C 
BRANCH  18  20
ATOM     20  C   UNL     1      -6.236   1.476   6.114  1.00  0.00     0.002 C 
ATOM     21  C   UNL     1      -7.242   1.466   7.260  1.00  0.00     0.004 C 
ENDBRANCH  18  20
ENDBRANCH  11  18
ENDBRANCH   8  11
ENDBRANCH   3   7
ENDBRANCH   1   2
BRANCH   1  22
ATOM     22  N   UNL     1       0.607   1.711   1.670  1.00  0.00    -0.348 N 
ATOM     23  C   UNL     1       0.534   1.346   0.353  1.00  0.00     0.249 C 
ATOM     24  O   UNL     1       0.778   0.213  -0.046  1.00  0.00    -0.272 OA
ATOM     25  H   UNL     1       0.398   2.684   1.888  1.00  0.00     0.163 HD
BRANCH  23  26
ATOM     26  C   UNL     1       0.056   2.490  -0.555  1.00  0.00     0.238 C 
ATOM     27  N   UNL     1      -0.878   1.945  -1.580  1.00  0.00    -0.236 NA
ATOM     28  C   UNL     1      -0.743   3.529   0.212  1.00  0.00     0.206 C 
ATOM     29  C   UNL     1      -2.026   2.445  -1.232  1.00  0.00     0.208 C 
ATOM     30  O   UNL     1      -2.097   3.265  -0.155  1.00  0.00    -0.474 OA
ATOM     31  C   UNL     1      -0.396   4.953  -0.200  1.00  0.00     0.056 C 
BRANCH  29  32
ATOM     32  C   UNL     1      -3.372   2.162  -1.892  1.00  0.00     0.171 C 
BRANCH  32  33
ATOM     33  N   UNL     1      -4.468   2.622  -1.053  1.00  0.00    -0.342 N 
ATOM     34  C   UNL     1      -5.117   1.798  -0.164  1.00  0.00     0.246 CG0
ATOM     35  O   UNL     1      -4.840   0.609  -0.028  1.00  0.00    -0.273 OA
ATOM     36  H   UNL     1      -4.821   3.570  -1.124  1.00  0.00     0.164 HD
ATOM     37  G   UNL     1      -6.206   2.493   0.669  1.00  0.00     0.000 G0
ENDBRANCH  32  33
BRANCH  32  38
ATOM     38  C   UNL     1      -3.417   2.774  -3.317  1.00  0.00     0.017 C 
ATOM     39  C   UNL     1      -4.858   3.151  -3.683  1.00  0.00     0.010 C 
BRANCH  38  40
ATOM     40  C   UNL     1      -2.454   3.971  -3.489  1.00  0.00     0.002 C 
ATOM     41  C   UNL     1      -2.190   4.336  -4.944  1.00  0.00     0.004 C 
ENDBRANCH  38  40
ENDBRANCH  32  38
ENDBRANCH  29  32
ENDBRANCH  23  26
ENDBRANCH   1  22
TORSDOF 4
ENDMDL
MODEL 10
REMARK VINA RESULT:    -5.215      2.255      5.494
REMARK INTER + INTRA:         -10.678
REMARK INTER:                  -9.331
REMARK INTRA:                  -1.347
REMARK UNBOUND:                -1.804
REMARK SMILES CC[C@H](C)[C@@H]1NC(=O)[C@H]2CSC(=N2)[C@@H]([C@@H](C)CC)NC(=O)c2csc(n2)CNC(=O)[C@H]2N=C1O[C@@H]2C
REMARK SMILES IDX 27 1 25 2 22 3 26 4 23 5 24 6 20 7 19 8 21 9 14 11 12 12
REMARK SMILES IDX 11 13 10 14 13 15 9 16 15 18 16 19 17 20 18 21 28 22 29 23
REMARK SMILES IDX 30 24 31 26 32 27 35 28 33 29 34 30 36 31 5 32 6 33 7 34
REMARK SMILES IDX 8 35 3 38 4 39 2 40 1 41
REMARK H PARENT 19 10 28 25 6 36
REMARK Flexibility Score:   91.900
ROOT
ATOM      1  C   UNL     1      -6.061   1.916   3.557  1.00  0.00     0.183 C 
ENDROOT
BRANCH   1   2
ATOM      2  C   UNL     1      -5.343   1.969   4.875  1.00  0.00     0.113 A 
ATOM      3  C   UNL     1      -3.721   1.692   6.378  1.00  0.00     0.139 A 
ATOM      4  N   UNL     1      -4.069   1.657   5.026  1.00  0.00    -0.234 NA
ATOM      5  C   UNL     1      -4.740   2.092   7.220  1.00  0.00     0.101 A 
ATOM      6  S   UNL     1      -6.165   2.405   6.317  1.00  0.00    -0.125 S 
BRANCH   3   7
ATOM      7  C   UNL     1      -2.379   1.285   6.800  1.00  0.00     0.271 C 
ATOM      8  N   UNL     1      -1.408   1.835   5.999  1.00  0.00    -0.341 N 
ATOM      9  O   UNL     1      -2.161   0.521   7.732  1.00  0.00    -0.267 OA
ATOM     10  H   UNL     1      -1.741   2.471   5.276  1.00  0.00     0.164 HD
BRANCH   8  11
ATOM     11  C   UNL     1      -0.002   1.470   6.053  1.00  0.00     0.140 C 
BRANCH  11  12
ATOM     12  C   UNL     1       0.431   1.059   4.642  1.00  0.00     0.091 C 
ATOM     13  S   UNL     1       2.124   1.032   4.206  1.00  0.00    -0.106 SA
ATOM     14  C   UNL     1       1.729   0.154   2.679  1.00  0.00     0.113 C 
ATOM     15  N   UNL     1      -0.429   0.792   3.711  1.00  0.00    -0.267 NA
ATOM     16  C   UNL     1       0.279   0.530   2.418  1.00  0.00     0.205 CG0
ATOM     17  G   UNL     1       0.192   1.750   1.487  1.00  0.00     0.000 G0
ENDBRANCH  11  12
BRANCH  11  18
ATOM     18  C   UNL     1       0.893   2.512   6.772  1.00  0.00     0.015 C 
ATOM     19  C   UNL     1       0.027   3.574   7.463  1.00  0.00     0.010 C 
BRANCH  18  20
ATOM     20  C   UNL     1       1.929   1.911   7.743  1.00  0.00     0.002 C 
ATOM     21  C   UNL     1       1.348   0.818   8.632  1.00  0.00     0.004 C 
ENDBRANCH  18  20
ENDBRANCH  11  18
ENDBRANCH   8  11
ENDBRANCH   3   7
ENDBRANCH   1   2
BRANCH   1  22
ATOM     22  N   UNL     1      -5.427   2.875   2.680  1.00  0.00    -0.348 N 
ATOM     23  C   UNL     1      -5.711   3.021   1.349  1.00  0.00     0.249 C 
ATOM     24  O   UNL     1      -6.603   2.402   0.780  1.00  0.00    -0.272 OA
ATOM     25  H   UNL     1      -4.653   3.429   3.046  1.00  0.00     0.163 HD
BRANCH  23  26
ATOM     26  C   UNL     1      -4.835   4.083   0.667  1.00  0.00     0.238 C 
ATOM     27  N   UNL     1      -3.433   3.949   1.151  1.00  0.00    -0.236 NA
ATOM     28  C   UNL     1      -4.767   3.883  -0.838  1.00  0.00     0.206 C 
ATOM     29  C   UNL     1      -2.798   3.510   0.105  1.00  0.00     0.208 C 
ATOM     30  O   UNL     1      -3.475   3.318  -1.054  1.00  0.00    -0.474 OA
ATOM     31  C   UNL     1      -4.859   5.194  -1.607  1.00  0.00     0.056 C 
BRANCH  29  32
ATOM     32  C   UNL     1      -1.324   3.120   0.040  1.00  0.00     0.171 C 
BRANCH  32  33
ATOM     33  N   UNL     1      -1.047   1.989   0.912  1.00  0.00    -0.342 N 
ATOM     34  C   UNL     1       0.194   1.761   1.457  1.00  0.00     0.246 CG0
ATOM     35  O   UNL     1       1.167   2.475   1.232  1.00  0.00    -0.273 OA
ATOM     36  H   UNL     1      -1.762   1.300   1.120  1.00  0.00     0.164 HD
ATOM     37  G   UNL     1       0.262   0.546   2.398  1.00  0.00     0.000 G0
ENDBRANCH  32  33
BRANCH  32  38
ATOM     38  C   UNL     1      -0.896   2.858  -1.428  1.00  0.00     0.017 C 
ATOM     39  C   UNL     1       0.265   3.784  -1.812  1.00  0.00     0.010 C 
BRANCH  38  40
ATOM     40  C   UNL     1      -0.555   1.375  -1.701  1.00  0.00     0.002 C 
ATOM     41  C   UNL     1       0.896   1.147  -2.101  1.00  0.00     0.004 C 
ENDBRANCH  38  40
ENDBRANCH  32  38
ENDBRANCH  29  32
ENDBRANCH  23  26
ENDBRANCH   1  22
TORSDOF 4
ENDMDL
MODEL 11
REMARK VINA RESULT:    -5.194      1.765      2.358
REMARK INTER + INTRA:         -10.642
REMARK INTER:                  -9.442
REMARK INTRA:                  -1.200
REMARK UNBOUND:                -1.804
REMARK SMILES CC[C@H](C)[C@@H]1NC(=O)[C@H]2CSC(=N2)[C@@H]([C@@H](C)CC)NC(=O)c2csc(n2)CNC(=O)[C@H]2N=C1O[C@@H]2C
REMARK SMILES IDX 27 1 25 2 22 3 26 4 23 5 24 6 20 7 19 8 21 9 14 11 12 12
REMARK SMILES IDX 11 13 10 14 13 15 9 16 15 18 16 19 17 20 18 21 28 22 29 23
REMARK SMILES IDX 30 24 31 26 32 27 35 28 33 29 34 30 36 31 5 32 6 33 7 34
REMARK SMILES IDX 8 35 3 38 4 39 2 40 1 41
REMARK H PARENT 19 10 28 25 6 36
REMARK Flexibility Score:   91.900
ROOT
ATOM      1  C   UNL     1       1.557   0.561   0.488  1.00  0.00     0.183 C 
ENDROOT
BRANCH   1   2
ATOM      2  C   UNL     1       1.078   0.345   1.895  1.00  0.00     0.113 A 
ATOM      3  C   UNL     1      -0.008   0.710   3.807  1.00  0.00     0.139 A 
ATOM      4  N   UNL     1       0.136   1.073   2.466  1.00  0.00    -0.234 NA
ATOM      5  C   UNL     1       0.799  -0.338   4.205  1.00  0.00     0.101 A 
ATOM      6  S   UNL     1       1.774  -0.864   2.894  1.00  0.00    -0.125 S 
BRANCH   3   7
ATOM      7  C   UNL     1      -0.929   1.450   4.672  1.00  0.00     0.271 C 
ATOM      8  N   UNL     1      -2.227   1.345   4.237  1.00  0.00    -0.341 N 
ATOM      9  O   UNL     1      -0.571   2.107   5.642  1.00  0.00    -0.267 OA
ATOM     10  H   UNL     1      -2.373   0.743   3.428  1.00  0.00     0.164 HD
BRANCH   8  11
ATOM     11  C   UNL     1      -3.334   2.117   4.777  1.00  0.00     0.140 C 
BRANCH  11  12
ATOM     12  C   UNL     1      -4.532   1.940   3.839  1.00  0.00     0.091 C 
ATOM     13  S   UNL     1      -5.493   0.481   3.892  1.00  0.00    -0.106 SA
ATOM     14  C   UNL     1      -6.747   1.255   2.849  1.00  0.00     0.113 C 
ATOM     15  N   UNL     1      -4.829   2.818   2.933  1.00  0.00    -0.267 NA
ATOM     16  C   UNL     1      -5.974   2.330   2.101  1.00  0.00     0.205 CG0
ATOM     17  G   UNL     1      -5.479   1.800   0.745  1.00  0.00     0.000 G0
ENDBRANCH  11  12
BRANCH  11  18
ATOM     18  C   UNL     1      -3.598   1.870   6.285  1.00  0.00     0.015 C 
ATOM     19  C   UNL     1      -4.862   2.615   6.736  1.00  0.00     0.010 C 
BRANCH  18  20
ATOM     20  C   UNL     1      -3.642   0.385   6.697  1.00  0.00     0.002 C 
ATOM     21  C   UNL     1      -4.976  -0.022   7.315  1.00  0.00     0.004 C 
ENDBRANCH  18  20
ENDBRANCH  11  18
ENDBRANCH   8  11
ENDBRANCH   3   7
ENDBRANCH   1   2
BRANCH   1  22
ATOM     22  N   UNL     1       0.707   1.567  -0.109  1.00  0.00    -0.348 N 
ATOM     23  C   UNL     1       0.254   1.539  -1.400  1.00  0.00     0.249 C 
ATOM     24  O   UNL     1       0.458   0.602  -2.164  1.00  0.00    -0.272 OA
ATOM     25  H   UNL     1       0.493   2.404   0.432  1.00  0.00     0.163 HD
BRANCH  23  26
ATOM     26  C   UNL     1      -0.583   2.774  -1.764  1.00  0.00     0.238 C 
ATOM     27  N   UNL     1      -1.905   2.333  -2.290  1.00  0.00    -0.236 NA
ATOM     28  C   UNL     1      -0.894   3.629  -0.548  1.00  0.00     0.206 C 
ATOM     29  C   UNL     1      -2.733   2.698  -1.357  1.00  0.00     0.208 C 
ATOM     30  O   UNL     1      -2.261   3.337  -0.259  1.00  0.00    -0.474 OA
ATOM     31  C   UNL     1      -0.765   5.120  -0.833  1.00  0.00     0.056 C 
BRANCH  29  32
ATOM     32  C   UNL     1      -4.236   2.433  -1.328  1.00  0.00     0.171 C 
BRANCH  32  33
ATOM     33  N   UNL     1      -4.791   2.735  -0.018  1.00  0.00    -0.342 N 
ATOM     34  C   UNL     1      -5.504   1.816   0.715  1.00  0.00     0.246 CG0
ATOM     35  O   UNL     1      -5.749   0.682   0.311  1.00  0.00    -0.273 OA
ATOM     36  H   UNL     1      -4.701   3.660   0.389  1.00  0.00     0.164 HD
ATOM     37  G   UNL     1      -5.953   2.315   2.098  1.00  0.00     0.000 G0
ENDBRANCH  32  33
BRANCH  32  38
ATOM     38  C   UNL     1      -4.946   3.208  -2.468  1.00  0.00     0.017 C 
ATOM     39  C   UNL     1      -6.364   2.659  -2.676  1.00  0.00     0.010 C 
BRANCH  38  40
ATOM     40  C   UNL     1      -4.956   4.738  -2.242  1.00  0.00     0.002 C 
ATOM     41  C   UNL     1      -6.289   5.270  -1.732  1.00  0.00     0.004 C 
ENDBRANCH  38  40
ENDBRANCH  32  38
ENDBRANCH  29  32
ENDBRANCH  23  26
ENDBRANCH   1  22
TORSDOF 4
ENDMDL
MODEL 12
REMARK VINA RESULT:    -5.088      5.725      8.764
REMARK INTER + INTRA:         -10.462
REMARK INTER:                  -8.931
REMARK INTRA:                  -1.531
REMARK UNBOUND:                -1.804
REMARK SMILES CC[C@H](C)[C@@H]1NC(=O)[C@H]2CSC(=N2)[C@@H]([C@@H](C)CC)NC(=O)c2csc(n2)CNC(=O)[C@H]2N=C1O[C@@H]2C
REMARK SMILES IDX 27 1 25 2 22 3 26 4 23 5 24 6 20 7 19 8 21 9 14 11 12 12
REMARK SMILES IDX 11 13 10 14 13 15 9 16 15 18 16 19 17 20 18 21 28 22 29 23
REMARK SMILES IDX 30 24 31 26 32 27 35 28 33 29 34 30 36 31 5 32 6 33 7 34
REMARK SMILES IDX 8 35 3 38 4 39 2 40 1 41
REMARK H PARENT 19 10 28 25 6 36
REMARK Flexibility Score:   91.900
ROOT
ATOM      1  C   UNL     1      -5.438   1.004  -6.871  1.00  0.00     0.183 C 
ENDROOT
BRANCH   1   2
ATOM      2  C   UNL     1      -4.492   1.969  -6.216  1.00  0.00     0.113 A 
ATOM      3  C   UNL     1      -3.578   3.242  -4.631  1.00  0.00     0.139 A 
ATOM      4  N   UNL     1      -4.488   2.223  -4.920  1.00  0.00    -0.234 NA
ATOM      5  C   UNL     1      -2.865   3.698  -5.722  1.00  0.00     0.101 A 
ATOM      6  S   UNL     1      -3.353   2.861  -7.139  1.00  0.00    -0.125 S 
BRANCH   3   7
ATOM      7  C   UNL     1      -3.472   3.765  -3.267  1.00  0.00     0.271 C 
ATOM      8  N   UNL     1      -3.997   2.890  -2.348  1.00  0.00    -0.341 N 
ATOM      9  O   UNL     1      -3.002   4.862  -2.993  1.00  0.00    -0.267 OA
ATOM     10  H   UNL     1      -4.331   2.003  -2.724  1.00  0.00     0.164 HD
BRANCH   8  11
ATOM     11  C   UNL     1      -4.204   3.207  -0.944  1.00  0.00     0.140 C 
BRANCH  11  12
ATOM     12  C   UNL     1      -5.391   2.378  -0.445  1.00  0.00     0.091 C 
ATOM     13  S   UNL     1      -5.129   0.934   0.505  1.00  0.00    -0.106 SA
ATOM     14  C   UNL     1      -6.886   0.870   0.916  1.00  0.00     0.113 C 
ATOM     15  N   UNL     1      -6.613   2.666  -0.765  1.00  0.00    -0.267 NA
ATOM     16  C   UNL     1      -7.545   1.626  -0.227  1.00  0.00     0.205 CG0
ATOM     17  G   UNL     1      -7.987   0.658  -1.336  1.00  0.00     0.000 G0
ENDBRANCH  11  12
BRANCH  11  18
ATOM     18  C   UNL     1      -2.913   3.147  -0.088  1.00  0.00     0.015 C 
ATOM     19  C   UNL     1      -1.859   2.265  -0.770  1.00  0.00     0.010 C 
BRANCH  18  20
ATOM     20  C   UNL     1      -2.332   4.522   0.300  1.00  0.00     0.002 C 
ATOM     21  C   UNL     1      -0.839   4.638   0.017  1.00  0.00     0.004 C 
ENDBRANCH  18  20
ENDBRANCH  11  18
ENDBRANCH   8  11
ENDBRANCH   3   7
ENDBRANCH   1   2
BRANCH   1  22
ATOM     22  N   UNL     1      -6.774   1.347  -6.439  1.00  0.00    -0.348 N 
ATOM     23  C   UNL     1      -7.903   1.188  -7.195  1.00  0.00     0.249 C 
ATOM     24  O   UNL     1      -7.903   0.653  -8.298  1.00  0.00    -0.272 OA
ATOM     25  H   UNL     1      -6.887   1.820  -5.543  1.00  0.00     0.163 HD
BRANCH  23  26
ATOM     26  C   UNL     1      -9.170   1.694  -6.489  1.00  0.00     0.238 C 
ATOM     27  N   UNL     1      -9.701   0.619  -5.605  1.00  0.00    -0.236 NA
ATOM     28  C   UNL     1      -8.878   2.868  -5.571  1.00  0.00     0.206 C 
ATOM     29  C   UNL     1      -9.484   1.082  -4.410  1.00  0.00     0.208 C 
ATOM     30  O   UNL     1      -8.910   2.302  -4.262  1.00  0.00    -0.474 OA
ATOM     31  C   UNL     1      -9.941   3.955  -5.656  1.00  0.00     0.056 C 
BRANCH  29  32
ATOM     32  C   UNL     1      -9.766   0.361  -3.095  1.00  0.00     0.171 C 
BRANCH  32  33
ATOM     33  N   UNL     1      -9.183   1.079  -1.973  1.00  0.00    -0.342 N 
ATOM     34  C   UNL     1      -8.028   0.669  -1.349  1.00  0.00     0.246 CG0
ATOM     35  O   UNL     1      -7.416  -0.345  -1.673  1.00  0.00    -0.273 OA
ATOM     36  H   UNL     1      -9.636   1.899  -1.583  1.00  0.00     0.164 HD
ATOM     37  G   UNL     1      -7.547   1.600  -0.224  1.00  0.00     0.000 G0
ENDBRANCH  32  33
BRANCH  32  38
ATOM     38  C   UNL     1     -11.289   0.122  -2.922  1.00  0.00     0.017 C 
ATOM     39  C   UNL     1     -11.617  -1.362  -3.127  1.00  0.00     0.010 C 
BRANCH  38  40
ATOM     40  C   UNL     1     -11.831   0.644  -1.571  1.00  0.00     0.002 C 
ATOM     41  C   UNL     1     -13.012   1.595  -1.715  1.00  0.00     0.004 C 
ENDBRANCH  38  40
ENDBRANCH  32  38
ENDBRANCH  29  32
ENDBRANCH  23  26
ENDBRANCH   1  22
TORSDOF 4
ENDMDL
MODEL 13
REMARK VINA RESULT:    -4.999      3.965      8.178
REMARK INTER + INTRA:         -10.310
REMARK INTER:                  -8.413
REMARK INTRA:                  -1.897
REMARK UNBOUND:                -1.804
REMARK SMILES CC[C@H](C)[C@@H]1NC(=O)[C@H]2CSC(=N2)[C@@H]([C@@H](C)CC)NC(=O)c2csc(n2)CNC(=O)[C@H]2N=C1O[C@@H]2C
REMARK SMILES IDX 27 1 25 2 22 3 26 4 23 5 24 6 20 7 19 8 21 9 14 11 12 12
REMARK SMILES IDX 11 13 10 14 13 15 9 16 15 18 16 19 17 20 18 21 28 22 29 23
REMARK SMILES IDX 30 24 31 26 32 27 35 28 33 29 34 30 36 31 5 32 6 33 7 34
REMARK SMILES IDX 8 35 3 38 4 39 2 40 1 41
REMARK H PARENT 19 10 28 25 6 36
REMARK Flexibility Score:   91.900
ROOT
ATOM      1  C   UNL     1      -2.309   2.762  -1.172  1.00  0.00     0.183 C 
ENDROOT
BRANCH   1   2
ATOM      2  C   UNL     1      -3.620   2.585  -1.881  1.00  0.00     0.113 A 
ATOM      3  C   UNL     1      -5.530   1.633  -2.526  1.00  0.00     0.139 A 
ATOM      4  N   UNL     1      -4.457   1.594  -1.633  1.00  0.00    -0.234 NA
ATOM      5  C   UNL     1      -5.506   2.701  -3.402  1.00  0.00     0.101 A 
ATOM      6  S   UNL     1      -4.110   3.661  -3.125  1.00  0.00    -0.125 S 
BRANCH   3   7
ATOM      7  C   UNL     1      -6.538   0.571  -2.508  1.00  0.00     0.271 C 
ATOM      8  N   UNL     1      -7.720   1.006  -1.960  1.00  0.00    -0.341 N 
ATOM      9  O   UNL     1      -6.333  -0.569  -2.903  1.00  0.00    -0.267 OA
ATOM     10  H   UNL     1      -7.748   1.991  -1.697  1.00  0.00     0.164 HD
BRANCH   8  11
ATOM     11  C   UNL     1      -8.839   0.137  -1.636  1.00  0.00     0.140 C 
BRANCH  11  12
ATOM     12  C   UNL     1      -9.089   0.233  -0.129  1.00  0.00     0.091 C 
ATOM     13  S   UNL     1     -10.514   1.038   0.486  1.00  0.00    -0.106 SA
ATOM     14  C   UNL     1     -10.189   0.381   2.136  1.00  0.00     0.113 C 
ATOM     15  N   UNL     1      -8.231  -0.205   0.739  1.00  0.00    -0.267 NA
ATOM     16  C   UNL     1      -8.691   0.120   2.126  1.00  0.00     0.205 CG0
ATOM     17  G   UNL     1      -7.924   1.328   2.688  1.00  0.00     0.000 G0
ENDBRANCH  11  12
BRANCH  11  18
ATOM     18  C   UNL     1     -10.074   0.332  -2.553  1.00  0.00     0.015 C 
ATOM     19  C   UNL     1      -9.883   1.560  -3.454  1.00  0.00     0.010 C 
BRANCH  18  20
ATOM     20  C   UNL     1     -10.471  -0.912  -3.373  1.00  0.00     0.002 C 
ATOM     21  C   UNL     1     -11.963  -1.220  -3.304  1.00  0.00     0.004 C 
ENDBRANCH  18  20
ENDBRANCH  11  18
ENDBRANCH   8  11
ENDBRANCH   3   7
ENDBRANCH   1   2
BRANCH   1  22
ATOM     22  N   UNL     1      -2.453   2.201   0.153  1.00  0.00    -0.348 N 
ATOM     23  C   UNL     1      -2.196   2.872   1.317  1.00  0.00     0.249 C 
ATOM     24  O   UNL     1      -1.894   4.060   1.355  1.00  0.00    -0.272 OA
ATOM     25  H   UNL     1      -2.679   1.210   0.237  1.00  0.00     0.163 HD
BRANCH  23  26
ATOM     26  C   UNL     1      -2.385   1.996   2.564  1.00  0.00     0.238 C 
ATOM     27  N   UNL     1      -3.441   2.594   3.428  1.00  0.00    -0.236 NA
ATOM     28  C   UNL     1      -2.886   0.606   2.212  1.00  0.00     0.206 C 
ATOM     29  C   UNL     1      -4.422   1.747   3.328  1.00  0.00     0.208 C 
ATOM     30  O   UNL     1      -4.268   0.636   2.567  1.00  0.00    -0.474 OA
ATOM     31  C   UNL     1      -2.199  -0.485   3.022  1.00  0.00     0.056 C 
BRANCH  29  32
ATOM     32  C   UNL     1      -5.806   1.888   3.955  1.00  0.00     0.171 C 
BRANCH  32  33
ATOM     33  N   UNL     1      -6.737   0.930   3.378  1.00  0.00    -0.342 N 
ATOM     34  C   UNL     1      -7.883   1.313   2.722  1.00  0.00     0.246 CG0
ATOM     35  O   UNL     1      -8.221   2.487   2.594  1.00  0.00    -0.273 OA
ATOM     36  H   UNL     1      -6.589  -0.069   3.475  1.00  0.00     0.164 HD
ATOM     37  G   UNL     1      -8.700   0.150   2.135  1.00  0.00     0.000 G0
ENDBRANCH  32  33
BRANCH  32  38
ATOM     38  C   UNL     1      -5.717   1.774   5.499  1.00  0.00     0.017 C 
ATOM     39  C   UNL     1      -6.793   2.649   6.155  1.00  0.00     0.010 C 
BRANCH  38  40
ATOM     40  C   UNL     1      -5.788   0.314   6.001  1.00  0.00     0.002 C 
ATOM     41  C   UNL     1      -4.729  -0.025   7.043  1.00  0.00     0.004 C 
ENDBRANCH  38  40
ENDBRANCH  32  38
ENDBRANCH  29  32
ENDBRANCH  23  26
ENDBRANCH   1  22
TORSDOF 4
ENDMDL
MODEL 14
REMARK VINA RESULT:    -4.994      3.036      7.813
REMARK INTER + INTRA:         -10.302
REMARK INTER:                 -10.421
REMARK INTRA:                   0.119
REMARK UNBOUND:                -1.804
REMARK SMILES CC[C@H](C)[C@@H]1NC(=O)[C@H]2CSC(=N2)[C@@H]([C@@H](C)CC)NC(=O)c2csc(n2)CNC(=O)[C@H]2N=C1O[C@@H]2C
REMARK SMILES IDX 27 1 25 2 22 3 26 4 23 5 24 6 20 7 19 8 21 9 14 11 12 12
REMARK SMILES IDX 11 13 10 14 13 15 9 16 15 18 16 19 17 20 18 21 28 22 29 23
REMARK SMILES IDX 30 24 31 26 32 27 35 28 33 29 34 30 36 31 5 32 6 33 7 34
REMARK SMILES IDX 8 35 3 38 4 39 2 40 1 41
REMARK H PARENT 19 10 28 25 6 36
REMARK Flexibility Score:   91.900
ROOT
ATOM      1  C   UNL     1      -2.192   2.562   5.246  1.00  0.00     0.183 C 
ENDROOT
BRANCH   1   2
ATOM      2  C   UNL     1      -3.362   3.178   4.535  1.00  0.00     0.113 A 
ATOM      3  C   UNL     1      -4.611   3.954   2.861  1.00  0.00     0.139 A 
ATOM      4  N   UNL     1      -3.479   3.220   3.221  1.00  0.00    -0.234 NA
ATOM      5  C   UNL     1      -5.363   4.406   3.928  1.00  0.00     0.101 A 
ATOM      6  S   UNL     1      -4.635   3.930   5.407  1.00  0.00    -0.125 S 
BRANCH   3   7
ATOM      7  C   UNL     1      -4.894   4.220   1.449  1.00  0.00     0.271 C 
ATOM      8  N   UNL     1      -4.178   3.387   0.624  1.00  0.00    -0.341 N 
ATOM      9  O   UNL     1      -5.650   5.101   1.060  1.00  0.00    -0.267 OA
ATOM     10  H   UNL     1      -3.607   2.686   1.094  1.00  0.00     0.164 HD
BRANCH   8  11
ATOM     11  C   UNL     1      -4.105   3.533  -0.821  1.00  0.00     0.140 C 
BRANCH  11  12
ATOM     12  C   UNL     1      -2.631   3.697  -1.202  1.00  0.00     0.091 C 
ATOM     13  S   UNL     1      -2.100   3.397  -2.840  1.00  0.00    -0.106 SA
ATOM     14  C   UNL     1      -0.496   4.139  -2.470  1.00  0.00     0.113 C 
ATOM     15  N   UNL     1      -1.723   3.987  -0.325  1.00  0.00    -0.267 NA
ATOM     16  C   UNL     1      -0.369   3.975  -0.963  1.00  0.00     0.205 CG0
ATOM     17  G   UNL     1       0.389   2.683  -0.619  1.00  0.00     0.000 G0
ENDBRANCH  11  12
BRANCH  11  18
ATOM     18  C   UNL     1      -4.905   2.461  -1.604  1.00  0.00     0.015 C 
ATOM     19  C   UNL     1      -5.375   1.347  -0.658  1.00  0.00     0.010 C 
BRANCH  18  20
ATOM     20  C   UNL     1      -6.071   3.014  -2.447  1.00  0.00     0.002 C 
ATOM     21  C   UNL     1      -6.072   4.536  -2.535  1.00  0.00     0.004 C 
ENDBRANCH  18  20
ENDBRANCH  11  18
ENDBRANCH   8  11
ENDBRANCH   3   7
ENDBRANCH   1   2
BRANCH   1  22
ATOM     22  N   UNL     1      -1.610   1.583   4.355  1.00  0.00    -0.348 N 
ATOM     23  C   UNL     1      -2.165   0.366   4.065  1.00  0.00     0.249 C 
ATOM     24  O   UNL     1      -3.267   0.016   4.472  1.00  0.00    -0.272 OA
ATOM     25  H   UNL     1      -0.681   1.763   3.976  1.00  0.00     0.163 HD
BRANCH  23  26
ATOM     26  C   UNL     1      -1.289  -0.480   3.129  1.00  0.00     0.238 C 
ATOM     27  N   UNL     1      -0.878   0.346   1.960  1.00  0.00    -0.236 NA
ATOM     28  C   UNL     1       0.005  -0.911   3.798  1.00  0.00     0.206 C 
ATOM     29  C   UNL     1       0.397   0.512   2.146  1.00  0.00     0.208 C 
ATOM     30  O   UNL     1       0.993  -0.056   3.224  1.00  0.00    -0.474 OA
ATOM     31  C   UNL     1       0.372  -2.356   3.486  1.00  0.00     0.056 C 
BRANCH  29  32
ATOM     32  C   UNL     1       1.336   1.350   1.283  1.00  0.00     0.171 C 
BRANCH  32  33
ATOM     33  N   UNL     1       0.648   2.514   0.747  1.00  0.00    -0.342 N 
ATOM     34  C   UNL     1       0.426   2.689  -0.598  1.00  0.00     0.246 CG0
ATOM     35  O   UNL     1       0.813   1.892  -1.450  1.00  0.00    -0.273 OA
ATOM     36  H   UNL     1       0.336   3.264   1.354  1.00  0.00     0.164 HD
ATOM     37  G   UNL     1      -0.370   3.955  -0.953  1.00  0.00     0.000 G0
ENDBRANCH  32  33
BRANCH  32  38
ATOM     38  C   UNL     1       2.612   1.729   2.080  1.00  0.00     0.017 C 
ATOM     39  C   UNL     1       2.360   1.574   3.585  1.00  0.00     0.010 C 
BRANCH  38  40
ATOM     40  C   UNL     1       3.862   0.938   1.628  1.00  0.00     0.002 C 
ATOM     41  C   UNL     1       3.605   0.019   0.441  1.00  0.00     0.004 C 
ENDBRANCH  38  40
ENDBRANCH  32  38
ENDBRANCH  29  32
ENDBRANCH  23  26
ENDBRANCH   1  22
TORSDOF 4
ENDMDL
MODEL 15
REMARK VINA RESULT:    -4.981      5.202      8.920
REMARK INTER + INTRA:         -10.280
REMARK INTER:                  -8.684
REMARK INTRA:                  -1.596
REMARK UNBOUND:                -1.804
REMARK SMILES CC[C@H](C)[C@@H]1NC(=O)[C@H]2CSC(=N2)[C@@H]([C@@H](C)CC)NC(=O)c2csc(n2)CNC(=O)[C@H]2N=C1O[C@@H]2C
REMARK SMILES IDX 27 1 25 2 22 3 26 4 23 5 24 6 20 7 19 8 21 9 14 11 12 12
REMARK SMILES IDX 11 13 10 14 13 15 9 16 15 18 16 19 17 20 18 21 28 22 29 23
REMARK SMILES IDX 30 24 31 26 32 27 35 28 33 29 34 30 36 31 5 32 6 33 7 34
REMARK SMILES IDX 8 35 3 38 4 39 2 40 1 41
REMARK H PARENT 19 10 28 25 6 36
REMARK Flexibility Score:   91.900
ROOT
ATOM      1  C   UNL     1      -7.981   0.015   1.238  1.00  0.00     0.183 C 
ENDROOT
BRANCH   1   2
ATOM      2  C   UNL     1      -6.821   0.968   1.265  1.00  0.00     0.113 A 
ATOM      3  C   UNL     1      -4.805   1.811   0.830  1.00  0.00     0.139 A 
ATOM      4  N   UNL     1      -5.756   0.845   0.494  1.00  0.00    -0.234 NA
ATOM      5  C   UNL     1      -5.203   2.687   1.820  1.00  0.00     0.101 A 
ATOM      6  S   UNL     1      -6.782   2.288   2.362  1.00  0.00    -0.125 S 
BRANCH   3   7
ATOM      7  C   UNL     1      -3.495   1.808   0.173  1.00  0.00     0.271 C 
ATOM      8  N   UNL     1      -3.467   2.661  -0.902  1.00  0.00    -0.341 N 
ATOM      9  O   UNL     1      -2.558   1.103   0.527  1.00  0.00    -0.267 OA
ATOM     10  H   UNL     1      -4.318   3.200  -1.060  1.00  0.00     0.164 HD
BRANCH   8  11
ATOM     11  C   UNL     1      -2.374   2.735  -1.858  1.00  0.00     0.140 C 
BRANCH  11  12
ATOM     12  C   UNL     1      -2.981   2.823  -3.261  1.00  0.00     0.091 C 
ATOM     13  S   UNL     1      -2.527   4.117  -4.345  1.00  0.00    -0.106 SA
ATOM     14  C   UNL     1      -3.340   3.270  -5.717  1.00  0.00     0.113 C 
ATOM     15  N   UNL     1      -3.895   1.999  -3.666  1.00  0.00    -0.267 NA
ATOM     16  C   UNL     1      -4.374   2.391  -5.029  1.00  0.00     0.205 CG0
ATOM     17  G   UNL     1      -5.730   3.110  -4.948  1.00  0.00     0.000 G0
ENDBRANCH  11  12
BRANCH  11  18
ATOM     18  C   UNL     1      -1.299   3.796  -1.504  1.00  0.00     0.015 C 
ATOM     19  C   UNL     1      -1.851   4.795  -0.479  1.00  0.00     0.010 C 
BRANCH  18  20
ATOM     20  C   UNL     1       0.056   3.214  -1.052  1.00  0.00     0.002 C 
ATOM     21  C   UNL     1       0.306   1.806  -1.581  1.00  0.00     0.004 C 
ENDBRANCH  18  20
ENDBRANCH  11  18
ENDBRANCH   8  11
ENDBRANCH   3   7
ENDBRANCH   1   2
BRANCH   1  22
ATOM     22  N   UNL     1      -8.635   0.165  -0.043  1.00  0.00    -0.348 N 
ATOM     23  C   UNL     1      -9.490   1.183  -0.367  1.00  0.00     0.249 C 
ATOM     24  O   UNL     1      -9.724   2.127   0.378  1.00  0.00    -0.272 OA
ATOM     25  H   UNL     1      -8.526  -0.578  -0.732  1.00  0.00     0.163 HD
BRANCH  23  26
ATOM     26  C   UNL     1     -10.071   1.044  -1.782  1.00  0.00     0.238 C 
ATOM     27  N   UNL     1      -9.751   2.268  -2.567  1.00  0.00    -0.236 NA
ATOM     28  C   UNL     1      -9.438  -0.106  -2.547  1.00  0.00     0.206 C 
ATOM     29  C   UNL     1      -8.894   1.843  -3.446  1.00  0.00     0.208 C 
ATOM     30  O   UNL     1      -8.544   0.533  -3.457  1.00  0.00    -0.474 OA
ATOM     31  C   UNL     1     -10.457  -0.907  -3.347  1.00  0.00     0.056 C 
BRANCH  29  32
ATOM     32  C   UNL     1      -8.162   2.693  -4.481  1.00  0.00     0.171 C 
BRANCH  32  33
ATOM     33  N   UNL     1      -6.796   2.228  -4.663  1.00  0.00    -0.342 N 
ATOM     34  C   UNL     1      -5.752   3.081  -4.933  1.00  0.00     0.246 CG0
ATOM     35  O   UNL     1      -5.896   4.294  -5.067  1.00  0.00    -0.273 OA
ATOM     36  H   UNL     1      -6.570   1.240  -4.633  1.00  0.00     0.164 HD
ATOM     37  G   UNL     1      -4.379   2.397  -5.031  1.00  0.00     0.000 G0
ENDBRANCH  32  33
BRANCH  32  38
ATOM     38  C   UNL     1      -8.959   2.734  -5.811  1.00  0.00     0.017 C 
ATOM     39  C   UNL     1      -8.920   1.359  -6.491  1.00  0.00     0.010 C 
BRANCH  38  40
ATOM     40  C   UNL     1     -10.409   3.238  -5.630  1.00  0.00     0.002 C 
ATOM     41  C   UNL     1     -10.502   4.726  -5.317  1.00  0.00     0.004 C 
ENDBRANCH  38  40
ENDBRANCH  32  38
ENDBRANCH  29  32
ENDBRANCH  23  26
ENDBRANCH   1  22
TORSDOF 4
ENDMDL
MODEL 16
REMARK VINA RESULT:    -4.979      3.891      6.103
REMARK INTER + INTRA:         -10.276
REMARK INTER:                  -8.492
REMARK INTRA:                  -1.784
REMARK UNBOUND:                -1.804
REMARK SMILES CC[C@H](C)[C@@H]1NC(=O)[C@H]2CSC(=N2)[C@@H]([C@@H](C)CC)NC(=O)c2csc(n2)CNC(=O)[C@H]2N=C1O[C@@H]2C
REMARK SMILES IDX 27 1 25 2 22 3 26 4 23 5 24 6 20 7 19 8 21 9 14 11 12 12
REMARK SMILES IDX 11 13 10 14 13 15 9 16 15 18 16 19 17 20 18 21 28 22 29 23
REMARK SMILES IDX 30 24 31 26 32 27 35 28 33 29 34 30 36 31 5 32 6 33 7 34
REMARK SMILES IDX 8 35 3 38 4 39 2 40 1 41
REMARK H PARENT 19 10 28 25 6 36
REMARK Flexibility Score:   91.900
ROOT
ATOM      1  C   UNL     1      -4.104   1.784  -3.664  1.00  0.00     0.183 C 
ENDROOT
BRANCH   1   2
ATOM      2  C   UNL     1      -3.303   2.748  -2.838  1.00  0.00     0.113 A 
ATOM      3  C   UNL     1      -2.454   3.745  -1.034  1.00  0.00     0.139 A 
ATOM      4  N   UNL     1      -3.151   2.641  -1.530  1.00  0.00    -0.234 NA
ATOM      5  C   UNL     1      -2.039   4.641  -1.999  1.00  0.00     0.101 A 
ATOM      6  S   UNL     1      -2.548   4.115  -3.552  1.00  0.00    -0.125 S 
BRANCH   3   7
ATOM      7  C   UNL     1      -2.252   3.895   0.409  1.00  0.00     0.271 C 
ATOM      8  N   UNL     1      -2.911   2.921   1.117  1.00  0.00    -0.341 N 
ATOM      9  O   UNL     1      -1.602   4.802   0.914  1.00  0.00    -0.267 OA
ATOM     10  H   UNL     1      -3.393   2.218   0.556  1.00  0.00     0.164 HD
BRANCH   8  11
ATOM     11  C   UNL     1      -3.052   2.916   2.563  1.00  0.00     0.140 C 
BRANCH  11  12
ATOM     12  C   UNL     1      -4.414   3.527   2.905  1.00  0.00     0.091 C 
ATOM     13  S   UNL     1      -5.113   3.308   4.492  1.00  0.00    -0.106 SA
ATOM     14  C   UNL     1      -6.364   4.558   4.128  1.00  0.00     0.113 C 
ATOM     15  N   UNL     1      -5.124   4.158   2.023  1.00  0.00    -0.267 NA
ATOM     16  C   UNL     1      -6.445   4.547   2.610  1.00  0.00     0.205 CG0
ATOM     17  G   UNL     1      -7.558   3.601   2.131  1.00  0.00     0.000 G0
ENDBRANCH  11  12
BRANCH  11  18
ATOM     18  C   UNL     1      -2.724   1.552   3.224  1.00  0.00     0.015 C 
ATOM     19  C   UNL     1      -3.447   0.415   2.490  1.00  0.00     0.010 C 
BRANCH  18  20
ATOM     20  C   UNL     1      -1.218   1.256   3.378  1.00  0.00     0.002 C 
ATOM     21  C   UNL     1      -0.857   0.710   4.754  1.00  0.00     0.004 C 
ENDBRANCH  18  20
ENDBRANCH  11  18
ENDBRANCH   8  11
ENDBRANCH   3   7
ENDBRANCH   1   2
BRANCH   1  22
ATOM     22  N   UNL     1      -5.499   2.131  -3.502  1.00  0.00    -0.348 N 
ATOM     23  C   UNL     1      -6.520   1.226  -3.394  1.00  0.00     0.249 C 
ATOM     24  O   UNL     1      -6.341   0.014  -3.339  1.00  0.00    -0.272 OA
ATOM     25  H   UNL     1      -5.763   3.114  -3.556  1.00  0.00     0.163 HD
BRANCH  23  26
ATOM     26  C   UNL     1      -7.899   1.894  -3.289  1.00  0.00     0.238 C 
ATOM     27  N   UNL     1      -8.496   1.582  -1.961  1.00  0.00    -0.236 NA
ATOM     28  C   UNL     1      -7.802   3.409  -3.345  1.00  0.00     0.206 C 
ATOM     29  C   UNL     1      -8.476   2.728  -1.349  1.00  0.00     0.208 C 
ATOM     30  O   UNL     1      -7.993   3.819  -1.992  1.00  0.00    -0.474 OA
ATOM     31  C   UNL     1      -8.897   4.033  -4.201  1.00  0.00     0.056 C 
BRANCH  29  32
ATOM     32  C   UNL     1      -8.906   2.992   0.092  1.00  0.00     0.171 C 
BRANCH  32  33
ATOM     33  N   UNL     1      -7.928   3.816   0.783  1.00  0.00    -0.342 N 
ATOM     34  C   UNL     1      -7.576   3.605   2.095  1.00  0.00     0.246 CG0
ATOM     35  O   UNL     1      -8.077   2.725   2.790  1.00  0.00    -0.273 OA
ATOM     36  H   UNL     1      -7.493   4.609   0.324  1.00  0.00     0.164 HD
ATOM     37  G   UNL     1      -6.481   4.548   2.620  1.00  0.00     0.000 G0
ENDBRANCH  32  33
BRANCH  32  38
ATOM     38  C   UNL     1     -10.332   3.603   0.129  1.00  0.00     0.017 C 
ATOM     39  C   UNL     1     -11.226   2.796   1.079  1.00  0.00     0.010 C 
BRANCH  38  40
ATOM     40  C   UNL     1     -10.333   5.107   0.486  1.00  0.00     0.002 C 
ATOM     41  C   UNL     1     -11.668   5.604   1.025  1.00  0.00     0.004 C 
ENDBRANCH  38  40
ENDBRANCH  32  38
ENDBRANCH  29  32
ENDBRANCH  23  26
ENDBRANCH   1  22
TORSDOF 4
ENDMDL
MODEL 17
REMARK VINA RESULT:    -4.925     19.230     22.653
REMARK INTER + INTRA:         -10.184
REMARK INTER:                  -8.696
REMARK INTRA:                  -1.488
REMARK UNBOUND:                -1.804
REMARK SMILES CC[C@H](C)[C@@H]1NC(=O)[C@H]2CSC(=N2)[C@@H]([C@@H](C)CC)NC(=O)c2csc(n2)CNC(=O)[C@H]2N=C1O[C@@H]2C
REMARK SMILES IDX 27 1 25 2 22 3 26 4 23 5 24 6 20 7 19 8 21 9 14 11 12 12
REMARK SMILES IDX 11 13 10 14 13 15 9 16 15 18 16 19 17 20 18 21 28 22 29 23
REMARK SMILES IDX 30 24 31 26 32 27 35 28 33 29 34 30 36 31 5 32 6 33 7 34
REMARK SMILES IDX 8 35 3 38 4 39 2 40 1 41
REMARK H PARENT 19 10 28 25 6 36
REMARK Flexibility Score:   91.900
ROOT
ATOM      1  C   UNL     1     -19.044   4.620  -6.513  1.00  0.00     0.183 C 
ENDROOT
BRANCH   1   2
ATOM      2  C   UNL     1     -17.946   4.204  -7.450  1.00  0.00     0.113 A 
ATOM      3  C   UNL     1     -16.959   3.382  -9.271  1.00  0.00     0.139 A 
ATOM      4  N   UNL     1     -18.156   3.812  -8.693  1.00  0.00    -0.234 NA
ATOM      5  C   UNL     1     -15.851   3.517  -8.459  1.00  0.00     0.101 A 
ATOM      6  S   UNL     1     -16.308   4.168  -6.938  1.00  0.00    -0.125 S 
BRANCH   3   7
ATOM      7  C   UNL     1     -16.961   2.807 -10.618  1.00  0.00     0.271 C 
ATOM      8  N   UNL     1     -18.237   2.552 -11.057  1.00  0.00    -0.341 N 
ATOM      9  O   UNL     1     -15.944   2.556 -11.252  1.00  0.00    -0.267 OA
ATOM     10  H   UNL     1     -18.986   2.837 -10.427  1.00  0.00     0.164 HD
BRANCH   8  11
ATOM     11  C   UNL     1     -18.552   1.814 -12.270  1.00  0.00     0.140 C 
BRANCH  11  12
ATOM     12  C   UNL     1     -19.402   0.604 -11.876  1.00  0.00     0.091 C 
ATOM     13  S   UNL     1     -20.888   0.249 -12.726  1.00  0.00    -0.106 SA
ATOM     14  C   UNL     1     -20.971  -1.370 -11.931  1.00  0.00     0.113 C 
ATOM     15  N   UNL     1     -19.098  -0.150 -10.867  1.00  0.00    -0.267 NA
ATOM     16  C   UNL     1     -20.162  -1.182 -10.657  1.00  0.00     0.205 CG0
ATOM     17  G   UNL     1     -21.077  -0.797  -9.484  1.00  0.00     0.000 G0
ENDBRANCH  11  12
BRANCH  11  18
ATOM     18  C   UNL     1     -19.100   2.697 -13.420  1.00  0.00     0.015 C 
ATOM     19  C   UNL     1     -19.266   4.148 -12.949  1.00  0.00     0.010 C 
BRANCH  18  20
ATOM     20  C   UNL     1     -18.294   2.620 -14.733  1.00  0.00     0.002 C 
ATOM     21  C   UNL     1     -18.995   1.805 -15.814  1.00  0.00     0.004 C 
ENDBRANCH  18  20
ENDBRANCH  11  18
ENDBRANCH   8  11
ENDBRANCH   3   7
ENDBRANCH   1   2
BRANCH   1  22
ATOM     22  N   UNL     1     -19.568   3.420  -5.901  1.00  0.00    -0.348 N 
ATOM     23  C   UNL     1     -20.651   2.720  -6.359  1.00  0.00     0.249 C 
ATOM     24  O   UNL     1     -21.240   2.998  -7.397  1.00  0.00    -0.272 OA
ATOM     25  H   UNL     1     -19.164   3.111  -5.017  1.00  0.00     0.163 HD
BRANCH  23  26
ATOM     26  C   UNL     1     -21.004   1.520  -5.468  1.00  0.00     0.238 C 
ATOM     27  N   UNL     1     -22.015   0.674  -6.162  1.00  0.00    -0.236 NA
ATOM     28  C   UNL     1     -19.808   0.614  -5.233  1.00  0.00     0.206 C 
ATOM     29  C   UNL     1     -21.351  -0.406  -6.451  1.00  0.00     0.208 C 
ATOM     30  O   UNL     1     -20.051  -0.509  -6.079  1.00  0.00    -0.474 OA
ATOM     31  C   UNL     1     -19.718   0.126  -3.793  1.00  0.00     0.056 C 
BRANCH  29  32
ATOM     32  C   UNL     1     -21.872  -1.604  -7.239  1.00  0.00     0.171 C 
BRANCH  32  33
ATOM     33  N   UNL     1     -21.120  -1.782  -8.471  1.00  0.00    -0.342 N 
ATOM     34  C   UNL     1     -21.059  -0.817  -9.448  1.00  0.00     0.246 CG0
ATOM     35  O   UNL     1     -21.652   0.256  -9.367  1.00  0.00    -0.273 OA
ATOM     36  H   UNL     1     -20.639  -2.653  -8.671  1.00  0.00     0.164 HD
ATOM     37  G   UNL     1     -20.164  -1.177 -10.644  1.00  0.00     0.000 G0
ENDBRANCH  32  33
BRANCH  32  38
ATOM     38  C   UNL     1     -21.871  -2.878  -6.353  1.00  0.00     0.017 C 
ATOM     39  C   UNL     1     -22.727  -2.649  -5.101  1.00  0.00     0.010 C 
BRANCH  38  40
ATOM     40  C   UNL     1     -22.313  -4.146  -7.120  1.00  0.00     0.002 C 
ATOM     41  C   UNL     1     -23.143  -5.108  -6.280  1.00  0.00     0.004 C 
ENDBRANCH  38  40
ENDBRANCH  32  38
ENDBRANCH  29  32
ENDBRANCH  23  26
ENDBRANCH   1  22
TORSDOF 4
ENDMDL
MODEL 18
REMARK VINA RESULT:    -4.891      3.375      5.898
REMARK INTER + INTRA:         -10.127
REMARK INTER:                  -8.885
REMARK INTRA:                  -1.242
REMARK UNBOUND:                -1.804
REMARK SMILES CC[C@H](C)[C@@H]1NC(=O)[C@H]2CSC(=N2)[C@@H]([C@@H](C)CC)NC(=O)c2csc(n2)CNC(=O)[C@H]2N=C1O[C@@H]2C
REMARK SMILES IDX 27 1 25 2 22 3 26 4 23 5 24 6 20 7 19 8 21 9 14 11 12 12
REMARK SMILES IDX 11 13 10 14 13 15 9 16 15 18 16 19 17 20 18 21 28 22 29 23
REMARK SMILES IDX 30 24 31 26 32 27 35 28 33 29 34 30 36 31 5 32 6 33 7 34
REMARK SMILES IDX 8 35 3 38 4 39 2 40 1 41
REMARK H PARENT 19 10 28 25 6 36
REMARK Flexibility Score:   91.900
ROOT
ATOM      1  C   UNL     1      -1.675   1.533   4.223  1.00  0.00     0.183 C 
ENDROOT
BRANCH   1   2
ATOM      2  C   UNL     1      -2.842   2.168   4.924  1.00  0.00     0.113 A 
ATOM      3  C   UNL     1      -4.795   3.204   5.202  1.00  0.00     0.139 A 
ATOM      4  N   UNL     1      -3.947   2.546   4.309  1.00  0.00    -0.234 NA
ATOM      5  C   UNL     1      -4.329   3.256   6.501  1.00  0.00     0.101 A 
ATOM      6  S   UNL     1      -2.794   2.494   6.609  1.00  0.00    -0.125 S 
BRANCH   3   7
ATOM      7  C   UNL     1      -6.043   3.803   4.722  1.00  0.00     0.271 C 
ATOM      8  N   UNL     1      -6.754   2.929   3.938  1.00  0.00    -0.341 N 
ATOM      9  O   UNL     1      -6.384   4.953   4.968  1.00  0.00    -0.267 OA
ATOM     10  H   UNL     1      -6.355   1.996   3.842  1.00  0.00     0.164 HD
BRANCH   8  11
ATOM     11  C   UNL     1      -7.934   3.295   3.170  1.00  0.00     0.140 C 
BRANCH  11  12
ATOM     12  C   UNL     1      -7.929   2.469   1.880  1.00  0.00     0.091 C 
ATOM     13  S   UNL     1      -8.110   0.731   1.939  1.00  0.00    -0.106 SA
ATOM     14  C   UNL     1      -8.355   0.684   0.151  1.00  0.00     0.113 C 
ATOM     15  N   UNL     1      -7.721   3.008   0.721  1.00  0.00    -0.267 NA
ATOM     16  C   UNL     1      -7.666   1.949  -0.336  1.00  0.00     0.205 CG0
ATOM     17  G   UNL     1      -6.213   1.654  -0.742  1.00  0.00     0.000 G0
ENDBRANCH  11  12
BRANCH  11  18
ATOM     18  C   UNL     1      -9.249   3.283   3.991  1.00  0.00     0.015 C 
ATOM     19  C   UNL     1     -10.460   3.147   3.060  1.00  0.00     0.010 C 
BRANCH  18  20
ATOM     20  C   UNL     1      -9.290   2.241   5.127  1.00  0.00     0.002 C 
ATOM     21  C   UNL     1     -10.156   2.677   6.304  1.00  0.00     0.004 C 
ENDBRANCH  18  20
ENDBRANCH  11  18
ENDBRANCH   8  11
ENDBRANCH   3   7
ENDBRANCH   1   2
BRANCH   1  22
ATOM     22  N   UNL     1      -1.559   2.158   2.924  1.00  0.00    -0.348 N 
ATOM     23  C   UNL     1      -2.140   1.687   1.778  1.00  0.00     0.249 C 
ATOM     24  O   UNL     1      -2.896   0.722   1.755  1.00  0.00    -0.272 OA
ATOM     25  H   UNL     1      -0.934   2.957   2.825  1.00  0.00     0.163 HD
BRANCH  23  26
ATOM     26  C   UNL     1      -1.791   2.531   0.543  1.00  0.00     0.238 C 
ATOM     27  N   UNL     1      -2.407   1.914  -0.664  1.00  0.00    -0.236 NA
ATOM     28  C   UNL     1      -2.376   3.931   0.628  1.00  0.00     0.206 C 
ATOM     29  C   UNL     1      -3.332   2.765  -0.995  1.00  0.00     0.208 C 
ATOM     30  O   UNL     1      -3.491   3.894  -0.262  1.00  0.00    -0.474 OA
ATOM     31  C   UNL     1      -1.405   5.000   0.147  1.00  0.00     0.056 C 
BRANCH  29  32
ATOM     32  C   UNL     1      -4.339   2.610  -2.131  1.00  0.00     0.171 C 
BRANCH  32  33
ATOM     33  N   UNL     1      -5.702   2.642  -1.625  1.00  0.00    -0.342 N 
ATOM     34  C   UNL     1      -6.201   1.681  -0.778  1.00  0.00     0.246 CG0
ATOM     35  O   UNL     1      -5.547   0.710  -0.406  1.00  0.00    -0.273 OA
ATOM     36  H   UNL     1      -6.351   3.366  -1.913  1.00  0.00     0.164 HD
ATOM     37  G   UNL     1      -7.645   1.930  -0.312  1.00  0.00     0.000 G0
ENDBRANCH  32  33
BRANCH  32  38
ATOM     38  C   UNL     1      -4.087   3.677  -3.228  1.00  0.00     0.017 C 
ATOM     39  C   UNL     1      -2.614   3.655  -3.656  1.00  0.00     0.010 C 
BRANCH  38  40
ATOM     40  C   UNL     1      -5.034   3.529  -4.441  1.00  0.00     0.002 C 
ATOM     41  C   UNL     1      -4.514   2.575  -5.508  1.00  0.00     0.004 C 
ENDBRANCH  38  40
ENDBRANCH  32  38
ENDBRANCH  29  32
ENDBRANCH  23  26
ENDBRANCH   1  22
TORSDOF 4
ENDMDL
MODEL 19
REMARK VINA RESULT:    -4.887      4.012      5.925
REMARK INTER + INTRA:         -10.120
REMARK INTER:                  -8.230
REMARK INTRA:                  -1.890
REMARK UNBOUND:                -1.804
REMARK SMILES CC[C@H](C)[C@@H]1NC(=O)[C@H]2CSC(=N2)[C@@H]([C@@H](C)CC)NC(=O)c2csc(n2)CNC(=O)[C@H]2N=C1O[C@@H]2C
REMARK SMILES IDX 27 1 25 2 22 3 26 4 23 5 24 6 20 7 19 8 21 9 14 11 12 12
REMARK SMILES IDX 11 13 10 14 13 15 9 16 15 18 16 19 17 20 18 21 28 22 29 23
REMARK SMILES IDX 30 24 31 26 32 27 35 28 33 29 34 30 36 31 5 32 6 33 7 34
REMARK SMILES IDX 8 35 3 38 4 39 2 40 1 41
REMARK H PARENT 19 10 28 25 6 36
REMARK Flexibility Score:   91.900
ROOT
ATOM      1  C   UNL     1      -2.682   4.247  -3.132  1.00  0.00     0.183 C 
ENDROOT
BRANCH   1   2
ATOM      2  C   UNL     1      -2.566   3.755  -1.718  1.00  0.00     0.113 A 
ATOM      3  C   UNL     1      -2.928   3.613   0.477  1.00  0.00     0.139 A 
ATOM      4  N   UNL     1      -3.353   4.157  -0.737  1.00  0.00    -0.234 NA
ATOM      5  C   UNL     1      -1.850   2.756   0.373  1.00  0.00     0.101 A 
ATOM      6  S   UNL     1      -1.340   2.643  -1.262  1.00  0.00    -0.125 S 
BRANCH   3   7
ATOM      7  C   UNL     1      -3.591   3.997   1.725  1.00  0.00     0.271 C 
ATOM      8  N   UNL     1      -4.408   2.998   2.192  1.00  0.00    -0.341 N 
ATOM      9  O   UNL     1      -3.454   5.091   2.259  1.00  0.00    -0.267 OA
ATOM     10  H   UNL     1      -4.401   2.134   1.651  1.00  0.00     0.164 HD
BRANCH   8  11
ATOM     11  C   UNL     1      -5.335   3.152   3.302  1.00  0.00     0.140 C 
BRANCH  11  12
ATOM     12  C   UNL     1      -6.713   2.677   2.832  1.00  0.00     0.091 C 
ATOM     13  S   UNL     1      -7.451   1.258   3.537  1.00  0.00    -0.106 SA
ATOM     14  C   UNL     1      -9.020   1.664   2.743  1.00  0.00     0.113 C 
ATOM     15  N   UNL     1      -7.343   3.255   1.858  1.00  0.00    -0.267 NA
ATOM     16  C   UNL     1      -8.606   2.513   1.551  1.00  0.00     0.205 CG0
ATOM     17  G   UNL     1      -8.440   1.642   0.295  1.00  0.00     0.000 G0
ENDBRANCH  11  12
BRANCH  11  18
ATOM     18  C   UNL     1      -4.821   2.560   4.639  1.00  0.00     0.015 C 
ATOM     19  C   UNL     1      -3.481   1.843   4.427  1.00  0.00     0.010 C 
BRANCH  18  20
ATOM     20  C   UNL     1      -4.742   3.569   5.802  1.00  0.00     0.002 C 
ATOM     21  C   UNL     1      -3.691   4.652   5.581  1.00  0.00     0.004 C 
ENDBRANCH  18  20
ENDBRANCH  11  18
ENDBRANCH   8  11
ENDBRANCH   3   7
ENDBRANCH   1   2
BRANCH   1  22
ATOM     22  N   UNL     1      -4.079   4.180  -3.500  1.00  0.00    -0.348 N 
ATOM     23  C   UNL     1      -4.641   3.182  -4.248  1.00  0.00     0.249 C 
ATOM     24  O   UNL     1      -4.025   2.188  -4.615  1.00  0.00    -0.272 OA
ATOM     25  H   UNL     1      -4.680   4.969  -3.264  1.00  0.00     0.163 HD
BRANCH  23  26
ATOM     26  C   UNL     1      -6.135   3.414  -4.523  1.00  0.00     0.238 C 
ATOM     27  N   UNL     1      -6.902   2.203  -4.119  1.00  0.00    -0.236 NA
ATOM     28  C   UNL     1      -6.698   4.549  -3.686  1.00  0.00     0.206 C 
ATOM     29  C   UNL     1      -7.569   2.606  -3.080  1.00  0.00     0.208 C 
ATOM     30  O   UNL     1      -7.443   3.890  -2.664  1.00  0.00    -0.474 OA
ATOM     31  C   UNL     1      -7.643   5.445  -4.476  1.00  0.00     0.056 C 
BRANCH  29  32
ATOM     32  C   UNL     1      -8.480   1.752  -2.202  1.00  0.00     0.171 C 
BRANCH  32  33
ATOM     33  N   UNL     1      -8.647   2.352  -0.888  1.00  0.00    -0.342 N 
ATOM     34  C   UNL     1      -8.433   1.655   0.277  1.00  0.00     0.246 CG0
ATOM     35  O   UNL     1      -8.110   0.470   0.300  1.00  0.00    -0.273 OA
ATOM     36  H   UNL     1      -8.967   3.309  -0.785  1.00  0.00     0.164 HD
ATOM     37  G   UNL     1      -8.605   2.488   1.558  1.00  0.00     0.000 G0
ENDBRANCH  32  33
BRANCH  32  38
ATOM     38  C   UNL     1      -9.834   1.494  -2.914  1.00  0.00     0.017 C 
ATOM     39  C   UNL     1     -10.302   0.057  -2.651  1.00  0.00     0.010 C 
BRANCH  38  40
ATOM     40  C   UNL     1     -10.921   2.526  -2.535  1.00  0.00     0.002 C 
ATOM     41  C   UNL     1     -11.168   3.575  -3.611  1.00  0.00     0.004 C 
ENDBRANCH  38  40
ENDBRANCH  32  38
ENDBRANCH  29  32
ENDBRANCH  23  26
ENDBRANCH   1  22
TORSDOF 4
ENDMDL
MODEL 20
REMARK VINA RESULT:    -4.883      3.292      7.306
REMARK INTER + INTRA:         -10.112
REMARK INTER:                  -8.381
REMARK INTRA:                  -1.731
REMARK UNBOUND:                -1.804
REMARK SMILES CC[C@H](C)[C@@H]1NC(=O)[C@H]2CSC(=N2)[C@@H]([C@@H](C)CC)NC(=O)c2csc(n2)CNC(=O)[C@H]2N=C1O[C@@H]2C
REMARK SMILES IDX 27 1 25 2 22 3 26 4 23 5 24 6 20 7 19 8 21 9 14 11 12 12
REMARK SMILES IDX 11 13 10 14 13 15 9 16 15 18 16 19 17 20 18 21 28 22 29 23
REMARK SMILES IDX 30 24 31 26 32 27 35 28 33 29 34 30 36 31 5 32 6 33 7 34
REMARK SMILES IDX 8 35 3 38 4 39 2 40 1 41
REMARK H PARENT 19 10 28 25 6 36
REMARK Flexibility Score:   91.900
ROOT
ATOM      1  C   UNL     1      -0.580   2.645   8.763  1.00  0.00     0.183 C 
ENDROOT
BRANCH   1   2
ATOM      2  C   UNL     1      -1.428   3.693   8.102  1.00  0.00     0.113 A 
ATOM      3  C   UNL     1      -2.943   4.594   6.739  1.00  0.00     0.139 A 
ATOM      4  N   UNL     1      -2.422   3.416   7.278  1.00  0.00    -0.234 NA
ATOM      5  C   UNL     1      -2.360   5.750   7.219  1.00  0.00     0.101 A 
ATOM      6  S   UNL     1      -1.123   5.365   8.344  1.00  0.00    -0.125 S 
BRANCH   3   7
ATOM      7  C   UNL     1      -3.993   4.531   5.719  1.00  0.00     0.271 C 
ATOM      8  N   UNL     1      -4.535   3.273   5.628  1.00  0.00    -0.341 N 
ATOM      9  O   UNL     1      -4.317   5.481   5.017  1.00  0.00    -0.267 OA
ATOM     10  H   UNL     1      -4.179   2.590   6.296  1.00  0.00     0.164 HD
BRANCH   8  11
ATOM     11  C   UNL     1      -5.460   2.855   4.587  1.00  0.00     0.140 C 
BRANCH  11  12
ATOM     12  C   UNL     1      -4.649   2.167   3.486  1.00  0.00     0.091 C 
ATOM     13  S   UNL     1      -5.453   1.422   2.125  1.00  0.00    -0.106 SA
ATOM     14  C   UNL     1      -3.873   1.248   1.269  1.00  0.00     0.113 C 
ATOM     15  N   UNL     1      -3.360   2.046   3.555  1.00  0.00    -0.267 NA
ATOM     16  C   UNL     1      -2.856   1.240   2.399  1.00  0.00     0.205 CG0
ATOM     17  G   UNL     1      -2.536  -0.200   2.833  1.00  0.00     0.000 G0
ENDBRANCH  11  12
BRANCH  11  18
ATOM     18  C   UNL     1      -6.697   2.085   5.116  1.00  0.00     0.015 C 
ATOM     19  C   UNL     1      -6.583   1.864   6.630  1.00  0.00     0.010 C 
BRANCH  18  20
ATOM     20  C   UNL     1      -8.055   2.710   4.738  1.00  0.00     0.002 C 
ATOM     21  C   UNL     1      -8.485   3.820   5.692  1.00  0.00     0.004 C 
ENDBRANCH  18  20
ENDBRANCH  11  18
ENDBRANCH   8  11
ENDBRANCH   3   7
ENDBRANCH   1   2
BRANCH   1  22
ATOM     22  N   UNL     1      -1.127   1.356   8.405  1.00  0.00    -0.348 N 
ATOM     23  C   UNL     1      -0.503   0.157   8.620  1.00  0.00     0.249 C 
ATOM     24  O   UNL     1       0.559   0.051   9.224  1.00  0.00    -0.272 OA
ATOM     25  H   UNL     1      -1.999   1.329   7.877  1.00  0.00     0.163 HD
BRANCH  23  26
ATOM     26  C   UNL     1      -1.305  -1.037   8.081  1.00  0.00     0.238 C 
ATOM     27  N   UNL     1      -1.807  -0.715   6.716  1.00  0.00    -0.236 NA
ATOM     28  C   UNL     1      -0.440  -2.275   7.914  1.00  0.00     0.206 C 
ATOM     29  C   UNL     1      -1.117  -1.506   5.951  1.00  0.00     0.208 C 
ATOM     30  O   UNL     1      -0.219  -2.356   6.507  1.00  0.00    -0.474 OA
ATOM     31  C   UNL     1      -1.145  -3.545   8.370  1.00  0.00     0.056 C 
BRANCH  29  32
ATOM     32  C   UNL     1      -1.164  -1.557   4.426  1.00  0.00     0.171 C 
BRANCH  32  33
ATOM     33  N   UNL     1      -1.607  -0.285   3.877  1.00  0.00    -0.342 N 
ATOM     34  C   UNL     1      -2.495  -0.199   2.832  1.00  0.00     0.246 CG0
ATOM     35  O   UNL     1      -2.961  -1.184   2.265  1.00  0.00    -0.273 OA
ATOM     36  H   UNL     1      -1.242   0.593   4.229  1.00  0.00     0.164 HD
ATOM     37  G   UNL     1      -2.880   1.237   2.441  1.00  0.00     0.000 G0
ENDBRANCH  32  33
BRANCH  32  38
ATOM     38  C   UNL     1       0.208  -2.005   3.856  1.00  0.00     0.017 C 
ATOM     39  C   UNL     1       0.007  -2.774   2.544  1.00  0.00     0.010 C 
BRANCH  38  40
ATOM     40  C   UNL     1       1.200  -0.833   3.682  1.00  0.00     0.002 C 
ATOM     41  C   UNL     1       2.352  -1.144   2.735  1.00  0.00     0.004 C 
ENDBRANCH  38  40
ENDBRANCH  32  38
ENDBRANCH  29  32
ENDBRANCH  23  26
ENDBRANCH   1  22
TORSDOF 4
ENDMDL
MODEL 21
REMARK VINA RESULT:    -4.871      9.076     12.228
REMARK INTER + INTRA:         -10.093
REMARK INTER:                  -8.526
REMARK INTRA:                  -1.567
REMARK UNBOUND:                -1.804
REMARK SMILES CC[C@H](C)[C@@H]1NC(=O)[C@H]2CSC(=N2)[C@@H]([C@@H](C)CC)NC(=O)c2csc(n2)CNC(=O)[C@H]2N=C1O[C@@H]2C
REMARK SMILES IDX 27 1 25 2 22 3 26 4 23 5 24 6 20 7 19 8 21 9 14 11 12 12
REMARK SMILES IDX 11 13 10 14 13 15 9 16 15 18 16 19 17 20 18 21 28 22 29 23
REMARK SMILES IDX 30 24 31 26 32 27 35 28 33 29 34 30 36 31 5 32 6 33 7 34
REMARK SMILES IDX 8 35 3 38 4 39 2 40 1 41
REMARK H PARENT 19 10 28 25 6 36
REMARK Flexibility Score:   91.900
ROOT
ATOM      1  C   UNL     1      -6.891   1.779 -10.006  1.00  0.00     0.183 C 
ENDROOT
BRANCH   1   2
ATOM      2  C   UNL     1      -6.493   1.774  -8.558  1.00  0.00     0.113 A 
ATOM      3  C   UNL     1      -6.124   2.529  -6.494  1.00  0.00     0.139 A 
ATOM      4  N   UNL     1      -6.705   2.786  -7.737  1.00  0.00    -0.234 NA
ATOM      5  C   UNL     1      -5.528   1.288  -6.387  1.00  0.00     0.101 A 
ATOM      6  S   UNL     1      -5.672   0.433  -7.868  1.00  0.00    -0.125 S 
BRANCH   3   7
ATOM      7  C   UNL     1      -6.144   3.556  -5.449  1.00  0.00     0.271 C 
ATOM      8  N   UNL     1      -6.722   3.090  -4.294  1.00  0.00    -0.341 N 
ATOM      9  O   UNL     1      -5.726   4.696  -5.607  1.00  0.00    -0.267 OA
ATOM     10  H   UNL     1      -7.001   2.110  -4.305  1.00  0.00     0.164 HD
BRANCH   8  11
ATOM     11  C   UNL     1      -7.053   3.925  -3.151  1.00  0.00     0.140 C 
BRANCH  11  12
ATOM     12  C   UNL     1      -8.533   4.304  -3.259  1.00  0.00     0.091 C 
ATOM     13  S   UNL     1      -9.690   3.700  -2.097  1.00  0.00    -0.106 SA
ATOM     14  C   UNL     1     -10.934   4.852  -2.717  1.00  0.00     0.113 C 
ATOM     15  N   UNL     1      -8.990   5.015  -4.241  1.00  0.00    -0.267 NA
ATOM     16  C   UNL     1     -10.479   5.134  -4.141  1.00  0.00     0.205 CG0
ATOM     17  G   UNL     1     -11.172   4.185  -5.131  1.00  0.00     0.000 G0
ENDBRANCH  11  12
BRANCH  11  18
ATOM     18  C   UNL     1      -6.587   3.346  -1.791  1.00  0.00     0.015 C 
ATOM     19  C   UNL     1      -5.777   2.060  -2.007  1.00  0.00     0.010 C 
BRANCH  18  20
ATOM     20  C   UNL     1      -5.831   4.343  -0.890  1.00  0.00     0.002 C 
ATOM     21  C   UNL     1      -5.485   5.645  -1.604  1.00  0.00     0.004 C 
ENDBRANCH  18  20
ENDBRANCH  11  18
ENDBRANCH   8  11
ENDBRANCH   3   7
ENDBRANCH   1   2
BRANCH   1  22
ATOM     22  N   UNL     1      -8.094   2.574 -10.121  1.00  0.00    -0.348 N 
ATOM     23  C   UNL     1      -9.362   2.102  -9.918  1.00  0.00     0.249 C 
ATOM     24  O   UNL     1      -9.602   0.964  -9.530  1.00  0.00    -0.272 OA
ATOM     25  H   UNL     1      -8.011   3.532 -10.459  1.00  0.00     0.163 HD
BRANCH  23  26
ATOM     26  C   UNL     1     -10.441   3.167 -10.167  1.00  0.00     0.238 C 
ATOM     27  N   UNL     1     -11.610   2.898  -9.285  1.00  0.00    -0.236 NA
ATOM     28  C   UNL     1      -9.962   4.560  -9.795  1.00  0.00     0.206 C 
ATOM     29  C   UNL     1     -11.577   3.884  -8.439  1.00  0.00     0.208 C 
ATOM     30  O   UNL     1     -10.612   4.829  -8.554  1.00  0.00    -0.474 OA
ATOM     31  C   UNL     1     -10.388   5.615 -10.807  1.00  0.00     0.056 C 
BRANCH  29  32
ATOM     32  C   UNL     1     -12.509   4.085  -7.247  1.00  0.00     0.171 C 
BRANCH  32  33
ATOM     33  N   UNL     1     -11.836   4.803  -6.176  1.00  0.00    -0.342 N 
ATOM     34  C   UNL     1     -11.186   4.163  -5.148  1.00  0.00     0.246 CG0
ATOM     35  O   UNL     1     -11.145   2.940  -5.040  1.00  0.00    -0.273 OA
ATOM     36  H   UNL     1     -11.855   5.816  -6.132  1.00  0.00     0.164 HD
ATOM     37  G   UNL     1     -10.488   5.103  -4.152  1.00  0.00     0.000 G0
ENDBRANCH  32  33
BRANCH  32  38
ATOM     38  C   UNL     1     -13.822   4.779  -7.695  1.00  0.00     0.017 C 
ATOM     39  C   UNL     1     -14.835   3.732  -8.175  1.00  0.00     0.010 C 
BRANCH  38  40
ATOM     40  C   UNL     1     -14.423   5.694  -6.603  1.00  0.00     0.002 C 
ATOM     41  C   UNL     1     -15.382   4.973  -5.664  1.00  0.00     0.004 C 
ENDBRANCH  38  40
ENDBRANCH  32  38
ENDBRANCH  29  32
ENDBRANCH  23  26
ENDBRANCH   1  22
TORSDOF 4
ENDMDL
MODEL 22
REMARK VINA RESULT:    -4.843      8.961     11.825
REMARK INTER + INTRA:         -10.045
REMARK INTER:                  -8.675
REMARK INTRA:                  -1.370
REMARK UNBOUND:                -1.804
REMARK SMILES CC[C@H](C)[C@@H]1NC(=O)[C@H]2CSC(=N2)[C@@H]([C@@H](C)CC)NC(=O)c2csc(n2)CNC(=O)[C@H]2N=C1O[C@@H]2C
REMARK SMILES IDX 27 1 25 2 22 3 26 4 23 5 24 6 20 7 19 8 21 9 14 11 12 12
REMARK SMILES IDX 11 13 10 14 13 15 9 16 15 18 16 19 17 20 18 21 28 22 29 23
REMARK SMILES IDX 30 24 31 26 32 27 35 28 33 29 34 30 36 31 5 32 6 33 7 34
REMARK SMILES IDX 8 35 3 38 4 39 2 40 1 41
REMARK H PARENT 19 10 28 25 6 36
REMARK Flexibility Score:   91.900
ROOT
ATOM      1  C   UNL     1      -2.097   1.268 -10.223  1.00  0.00     0.183 C 
ENDROOT
BRANCH   1   2
ATOM      2  C   UNL     1      -1.692   2.297  -9.206  1.00  0.00     0.113 A 
ATOM      3  C   UNL     1      -1.833   3.657  -7.447  1.00  0.00     0.139 A 
ATOM      4  N   UNL     1      -2.407   2.586  -8.134  1.00  0.00    -0.234 NA
ATOM      5  C   UNL     1      -0.651   4.119  -7.992  1.00  0.00     0.101 A 
ATOM      6  S   UNL     1      -0.259   3.221  -9.401  1.00  0.00    -0.125 S 
BRANCH   3   7
ATOM      7  C   UNL     1      -2.506   4.221  -6.275  1.00  0.00     0.271 C 
ATOM      8  N   UNL     1      -3.300   3.291  -5.651  1.00  0.00    -0.341 N 
ATOM      9  O   UNL     1      -2.396   5.389  -5.923  1.00  0.00    -0.267 OA
ATOM     10  H   UNL     1      -3.272   2.352  -6.046  1.00  0.00     0.164 HD
BRANCH   8  11
ATOM     11  C   UNL     1      -4.232   3.599  -4.578  1.00  0.00     0.140 C 
BRANCH  11  12
ATOM     12  C   UNL     1      -5.626   3.146  -5.022  1.00  0.00     0.091 C 
ATOM     13  S   UNL     1      -6.487   1.918  -4.124  1.00  0.00    -0.106 SA
ATOM     14  C   UNL     1      -7.997   2.288  -5.042  1.00  0.00     0.113 C 
ATOM     15  N   UNL     1      -6.181   3.592  -6.104  1.00  0.00    -0.267 NA
ATOM     16  C   UNL     1      -7.485   2.896  -6.338  1.00  0.00     0.205 CG0
ATOM     17  G   UNL     1      -7.344   1.817  -7.425  1.00  0.00     0.000 G0
ENDBRANCH  11  12
BRANCH  11  18
ATOM     18  C   UNL     1      -3.764   3.121  -3.180  1.00  0.00     0.015 C 
ATOM     19  C   UNL     1      -2.508   2.248  -3.306  1.00  0.00     0.010 C 
BRANCH  18  20
ATOM     20  C   UNL     1      -3.566   4.247  -2.146  1.00  0.00     0.002 C 
ATOM     21  C   UNL     1      -2.437   5.203  -2.516  1.00  0.00     0.004 C 
ENDBRANCH  18  20
ENDBRANCH  11  18
ENDBRANCH   8  11
ENDBRANCH   3   7
ENDBRANCH   1   2
BRANCH   1  22
ATOM     22  N   UNL     1      -3.374   1.674 -10.765  1.00  0.00    -0.348 N 
ATOM     23  C   UNL     1      -3.705   1.636 -12.092  1.00  0.00     0.249 C 
ATOM     24  O   UNL     1      -2.970   1.169 -12.955  1.00  0.00    -0.272 OA
ATOM     25  H   UNL     1      -4.054   2.100 -10.136  1.00  0.00     0.163 HD
BRANCH  23  26
ATOM     26  C   UNL     1      -5.113   2.184 -12.371  1.00  0.00     0.238 C 
ATOM     27  N   UNL     1      -6.125   1.237 -11.826  1.00  0.00    -0.236 NA
ATOM     28  C   UNL     1      -5.362   3.501 -11.656  1.00  0.00     0.206 C 
ATOM     29  C   UNL     1      -6.638   1.892 -10.828  1.00  0.00     0.208 C 
ATOM     30  O   UNL     1      -6.200   3.146 -10.557  1.00  0.00    -0.474 OA
ATOM     31  C   UNL     1      -6.103   4.507 -12.527  1.00  0.00     0.056 C 
BRANCH  29  32
ATOM     32  C   UNL     1      -7.688   1.372  -9.849  1.00  0.00     0.171 C 
BRANCH  32  33
ATOM     33  N   UNL     1      -7.775   2.230  -8.677  1.00  0.00    -0.342 N 
ATOM     34  C   UNL     1      -7.359   1.826  -7.431  1.00  0.00     0.246 CG0
ATOM     35  O   UNL     1      -6.907   0.706  -7.206  1.00  0.00    -0.273 OA
ATOM     36  H   UNL     1      -8.186   3.155  -8.734  1.00  0.00     0.164 HD
ATOM     37  G   UNL     1      -7.481   2.902  -6.339  1.00  0.00     0.000 G0
ENDBRANCH  32  33
BRANCH  32  38
ATOM     38  C   UNL     1      -9.055   1.198 -10.561  1.00  0.00     0.017 C 
ATOM     39  C   UNL     1      -9.356   2.425 -11.431  1.00  0.00     0.010 C 
BRANCH  38  40
ATOM     40  C   UNL     1      -9.148  -0.113 -11.375  1.00  0.00     0.002 C 
ATOM     41  C   UNL     1      -8.215  -1.208 -10.875  1.00  0.00     0.004 C 
ENDBRANCH  38  40
ENDBRANCH  32  38
ENDBRANCH  29  32
ENDBRANCH  23  26
ENDBRANCH   1  22
TORSDOF 4
ENDMDL
MODEL 23
REMARK VINA RESULT:    -4.821      2.600      6.411
REMARK INTER + INTRA:         -10.007
REMARK INTER:                  -9.100
REMARK INTRA:                  -0.907
REMARK UNBOUND:                -1.804
REMARK SMILES CC[C@H](C)[C@@H]1NC(=O)[C@H]2CSC(=N2)[C@@H]([C@@H](C)CC)NC(=O)c2csc(n2)CNC(=O)[C@H]2N=C1O[C@@H]2C
REMARK SMILES IDX 27 1 25 2 22 3 26 4 23 5 24 6 20 7 19 8 21 9 14 11 12 12
REMARK SMILES IDX 11 13 10 14 13 15 9 16 15 18 16 19 17 20 18 21 28 22 29 23
REMARK SMILES IDX 30 24 31 26 32 27 35 28 33 29 34 30 36 31 5 32 6 33 7 34
REMARK SMILES IDX 8 35 3 38 4 39 2 40 1 41
REMARK H PARENT 19 10 28 25 6 36
REMARK Flexibility Score:   91.900
ROOT
ATOM      1  C   UNL     1      -0.321   2.585   0.375  1.00  0.00     0.183 C 
ENDROOT
BRANCH   1   2
ATOM      2  C   UNL     1      -1.773   2.424   0.026  1.00  0.00     0.113 A 
ATOM      3  C   UNL     1      -3.884   1.724   0.161  1.00  0.00     0.139 A 
ATOM      4  N   UNL     1      -2.649   1.817   0.805  1.00  0.00    -0.234 NA
ATOM      5  C   UNL     1      -3.927   2.324  -1.082  1.00  0.00     0.101 A 
ATOM      6  S   UNL     1      -2.395   2.993  -1.469  1.00  0.00    -0.125 S 
BRANCH   3   7
ATOM      7  C   UNL     1      -4.988   0.999   0.794  1.00  0.00     0.271 C 
ATOM      8  N   UNL     1      -5.570   1.737   1.795  1.00  0.00    -0.341 N 
ATOM      9  O   UNL     1      -5.321  -0.138   0.485  1.00  0.00    -0.267 OA
ATOM     10  H   UNL     1      -5.200   2.679   1.921  1.00  0.00     0.164 HD
BRANCH   8  11
ATOM     11  C   UNL     1      -6.561   1.218   2.723  1.00  0.00     0.140 C 
BRANCH  11  12
ATOM     12  C   UNL     1      -6.160   1.657   4.134  1.00  0.00     0.091 C 
ATOM     13  S   UNL     1      -6.641   3.222   4.747  1.00  0.00    -0.106 SA
ATOM     14  C   UNL     1      -6.122   2.745   6.409  1.00  0.00     0.113 C 
ATOM     15  N   UNL     1      -5.398   0.930   4.888  1.00  0.00    -0.267 NA
ATOM     16  C   UNL     1      -5.088   1.658   6.159  1.00  0.00     0.205 CG0
ATOM     17  G   UNL     1      -3.672   2.254   6.119  1.00  0.00     0.000 G0
ENDBRANCH  11  12
BRANCH  11  18
ATOM     18  C   UNL     1      -8.027   1.501   2.304  1.00  0.00     0.015 C 
ATOM     19  C   UNL     1      -8.400   0.671   1.068  1.00  0.00     0.010 C 
BRANCH  18  20
ATOM     20  C   UNL     1      -9.065   1.330   3.432  1.00  0.00     0.002 C 
ATOM     21  C   UNL     1     -10.491   1.186   2.912  1.00  0.00     0.004 C 
ENDBRANCH  18  20
ENDBRANCH  11  18
ENDBRANCH   8  11
ENDBRANCH   3   7
ENDBRANCH   1   2
BRANCH   1  22
ATOM     22  N   UNL     1      -0.075   1.811   1.571  1.00  0.00    -0.348 N 
ATOM     23  C   UNL     1       0.673   0.666   1.618  1.00  0.00     0.249 C 
ATOM     24  O   UNL     1       1.286   0.223   0.653  1.00  0.00    -0.272 OA
ATOM     25  H   UNL     1      -0.555   2.079   2.429  1.00  0.00     0.163 HD
BRANCH  23  26
ATOM     26  C   UNL     1       0.709   0.036   3.019  1.00  0.00     0.238 C 
ATOM     27  N   UNL     1       0.578   1.109   4.043  1.00  0.00    -0.236 NA
ATOM     28  C   UNL     1      -0.468  -0.896   3.253  1.00  0.00     0.206 C 
ATOM     29  C   UNL     1      -0.599   0.894   4.551  1.00  0.00     0.208 C 
ATOM     30  O   UNL     1      -1.341  -0.147   4.097  1.00  0.00    -0.474 OA
ATOM     31  C   UNL     1      -0.067  -2.173   3.980  1.00  0.00     0.056 C 
BRANCH  29  32
ATOM     32  C   UNL     1      -1.297   1.744   5.608  1.00  0.00     0.171 C 
BRANCH  32  33
ATOM     33  N   UNL     1      -2.695   1.366   5.740  1.00  0.00    -0.342 N 
ATOM     34  C   UNL     1      -3.669   2.251   6.138  1.00  0.00     0.246 CG0
ATOM     35  O   UNL     1      -3.431   3.419   6.436  1.00  0.00    -0.273 OA
ATOM     36  H   UNL     1      -2.998   0.412   5.575  1.00  0.00     0.164 HD
ATOM     37  G   UNL     1      -5.091   1.668   6.155  1.00  0.00     0.000 G0
ENDBRANCH  32  33
BRANCH  32  38
ATOM     38  C   UNL     1      -0.532   1.670   6.956  1.00  0.00     0.017 C 
ATOM     39  C   UNL     1       0.120   0.291   7.116  1.00  0.00     0.010 C 
BRANCH  38  40
ATOM     40  C   UNL     1       0.498   2.810   7.127  1.00  0.00     0.002 C 
ATOM     41  C   UNL     1       1.944   2.330   7.133  1.00  0.00     0.004 C 
ENDBRANCH  38  40
ENDBRANCH  32  38
ENDBRANCH  29  32
ENDBRANCH  23  26
ENDBRANCH   1  22
TORSDOF 4
ENDMDL
MODEL 24
REMARK VINA RESULT:    -4.756      2.746      6.350
REMARK INTER + INTRA:          -9.896
REMARK INTER:                  -8.960
REMARK INTRA:                  -0.936
REMARK UNBOUND:                -1.804
REMARK SMILES CC[C@H](C)[C@@H]1NC(=O)[C@H]2CSC(=N2)[C@@H]([C@@H](C)CC)NC(=O)c2csc(n2)CNC(=O)[C@H]2N=C1O[C@@H]2C
REMARK SMILES IDX 27 1 25 2 22 3 26 4 23 5 24 6 20 7 19 8 21 9 14 11 12 12
REMARK SMILES IDX 11 13 10 14 13 15 9 16 15 18 16 19 17 20 18 21 28 22 29 23
REMARK SMILES IDX 30 24 31 26 32 27 35 28 33 29 34 30 36 31 5 32 6 33 7 34
REMARK SMILES IDX 8 35 3 38 4 39 2 40 1 41
REMARK H PARENT 19 10 28 25 6 36
REMARK Flexibility Score:   91.900
ROOT
ATOM      1  C   UNL     1      -5.194   4.647   0.471  1.00  0.00     0.183 C 
ENDROOT
BRANCH   1   2
ATOM      2  C   UNL     1      -4.049   3.687   0.319  1.00  0.00     0.113 A 
ATOM      3  C   UNL     1      -2.536   2.143   0.862  1.00  0.00     0.139 A 
ATOM      4  N   UNL     1      -3.701   2.811   1.244  1.00  0.00    -0.234 NA
ATOM      5  C   UNL     1      -2.058   2.495  -0.385  1.00  0.00     0.101 A 
ATOM      6  S   UNL     1      -3.063   3.696  -1.087  1.00  0.00    -0.125 S 
BRANCH   3   7
ATOM      7  C   UNL     1      -1.903   1.192   1.778  1.00  0.00     0.271 C 
ATOM      8  N   UNL     1      -0.779   1.723   2.361  1.00  0.00    -0.341 N 
ATOM      9  O   UNL     1      -2.313   0.054   1.967  1.00  0.00    -0.267 OA
ATOM     10  H   UNL     1      -0.576   2.693   2.124  1.00  0.00     0.164 HD
BRANCH   8  11
ATOM     11  C   UNL     1       0.161   0.961   3.168  1.00  0.00     0.140 C 
BRANCH  11  12
ATOM     12  C   UNL     1      -0.592   0.429   4.390  1.00  0.00     0.091 C 
ATOM     13  S   UNL     1      -0.544  -1.271   4.793  1.00  0.00    -0.106 SA
ATOM     14  C   UNL     1      -1.291  -0.925   6.399  1.00  0.00     0.113 C 
ATOM     15  N   UNL     1      -1.343   1.193   5.120  1.00  0.00    -0.267 NA
ATOM     16  C   UNL     1      -2.033   0.382   6.172  1.00  0.00     0.205 CG0
ATOM     17  G   UNL     1      -3.498   0.116   5.787  1.00  0.00     0.000 G0
ENDBRANCH  11  12
BRANCH  11  18
ATOM     18  C   UNL     1       0.986  -0.075   2.362  1.00  0.00     0.015 C 
ATOM     19  C   UNL     1       1.179   0.401   0.917  1.00  0.00     0.010 C 
BRANCH  18  20
ATOM     20  C   UNL     1       2.329  -0.472   3.009  1.00  0.00     0.002 C 
ATOM     21  C   UNL     1       3.512   0.314   2.454  1.00  0.00     0.004 C 
ENDBRANCH  18  20
ENDBRANCH  11  18
ENDBRANCH   8  11
ENDBRANCH   3   7
ENDBRANCH   1   2
BRANCH   1  22
ATOM     22  N   UNL     1      -5.697   4.510   1.819  1.00  0.00    -0.348 N 
ATOM     23  C   UNL     1      -6.745   3.708   2.183  1.00  0.00     0.249 C 
ATOM     24  O   UNL     1      -7.314   2.952   1.404  1.00  0.00    -0.272 OA
ATOM     25  H   UNL     1      -5.309   5.112   2.545  1.00  0.00     0.163 HD
BRANCH  23  26
ATOM     26  C   UNL     1      -7.085   3.815   3.677  1.00  0.00     0.238 C 
ATOM     27  N   UNL     1      -7.237   2.446   4.245  1.00  0.00    -0.236 NA
ATOM     28  C   UNL     1      -5.964   4.462   4.471  1.00  0.00     0.206 C 
ATOM     29  C   UNL     1      -6.205   2.332   5.026  1.00  0.00     0.208 C 
ATOM     30  O   UNL     1      -5.341   3.369   5.145  1.00  0.00    -0.474 OA
ATOM     31  C   UNL     1      -6.478   5.446   5.513  1.00  0.00     0.056 C 
BRANCH  29  32
ATOM     32  C   UNL     1      -5.806   1.092   5.821  1.00  0.00     0.171 C 
BRANCH  32  33
ATOM     33  N   UNL     1      -4.392   1.125   6.161  1.00  0.00    -0.342 N 
ATOM     34  C   UNL     1      -3.517   0.132   5.790  1.00  0.00     0.246 CG0
ATOM     35  O   UNL     1      -3.864  -0.869   5.169  1.00  0.00    -0.273 OA
ATOM     36  H   UNL     1      -4.005   1.876   6.723  1.00  0.00     0.164 HD
ATOM     37  G   UNL     1      -2.056   0.386   6.196  1.00  0.00     0.000 G0
ENDBRANCH  32  33
BRANCH  32  38
ATOM     38  C   UNL     1      -6.713   0.932   7.070  1.00  0.00     0.017 C 
ATOM     39  C   UNL     1      -7.272  -0.495   7.136  1.00  0.00     0.010 C 
BRANCH  38  40
ATOM     40  C   UNL     1      -6.004   1.328   8.385  1.00  0.00     0.002 C 
ATOM     41  C   UNL     1      -6.692   0.792   9.634  1.00  0.00     0.004 C 
ENDBRANCH  38  40
ENDBRANCH  32  38
ENDBRANCH  29  32
ENDBRANCH  23  26
ENDBRANCH   1  22
TORSDOF 4
ENDMDL
MODEL 25
REMARK VINA RESULT:    -4.663      2.066      3.114
REMARK INTER + INTRA:          -9.739
REMARK INTER:                  -8.831
REMARK INTRA:                  -0.908
REMARK UNBOUND:                -1.804
REMARK SMILES CC[C@H](C)[C@@H]1NC(=O)[C@H]2CSC(=N2)[C@@H]([C@@H](C)CC)NC(=O)c2csc(n2)CNC(=O)[C@H]2N=C1O[C@@H]2C
REMARK SMILES IDX 27 1 25 2 22 3 26 4 23 5 24 6 20 7 19 8 21 9 14 11 12 12
REMARK SMILES IDX 11 13 10 14 13 15 9 16 15 18 16 19 17 20 18 21 28 22 29 23
REMARK SMILES IDX 30 24 31 26 32 27 35 28 33 29 34 30 36 31 5 32 6 33 7 34
REMARK SMILES IDX 8 35 3 38 4 39 2 40 1 41
REMARK H PARENT 19 10 28 25 6 36
REMARK Flexibility Score:   91.900
ROOT
ATOM      1  C   UNL     1      -0.948   2.687  -1.276  1.00  0.00     0.183 C 
ENDROOT
BRANCH   1   2
ATOM      2  C   UNL     1      -0.612   1.939  -0.018  1.00  0.00     0.113 A 
ATOM      3  C   UNL     1      -0.863   1.055   2.012  1.00  0.00     0.139 A 
ATOM      4  N   UNL     1      -1.496   1.651   0.919  1.00  0.00    -0.234 NA
ATOM      5  C   UNL     1       0.493   0.852   1.846  1.00  0.00     0.101 A 
ATOM      6  S   UNL     1       0.995   1.436   0.313  1.00  0.00    -0.125 S 
BRANCH   3   7
ATOM      7  C   UNL     1      -1.629   0.736   3.219  1.00  0.00     0.271 C 
ATOM      8  N   UNL     1      -1.544   1.740   4.152  1.00  0.00    -0.341 N 
ATOM      9  O   UNL     1      -2.238  -0.314   3.381  1.00  0.00    -0.267 OA
ATOM     10  H   UNL     1      -1.019   2.565   3.864  1.00  0.00     0.164 HD
BRANCH   8  11
ATOM     11  C   UNL     1      -2.040   1.634   5.514  1.00  0.00     0.140 C 
BRANCH  11  12
ATOM     12  C   UNL     1      -3.569   1.567   5.453  1.00  0.00     0.091 C 
ATOM     13  S   UNL     1      -4.431   0.254   6.221  1.00  0.00    -0.106 SA
ATOM     14  C   UNL     1      -5.993   1.129   5.991  1.00  0.00     0.113 C 
ATOM     15  N   UNL     1      -4.268   2.424   4.778  1.00  0.00    -0.267 NA
ATOM     16  C   UNL     1      -5.716   2.047   4.811  1.00  0.00     0.205 CG0
ATOM     17  G   UNL     1      -6.140   1.382   3.492  1.00  0.00     0.000 G0
ENDBRANCH  11  12
BRANCH  11  18
ATOM     18  C   UNL     1      -1.335   0.542   6.358  1.00  0.00     0.015 C 
ATOM     19  C   UNL     1      -0.038   0.090   5.674  1.00  0.00     0.010 C 
BRANCH  18  20
ATOM     20  C   UNL     1      -1.091   0.924   7.832  1.00  0.00     0.002 C 
ATOM     21  C   UNL     1      -1.176   2.426   8.080  1.00  0.00     0.004 C 
ENDBRANCH  18  20
ENDBRANCH  11  18
ENDBRANCH   8  11
ENDBRANCH   3   7
ENDBRANCH   1   2
BRANCH   1  22
ATOM     22  N   UNL     1      -2.344   3.058  -1.199  1.00  0.00    -0.348 N 
ATOM     23  C   UNL     1      -3.296   2.707  -2.117  1.00  0.00     0.249 C 
ATOM     24  O   UNL     1      -3.074   1.962  -3.065  1.00  0.00    -0.272 OA
ATOM     25  H   UNL     1      -2.635   3.697  -0.460  1.00  0.00     0.163 HD
BRANCH  23  26
ATOM     26  C   UNL     1      -4.678   3.296  -1.796  1.00  0.00     0.238 C 
ATOM     27  N   UNL     1      -5.560   2.219  -1.269  1.00  0.00    -0.236 NA
ATOM     28  C   UNL     1      -4.609   4.341  -0.696  1.00  0.00     0.206 C 
ATOM     29  C   UNL     1      -5.713   2.545  -0.020  1.00  0.00     0.208 C 
ATOM     30  O   UNL     1      -5.120   3.668   0.453  1.00  0.00    -0.474 OA
ATOM     31  C   UNL     1      -5.489   5.551  -0.983  1.00  0.00     0.056 C 
BRANCH  29  32
ATOM     32  C   UNL     1      -6.474   1.748   1.036  1.00  0.00     0.171 C 
BRANCH  32  33
ATOM     33  N   UNL     1      -6.147   2.214   2.374  1.00  0.00    -0.342 N 
ATOM     34  C   UNL     1      -6.142   1.382   3.468  1.00  0.00     0.246 CG0
ATOM     35  O   UNL     1      -6.438   0.191   3.406  1.00  0.00    -0.273 OA
ATOM     36  H   UNL     1      -5.944   3.191   2.554  1.00  0.00     0.164 HD
ATOM     37  G   UNL     1      -5.712   2.057   4.781  1.00  0.00     0.000 G0
ENDBRANCH  32  33
BRANCH  32  38
ATOM     38  C   UNL     1      -7.999   1.784   0.750  1.00  0.00     0.017 C 
ATOM     39  C   UNL     1      -8.390   3.143   0.156  1.00  0.00     0.010 C 
BRANCH  38  40
ATOM     40  C   UNL     1      -8.472   0.615  -0.143  1.00  0.00     0.002 C 
ATOM     41  C   UNL     1      -7.499  -0.556  -0.181  1.00  0.00     0.004 C 
ENDBRANCH  38  40
ENDBRANCH  32  38
ENDBRANCH  29  32
ENDBRANCH  23  26
ENDBRANCH   1  22
TORSDOF 4
ENDMDL
MODEL 26
REMARK VINA RESULT:    -4.663      6.523     10.542
REMARK INTER + INTRA:          -9.738
REMARK INTER:                  -8.235
REMARK INTRA:                  -1.503
REMARK UNBOUND:                -1.804
REMARK SMILES CC[C@H](C)[C@@H]1NC(=O)[C@H]2CSC(=N2)[C@@H]([C@@H](C)CC)NC(=O)c2csc(n2)CNC(=O)[C@H]2N=C1O[C@@H]2C
REMARK SMILES IDX 27 1 25 2 22 3 26 4 23 5 24 6 20 7 19 8 21 9 14 11 12 12
REMARK SMILES IDX 11 13 10 14 13 15 9 16 15 18 16 19 17 20 18 21 28 22 29 23
REMARK SMILES IDX 30 24 31 26 32 27 35 28 33 29 34 30 36 31 5 32 6 33 7 34
REMARK SMILES IDX 8 35 3 38 4 39 2 40 1 41
REMARK H PARENT 19 10 28 25 6 36
REMARK Flexibility Score:   91.900
ROOT
ATOM      1  C   UNL     1      -6.511   2.469   0.716  1.00  0.00     0.183 C 
ENDROOT
BRANCH   1   2
ATOM      2  C   UNL     1      -7.852   3.015   0.317  1.00  0.00     0.113 A 
ATOM      3  C   UNL     1      -9.754   3.249  -0.821  1.00  0.00     0.139 A 
ATOM      4  N   UNL     1      -8.633   2.450  -0.586  1.00  0.00    -0.234 NA
ATOM      5  C   UNL     1      -9.822   4.384  -0.038  1.00  0.00     0.101 A 
ATOM      6  S   UNL     1      -8.454   4.473   0.995  1.00  0.00    -0.125 S 
BRANCH   3   7
ATOM      7  C   UNL     1     -10.716   2.873  -1.860  1.00  0.00     0.271 C 
ATOM      8  N   UNL     1     -10.342   1.719  -2.502  1.00  0.00    -0.341 N 
ATOM      9  O   UNL     1     -11.710   3.533  -2.137  1.00  0.00    -0.267 OA
ATOM     10  H   UNL     1      -9.501   1.268  -2.144  1.00  0.00     0.164 HD
BRANCH   8  11
ATOM     11  C   UNL     1     -10.992   1.200  -3.695  1.00  0.00     0.140 C 
BRANCH  11  12
ATOM     12  C   UNL     1     -10.225   1.724  -4.913  1.00  0.00     0.091 C 
ATOM     13  S   UNL     1     -10.443   0.988  -6.483  1.00  0.00    -0.106 SA
ATOM     14  C   UNL     1      -9.556   2.354  -7.261  1.00  0.00     0.113 C 
ATOM     15  N   UNL     1      -9.344   2.670  -4.815  1.00  0.00    -0.267 NA
ATOM     16  C   UNL     1      -8.684   2.897  -6.139  1.00  0.00     0.205 CG0
ATOM     17  G   UNL     1      -7.289   2.252  -6.174  1.00  0.00     0.000 G0
ENDBRANCH  11  12
BRANCH  11  18
ATOM     18  C   UNL     1     -11.259  -0.326  -3.654  1.00  0.00     0.015 C 
ATOM     19  C   UNL     1     -10.058  -1.064  -3.048  1.00  0.00     0.010 C 
BRANCH  18  20
ATOM     20  C   UNL     1     -12.577  -0.731  -2.962  1.00  0.00     0.002 C 
ATOM     21  C   UNL     1     -13.637   0.363  -3.012  1.00  0.00     0.004 C 
ENDBRANCH  18  20
ENDBRANCH  11  18
ENDBRANCH   8  11
ENDBRANCH   3   7
ENDBRANCH   1   2
BRANCH   1  22
ATOM     22  N   UNL     1      -5.572   2.827  -0.323  1.00  0.00    -0.348 N 
ATOM     23  C   UNL     1      -4.466   2.095  -0.661  1.00  0.00     0.249 C 
ATOM     24  O   UNL     1      -4.205   1.004  -0.165  1.00  0.00    -0.272 OA
ATOM     25  H   UNL     1      -5.682   3.728  -0.787  1.00  0.00     0.163 HD
BRANCH  23  26
ATOM     26  C   UNL     1      -3.628   2.757  -1.765  1.00  0.00     0.238 C 
ATOM     27  N   UNL     1      -3.781   1.983  -3.028  1.00  0.00    -0.236 NA
ATOM     28  C   UNL     1      -4.116   4.159  -2.086  1.00  0.00     0.206 C 
ATOM     29  C   UNL     1      -4.461   2.787  -3.790  1.00  0.00     0.208 C 
ATOM     30  O   UNL     1      -4.814   4.009  -3.321  1.00  0.00    -0.474 OA
ATOM     31  C   UNL     1      -2.972   5.143  -2.291  1.00  0.00     0.056 C 
BRANCH  29  32
ATOM     32  C   UNL     1      -4.974   2.485  -5.195  1.00  0.00     0.171 C 
BRANCH  32  33
ATOM     33  N   UNL     1      -6.350   2.930  -5.352  1.00  0.00    -0.342 N 
ATOM     34  C   UNL     1      -7.255   2.273  -6.151  1.00  0.00     0.246 CG0
ATOM     35  O   UNL     1      -6.966   1.278  -6.812  1.00  0.00    -0.273 OA
ATOM     36  H   UNL     1      -6.683   3.774  -4.899  1.00  0.00     0.164 HD
ATOM     37  G   UNL     1      -8.671   2.870  -6.134  1.00  0.00     0.000 G0
ENDBRANCH  32  33
BRANCH  32  38
ATOM     38  C   UNL     1      -4.027   3.093  -6.262  1.00  0.00     0.017 C 
ATOM     39  C   UNL     1      -2.743   3.605  -5.596  1.00  0.00     0.010 C 
BRANCH  38  40
ATOM     40  C   UNL     1      -3.716   2.117  -7.420  1.00  0.00     0.002 C 
ATOM     41  C   UNL     1      -2.694   2.654  -8.412  1.00  0.00     0.004 C 
ENDBRANCH  38  40
ENDBRANCH  32  38
ENDBRANCH  29  32
ENDBRANCH  23  26
ENDBRANCH   1  22
TORSDOF 4
ENDMDL
MODEL 27
REMARK VINA RESULT:    -4.654      7.775     12.689
REMARK INTER + INTRA:          -9.724
REMARK INTER:                  -8.177
REMARK INTRA:                  -1.547
REMARK UNBOUND:                -1.804
REMARK SMILES CC[C@H](C)[C@@H]1NC(=O)[C@H]2CSC(=N2)[C@@H]([C@@H](C)CC)NC(=O)c2csc(n2)CNC(=O)[C@H]2N=C1O[C@@H]2C
REMARK SMILES IDX 27 1 25 2 22 3 26 4 23 5 24 6 20 7 19 8 21 9 14 11 12 12
REMARK SMILES IDX 11 13 10 14 13 15 9 16 15 18 16 19 17 20 18 21 28 22 29 23
REMARK SMILES IDX 30 24 31 26 32 27 35 28 33 29 34 30 36 31 5 32 6 33 7 34
REMARK SMILES IDX 8 35 3 38 4 39 2 40 1 41
REMARK H PARENT 19 10 28 25 6 36
REMARK Flexibility Score:   91.900
ROOT
ATOM      1  C   UNL     1     -11.707   0.936  -3.580  1.00  0.00     0.183 C 
ENDROOT
BRANCH   1   2
ATOM      2  C   UNL     1     -11.639   1.676  -4.886  1.00  0.00     0.113 A 
ATOM      3  C   UNL     1     -10.894   2.304  -6.890  1.00  0.00     0.139 A 
ATOM      4  N   UNL     1     -10.798   1.369  -5.857  1.00  0.00    -0.234 NA
ATOM      5  C   UNL     1     -11.858   3.273  -6.697  1.00  0.00     0.101 A 
ATOM      6  S   UNL     1     -12.645   3.033  -5.190  1.00  0.00    -0.125 S 
BRANCH   3   7
ATOM      7  C   UNL     1      -9.984   2.226  -8.035  1.00  0.00     0.271 C 
ATOM      8  N   UNL     1      -8.997   1.292  -7.835  1.00  0.00    -0.341 N 
ATOM      9  O   UNL     1     -10.080   2.934  -9.029  1.00  0.00    -0.267 OA
ATOM     10  H   UNL     1      -9.062   0.762  -6.966  1.00  0.00     0.164 HD
BRANCH   8  11
ATOM     11  C   UNL     1      -7.847   1.119  -8.706  1.00  0.00     0.140 C 
BRANCH  11  12
ATOM     12  C   UNL     1      -6.603   1.572  -7.936  1.00  0.00     0.091 C 
ATOM     13  S   UNL     1      -5.086   0.721  -8.122  1.00  0.00    -0.106 SA
ATOM     14  C   UNL     1      -4.222   2.047  -7.253  1.00  0.00     0.113 C 
ATOM     15  N   UNL     1      -6.642   2.539  -7.075  1.00  0.00    -0.267 NA
ATOM     16  C   UNL     1      -5.311   2.685  -6.405  1.00  0.00     0.205 CG0
ATOM     17  G   UNL     1      -5.336   2.067  -4.997  1.00  0.00     0.000 G0
ENDBRANCH  11  12
BRANCH  11  18
ATOM     18  C   UNL     1      -7.771  -0.274  -9.381  1.00  0.00     0.015 C 
ATOM     19  C   UNL     1      -8.892  -1.183  -8.860  1.00  0.00     0.010 C 
BRANCH  18  20
ATOM     20  C   UNL     1      -7.742  -0.243 -10.923  1.00  0.00     0.002 C 
ATOM     21  C   UNL     1      -7.993  -1.609 -11.551  1.00  0.00     0.004 C 
ENDBRANCH  18  20
ENDBRANCH  11  18
ENDBRANCH   8  11
ENDBRANCH   3   7
ENDBRANCH   1   2
BRANCH   1  22
ATOM     22  N   UNL     1     -10.688   1.488  -2.716  1.00  0.00    -0.348 N 
ATOM     23  C   UNL     1      -9.518   0.858  -2.390  1.00  0.00     0.249 C 
ATOM     24  O   UNL     1      -9.176  -0.217  -2.871  1.00  0.00    -0.272 OA
ATOM     25  H   UNL     1     -10.880   2.370  -2.243  1.00  0.00     0.163 HD
BRANCH  23  26
ATOM     26  C   UNL     1      -8.659   1.668  -1.407  1.00  0.00     0.238 C 
ATOM     27  N   UNL     1      -7.230   1.282  -1.570  1.00  0.00    -0.236 NA
ATOM     28  C   UNL     1      -8.714   3.158  -1.700  1.00  0.00     0.206 C 
ATOM     29  C   UNL     1      -6.693   2.342  -2.096  1.00  0.00     0.208 C 
ATOM     30  O   UNL     1      -7.463   3.433  -2.329  1.00  0.00    -0.474 OA
ATOM     31  C   UNL     1      -8.817   3.999  -0.434  1.00  0.00     0.056 C 
BRANCH  29  32
ATOM     32  C   UNL     1      -5.244   2.491  -2.549  1.00  0.00     0.171 C 
BRANCH  32  33
ATOM     33  N   UNL     1      -5.175   2.914  -3.939  1.00  0.00    -0.342 N 
ATOM     34  C   UNL     1      -5.351   2.043  -4.988  1.00  0.00     0.246 CG0
ATOM     35  O   UNL     1      -5.554   0.841  -4.834  1.00  0.00    -0.273 OA
ATOM     36  H   UNL     1      -4.955   3.873  -4.185  1.00  0.00     0.164 HD
ATOM     37  G   UNL     1      -5.299   2.700  -6.376  1.00  0.00     0.000 G0
ENDBRANCH  32  33
BRANCH  32  38
ATOM     38  C   UNL     1      -4.473   3.445  -1.598  1.00  0.00     0.017 C 
ATOM     39  C   UNL     1      -3.411   2.664  -0.815  1.00  0.00     0.010 C 
BRANCH  38  40
ATOM     40  C   UNL     1      -3.861   4.661  -2.332  1.00  0.00     0.002 C 
ATOM     41  C   UNL     1      -2.368   4.522  -2.599  1.00  0.00     0.004 C 
ENDBRANCH  38  40
ENDBRANCH  32  38
ENDBRANCH  29  32
ENDBRANCH  23  26
ENDBRANCH   1  22
TORSDOF 4
ENDMDL
MODEL 28
REMARK VINA RESULT:    -4.647      7.087     11.588
REMARK INTER + INTRA:          -9.711
REMARK INTER:                  -7.963
REMARK INTRA:                  -1.748
REMARK UNBOUND:                -1.804
REMARK SMILES CC[C@H](C)[C@@H]1NC(=O)[C@H]2CSC(=N2)[C@@H]([C@@H](C)CC)NC(=O)c2csc(n2)CNC(=O)[C@H]2N=C1O[C@@H]2C
REMARK SMILES IDX 27 1 25 2 22 3 26 4 23 5 24 6 20 7 19 8 21 9 14 11 12 12
REMARK SMILES IDX 11 13 10 14 13 15 9 16 15 18 16 19 17 20 18 21 28 22 29 23
REMARK SMILES IDX 30 24 31 26 32 27 35 28 33 29 34 30 36 31 5 32 6 33 7 34
REMARK SMILES IDX 8 35 3 38 4 39 2 40 1 41
REMARK H PARENT 19 10 28 25 6 36
REMARK Flexibility Score:   91.900
ROOT
ATOM      1  C   UNL     1      -9.542   4.536   0.729  1.00  0.00     0.183 C 
ENDROOT
BRANCH   1   2
ATOM      2  C   UNL     1     -10.918   4.306   0.171  1.00  0.00     0.113 A 
ATOM      3  C   UNL     1     -12.514   3.608  -1.219  1.00  0.00     0.139 A 
ATOM      4  N   UNL     1     -11.164   3.532  -0.870  1.00  0.00    -0.234 NA
ATOM      5  C   UNL     1     -13.276   4.404  -0.386  1.00  0.00     0.101 A 
ATOM      6  S   UNL     1     -12.290   5.090   0.840  1.00  0.00    -0.125 S 
BRANCH   3   7
ATOM      7  C   UNL     1     -13.004   2.910  -2.409  1.00  0.00     0.271 C 
ATOM      8  N   UNL     1     -12.113   1.959  -2.840  1.00  0.00    -0.341 N 
ATOM      9  O   UNL     1     -14.064   3.172  -2.964  1.00  0.00    -0.267 OA
ATOM     10  H   UNL     1     -11.283   1.838  -2.261  1.00  0.00     0.164 HD
BRANCH   8  11
ATOM     11  C   UNL     1     -12.233   1.236  -4.096  1.00  0.00     0.140 C 
BRANCH  11  12
ATOM     12  C   UNL     1     -11.031   1.608  -4.969  1.00  0.00     0.091 C 
ATOM     13  S   UNL     1     -10.587   0.616  -6.338  1.00  0.00    -0.106 SA
ATOM     14  C   UNL     1      -9.451   1.896  -6.914  1.00  0.00     0.113 C 
ATOM     15  N   UNL     1     -10.263   2.613  -4.688  1.00  0.00    -0.267 NA
ATOM     16  C   UNL     1      -9.115   2.668  -5.648  1.00  0.00     0.205 CG0
ATOM     17  G   UNL     1      -7.833   2.120  -5.001  1.00  0.00     0.000 G0
ENDBRANCH  11  12
BRANCH  11  18
ATOM     18  C   UNL     1     -12.519  -0.278  -3.927  1.00  0.00     0.015 C 
ATOM     19  C   UNL     1     -11.500  -0.912  -2.971  1.00  0.00     0.010 C 
BRANCH  18  20
ATOM     20  C   UNL     1     -13.966  -0.618  -3.514  1.00  0.00     0.002 C 
ATOM     21  C   UNL     1     -14.052  -1.826  -2.587  1.00  0.00     0.004 C 
ENDBRANCH  18  20
ENDBRANCH  11  18
ENDBRANCH   8  11
ENDBRANCH   3   7
ENDBRANCH   1   2
BRANCH   1  22
ATOM     22  N   UNL     1      -8.713   3.431   0.305  1.00  0.00    -0.348 N 
ATOM     23  C   UNL     1      -8.659   2.213   0.927  1.00  0.00     0.249 C 
ATOM     24  O   UNL     1      -9.383   1.906   1.868  1.00  0.00    -0.272 OA
ATOM     25  H   UNL     1      -8.054   3.584  -0.457  1.00  0.00     0.163 HD
BRANCH  23  26
ATOM     26  C   UNL     1      -7.644   1.258   0.281  1.00  0.00     0.238 C 
ATOM     27  N   UNL     1      -7.786   1.319  -1.200  1.00  0.00    -0.236 NA
ATOM     28  C   UNL     1      -6.211   1.672   0.569  1.00  0.00     0.206 C 
ATOM     29  C   UNL     1      -6.689   1.902  -1.581  1.00  0.00     0.208 C 
ATOM     30  O   UNL     1      -5.768   2.260  -0.653  1.00  0.00    -0.474 OA
ATOM     31  C   UNL     1      -5.313   0.485   0.892  1.00  0.00     0.056 C 
BRANCH  29  32
ATOM     32  C   UNL     1      -6.322   2.295  -3.009  1.00  0.00     0.171 C 
BRANCH  32  33
ATOM     33  N   UNL     1      -7.505   2.680  -3.763  1.00  0.00    -0.342 N 
ATOM     34  C   UNL     1      -7.795   2.161  -5.002  1.00  0.00     0.246 CG0
ATOM     35  O   UNL     1      -7.067   1.357  -5.579  1.00  0.00    -0.273 OA
ATOM     36  H   UNL     1      -8.146   3.381  -3.409  1.00  0.00     0.164 HD
ATOM     37  G   UNL     1      -9.122   2.652  -5.603  1.00  0.00     0.000 G0
ENDBRANCH  32  33
BRANCH  32  38
ATOM     38  C   UNL     1      -5.234   3.402  -3.005  1.00  0.00     0.017 C 
ATOM     39  C   UNL     1      -4.416   3.341  -4.302  1.00  0.00     0.010 C 
BRANCH  38  40
ATOM     40  C   UNL     1      -5.812   4.815  -2.762  1.00  0.00     0.002 C 
ATOM     41  C   UNL     1      -5.223   5.513  -1.544  1.00  0.00     0.004 C 
ENDBRANCH  38  40
ENDBRANCH  32  38
ENDBRANCH  29  32
ENDBRANCH  23  26
ENDBRANCH   1  22
TORSDOF 4
ENDMDL
MODEL 29
REMARK VINA RESULT:    -4.644     10.273     14.224
REMARK INTER + INTRA:          -9.707
REMARK INTER:                  -8.217
REMARK INTRA:                  -1.490
REMARK UNBOUND:                -1.804
REMARK SMILES CC[C@H](C)[C@@H]1NC(=O)[C@H]2CSC(=N2)[C@@H]([C@@H](C)CC)NC(=O)c2csc(n2)CNC(=O)[C@H]2N=C1O[C@@H]2C
REMARK SMILES IDX 27 1 25 2 22 3 26 4 23 5 24 6 20 7 19 8 21 9 14 11 12 12
REMARK SMILES IDX 11 13 10 14 13 15 9 16 15 18 16 19 17 20 18 21 28 22 29 23
REMARK SMILES IDX 30 24 31 26 32 27 35 28 33 29 34 30 36 31 5 32 6 33 7 34
REMARK SMILES IDX 8 35 3 38 4 39 2 40 1 41
REMARK H PARENT 19 10 28 25 6 36
REMARK Flexibility Score:   91.900
ROOT
ATOM      1  C   UNL     1      -7.838   5.193  -5.070  1.00  0.00     0.183 C 
ENDROOT
BRANCH   1   2
ATOM      2  C   UNL     1      -6.864   4.054  -5.158  1.00  0.00     0.113 A 
ATOM      3  C   UNL     1      -5.812   2.268  -5.978  1.00  0.00     0.139 A 
ATOM      4  N   UNL     1      -6.698   3.315  -6.240  1.00  0.00    -0.234 NA
ATOM      5  C   UNL     1      -5.277   2.277  -4.704  1.00  0.00     0.101 A 
ATOM      6  S   UNL     1      -5.908   3.597  -3.807  1.00  0.00    -0.125 S 
BRANCH   3   7
ATOM      7  C   UNL     1      -5.549   1.256  -7.003  1.00  0.00     0.271 C 
ATOM      8  N   UNL     1      -5.343   1.826  -8.235  1.00  0.00    -0.341 N 
ATOM      9  O   UNL     1      -5.550   0.051  -6.785  1.00  0.00    -0.267 OA
ATOM     10  H   UNL     1      -5.349   2.845  -8.256  1.00  0.00     0.164 HD
BRANCH   8  11
ATOM     11  C   UNL     1      -5.244   1.075  -9.476  1.00  0.00     0.140 C 
BRANCH  11  12
ATOM     12  C   UNL     1      -6.566   1.241 -10.232  1.00  0.00     0.091 C 
ATOM     13  S   UNL     1      -6.584   1.873 -11.861  1.00  0.00    -0.106 SA
ATOM     14  C   UNL     1      -8.313   1.388 -12.044  1.00  0.00     0.113 C 
ATOM     15  N   UNL     1      -7.710   0.993  -9.676  1.00  0.00    -0.267 NA
ATOM     16  C   UNL     1      -8.823   1.346 -10.612  1.00  0.00     0.205 CG0
ATOM     17  G   UNL     1      -9.463   2.688 -10.223  1.00  0.00     0.000 G0
ENDBRANCH  11  12
BRANCH  11  18
ATOM     18  C   UNL     1      -3.950   1.357 -10.282  1.00  0.00     0.015 C 
ATOM     19  C   UNL     1      -3.291   2.656  -9.800  1.00  0.00     0.010 C 
BRANCH  18  20
ATOM     20  C   UNL     1      -2.941   0.190 -10.310  1.00  0.00     0.002 C 
ATOM     21  C   UNL     1      -1.491   0.658 -10.335  1.00  0.00     0.004 C 
ENDBRANCH  18  20
ENDBRANCH  11  18
ENDBRANCH   8  11
ENDBRANCH   3   7
ENDBRANCH   1   2
BRANCH   1  22
ATOM     22  N   UNL     1      -9.137   4.682  -5.450  1.00  0.00    -0.348 N 
ATOM     23  C   UNL     1     -10.316   5.021  -4.843  1.00  0.00     0.249 C 
ATOM     24  O   UNL     1     -10.398   5.868  -3.961  1.00  0.00    -0.272 OA
ATOM     25  H   UNL     1      -9.182   3.953  -6.161  1.00  0.00     0.163 HD
BRANCH  23  26
ATOM     26  C   UNL     1     -11.523   4.274  -5.429  1.00  0.00     0.238 C 
ATOM     27  N   UNL     1     -11.783   4.767  -6.810  1.00  0.00    -0.236 NA
ATOM     28  C   UNL     1     -11.255   2.785  -5.573  1.00  0.00     0.206 C 
ATOM     29  C   UNL     1     -11.460   3.752  -7.555  1.00  0.00     0.208 C 
ATOM     30  O   UNL     1     -11.029   2.607  -6.970  1.00  0.00    -0.474 OA
ATOM     31  C   UNL     1     -12.449   1.935  -5.161  1.00  0.00     0.056 C 
BRANCH  29  32
ATOM     32  C   UNL     1     -11.458   3.714  -9.080  1.00  0.00     0.171 C 
BRANCH  32  33
ATOM     33  N   UNL     1     -10.709   2.568  -9.570  1.00  0.00    -0.342 N 
ATOM     34  C   UNL     1      -9.497   2.691 -10.208  1.00  0.00     0.246 CG0
ATOM     35  O   UNL     1      -8.968   3.776 -10.435  1.00  0.00    -0.273 OA
ATOM     36  H   UNL     1     -11.079   1.626  -9.490  1.00  0.00     0.164 HD
ATOM     37  G   UNL     1      -8.842   1.356 -10.594  1.00  0.00     0.000 G0
ENDBRANCH  32  33
BRANCH  32  38
ATOM     38  C   UNL     1     -12.910   3.753  -9.626  1.00  0.00     0.017 C 
ATOM     39  C   UNL     1     -13.332   5.202  -9.898  1.00  0.00     0.010 C 
BRANCH  38  40
ATOM     40  C   UNL     1     -13.111   2.858 -10.871  1.00  0.00     0.002 C 
ATOM     41  C   UNL     1     -14.361   3.199 -11.671  1.00  0.00     0.004 C 
ENDBRANCH  38  40
ENDBRANCH  32  38
ENDBRANCH  29  32
ENDBRANCH  23  26
ENDBRANCH   1  22
TORSDOF 4
ENDMDL
MODEL 30
REMARK VINA RESULT:    -4.587      4.319      8.894
REMARK INTER + INTRA:          -9.608
REMARK INTER:                  -7.978
REMARK INTRA:                  -1.631
REMARK UNBOUND:                -1.804
REMARK SMILES CC[C@H](C)[C@@H]1NC(=O)[C@H]2CSC(=N2)[C@@H]([C@@H](C)CC)NC(=O)c2csc(n2)CNC(=O)[C@H]2N=C1O[C@@H]2C
REMARK SMILES IDX 27 1 25 2 22 3 26 4 23 5 24 6 20 7 19 8 21 9 14 11 12 12
REMARK SMILES IDX 11 13 10 14 13 15 9 16 15 18 16 19 17 20 18 21 28 22 29 23
REMARK SMILES IDX 30 24 31 26 32 27 35 28 33 29 34 30 36 31 5 32 6 33 7 34
REMARK SMILES IDX 8 35 3 38 4 39 2 40 1 41
REMARK H PARENT 19 10 28 25 6 36
REMARK Flexibility Score:   91.900
ROOT
ATOM      1  C   UNL     1      -6.851   2.597   4.635  1.00  0.00     0.183 C 
ENDROOT
BRANCH   1   2
ATOM      2  C   UNL     1      -8.183   2.844   3.986  1.00  0.00     0.113 A 
ATOM      3  C   UNL     1      -9.702   3.101   2.376  1.00  0.00     0.139 A 
ATOM      4  N   UNL     1      -8.407   2.685   2.695  1.00  0.00    -0.234 NA
ATOM      5  C   UNL     1     -10.453   3.515   3.458  1.00  0.00     0.101 A 
ATOM      6  S   UNL     1      -9.523   3.409   4.897  1.00  0.00    -0.125 S 
BRANCH   3   7
ATOM      7  C   UNL     1     -10.145   3.110   0.980  1.00  0.00     0.271 C 
ATOM      8  N   UNL     1      -9.390   2.266   0.203  1.00  0.00    -0.341 N 
ATOM      9  O   UNL     1     -11.055   3.814   0.560  1.00  0.00    -0.267 OA
ATOM     10  H   UNL     1      -8.681   1.727   0.699  1.00  0.00     0.164 HD
BRANCH   8  11
ATOM     11  C   UNL     1      -9.468   2.201  -1.247  1.00  0.00     0.140 C 
BRANCH  11  12
ATOM     12  C   UNL     1      -8.258   2.947  -1.817  1.00  0.00     0.091 C 
ATOM     13  S   UNL     1      -7.970   2.985  -3.540  1.00  0.00    -0.106 SA
ATOM     14  C   UNL     1      -6.715   4.263  -3.315  1.00  0.00     0.113 C 
ATOM     15  N   UNL     1      -7.374   3.506  -1.052  1.00  0.00    -0.267 NA
ATOM     16  C   UNL     1      -6.257   4.062  -1.879  1.00  0.00     0.205 CG0
ATOM     17  G   UNL     1      -5.026   3.143  -1.825  1.00  0.00     0.000 G0
ENDBRANCH  11  12
BRANCH  11  18
ATOM     18  C   UNL     1      -9.723   0.775  -1.801  1.00  0.00     0.015 C 
ATOM     19  C   UNL     1      -8.785  -0.236  -1.127  1.00  0.00     0.010 C 
BRANCH  18  20
ATOM     20  C   UNL     1     -11.192   0.311  -1.736  1.00  0.00     0.002 C 
ATOM     21  C   UNL     1     -11.797   0.057  -3.112  1.00  0.00     0.004 C 
ENDBRANCH  18  20
ENDBRANCH  11  18
ENDBRANCH   8  11
ENDBRANCH   3   7
ENDBRANCH   1   2
BRANCH   1  22
ATOM     22  N   UNL     1      -6.111   1.700   3.777  1.00  0.00    -0.348 N 
ATOM     23  C   UNL     1      -4.815   1.312   3.986  1.00  0.00     0.249 C 
ATOM     24  O   UNL     1      -4.172   1.625   4.982  1.00  0.00    -0.272 OA
ATOM     25  H   UNL     1      -6.545   1.395   2.906  1.00  0.00     0.163 HD
BRANCH  23  26
ATOM     26  C   UNL     1      -4.281   0.398   2.874  1.00  0.00     0.238 C 
ATOM     27  N   UNL     1      -4.686   0.946   1.550  1.00  0.00    -0.236 NA
ATOM     28  C   UNL     1      -2.762   0.359   2.850  1.00  0.00     0.206 C 
ATOM     29  C   UNL     1      -3.561   1.348   1.037  1.00  0.00     0.208 C 
ATOM     30  O   UNL     1      -2.412   1.178   1.735  1.00  0.00    -0.474 OA
ATOM     31  C   UNL     1      -2.217  -1.043   2.614  1.00  0.00     0.056 C 
BRANCH  29  32
ATOM     32  C   UNL     1      -3.381   2.069  -0.296  1.00  0.00     0.171 C 
BRANCH  32  33
ATOM     33  N   UNL     1      -4.503   2.955  -0.563  1.00  0.00    -0.342 N 
ATOM     34  C   UNL     1      -5.023   3.133  -1.823  1.00  0.00     0.246 CG0
ATOM     35  O   UNL     1      -4.567   2.579  -2.820  1.00  0.00    -0.273 OA
ATOM     36  H   UNL     1      -4.921   3.509   0.177  1.00  0.00     0.164 HD
ATOM     37  G   UNL     1      -6.244   4.065  -1.882  1.00  0.00     0.000 G0
ENDBRANCH  32  33
BRANCH  32  38
ATOM     38  C   UNL     1      -2.017   2.808  -0.334  1.00  0.00     0.017 C 
ATOM     39  C   UNL     1      -1.156   2.265  -1.481  1.00  0.00     0.010 C 
BRANCH  38  40
ATOM     40  C   UNL     1      -2.166   4.345  -0.412  1.00  0.00     0.002 C 
ATOM     41  C   UNL     1      -0.929   5.101   0.053  1.00  0.00     0.004 C 
ENDBRANCH  38  40
ENDBRANCH  32  38
ENDBRANCH  29  32
ENDBRANCH  23  26
ENDBRANCH   1  22
TORSDOF 4
ENDMDL
MODEL 31
REMARK VINA RESULT:    -4.575      5.156      7.696
REMARK INTER + INTRA:          -9.589
REMARK INTER:                  -8.688
REMARK INTRA:                  -0.901
REMARK UNBOUND:                -1.804
REMARK SMILES CC[C@H](C)[C@@H]1NC(=O)[C@H]2CSC(=N2)[C@@H]([C@@H](C)CC)NC(=O)c2csc(n2)CNC(=O)[C@H]2N=C1O[C@@H]2C
REMARK SMILES IDX 27 1 25 2 22 3 26 4 23 5 24 6 20 7 19 8 21 9 14 11 12 12
REMARK SMILES IDX 11 13 10 14 13 15 9 16 15 18 16 19 17 20 18 21 28 22 29 23
REMARK SMILES IDX 30 24 31 26 32 27 35 28 33 29 34 30 36 31 5 32 6 33 7 34
REMARK SMILES IDX 8 35 3 38 4 39 2 40 1 41
REMARK H PARENT 19 10 28 25 6 36
REMARK Flexibility Score:   91.900
ROOT
ATOM      1  C   UNL     1      -3.856   3.278  -5.868  1.00  0.00     0.183 C 
ENDROOT
BRANCH   1   2
ATOM      2  C   UNL     1      -3.387   3.443  -4.451  1.00  0.00     0.113 A 
ATOM      3  C   UNL     1      -3.458   3.500  -2.224  1.00  0.00     0.139 A 
ATOM      4  N   UNL     1      -4.117   3.127  -3.397  1.00  0.00    -0.234 NA
ATOM      5  C   UNL     1      -2.203   4.043  -2.421  1.00  0.00     0.101 A 
ATOM      6  S   UNL     1      -1.847   4.115  -4.099  1.00  0.00    -0.125 S 
BRANCH   3   7
ATOM      7  C   UNL     1      -4.120   3.339  -0.928  1.00  0.00     0.271 C 
ATOM      8  N   UNL     1      -4.524   4.546  -0.413  1.00  0.00    -0.341 N 
ATOM      9  O   UNL     1      -4.261   2.260  -0.366  1.00  0.00    -0.267 OA
ATOM     10  H   UNL     1      -4.360   5.356  -1.008  1.00  0.00     0.164 HD
BRANCH   8  11
ATOM     11  C   UNL     1      -5.040   4.727   0.934  1.00  0.00     0.140 C 
BRANCH  11  12
ATOM     12  C   UNL     1      -6.407   4.040   1.011  1.00  0.00     0.091 C 
ATOM     13  S   UNL     1      -6.714   2.807   2.211  1.00  0.00    -0.106 SA
ATOM     14  C   UNL     1      -8.479   2.865   1.837  1.00  0.00     0.113 C 
ATOM     15  N   UNL     1      -7.349   4.289   0.156  1.00  0.00    -0.267 NA
ATOM     16  C   UNL     1      -8.523   3.397   0.413  1.00  0.00     0.205 CG0
ATOM     17  G   UNL     1      -8.565   2.240  -0.599  1.00  0.00     0.000 G0
ENDBRANCH  11  12
BRANCH  11  18
ATOM     18  C   UNL     1      -4.026   4.370   2.051  1.00  0.00     0.015 C 
ATOM     19  C   UNL     1      -2.588   4.544   1.543  1.00  0.00     0.010 C 
BRANCH  18  20
ATOM     20  C   UNL     1      -4.246   5.113   3.384  1.00  0.00     0.002 C 
ATOM     21  C   UNL     1      -4.142   4.199   4.600  1.00  0.00     0.004 C 
ENDBRANCH  18  20
ENDBRANCH  11  18
ENDBRANCH   8  11
ENDBRANCH   3   7
ENDBRANCH   1   2
BRANCH   1  22
ATOM     22  N   UNL     1      -5.302   3.259  -5.846  1.00  0.00    -0.348 N 
ATOM     23  C   UNL     1      -6.072   2.168  -6.144  1.00  0.00     0.249 C 
ATOM     24  O   UNL     1      -5.604   1.060  -6.381  1.00  0.00    -0.272 OA
ATOM     25  H   UNL     1      -5.795   4.136  -5.681  1.00  0.00     0.163 HD
BRANCH  23  26
ATOM     26  C   UNL     1      -7.577   2.469  -6.089  1.00  0.00     0.238 C 
ATOM     27  N   UNL     1      -8.247   1.463  -5.218  1.00  0.00    -0.236 NA
ATOM     28  C   UNL     1      -7.865   3.816  -5.448  1.00  0.00     0.206 C 
ATOM     29  C   UNL     1      -8.604   2.158  -4.180  1.00  0.00     0.208 C 
ATOM     30  O   UNL     1      -8.334   3.486  -4.142  1.00  0.00    -0.474 OA
ATOM     31  C   UNL     1      -8.957   4.587  -6.177  1.00  0.00     0.056 C 
BRANCH  29  32
ATOM     32  C   UNL     1      -9.277   1.621  -2.920  1.00  0.00     0.171 C 
BRANCH  32  33
ATOM     33  N   UNL     1      -9.158   2.569  -1.823  1.00  0.00    -0.342 N 
ATOM     34  C   UNL     1      -8.600   2.235  -0.612  1.00  0.00     0.246 CG0
ATOM     35  O   UNL     1      -8.185   1.108  -0.354  1.00  0.00    -0.273 OA
ATOM     36  H   UNL     1      -9.521   3.512  -1.904  1.00  0.00     0.164 HD
ATOM     37  G   UNL     1      -8.515   3.396   0.392  1.00  0.00     0.000 G0
ENDBRANCH  32  33
BRANCH  32  38
ATOM     38  C   UNL     1     -10.750   1.234  -3.214  1.00  0.00     0.017 C 
ATOM     39  C   UNL     1     -11.400   2.285  -4.123  1.00  0.00     0.010 C 
BRANCH  38  40
ATOM     40  C   UNL     1     -10.894  -0.191  -3.798  1.00  0.00     0.002 C 
ATOM     41  C   UNL     1     -12.012  -1.002  -3.156  1.00  0.00     0.004 C 
ENDBRANCH  38  40
ENDBRANCH  32  38
ENDBRANCH  29  32
ENDBRANCH  23  26
ENDBRANCH   1  22
TORSDOF 4
ENDMDL
MODEL 32
REMARK VINA RESULT:    -4.565      7.830     11.730
REMARK INTER + INTRA:          -9.571
REMARK INTER:                  -8.035
REMARK INTRA:                  -1.536
REMARK UNBOUND:                -1.804
REMARK SMILES CC[C@H](C)[C@@H]1NC(=O)[C@H]2CSC(=N2)[C@@H]([C@@H](C)CC)NC(=O)c2csc(n2)CNC(=O)[C@H]2N=C1O[C@@H]2C
REMARK SMILES IDX 27 1 25 2 22 3 26 4 23 5 24 6 20 7 19 8 21 9 14 11 12 12
REMARK SMILES IDX 11 13 10 14 13 15 9 16 15 18 16 19 17 20 18 21 28 22 29 23
REMARK SMILES IDX 30 24 31 26 32 27 35 28 33 29 34 30 36 31 5 32 6 33 7 34
REMARK SMILES IDX 8 35 3 38 4 39 2 40 1 41
REMARK H PARENT 19 10 28 25 6 36
REMARK Flexibility Score:   91.900
ROOT
ATOM      1  C   UNL     1      -7.611   1.728  -0.147  1.00  0.00     0.183 C 
ENDROOT
BRANCH   1   2
ATOM      2  C   UNL     1      -8.919   2.405  -0.441  1.00  0.00     0.113 A 
ATOM      3  C   UNL     1     -10.909   2.782  -1.369  1.00  0.00     0.139 A 
ATOM      4  N   UNL     1      -9.868   1.869  -1.186  1.00  0.00    -0.234 NA
ATOM      5  C   UNL     1     -10.745   3.979  -0.701  1.00  0.00     0.101 A 
ATOM      6  S   UNL     1      -9.255   3.981   0.152  1.00  0.00    -0.125 S 
BRANCH   3   7
ATOM      7  C   UNL     1     -12.033   2.445  -2.246  1.00  0.00     0.271 C 
ATOM      8  N   UNL     1     -11.819   1.263  -2.912  1.00  0.00    -0.341 N 
ATOM      9  O   UNL     1     -13.022   3.154  -2.388  1.00  0.00    -0.267 OA
ATOM     10  H   UNL     1     -10.958   0.772  -2.672  1.00  0.00     0.164 HD
BRANCH   8  11
ATOM     11  C   UNL     1     -12.664   0.765  -3.985  1.00  0.00     0.140 C 
BRANCH  11  12
ATOM     12  C   UNL     1     -12.047   1.209  -5.314  1.00  0.00     0.091 C 
ATOM     13  S   UNL     1     -12.570   0.491  -6.819  1.00  0.00    -0.106 SA
ATOM     14  C   UNL     1     -11.688   1.764  -7.748  1.00  0.00     0.113 C 
ATOM     15  N   UNL     1     -11.076   2.067  -5.368  1.00  0.00    -0.267 NA
ATOM     16  C   UNL     1     -10.608   2.225  -6.781  1.00  0.00     0.205 CG0
ATOM     17  G   UNL     1      -9.302   1.449  -7.016  1.00  0.00     0.000 G0
ENDBRANCH  11  12
BRANCH  11  18
ATOM     18  C   UNL     1     -13.020  -0.739  -3.859  1.00  0.00     0.015 C 
ATOM     19  C   UNL     1     -11.832  -1.525  -3.289  1.00  0.00     0.010 C 
BRANCH  18  20
ATOM     20  C   UNL     1     -14.317  -1.030  -3.076  1.00  0.00     0.002 C 
ATOM     21  C   UNL     1     -14.080  -1.868  -1.824  1.00  0.00     0.004 C 
ENDBRANCH  18  20
ENDBRANCH  11  18
ENDBRANCH   8  11
ENDBRANCH   3   7
ENDBRANCH   1   2
BRANCH   1  22
ATOM     22  N   UNL     1      -6.760   1.910  -1.302  1.00  0.00    -0.348 N 
ATOM     23  C   UNL     1      -6.045   0.914  -1.909  1.00  0.00     0.249 C 
ATOM     24  O   UNL     1      -6.121  -0.265  -1.579  1.00  0.00    -0.272 OA
ATOM     25  H   UNL     1      -6.608   2.857  -1.647  1.00  0.00     0.163 HD
BRANCH  23  26
ATOM     26  C   UNL     1      -5.190   1.422  -3.079  1.00  0.00     0.238 C 
ATOM     27  N   UNL     1      -5.599   0.721  -4.327  1.00  0.00    -0.236 NA
ATOM     28  C   UNL     1      -5.417   2.900  -3.349  1.00  0.00     0.206 C 
ATOM     29  C   UNL     1      -6.168   1.659  -5.023  1.00  0.00     0.208 C 
ATOM     30  O   UNL     1      -6.233   2.916  -4.519  1.00  0.00    -0.474 OA
ATOM     31  C   UNL     1      -4.123   3.644  -3.649  1.00  0.00     0.056 C 
BRANCH  29  32
ATOM     32  C   UNL     1      -6.849   1.494  -6.379  1.00  0.00     0.171 C 
BRANCH  32  33
ATOM     33  N   UNL     1      -8.186   2.065  -6.362  1.00  0.00    -0.342 N 
ATOM     34  C   UNL     1      -9.254   1.470  -6.991  1.00  0.00     0.246 CG0
ATOM     35  O   UNL     1      -9.157   0.428  -7.634  1.00  0.00    -0.273 OA
ATOM     36  H   UNL     1      -8.371   2.954  -5.910  1.00  0.00     0.164 HD
ATOM     37  G   UNL     1     -10.592   2.203  -6.804  1.00  0.00     0.000 G0
ENDBRANCH  32  33
BRANCH  32  38
ATOM     38  C   UNL     1      -5.963   2.086  -7.506  1.00  0.00     0.017 C 
ATOM     39  C   UNL     1      -4.493   2.099  -7.070  1.00  0.00     0.010 C 
BRANCH  38  40
ATOM     40  C   UNL     1      -6.148   1.365  -8.861  1.00  0.00     0.002 C 
ATOM     41  C   UNL     1      -4.836   1.013  -9.549  1.00  0.00     0.004 C 
ENDBRANCH  38  40
ENDBRANCH  32  38
ENDBRANCH  29  32
ENDBRANCH  23  26
ENDBRANCH   1  22
TORSDOF 4
ENDMDL
MODEL 33
REMARK VINA RESULT:    -4.546     11.416     14.662
REMARK INTER + INTRA:          -9.540
REMARK INTER:                  -7.932
REMARK INTRA:                  -1.608
REMARK UNBOUND:                -1.804
REMARK SMILES CC[C@H](C)[C@@H]1NC(=O)[C@H]2CSC(=N2)[C@@H]([C@@H](C)CC)NC(=O)c2csc(n2)CNC(=O)[C@H]2N=C1O[C@@H]2C
REMARK SMILES IDX 27 1 25 2 22 3 26 4 23 5 24 6 20 7 19 8 21 9 14 11 12 12
REMARK SMILES IDX 11 13 10 14 13 15 9 16 15 18 16 19 17 20 18 21 28 22 29 23
REMARK SMILES IDX 30 24 31 26 32 27 35 28 33 29 34 30 36 31 5 32 6 33 7 34
REMARK SMILES IDX 8 35 3 38 4 39 2 40 1 41
REMARK H PARENT 19 10 28 25 6 36
REMARK Flexibility Score:   91.900
ROOT
ATOM      1  C   UNL     1      -5.056   0.558  -8.554  1.00  0.00     0.183 C 
ENDROOT
BRANCH   1   2
ATOM      2  C   UNL     1      -5.840   1.139  -7.413  1.00  0.00     0.113 A 
ATOM      3  C   UNL     1      -7.578   1.945  -6.273  1.00  0.00     0.139 A 
ATOM      4  N   UNL     1      -7.154   1.269  -7.420  1.00  0.00    -0.234 NA
ATOM      5  C   UNL     1      -6.566   2.261  -5.389  1.00  0.00     0.101 A 
ATOM      6  S   UNL     1      -5.055   1.731  -6.006  1.00  0.00    -0.125 S 
BRANCH   3   7
ATOM      7  C   UNL     1      -8.991   2.293  -6.109  1.00  0.00     0.271 C 
ATOM      8  N   UNL     1      -9.808   1.212  -6.330  1.00  0.00    -0.341 N 
ATOM      9  O   UNL     1      -9.387   3.421  -5.840  1.00  0.00    -0.267 OA
ATOM     10  H   UNL     1      -9.332   0.332  -6.522  1.00  0.00     0.164 HD
BRANCH   8  11
ATOM     11  C   UNL     1     -11.257   1.289  -6.423  1.00  0.00     0.140 C 
BRANCH  11  12
ATOM     12  C   UNL     1     -11.640   1.179  -7.902  1.00  0.00     0.091 C 
ATOM     13  S   UNL     1     -12.685  -0.109  -8.455  1.00  0.00    -0.106 SA
ATOM     14  C   UNL     1     -12.870   0.711 -10.053  1.00  0.00     0.113 C 
ATOM     15  N   UNL     1     -11.152   1.977  -8.798  1.00  0.00    -0.267 NA
ATOM     16  C   UNL     1     -11.617   1.566 -10.161  1.00  0.00     0.205 CG0
ATOM     17  G   UNL     1     -10.508   0.813 -10.914  1.00  0.00     0.000 G0
ENDBRANCH  11  12
BRANCH  11  18
ATOM     18  C   UNL     1     -12.002   0.342  -5.446  1.00  0.00     0.015 C 
ATOM     19  C   UNL     1     -11.059  -0.123  -4.329  1.00  0.00     0.010 C 
BRANCH  18  20
ATOM     20  C   UNL     1     -13.316   0.912  -4.874  1.00  0.00     0.002 C 
ATOM     21  C   UNL     1     -13.895   0.058  -3.751  1.00  0.00     0.004 C 
ENDBRANCH  18  20
ENDBRANCH  11  18
ENDBRANCH   8  11
ENDBRANCH   3   7
ENDBRANCH   1   2
BRANCH   1  22
ATOM     22  N   UNL     1      -5.522   1.191  -9.767  1.00  0.00    -0.348 N 
ATOM     23  C   UNL     1      -4.941   1.042 -10.997  1.00  0.00     0.249 C 
ATOM     24  O   UNL     1      -4.006   0.280 -11.211  1.00  0.00    -0.272 OA
ATOM     25  H   UNL     1      -6.284   1.865  -9.699  1.00  0.00     0.163 HD
BRANCH  23  26
ATOM     26  C   UNL     1      -5.626   1.884 -12.084  1.00  0.00     0.238 C 
ATOM     27  N   UNL     1      -6.554   1.019 -12.863  1.00  0.00    -0.236 NA
ATOM     28  C   UNL     1      -6.493   2.981 -11.492  1.00  0.00     0.206 C 
ATOM     29  C   UNL     1      -7.728   1.459 -12.522  1.00  0.00     0.208 C 
ATOM     30  O   UNL     1      -7.825   2.496 -11.654  1.00  0.00    -0.474 OA
ATOM     31  C   UNL     1      -6.362   4.300 -12.243  1.00  0.00     0.056 C 
BRANCH  29  32
ATOM     32  C   UNL     1      -9.072   0.887 -12.965  1.00  0.00     0.171 C 
BRANCH  32  33
ATOM     33  N   UNL     1     -10.153   1.398 -12.136  1.00  0.00    -0.342 N 
ATOM     34  C   UNL     1     -10.484   0.840 -10.924  1.00  0.00     0.246 CG0
ATOM     35  O   UNL     1      -9.914  -0.145 -10.462  1.00  0.00    -0.273 OA
ATOM     36  H   UNL     1     -10.730   2.173 -12.446  1.00  0.00     0.164 HD
ATOM     37  G   UNL     1     -11.616   1.565 -10.178  1.00  0.00     0.000 G0
ENDBRANCH  32  33
BRANCH  32  38
ATOM     38  C   UNL     1      -9.305   1.155 -14.476  1.00  0.00     0.017 C 
ATOM     39  C   UNL     1      -9.990  -0.054 -15.125  1.00  0.00     0.010 C 
BRANCH  38  40
ATOM     40  C   UNL     1     -10.085   2.463 -14.743  1.00  0.00     0.002 C 
ATOM     41  C   UNL     1      -9.191   3.689 -14.877  1.00  0.00     0.004 C 
ENDBRANCH  38  40
ENDBRANCH  32  38
ENDBRANCH  29  32
ENDBRANCH  23  26
ENDBRANCH   1  22
TORSDOF 4
ENDMDL
MODEL 34
REMARK VINA RESULT:    -4.528      8.957     11.924
REMARK INTER + INTRA:          -9.509
REMARK INTER:                  -7.973
REMARK INTRA:                  -1.537
REMARK UNBOUND:                -1.804
REMARK SMILES CC[C@H](C)[C@@H]1NC(=O)[C@H]2CSC(=N2)[C@@H]([C@@H](C)CC)NC(=O)c2csc(n2)CNC(=O)[C@H]2N=C1O[C@@H]2C
REMARK SMILES IDX 27 1 25 2 22 3 26 4 23 5 24 6 20 7 19 8 21 9 14 11 12 12
REMARK SMILES IDX 11 13 10 14 13 15 9 16 15 18 16 19 17 20 18 21 28 22 29 23
REMARK SMILES IDX 30 24 31 26 32 27 35 28 33 29 34 30 36 31 5 32 6 33 7 34
REMARK SMILES IDX 8 35 3 38 4 39 2 40 1 41
REMARK H PARENT 19 10 28 25 6 36
REMARK Flexibility Score:   91.900
ROOT
ATOM      1  C   UNL     1      -5.213  -0.150  -8.973  1.00  0.00     0.183 C 
ENDROOT
BRANCH   1   2
ATOM      2  C   UNL     1      -4.466   0.963  -8.295  1.00  0.00     0.113 A 
ATOM      3  C   UNL     1      -3.953   2.501  -6.766  1.00  0.00     0.139 A 
ATOM      4  N   UNL     1      -4.735   1.385  -7.073  1.00  0.00    -0.234 NA
ATOM      5  C   UNL     1      -3.059   2.862  -7.754  1.00  0.00     0.101 A 
ATOM      6  S   UNL     1      -3.211   1.811  -9.102  1.00  0.00    -0.125 S 
BRANCH   3   7
ATOM      7  C   UNL     1      -4.149   3.205  -5.497  1.00  0.00     0.271 C 
ATOM      8  N   UNL     1      -5.453   3.135  -5.075  1.00  0.00    -0.341 N 
ATOM      9  O   UNL     1      -3.260   3.810  -4.910  1.00  0.00    -0.267 OA
ATOM     10  H   UNL     1      -6.075   2.575  -5.657  1.00  0.00     0.164 HD
BRANCH   8  11
ATOM     11  C   UNL     1      -5.991   3.889  -3.954  1.00  0.00     0.140 C 
BRANCH  11  12
ATOM     12  C   UNL     1      -7.384   4.389  -4.350  1.00  0.00     0.091 C 
ATOM     13  S   UNL     1      -8.665   4.478  -3.164  1.00  0.00    -0.106 SA
ATOM     14  C   UNL     1      -9.679   5.433  -4.312  1.00  0.00     0.113 C 
ATOM     15  N   UNL     1      -7.683   4.689  -5.574  1.00  0.00    -0.267 NA
ATOM     16  C   UNL     1      -9.135   5.041  -5.677  1.00  0.00     0.205 CG0
ATOM     17  G   UNL     1      -9.941   3.873  -6.269  1.00  0.00     0.000 G0
ENDBRANCH  11  12
BRANCH  11  18
ATOM     18  C   UNL     1      -5.883   3.157  -2.592  1.00  0.00     0.015 C 
ATOM     19  C   UNL     1      -5.565   1.671  -2.807  1.00  0.00     0.010 C 
BRANCH  18  20
ATOM     20  C   UNL     1      -4.907   3.803  -1.589  1.00  0.00     0.002 C 
ATOM     21  C   UNL     1      -5.615   4.497  -0.431  1.00  0.00     0.004 C 
ENDBRANCH  18  20
ENDBRANCH  11  18
ENDBRANCH   8  11
ENDBRANCH   3   7
ENDBRANCH   1   2
BRANCH   1  22
ATOM     22  N   UNL     1      -6.376   0.431  -9.605  1.00  0.00    -0.348 N 
ATOM     23  C   UNL     1      -7.617  -0.144  -9.632  1.00  0.00     0.249 C 
ATOM     24  O   UNL     1      -7.890  -1.184  -9.043  1.00  0.00    -0.272 OA
ATOM     25  H   UNL     1      -6.257   1.288 -10.144  1.00  0.00     0.163 HD
BRANCH  23  26
ATOM     26  C   UNL     1      -8.640   0.683 -10.426  1.00  0.00     0.238 C 
ATOM     27  N   UNL     1      -9.855   0.894  -9.591  1.00  0.00    -0.236 NA
ATOM     28  C   UNL     1      -8.120   2.074 -10.746  1.00  0.00     0.206 C 
ATOM     29  C   UNL     1      -9.817   2.166  -9.326  1.00  0.00     0.208 C 
ATOM     30  O   UNL     1      -8.810   2.922  -9.828  1.00  0.00    -0.474 OA
ATOM     31  C   UNL     1      -8.460   2.514 -12.164  1.00  0.00     0.056 C 
BRANCH  29  32
ATOM     32  C   UNL     1     -10.789   2.933  -8.434  1.00  0.00     0.171 C 
BRANCH  32  33
ATOM     33  N   UNL     1     -10.093   3.952  -7.663  1.00  0.00    -0.342 N 
ATOM     34  C   UNL     1      -9.952   3.880  -6.298  1.00  0.00     0.246 CG0
ATOM     35  O   UNL     1     -10.423   2.969  -5.622  1.00  0.00    -0.273 OA
ATOM     36  H   UNL     1      -9.714   4.780  -8.110  1.00  0.00     0.164 HD
ATOM     37  G   UNL     1      -9.132   5.025  -5.681  1.00  0.00     0.000 G0
ENDBRANCH  32  33
BRANCH  32  38
ATOM     38  C   UNL     1     -11.953   3.518  -9.276  1.00  0.00     0.017 C 
ATOM     39  C   UNL     1     -12.688   4.602  -8.478  1.00  0.00     0.010 C 
BRANCH  38  40
ATOM     40  C   UNL     1     -11.495   4.040 -10.658  1.00  0.00     0.002 C 
ATOM     41  C   UNL     1     -12.454   3.695 -11.789  1.00  0.00     0.004 C 
ENDBRANCH  38  40
ENDBRANCH  32  38
ENDBRANCH  29  32
ENDBRANCH  23  26
ENDBRANCH   1  22
TORSDOF 4
ENDMDL
MODEL 35
REMARK VINA RESULT:    -4.520     17.555     21.239
REMARK INTER + INTRA:          -9.495
REMARK INTER:                  -8.121
REMARK INTRA:                  -1.374
REMARK UNBOUND:                -1.804
REMARK SMILES CC[C@H](C)[C@@H]1NC(=O)[C@H]2CSC(=N2)[C@@H]([C@@H](C)CC)NC(=O)c2csc(n2)CNC(=O)[C@H]2N=C1O[C@@H]2C
REMARK SMILES IDX 27 1 25 2 22 3 26 4 23 5 24 6 20 7 19 8 21 9 14 11 12 12
REMARK SMILES IDX 11 13 10 14 13 15 9 16 15 18 16 19 17 20 18 21 28 22 29 23
REMARK SMILES IDX 30 24 31 26 32 27 35 28 33 29 34 30 36 31 5 32 6 33 7 34
REMARK SMILES IDX 8 35 3 38 4 39 2 40 1 41
REMARK H PARENT 19 10 28 25 6 36
REMARK Flexibility Score:   91.900
ROOT
ATOM      1  C   UNL     1     -19.262   1.168 -12.134  1.00  0.00     0.183 C 
ENDROOT
BRANCH   1   2
ATOM      2  C   UNL     1     -18.158   1.913 -11.440  1.00  0.00     0.113 A 
ATOM      3  C   UNL     1     -17.139   3.207  -9.939  1.00  0.00     0.139 A 
ATOM      4  N   UNL     1     -18.299   2.503 -10.267  1.00  0.00    -0.234 NA
ATOM      5  C   UNL     1     -16.115   3.082 -10.857  1.00  0.00     0.101 A 
ATOM      6  S   UNL     1     -16.613   2.090 -12.166  1.00  0.00    -0.125 S 
BRANCH   3   7
ATOM      7  C   UNL     1     -17.097   4.024  -8.724  1.00  0.00     0.271 C 
ATOM      8  N   UNL     1     -17.093   3.248  -7.592  1.00  0.00    -0.341 N 
ATOM      9  O   UNL     1     -17.100   5.249  -8.728  1.00  0.00    -0.267 OA
ATOM     10  H   UNL     1     -17.069   2.241  -7.747  1.00  0.00     0.164 HD
BRANCH   8  11
ATOM     11  C   UNL     1     -17.242   3.770  -6.243  1.00  0.00     0.140 C 
BRANCH  11  12
ATOM     12  C   UNL     1     -18.513   3.164  -5.642  1.00  0.00     0.091 C 
ATOM     13  S   UNL     1     -18.668   2.960  -3.913  1.00  0.00    -0.106 SA
ATOM     14  C   UNL     1     -20.426   2.595  -4.100  1.00  0.00     0.113 C 
ATOM     15  N   UNL     1     -19.477   2.716  -6.383  1.00  0.00    -0.267 NA
ATOM     16  C   UNL     1     -20.533   2.086  -5.529  1.00  0.00     0.205 CG0
ATOM     17  G   UNL     1     -20.428   0.553  -5.569  1.00  0.00     0.000 G0
ENDBRANCH  11  12
BRANCH  11  18
ATOM     18  C   UNL     1     -15.956   3.669  -5.383  1.00  0.00     0.015 C 
ATOM     19  C   UNL     1     -14.890   2.840  -6.110  1.00  0.00     0.010 C 
BRANCH  18  20
ATOM     20  C   UNL     1     -15.391   5.023  -4.907  1.00  0.00     0.002 C 
ATOM     21  C   UNL     1     -16.310   6.197  -5.225  1.00  0.00     0.004 C 
ENDBRANCH  18  20
ENDBRANCH  11  18
ENDBRANCH   8  11
ENDBRANCH   3   7
ENDBRANCH   1   2
BRANCH   1  22
ATOM     22  N   UNL     1     -19.471  -0.067 -11.412  1.00  0.00    -0.348 N 
ATOM     23  C   UNL     1     -20.675  -0.707 -11.294  1.00  0.00     0.249 C 
ATOM     24  O   UNL     1     -21.693  -0.335 -11.868  1.00  0.00    -0.272 OA
ATOM     25  H   UNL     1     -18.694  -0.454 -10.877  1.00  0.00     0.163 HD
BRANCH  23  26
ATOM     26  C   UNL     1     -20.597  -1.967 -10.419  1.00  0.00     0.238 C 
ATOM     27  N   UNL     1     -20.101  -1.595  -9.065  1.00  0.00    -0.236 NA
ATOM     28  C   UNL     1     -21.964  -2.589 -10.194  1.00  0.00     0.206 C 
ATOM     29  C   UNL     1     -21.142  -1.771  -8.308  1.00  0.00     0.208 C 
ATOM     30  O   UNL     1     -22.297  -2.220  -8.857  1.00  0.00    -0.474 OA
ATOM     31  C   UNL     1     -21.937  -4.109 -10.287  1.00  0.00     0.056 C 
BRANCH  29  32
ATOM     32  C   UNL     1     -21.235  -1.471  -6.814  1.00  0.00     0.171 C 
BRANCH  32  33
ATOM     33  N   UNL     1     -21.219  -0.037  -6.571  1.00  0.00    -0.342 N 
ATOM     34  C   UNL     1     -20.442   0.540  -5.595  1.00  0.00     0.246 CG0
ATOM     35  O   UNL     1     -19.724  -0.110  -4.838  1.00  0.00    -0.273 OA
ATOM     36  H   UNL     1     -21.817   0.591  -7.097  1.00  0.00     0.164 HD
ATOM     37  G   UNL     1     -20.524   2.074  -5.540  1.00  0.00     0.000 G0
ENDBRANCH  32  33
BRANCH  32  38
ATOM     38  C   UNL     1     -22.479  -2.164  -6.198  1.00  0.00     0.017 C 
ATOM     39  C   UNL     1     -22.081  -2.931  -4.930  1.00  0.00     0.010 C 
BRANCH  38  40
ATOM     40  C   UNL     1     -23.644  -1.184  -5.929  1.00  0.00     0.002 C 
ATOM     41  C   UNL     1     -23.580  -0.525  -4.557  1.00  0.00     0.004 C 
ENDBRANCH  38  40
ENDBRANCH  32  38
ENDBRANCH  29  32
ENDBRANCH  23  26
ENDBRANCH   1  22
TORSDOF 4
ENDMDL
MODEL 36
REMARK VINA RESULT:    -4.491      4.731      8.883
REMARK INTER + INTRA:          -9.445
REMARK INTER:                  -8.377
REMARK INTRA:                  -1.069
REMARK UNBOUND:                -1.804
REMARK SMILES CC[C@H](C)[C@@H]1NC(=O)[C@H]2CSC(=N2)[C@@H]([C@@H](C)CC)NC(=O)c2csc(n2)CNC(=O)[C@H]2N=C1O[C@@H]2C
REMARK SMILES IDX 27 1 25 2 22 3 26 4 23 5 24 6 20 7 19 8 21 9 14 11 12 12
REMARK SMILES IDX 11 13 10 14 13 15 9 16 15 18 16 19 17 20 18 21 28 22 29 23
REMARK SMILES IDX 30 24 31 26 32 27 35 28 33 29 34 30 36 31 5 32 6 33 7 34
REMARK SMILES IDX 8 35 3 38 4 39 2 40 1 41
REMARK H PARENT 19 10 28 25 6 36
REMARK Flexibility Score:   91.900
ROOT
ATOM      1  C   UNL     1      -1.582   4.150   0.469  1.00  0.00     0.183 C 
ENDROOT
BRANCH   1   2
ATOM      2  C   UNL     1      -1.879   4.121  -1.003  1.00  0.00     0.113 A 
ATOM      3  C   UNL     1      -3.016   3.814  -2.895  1.00  0.00     0.139 A 
ATOM      4  N   UNL     1      -3.080   3.891  -1.502  1.00  0.00    -0.234 NA
ATOM      5  C   UNL     1      -1.762   4.049  -3.424  1.00  0.00     0.101 A 
ATOM      6  S   UNL     1      -0.635   4.346  -2.164  1.00  0.00    -0.125 S 
BRANCH   3   7
ATOM      7  C   UNL     1      -4.212   3.466  -3.666  1.00  0.00     0.271 C 
ATOM      8  N   UNL     1      -4.198   2.149  -4.055  1.00  0.00    -0.341 N 
ATOM      9  O   UNL     1      -5.094   4.266  -3.951  1.00  0.00    -0.267 OA
ATOM     10  H   UNL     1      -3.407   1.599  -3.721  1.00  0.00     0.164 HD
BRANCH   8  11
ATOM     11  C   UNL     1      -5.150   1.561  -4.983  1.00  0.00     0.140 C 
BRANCH  11  12
ATOM     12  C   UNL     1      -6.504   1.473  -4.273  1.00  0.00     0.091 C 
ATOM     13  S   UNL     1      -7.894   2.325  -4.904  1.00  0.00    -0.106 SA
ATOM     14  C   UNL     1      -8.977   1.418  -3.780  1.00  0.00     0.113 C 
ATOM     15  N   UNL     1      -6.653   0.835  -3.155  1.00  0.00    -0.267 NA
ATOM     16  C   UNL     1      -8.050   1.011  -2.645  1.00  0.00     0.205 CG0
ATOM     17  G   UNL     1      -8.094   2.046  -1.510  1.00  0.00     0.000 G0
ENDBRANCH  11  12
BRANCH  11  18
ATOM     18  C   UNL     1      -5.150   2.218  -6.387  1.00  0.00     0.015 C 
ATOM     19  C   UNL     1      -3.715   2.540  -6.826  1.00  0.00     0.010 C 
BRANCH  18  20
ATOM     20  C   UNL     1      -5.905   1.422  -7.471  1.00  0.00     0.002 C 
ATOM     21  C   UNL     1      -5.456   1.769  -8.886  1.00  0.00     0.004 C 
ENDBRANCH  18  20
ENDBRANCH  11  18
ENDBRANCH   8  11
ENDBRANCH   3   7
ENDBRANCH   1   2
BRANCH   1  22
ATOM     22  N   UNL     1      -2.592   3.354   1.130  1.00  0.00    -0.348 N 
ATOM     23  C   UNL     1      -3.552   3.853   1.969  1.00  0.00     0.249 C 
ATOM     24  O   UNL     1      -3.704   5.051   2.180  1.00  0.00    -0.272 OA
ATOM     25  H   UNL     1      -2.545   2.340   1.040  1.00  0.00     0.163 HD
BRANCH  23  26
ATOM     26  C   UNL     1      -4.449   2.757   2.564  1.00  0.00     0.238 C 
ATOM     27  N   UNL     1      -5.875   3.165   2.431  1.00  0.00    -0.236 NA
ATOM     28  C   UNL     1      -4.328   1.447   1.805  1.00  0.00     0.206 C 
ATOM     29  C   UNL     1      -6.342   2.333   1.548  1.00  0.00     0.208 C 
ATOM     30  O   UNL     1      -5.523   1.385   1.028  1.00  0.00    -0.474 OA
ATOM     31  C   UNL     1      -4.285   0.238   2.729  1.00  0.00     0.056 C 
BRANCH  29  32
ATOM     32  C   UNL     1      -7.751   2.330   0.964  1.00  0.00     0.171 C 
BRANCH  32  33
ATOM     33  N   UNL     1      -7.813   1.518  -0.241  1.00  0.00    -0.342 N 
ATOM     34  C   UNL     1      -8.094   2.047  -1.478  1.00  0.00     0.246 CG0
ATOM     35  O   UNL     1      -8.340   3.238  -1.657  1.00  0.00    -0.273 OA
ATOM     36  H   UNL     1      -7.684   0.513  -0.203  1.00  0.00     0.164 HD
ATOM     37  G   UNL     1      -8.052   1.031  -2.630  1.00  0.00     0.000 G0
ENDBRANCH  32  33
BRANCH  32  38
ATOM     38  C   UNL     1      -8.782   1.884   2.035  1.00  0.00     0.017 C 
ATOM     39  C   UNL     1     -10.181   2.392   1.663  1.00  0.00     0.010 C 
BRANCH  38  40
ATOM     40  C   UNL     1      -8.776   0.357   2.277  1.00  0.00     0.002 C 
ATOM     41  C   UNL     1     -10.101  -0.182   2.800  1.00  0.00     0.004 C 
ENDBRANCH  38  40
ENDBRANCH  32  38
ENDBRANCH  29  32
ENDBRANCH  23  26
ENDBRANCH   1  22
TORSDOF 4
ENDMDL
MODEL 37
REMARK VINA RESULT:    -4.469      4.567      8.740
REMARK INTER + INTRA:          -9.408
REMARK INTER:                  -7.727
REMARK INTRA:                  -1.681
REMARK UNBOUND:                -1.804
REMARK SMILES CC[C@H](C)[C@@H]1NC(=O)[C@H]2CSC(=N2)[C@@H]([C@@H](C)CC)NC(=O)c2csc(n2)CNC(=O)[C@H]2N=C1O[C@@H]2C
REMARK SMILES IDX 27 1 25 2 22 3 26 4 23 5 24 6 20 7 19 8 21 9 14 11 12 12
REMARK SMILES IDX 11 13 10 14 13 15 9 16 15 18 16 19 17 20 18 21 28 22 29 23
REMARK SMILES IDX 30 24 31 26 32 27 35 28 33 29 34 30 36 31 5 32 6 33 7 34
REMARK SMILES IDX 8 35 3 38 4 39 2 40 1 41
REMARK H PARENT 19 10 28 25 6 36
REMARK Flexibility Score:   91.900
ROOT
ATOM      1  C   UNL     1      -6.692   4.386  -4.079  1.00  0.00     0.183 C 
ENDROOT
BRANCH   1   2
ATOM      2  C   UNL     1      -7.761   3.370  -3.797  1.00  0.00     0.113 A 
ATOM      3  C   UNL     1      -9.431   2.338  -2.741  1.00  0.00     0.139 A 
ATOM      4  N   UNL     1      -8.645   3.489  -2.823  1.00  0.00    -0.234 NA
ATOM      5  C   UNL     1      -9.156   1.388  -3.706  1.00  0.00     0.101 A 
ATOM      6  S   UNL     1      -7.880   1.927  -4.719  1.00  0.00    -0.125 S 
BRANCH   3   7
ATOM      7  C   UNL     1     -10.417   2.199  -1.668  1.00  0.00     0.271 C 
ATOM      8  N   UNL     1      -9.998   2.812  -0.513  1.00  0.00    -0.341 N 
ATOM      9  O   UNL     1     -11.468   1.581  -1.785  1.00  0.00    -0.267 OA
ATOM     10  H   UNL     1      -9.110   3.308  -0.575  1.00  0.00     0.164 HD
BRANCH   8  11
ATOM     11  C   UNL     1     -10.671   2.687   0.770  1.00  0.00     0.140 C 
BRANCH  11  12
ATOM     12  C   UNL     1      -9.658   2.143   1.781  1.00  0.00     0.091 C 
ATOM     13  S   UNL     1      -9.891   2.398   3.495  1.00  0.00    -0.106 SA
ATOM     14  C   UNL     1      -8.582   1.210   3.862  1.00  0.00     0.113 C 
ATOM     15  N   UNL     1      -8.569   1.547   1.409  1.00  0.00    -0.267 NA
ATOM     16  C   UNL     1      -7.727   1.223   2.604  1.00  0.00     0.205 CG0
ATOM     17  G   UNL     1      -6.567   2.222   2.744  1.00  0.00     0.000 G0
ENDBRANCH  11  12
BRANCH  11  18
ATOM     18  C   UNL     1     -11.457   3.954   1.195  1.00  0.00     0.015 C 
ATOM     19  C   UNL     1     -11.113   5.131   0.273  1.00  0.00     0.010 C 
BRANCH  18  20
ATOM     20  C   UNL     1     -12.982   3.757   1.312  1.00  0.00     0.002 C 
ATOM     21  C   UNL     1     -13.778   4.780   0.510  1.00  0.00     0.004 C 
ENDBRANCH  18  20
ENDBRANCH  11  18
ENDBRANCH   8  11
ENDBRANCH   3   7
ENDBRANCH   1   2
BRANCH   1  22
ATOM     22  N   UNL     1      -5.561   4.069  -3.237  1.00  0.00    -0.348 N 
ATOM     23  C   UNL     1      -5.020   4.915  -2.307  1.00  0.00     0.249 C 
ATOM     24  O   UNL     1      -5.500   6.009  -2.034  1.00  0.00    -0.272 OA
ATOM     25  H   UNL     1      -5.070   3.190  -3.396  1.00  0.00     0.163 HD
BRANCH  23  26
ATOM     26  C   UNL     1      -3.790   4.320  -1.605  1.00  0.00     0.238 C 
ATOM     27  N   UNL     1      -3.931   4.496  -0.133  1.00  0.00    -0.236 NA
ATOM     28  C   UNL     1      -3.678   2.821  -1.827  1.00  0.00     0.206 C 
ATOM     29  C   UNL     1      -4.109   3.283   0.296  1.00  0.00     0.208 C 
ATOM     30  O   UNL     1      -4.106   2.256  -0.589  1.00  0.00    -0.474 OA
ATOM     31  C   UNL     1      -2.247   2.375  -2.096  1.00  0.00     0.056 C 
BRANCH  29  32
ATOM     32  C   UNL     1      -4.385   2.865   1.738  1.00  0.00     0.171 C 
BRANCH  32  33
ATOM     33  N   UNL     1      -5.560   2.011   1.815  1.00  0.00    -0.342 N 
ATOM     34  C   UNL     1      -6.551   2.197   2.749  1.00  0.00     0.246 CG0
ATOM     35  O   UNL     1      -6.510   3.079   3.603  1.00  0.00    -0.273 OA
ATOM     36  H   UNL     1      -5.671   1.215   1.197  1.00  0.00     0.164 HD
ATOM     37  G   UNL     1      -7.735   1.225   2.624  1.00  0.00     0.000 G0
ENDBRANCH  32  33
BRANCH  32  38
ATOM     38  C   UNL     1      -3.128   2.204   2.361  1.00  0.00     0.017 C 
ATOM     39  C   UNL     1      -2.960   2.660   3.816  1.00  0.00     0.010 C 
BRANCH  38  40
ATOM     40  C   UNL     1      -3.137   0.662   2.246  1.00  0.00     0.002 C 
ATOM     41  C   UNL     1      -3.646  -0.040   3.498  1.00  0.00     0.004 C 
ENDBRANCH  38  40
ENDBRANCH  32  38
ENDBRANCH  29  32
ENDBRANCH  23  26
ENDBRANCH   1  22
TORSDOF 4
ENDMDL
MODEL 38
REMARK VINA RESULT:    -4.389      6.750      9.641
REMARK INTER + INTRA:          -9.272
REMARK INTER:                  -7.832
REMARK INTRA:                  -1.440
REMARK UNBOUND:                -1.804
REMARK SMILES CC[C@H](C)[C@@H]1NC(=O)[C@H]2CSC(=N2)[C@@H]([C@@H](C)CC)NC(=O)c2csc(n2)CNC(=O)[C@H]2N=C1O[C@@H]2C
REMARK SMILES IDX 27 1 25 2 22 3 26 4 23 5 24 6 20 7 19 8 21 9 14 11 12 12
REMARK SMILES IDX 11 13 10 14 13 15 9 16 15 18 16 19 17 20 18 21 28 22 29 23
REMARK SMILES IDX 30 24 31 26 32 27 35 28 33 29 34 30 36 31 5 32 6 33 7 34
REMARK SMILES IDX 8 35 3 38 4 39 2 40 1 41
REMARK H PARENT 19 10 28 25 6 36
REMARK Flexibility Score:   91.900
ROOT
ATOM      1  C   UNL     1      -3.300   3.290  -2.872  1.00  0.00     0.183 C 
ENDROOT
BRANCH   1   2
ATOM      2  C   UNL     1      -4.198   3.149  -1.676  1.00  0.00     0.113 A 
ATOM      3  C   UNL     1      -5.924   3.502  -0.312  1.00  0.00     0.139 A 
ATOM      4  N   UNL     1      -5.383   3.723  -1.580  1.00  0.00    -0.234 NA
ATOM      5  C   UNL     1      -5.151   2.705   0.509  1.00  0.00     0.101 A 
ATOM      6  S   UNL     1      -3.710   2.244  -0.302  1.00  0.00    -0.125 S 
BRANCH   3   7
ATOM      7  C   UNL     1      -7.194   4.129   0.063  1.00  0.00     0.271 C 
ATOM      8  N   UNL     1      -8.268   3.425  -0.421  1.00  0.00    -0.341 N 
ATOM      9  O   UNL     1      -7.275   5.172   0.699  1.00  0.00    -0.267 OA
ATOM     10  H   UNL     1      -8.044   2.561  -0.914  1.00  0.00     0.164 HD
BRANCH   8  11
ATOM     11  C   UNL     1      -9.643   3.896  -0.373  1.00  0.00     0.140 C 
BRANCH  11  12
ATOM     12  C   UNL     1     -10.195   3.882  -1.801  1.00  0.00     0.091 C 
ATOM     13  S   UNL     1     -11.787   3.240  -2.131  1.00  0.00    -0.106 SA
ATOM     14  C   UNL     1     -11.731   3.927  -3.800  1.00  0.00     0.113 C 
ATOM     15  N   UNL     1      -9.487   4.270  -2.814  1.00  0.00    -0.267 NA
ATOM     16  C   UNL     1     -10.243   4.044  -4.087  1.00  0.00     0.205 CG0
ATOM     17  G   UNL     1      -9.728   2.792  -4.815  1.00  0.00     0.000 G0
ENDBRANCH  11  12
BRANCH  11  18
ATOM     18  C   UNL     1     -10.510   3.200   0.708  1.00  0.00     0.015 C 
ATOM     19  C   UNL     1      -9.676   2.170   1.481  1.00  0.00     0.010 C 
BRANCH  18  20
ATOM     20  C   UNL     1     -11.244   4.162   1.663  1.00  0.00     0.002 C 
ATOM     21  C   UNL     1     -11.322   5.588   1.129  1.00  0.00     0.004 C 
ENDBRANCH  18  20
ENDBRANCH  11  18
ENDBRANCH   8  11
ENDBRANCH   3   7
ENDBRANCH   1   2
BRANCH   1  22
ATOM     22  N   UNL     1      -3.846   2.461  -3.923  1.00  0.00    -0.348 N 
ATOM     23  C   UNL     1      -4.537   2.930  -5.007  1.00  0.00     0.249 C 
ATOM     24  O   UNL     1      -4.691   4.124  -5.240  1.00  0.00    -0.272 OA
ATOM     25  H   UNL     1      -3.793   1.448  -3.818  1.00  0.00     0.163 HD
BRANCH  23  26
ATOM     26  C   UNL     1      -5.041   1.806  -5.924  1.00  0.00     0.238 C 
ATOM     27  N   UNL     1      -6.472   1.527  -5.617  1.00  0.00    -0.236 NA
ATOM     28  C   UNL     1      -5.011   2.210  -7.388  1.00  0.00     0.206 C 
ATOM     29  C   UNL     1      -7.092   1.954  -6.676  1.00  0.00     0.208 C 
ATOM     30  O   UNL     1      -6.377   2.476  -7.703  1.00  0.00    -0.474 OA
ATOM     31  C   UNL     1      -4.512   1.091  -8.293  1.00  0.00     0.056 C 
BRANCH  29  32
ATOM     32  C   UNL     1      -8.603   1.986  -6.888  1.00  0.00     0.171 C 
BRANCH  32  33
ATOM     33  N   UNL     1      -9.219   3.029  -6.082  1.00  0.00    -0.342 N 
ATOM     34  C   UNL     1      -9.689   2.802  -4.811  1.00  0.00     0.246 CG0
ATOM     35  O   UNL     1      -9.649   1.701  -4.268  1.00  0.00    -0.273 OA
ATOM     36  H   UNL     1      -9.357   3.963  -6.452  1.00  0.00     0.164 HD
ATOM     37  G   UNL     1     -10.249   4.049  -4.108  1.00  0.00     0.000 G0
ENDBRANCH  32  33
BRANCH  32  38
ATOM     38  C   UNL     1      -8.937   2.125  -8.397  1.00  0.00     0.017 C 
ATOM     39  C   UNL     1      -8.911   0.748  -9.071  1.00  0.00     0.010 C 
BRANCH  38  40
ATOM     40  C   UNL     1     -10.273   2.859  -8.653  1.00  0.00     0.002 C 
ATOM     41  C   UNL     1     -11.055   2.305  -9.837  1.00  0.00     0.004 C 
ENDBRANCH  38  40
ENDBRANCH  32  38
ENDBRANCH  29  32
ENDBRANCH  23  26
ENDBRANCH   1  22
TORSDOF 4
ENDMDL
MODEL 39
REMARK VINA RESULT:    -4.376      6.543     10.577
REMARK INTER + INTRA:          -9.250
REMARK INTER:                  -7.551
REMARK INTRA:                  -1.699
REMARK UNBOUND:                -1.804
REMARK SMILES CC[C@H](C)[C@@H]1NC(=O)[C@H]2CSC(=N2)[C@@H]([C@@H](C)CC)NC(=O)c2csc(n2)CNC(=O)[C@H]2N=C1O[C@@H]2C
REMARK SMILES IDX 27 1 25 2 22 3 26 4 23 5 24 6 20 7 19 8 21 9 14 11 12 12
REMARK SMILES IDX 11 13 10 14 13 15 9 16 15 18 16 19 17 20 18 21 28 22 29 23
REMARK SMILES IDX 30 24 31 26 32 27 35 28 33 29 34 30 36 31 5 32 6 33 7 34
REMARK SMILES IDX 8 35 3 38 4 39 2 40 1 41
REMARK H PARENT 19 10 28 25 6 36
REMARK Flexibility Score:   91.900
ROOT
ATOM      1  C   UNL     1     -10.602   4.605   1.160  1.00  0.00     0.183 C 
ENDROOT
BRANCH   1   2
ATOM      2  C   UNL     1      -9.199   4.084   1.289  1.00  0.00     0.113 A 
ATOM      3  C   UNL     1      -7.244   3.191   0.700  1.00  0.00     0.139 A 
ATOM      4  N   UNL     1      -8.447   3.744   0.258  1.00  0.00    -0.234 NA
ATOM      5  C   UNL     1      -7.090   3.179   2.073  1.00  0.00     0.101 A 
ATOM      6  S   UNL     1      -8.479   3.847   2.829  1.00  0.00    -0.125 S 
BRANCH   3   7
ATOM      7  C   UNL     1      -6.288   2.648  -0.267  1.00  0.00     0.271 C 
ATOM      8  N   UNL     1      -6.306   3.352  -1.446  1.00  0.00    -0.341 N 
ATOM      9  O   UNL     1      -5.588   1.666  -0.054  1.00  0.00    -0.267 OA
ATOM     10  H   UNL     1      -6.925   4.161  -1.466  1.00  0.00     0.164 HD
BRANCH   8  11
ATOM     11  C   UNL     1      -5.608   2.941  -2.653  1.00  0.00     0.140 C 
BRANCH  11  12
ATOM     12  C   UNL     1      -6.550   3.166  -3.840  1.00  0.00     0.091 C 
ATOM     13  S   UNL     1      -7.461   4.651  -3.981  1.00  0.00    -0.106 SA
ATOM     14  C   UNL     1      -7.917   4.225  -5.675  1.00  0.00     0.113 C 
ATOM     15  N   UNL     1      -6.762   2.249  -4.731  1.00  0.00    -0.267 NA
ATOM     16  C   UNL     1      -7.804   2.709  -5.703  1.00  0.00     0.205 CG0
ATOM     17  G   UNL     1      -9.163   2.057  -5.400  1.00  0.00     0.000 G0
ENDBRANCH  11  12
BRANCH  11  18
ATOM     18  C   UNL     1      -4.180   3.529  -2.787  1.00  0.00     0.015 C 
ATOM     19  C   UNL     1      -4.006   4.731  -1.848  1.00  0.00     0.010 C 
BRANCH  18  20
ATOM     20  C   UNL     1      -3.042   2.504  -2.606  1.00  0.00     0.002 C 
ATOM     21  C   UNL     1      -1.781   3.115  -2.005  1.00  0.00     0.004 C 
ENDBRANCH  18  20
ENDBRANCH  11  18
ENDBRANCH   8  11
ENDBRANCH   3   7
ENDBRANCH   1   2
BRANCH   1  22
ATOM     22  N   UNL     1     -11.021   4.385  -0.206  1.00  0.00    -0.348 N 
ATOM     23  C   UNL     1     -12.117   3.655  -0.577  1.00  0.00     0.249 C 
ATOM     24  O   UNL     1     -12.911   3.179   0.227  1.00  0.00    -0.272 OA
ATOM     25  H   UNL     1     -10.419   4.720  -0.957  1.00  0.00     0.163 HD
BRANCH  23  26
ATOM     26  C   UNL     1     -12.275   3.551  -2.101  1.00  0.00     0.238 C 
ATOM     27  N   UNL     1     -11.019   3.010  -2.690  1.00  0.00    -0.236 NA
ATOM     28  C   UNL     1     -13.365   2.568  -2.494  1.00  0.00     0.206 C 
ATOM     29  C   UNL     1     -11.367   1.827  -3.100  1.00  0.00     0.208 C 
ATOM     30  O   UNL     1     -12.649   1.416  -2.936  1.00  0.00    -0.474 OA
ATOM     31  C   UNL     1     -14.224   3.077  -3.644  1.00  0.00     0.056 C 
BRANCH  29  32
ATOM     32  C   UNL     1     -10.451   0.781  -3.728  1.00  0.00     0.171 C 
BRANCH  32  33
ATOM     33  N   UNL     1      -9.228   1.393  -4.224  1.00  0.00    -0.342 N 
ATOM     34  C   UNL     1      -9.169   2.066  -5.422  1.00  0.00     0.246 CG0
ATOM     35  O   UNL     1     -10.133   2.180  -6.174  1.00  0.00    -0.273 OA
ATOM     36  H   UNL     1      -8.356   1.311  -3.713  1.00  0.00     0.164 HD
ATOM     37  G   UNL     1      -7.799   2.689  -5.735  1.00  0.00     0.000 G0
ENDBRANCH  32  33
BRANCH  32  38
ATOM     38  C   UNL     1     -10.175  -0.370  -2.726  1.00  0.00     0.017 C 
ATOM     39  C   UNL     1     -10.656  -1.704  -3.311  1.00  0.00     0.010 C 
BRANCH  38  40
ATOM     40  C   UNL     1      -8.696  -0.443  -2.283  1.00  0.00     0.002 C 
ATOM     41  C   UNL     1      -8.484  -0.120  -0.810  1.00  0.00     0.004 C 
ENDBRANCH  38  40
ENDBRANCH  32  38
ENDBRANCH  29  32
ENDBRANCH  23  26
ENDBRANCH   1  22
TORSDOF 4
ENDMDL
MODEL 40
REMARK VINA RESULT:    -4.369      4.301      8.554
REMARK INTER + INTRA:          -9.237
REMARK INTER:                  -7.558
REMARK INTRA:                  -1.679
REMARK UNBOUND:                -1.804
REMARK SMILES CC[C@H](C)[C@@H]1NC(=O)[C@H]2CSC(=N2)[C@@H]([C@@H](C)CC)NC(=O)c2csc(n2)CNC(=O)[C@H]2N=C1O[C@@H]2C
REMARK SMILES IDX 27 1 25 2 22 3 26 4 23 5 24 6 20 7 19 8 21 9 14 11 12 12
REMARK SMILES IDX 11 13 10 14 13 15 9 16 15 18 16 19 17 20 18 21 28 22 29 23
REMARK SMILES IDX 30 24 31 26 32 27 35 28 33 29 34 30 36 31 5 32 6 33 7 34
REMARK SMILES IDX 8 35 3 38 4 39 2 40 1 41
REMARK H PARENT 19 10 28 25 6 36
REMARK Flexibility Score:   91.900
ROOT
ATOM      1  C   UNL     1      -3.141   4.455  -1.533  1.00  0.00     0.183 C 
ENDROOT
BRANCH   1   2
ATOM      2  C   UNL     1      -4.031   3.707  -2.483  1.00  0.00     0.113 A 
ATOM      3  C   UNL     1      -5.786   2.550  -3.223  1.00  0.00     0.139 A 
ATOM      4  N   UNL     1      -5.257   3.318  -2.184  1.00  0.00    -0.234 NA
ATOM      5  C   UNL     1      -4.958   2.424  -4.321  1.00  0.00     0.101 A 
ATOM      6  S   UNL     1      -3.482   3.257  -4.046  1.00  0.00    -0.125 S 
BRANCH   3   7
ATOM      7  C   UNL     1      -7.102   1.923  -3.074  1.00  0.00     0.271 C 
ATOM      8  N   UNL     1      -8.032   2.808  -2.587  1.00  0.00    -0.341 N 
ATOM      9  O   UNL     1      -7.327   0.746  -3.325  1.00  0.00    -0.267 OA
ATOM     10  H   UNL     1      -7.701   3.763  -2.448  1.00  0.00     0.164 HD
BRANCH   8  11
ATOM     11  C   UNL     1      -9.370   2.435  -2.160  1.00  0.00     0.140 C 
BRANCH  11  12
ATOM     12  C   UNL     1      -9.481   2.718  -0.659  1.00  0.00     0.091 C 
ATOM     13  S   UNL     1     -10.542   3.976  -0.070  1.00  0.00    -0.106 SA
ATOM     14  C   UNL     1     -10.335   3.376   1.621  1.00  0.00     0.113 C 
ATOM     15  N   UNL     1      -8.750   2.098   0.213  1.00  0.00    -0.267 NA
ATOM     16  C   UNL     1      -8.996   2.655   1.580  1.00  0.00     0.205 CG0
ATOM     17  G   UNL     1      -7.858   3.598   2.001  1.00  0.00     0.000 G0
ENDBRANCH  11  12
BRANCH  11  18
ATOM     18  C   UNL     1     -10.499   3.007  -3.055  1.00  0.00     0.015 C 
ATOM     19  C   UNL     1      -9.938   4.063  -4.016  1.00  0.00     0.010 C 
BRANCH  18  20
ATOM     20  C   UNL     1     -11.327   1.944  -3.806  1.00  0.00     0.002 C 
ATOM     21  C   UNL     1     -10.607   0.606  -3.929  1.00  0.00     0.004 C 
ENDBRANCH  18  20
ENDBRANCH  11  18
ENDBRANCH   8  11
ENDBRANCH   3   7
ENDBRANCH   1   2
BRANCH   1  22
ATOM     22  N   UNL     1      -3.230   3.798  -0.248  1.00  0.00    -0.348 N 
ATOM     23  C   UNL     1      -2.251   3.819   0.708  1.00  0.00     0.249 C 
ATOM     24  O   UNL     1      -1.222   4.477   0.602  1.00  0.00    -0.272 OA
ATOM     25  H   UNL     1      -4.038   3.204  -0.063  1.00  0.00     0.163 HD
BRANCH  23  26
ATOM     26  C   UNL     1      -2.610   2.984   1.946  1.00  0.00     0.238 C 
ATOM     27  N   UNL     1      -3.431   3.810   2.875  1.00  0.00    -0.236 NA
ATOM     28  C   UNL     1      -3.476   1.787   1.593  1.00  0.00     0.206 C 
ATOM     29  C   UNL     1      -4.604   3.254   2.809  1.00  0.00     0.208 C 
ATOM     30  O   UNL     1      -4.784   2.167   2.019  1.00  0.00    -0.474 OA
ATOM     31  C   UNL     1      -3.067   0.527   2.345  1.00  0.00     0.056 C 
BRANCH  29  32
ATOM     32  C   UNL     1      -5.873   3.734   3.509  1.00  0.00     0.171 C 
BRANCH  32  33
ATOM     33  N   UNL     1      -7.044   3.046   2.990  1.00  0.00    -0.342 N 
ATOM     34  C   UNL     1      -7.851   3.586   2.018  1.00  0.00     0.246 CG0
ATOM     35  O   UNL     1      -7.662   4.698   1.531  1.00  0.00    -0.273 OA
ATOM     36  H   UNL     1      -7.330   2.146   3.361  1.00  0.00     0.164 HD
ATOM     37  G   UNL     1      -9.003   2.673   1.566  1.00  0.00     0.000 G0
ENDBRANCH  32  33
BRANCH  32  38
ATOM     38  C   UNL     1      -5.731   3.591   5.047  1.00  0.00     0.017 C 
ATOM     39  C   UNL     1      -7.112   3.653   5.711  1.00  0.00     0.010 C 
BRANCH  38  40
ATOM     40  C   UNL     1      -4.955   2.321   5.465  1.00  0.00     0.002 C 
ATOM     41  C   UNL     1      -5.620   1.545   6.594  1.00  0.00     0.004 C 
ENDBRANCH  38  40
ENDBRANCH  32  38
ENDBRANCH  29  32
ENDBRANCH  23  26
ENDBRANCH   1  22
TORSDOF 4
ENDMDL
MODEL 41
REMARK VINA RESULT:    -4.365      5.362     10.263
REMARK INTER + INTRA:          -9.231
REMARK INTER:                  -7.285
REMARK INTRA:                  -1.946
REMARK UNBOUND:                -1.804
REMARK SMILES CC[C@H](C)[C@@H]1NC(=O)[C@H]2CSC(=N2)[C@@H]([C@@H](C)CC)NC(=O)c2csc(n2)CNC(=O)[C@H]2N=C1O[C@@H]2C
REMARK SMILES IDX 27 1 25 2 22 3 26 4 23 5 24 6 20 7 19 8 21 9 14 11 12 12
REMARK SMILES IDX 11 13 10 14 13 15 9 16 15 18 16 19 17 20 18 21 28 22 29 23
REMARK SMILES IDX 30 24 31 26 32 27 35 28 33 29 34 30 36 31 5 32 6 33 7 34
REMARK SMILES IDX 8 35 3 38 4 39 2 40 1 41
REMARK H PARENT 19 10 28 25 6 36
REMARK Flexibility Score:   91.900
ROOT
ATOM      1  C   UNL     1      -9.651   1.926   2.775  1.00  0.00     0.183 C 
ENDROOT
BRANCH   1   2
ATOM      2  C   UNL     1     -10.205   2.738   1.640  1.00  0.00     0.113 A 
ATOM      3  C   UNL     1     -10.827   3.274  -0.432  1.00  0.00     0.139 A 
ATOM      4  N   UNL     1     -10.419   2.254   0.431  1.00  0.00    -0.234 NA
ATOM      5  C   UNL     1     -10.969   4.509   0.170  1.00  0.00     0.101 A 
ATOM      6  S   UNL     1     -10.563   4.406   1.834  1.00  0.00    -0.125 S 
BRANCH   3   7
ATOM      7  C   UNL     1     -11.029   2.993  -1.855  1.00  0.00     0.271 C 
ATOM      8  N   UNL     1      -9.948   2.346  -2.401  1.00  0.00    -0.341 N 
ATOM      9  O   UNL     1     -12.027   3.330  -2.480  1.00  0.00    -0.267 OA
ATOM     10  H   UNL     1      -9.200   2.111  -1.750  1.00  0.00     0.164 HD
BRANCH   8  11
ATOM     11  C   UNL     1      -9.775   2.102  -3.824  1.00  0.00     0.140 C 
BRANCH  11  12
ATOM     12  C   UNL     1      -8.384   2.605  -4.221  1.00  0.00     0.091 C 
ATOM     13  S   UNL     1      -7.613   2.025  -5.679  1.00  0.00    -0.106 SA
ATOM     14  C   UNL     1      -6.353   3.310  -5.538  1.00  0.00     0.113 C 
ATOM     15  N   UNL     1      -7.703   3.409  -3.466  1.00  0.00    -0.267 NA
ATOM     16  C   UNL     1      -6.346   3.640  -4.054  1.00  0.00     0.205 CG0
ATOM     17  G   UNL     1      -5.281   2.812  -3.317  1.00  0.00     0.000 G0
ENDBRANCH  11  12
BRANCH  11  18
ATOM     18  C   UNL     1     -10.139   0.661  -4.265  1.00  0.00     0.015 C 
ATOM     19  C   UNL     1      -9.748  -0.347  -3.177  1.00  0.00     0.010 C 
BRANCH  18  20
ATOM     20  C   UNL     1     -11.605   0.473  -4.707  1.00  0.00     0.002 C 
ATOM     21  C   UNL     1     -12.448  -0.264  -3.673  1.00  0.00     0.004 C 
ENDBRANCH  18  20
ENDBRANCH  11  18
ENDBRANCH   8  11
ENDBRANCH   3   7
ENDBRANCH   1   2
BRANCH   1  22
ATOM     22  N   UNL     1      -8.210   1.946   2.658  1.00  0.00    -0.348 N 
ATOM     23  C   UNL     1      -7.474   1.054   1.925  1.00  0.00     0.249 C 
ATOM     24  O   UNL     1      -7.978   0.189   1.217  1.00  0.00    -0.272 OA
ATOM     25  H   UNL     1      -7.687   2.613   3.225  1.00  0.00     0.163 HD
BRANCH  23  26
ATOM     26  C   UNL     1      -5.962   1.295   2.039  1.00  0.00     0.238 C 
ATOM     27  N   UNL     1      -5.313   0.964   0.740  1.00  0.00    -0.236 NA
ATOM     28  C   UNL     1      -5.636   2.757   2.295  1.00  0.00     0.206 C 
ATOM     29  C   UNL     1      -4.932   2.123   0.292  1.00  0.00     0.208 C 
ATOM     30  O   UNL     1      -5.168   3.234   1.034  1.00  0.00    -0.474 OA
ATOM     31  C   UNL     1      -4.528   2.937   3.324  1.00  0.00     0.056 C 
BRANCH  29  32
ATOM     32  C   UNL     1      -4.267   2.400  -1.053  1.00  0.00     0.171 C 
BRANCH  32  33
ATOM     33  N   UNL     1      -5.174   3.103  -1.946  1.00  0.00    -0.342 N 
ATOM     34  C   UNL     1      -5.265   2.816  -3.287  1.00  0.00     0.246 CG0
ATOM     35  O   UNL     1      -4.571   1.965  -3.838  1.00  0.00    -0.273 OA
ATOM     36  H   UNL     1      -5.753   3.866  -1.611  1.00  0.00     0.164 HD
ATOM     37  G   UNL     1      -6.326   3.632  -4.043  1.00  0.00     0.000 G0
ENDBRANCH  32  33
BRANCH  32  38
ATOM     38  C   UNL     1      -2.927   3.155  -0.850  1.00  0.00     0.017 C 
ATOM     39  C   UNL     1      -1.752   2.268  -1.281  1.00  0.00     0.010 C 
BRANCH  38  40
ATOM     40  C   UNL     1      -2.895   4.527  -1.562  1.00  0.00     0.002 C 
ATOM     41  C   UNL     1      -1.850   4.617  -2.667  1.00  0.00     0.004 C 
ENDBRANCH  38  40
ENDBRANCH  32  38
ENDBRANCH  29  32
ENDBRANCH  23  26
ENDBRANCH   1  22
TORSDOF 4
ENDMDL
MODEL 42
REMARK VINA RESULT:    -4.336     12.148     15.860
REMARK INTER + INTRA:          -9.183
REMARK INTER:                  -7.617
REMARK INTRA:                  -1.566
REMARK UNBOUND:                -1.804
REMARK SMILES CC[C@H](C)[C@@H]1NC(=O)[C@H]2CSC(=N2)[C@@H]([C@@H](C)CC)NC(=O)c2csc(n2)CNC(=O)[C@H]2N=C1O[C@@H]2C
REMARK SMILES IDX 27 1 25 2 22 3 26 4 23 5 24 6 20 7 19 8 21 9 14 11 12 12
REMARK SMILES IDX 11 13 10 14 13 15 9 16 15 18 16 19 17 20 18 21 28 22 29 23
REMARK SMILES IDX 30 24 31 26 32 27 35 28 33 29 34 30 36 31 5 32 6 33 7 34
REMARK SMILES IDX 8 35 3 38 4 39 2 40 1 41
REMARK H PARENT 19 10 28 25 6 36
REMARK Flexibility Score:   91.900
ROOT
ATOM      1  C   UNL     1     -12.889   2.841 -11.647  1.00  0.00     0.183 C 
ENDROOT
BRANCH   1   2
ATOM      2  C   UNL     1     -11.784   2.604 -10.657  1.00  0.00     0.113 A 
ATOM      3  C   UNL     1     -10.446   2.937  -8.906  1.00  0.00     0.139 A 
ATOM      4  N   UNL     1     -11.620   3.320  -9.560  1.00  0.00    -0.234 NA
ATOM      5  C   UNL     1      -9.775   1.889  -9.504  1.00  0.00     0.101 A 
ATOM      6  S   UNL     1     -10.605   1.385 -10.919  1.00  0.00    -0.125 S 
BRANCH   3   7
ATOM      7  C   UNL     1     -10.003   3.662  -7.714  1.00  0.00     0.271 C 
ATOM      8  N   UNL     1     -10.305   2.976  -6.563  1.00  0.00    -0.341 N 
ATOM      9  O   UNL     1      -9.461   4.760  -7.746  1.00  0.00    -0.267 OA
ATOM     10  H   UNL     1     -10.736   2.061  -6.696  1.00  0.00     0.164 HD
BRANCH   8  11
ATOM     11  C   UNL     1     -10.159   3.521  -5.224  1.00  0.00     0.140 C 
BRANCH  11  12
ATOM     12  C   UNL     1     -11.507   3.385  -4.511  1.00  0.00     0.091 C 
ATOM     13  S   UNL     1     -11.828   2.015  -3.473  1.00  0.00    -0.106 SA
ATOM     14  C   UNL     1     -13.317   2.822  -2.847  1.00  0.00     0.113 C 
ATOM     15  N   UNL     1     -12.474   4.226  -4.704  1.00  0.00    -0.267 NA
ATOM     16  C   UNL     1     -13.697   3.781  -3.964  1.00  0.00     0.205 CG0
ATOM     17  G   UNL     1     -14.710   3.129  -4.919  1.00  0.00     0.000 G0
ENDBRANCH  11  12
BRANCH  11  18
ATOM     18  C   UNL     1      -8.918   2.992  -4.459  1.00  0.00     0.015 C 
ATOM     19  C   UNL     1      -8.318   1.781  -5.187  1.00  0.00     0.010 C 
BRANCH  18  20
ATOM     20  C   UNL     1      -7.844   4.056  -4.157  1.00  0.00     0.002 C 
ATOM     21  C   UNL     1      -8.359   5.483  -4.313  1.00  0.00     0.004 C 
ENDBRANCH  18  20
ENDBRANCH  11  18
ENDBRANCH   8  11
ENDBRANCH   3   7
ENDBRANCH   1   2
BRANCH   1  22
ATOM     22  N   UNL     1     -13.933   3.571 -10.963  1.00  0.00    -0.348 N 
ATOM     23  C   UNL     1     -15.108   3.023 -10.523  1.00  0.00     0.249 C 
ATOM     24  O   UNL     1     -15.358   1.825 -10.591  1.00  0.00    -0.272 OA
ATOM     25  H   UNL     1     -13.838   4.581 -10.871  1.00  0.00     0.163 HD
BRANCH  23  26
ATOM     26  C   UNL     1     -16.045   4.058  -9.883  1.00  0.00     0.238 C 
ATOM     27  N   UNL     1     -16.838   3.403  -8.806  1.00  0.00    -0.236 NA
ATOM     28  C   UNL     1     -15.276   5.175  -9.199  1.00  0.00     0.206 C 
ATOM     29  C   UNL     1     -16.364   3.937  -7.720  1.00  0.00     0.208 C 
ATOM     30  O   UNL     1     -15.386   4.872  -7.809  1.00  0.00    -0.474 OA
ATOM     31  C   UNL     1     -15.891   6.546  -9.448  1.00  0.00     0.056 C 
BRANCH  29  32
ATOM     32  C   UNL     1     -16.762   3.582  -6.290  1.00  0.00     0.171 C 
BRANCH  32  33
ATOM     33  N   UNL     1     -15.731   3.989  -5.349  1.00  0.00    -0.342 N 
ATOM     34  C   UNL     1     -14.732   3.142  -4.932  1.00  0.00     0.246 CG0
ATOM     35  O   UNL     1     -14.647   1.973  -5.301  1.00  0.00    -0.273 OA
ATOM     36  H   UNL     1     -15.735   4.914  -4.933  1.00  0.00     0.164 HD
ATOM     37  G   UNL     1     -13.708   3.783  -3.981  1.00  0.00     0.000 G0
ENDBRANCH  32  33
BRANCH  32  38
ATOM     38  C   UNL     1     -18.150   4.184  -5.948  1.00  0.00     0.017 C 
ATOM     39  C   UNL     1     -18.135   5.702  -6.166  1.00  0.00     0.010 C 
BRANCH  38  40
ATOM     40  C   UNL     1     -19.307   3.509  -6.721  1.00  0.00     0.002 C 
ATOM     41  C   UNL     1     -20.688   3.890  -6.204  1.00  0.00     0.004 C 
ENDBRANCH  38  40
ENDBRANCH  32  38
ENDBRANCH  29  32
ENDBRANCH  23  26
ENDBRANCH   1  22
TORSDOF 4
ENDMDL
MODEL 43
REMARK VINA RESULT:    -4.325      2.743      6.557
REMARK INTER + INTRA:          -9.163
REMARK INTER:                  -9.051
REMARK INTRA:                  -0.112
REMARK UNBOUND:                -1.804
REMARK SMILES CC[C@H](C)[C@@H]1NC(=O)[C@H]2CSC(=N2)[C@@H]([C@@H](C)CC)NC(=O)c2csc(n2)CNC(=O)[C@H]2N=C1O[C@@H]2C
REMARK SMILES IDX 27 1 25 2 22 3 26 4 23 5 24 6 20 7 19 8 21 9 14 11 12 12
REMARK SMILES IDX 11 13 10 14 13 15 9 16 15 18 16 19 17 20 18 21 28 22 29 23
REMARK SMILES IDX 30 24 31 26 32 27 35 28 33 29 34 30 36 31 5 32 6 33 7 34
REMARK SMILES IDX 8 35 3 38 4 39 2 40 1 41
REMARK H PARENT 19 10 28 25 6 36
REMARK Flexibility Score:   91.900
ROOT
ATOM      1  C   UNL     1      -0.334   1.365   7.658  1.00  0.00     0.183 C 
ENDROOT
BRANCH   1   2
ATOM      2  C   UNL     1      -1.175   2.572   7.361  1.00  0.00     0.113 A 
ATOM      3  C   UNL     1      -2.715   3.851   6.380  1.00  0.00     0.139 A 
ATOM      4  N   UNL     1      -2.209   2.559   6.539  1.00  0.00    -0.234 NA
ATOM      5  C   UNL     1      -2.079   4.812   7.141  1.00  0.00     0.101 A 
ATOM      6  S   UNL     1      -0.811   4.100   8.053  1.00  0.00    -0.125 S 
BRANCH   3   7
ATOM      7  C   UNL     1      -3.805   4.099   5.435  1.00  0.00     0.271 C 
ATOM      8  N   UNL     1      -4.114   2.974   4.711  1.00  0.00    -0.341 N 
ATOM      9  O   UNL     1      -4.345   5.189   5.290  1.00  0.00    -0.267 OA
ATOM     10  H   UNL     1      -3.593   2.134   4.960  1.00  0.00     0.164 HD
BRANCH   8  11
ATOM     11  C   UNL     1      -5.019   2.957   3.573  1.00  0.00     0.140 C 
BRANCH  11  12
ATOM     12  C   UNL     1      -4.191   3.213   2.311  1.00  0.00     0.091 C 
ATOM     13  S   UNL     1      -4.809   2.766   0.738  1.00  0.00    -0.106 SA
ATOM     14  C   UNL     1      -3.487   3.699  -0.062  1.00  0.00     0.113 C 
ATOM     15  N   UNL     1      -2.989   3.696   2.363  1.00  0.00    -0.267 NA
ATOM     16  C   UNL     1      -2.391   3.736   0.992  1.00  0.00     0.205 CG0
ATOM     17  G   UNL     1      -1.403   2.575   0.790  1.00  0.00     0.000 G0
ENDBRANCH  11  12
BRANCH  11  18
ATOM     18  C   UNL     1      -5.965   1.729   3.539  1.00  0.00     0.015 C 
ATOM     19  C   UNL     1      -5.428   0.615   4.448  1.00  0.00     0.010 C 
BRANCH  18  20
ATOM     20  C   UNL     1      -7.442   2.045   3.848  1.00  0.00     0.002 C 
ATOM     21  C   UNL     1      -8.112   2.879   2.761  1.00  0.00     0.004 C 
ENDBRANCH  18  20
ENDBRANCH  11  18
ENDBRANCH   8  11
ENDBRANCH   3   7
ENDBRANCH   1   2
BRANCH   1  22
ATOM     22  N   UNL     1      -0.311   0.548   6.465  1.00  0.00    -0.348 N 
ATOM     23  C   UNL     1      -1.294  -0.332   6.104  1.00  0.00     0.249 C 
ATOM     24  O   UNL     1      -2.346  -0.456   6.722  1.00  0.00    -0.272 OA
ATOM     25  H   UNL     1       0.529   0.557   5.888  1.00  0.00     0.163 HD
BRANCH  23  26
ATOM     26  C   UNL     1      -0.964  -1.097   4.814  1.00  0.00     0.238 C 
ATOM     27  N   UNL     1      -1.306  -0.249   3.638  1.00  0.00    -0.236 NA
ATOM     28  C   UNL     1       0.523  -1.385   4.688  1.00  0.00     0.206 C 
ATOM     29  C   UNL     1      -0.145   0.048   3.137  1.00  0.00     0.208 C 
ATOM     30  O   UNL     1       0.977  -0.442   3.719  1.00  0.00    -0.474 OA
ATOM     31  C   UNL     1       0.804  -2.789   4.170  1.00  0.00     0.056 C 
BRANCH  29  32
ATOM     32  C   UNL     1       0.119   0.965   1.946  1.00  0.00     0.171 C 
BRANCH  32  33
ATOM     33  N   UNL     1      -0.801   2.092   1.945  1.00  0.00    -0.342 N 
ATOM     34  C   UNL     1      -1.381   2.574   0.796  1.00  0.00     0.246 CG0
ATOM     35  O   UNL     1      -1.150   2.110  -0.317  1.00  0.00    -0.273 OA
ATOM     36  H   UNL     1      -1.020   2.591   2.801  1.00  0.00     0.164 HD
ATOM     37  G   UNL     1      -2.368   3.732   1.019  1.00  0.00     0.000 G0
ENDBRANCH  32  33
BRANCH  32  38
ATOM     38  C   UNL     1       1.605   1.411   1.923  1.00  0.00     0.017 C 
ATOM     39  C   UNL     1       2.041   1.863   3.322  1.00  0.00     0.010 C 
BRANCH  38  40
ATOM     40  C   UNL     1       2.550   0.327   1.354  1.00  0.00     0.002 C 
ATOM     41  C   UNL     1       3.999   0.782   1.240  1.00  0.00     0.004 C 
ENDBRANCH  38  40
ENDBRANCH  32  38
ENDBRANCH  29  32
ENDBRANCH  23  26
ENDBRANCH   1  22
TORSDOF 4
ENDMDL
MODEL 44
REMARK VINA RESULT:    -4.301      9.736     12.529
REMARK INTER + INTRA:          -9.122
REMARK INTER:                  -7.632
REMARK INTRA:                  -1.491
REMARK UNBOUND:                -1.804
REMARK SMILES CC[C@H](C)[C@@H]1NC(=O)[C@H]2CSC(=N2)[C@@H]([C@@H](C)CC)NC(=O)c2csc(n2)CNC(=O)[C@H]2N=C1O[C@@H]2C
REMARK SMILES IDX 27 1 25 2 22 3 26 4 23 5 24 6 20 7 19 8 21 9 14 11 12 12
REMARK SMILES IDX 11 13 10 14 13 15 9 16 15 18 16 19 17 20 18 21 28 22 29 23
REMARK SMILES IDX 30 24 31 26 32 27 35 28 33 29 34 30 36 31 5 32 6 33 7 34
REMARK SMILES IDX 8 35 3 38 4 39 2 40 1 41
REMARK H PARENT 19 10 28 25 6 36
REMARK Flexibility Score:   91.900
ROOT
ATOM      1  C   UNL     1      -3.579   0.488  -9.975  1.00  0.00     0.183 C 
ENDROOT
BRANCH   1   2
ATOM      2  C   UNL     1      -3.329   1.446  -8.846  1.00  0.00     0.113 A 
ATOM      3  C   UNL     1      -3.727   2.687  -7.038  1.00  0.00     0.139 A 
ATOM      4  N   UNL     1      -4.190   1.665  -7.869  1.00  0.00    -0.234 NA
ATOM      5  C   UNL     1      -2.484   3.183  -7.380  1.00  0.00     0.101 A 
ATOM      6  S   UNL     1      -1.890   2.379  -8.775  1.00  0.00    -0.125 S 
BRANCH   3   7
ATOM      7  C   UNL     1      -4.563   3.173  -5.938  1.00  0.00     0.271 C 
ATOM      8  N   UNL     1      -5.527   2.258  -5.594  1.00  0.00    -0.341 N 
ATOM      9  O   UNL     1      -4.432   4.275  -5.420  1.00  0.00    -0.267 OA
ATOM     10  H   UNL     1      -5.497   1.374  -6.100  1.00  0.00     0.164 HD
BRANCH   8  11
ATOM     11  C   UNL     1      -6.617   2.529  -4.670  1.00  0.00     0.140 C 
BRANCH  11  12
ATOM     12  C   UNL     1      -7.927   2.477  -5.461  1.00  0.00     0.091 C 
ATOM     13  S   UNL     1      -9.267   1.505  -4.897  1.00  0.00    -0.106 SA
ATOM     14  C   UNL     1     -10.359   2.289  -6.103  1.00  0.00     0.113 C 
ATOM     15  N   UNL     1      -8.067   3.081  -6.599  1.00  0.00    -0.267 NA
ATOM     16  C   UNL     1      -9.406   2.766  -7.188  1.00  0.00     0.205 CG0
ATOM     17  G   UNL     1      -9.282   1.714  -8.303  1.00  0.00     0.000 G0
ENDBRANCH  11  12
BRANCH  11  18
ATOM     18  C   UNL     1      -6.564   1.688  -3.369  1.00  0.00     0.015 C 
ATOM     19  C   UNL     1      -5.430   0.656  -3.445  1.00  0.00     0.010 C 
BRANCH  18  20
ATOM     20  C   UNL     1      -6.488   2.514  -2.070  1.00  0.00     0.002 C 
ATOM     21  C   UNL     1      -5.057   2.768  -1.608  1.00  0.00     0.004 C 
ENDBRANCH  18  20
ENDBRANCH  11  18
ENDBRANCH   8  11
ENDBRANCH   3   7
ENDBRANCH   1   2
BRANCH   1  22
ATOM     22  N   UNL     1      -4.644   1.039 -10.783  1.00  0.00    -0.348 N 
ATOM     23  C   UNL     1      -4.611   1.148 -12.147  1.00  0.00     0.249 C 
ATOM     24  O   UNL     1      -3.697   0.707 -12.835  1.00  0.00    -0.272 OA
ATOM     25  H   UNL     1      -5.445   1.456 -10.310  1.00  0.00     0.163 HD
BRANCH  23  26
ATOM     26  C   UNL     1      -5.865   1.825 -12.720  1.00  0.00     0.238 C 
ATOM     27  N   UNL     1      -7.064   1.012 -12.373  1.00  0.00    -0.236 NA
ATOM     28  C   UNL     1      -6.107   3.191 -12.101  1.00  0.00     0.206 C 
ATOM     29  C   UNL     1      -7.693   1.760 -11.516  1.00  0.00     0.208 C 
ATOM     30  O   UNL     1      -7.183   2.973 -11.189  1.00  0.00    -0.474 OA
ATOM     31  C   UNL     1      -6.542   4.229 -13.127  1.00  0.00     0.056 C 
BRANCH  29  32
ATOM     32  C   UNL     1      -8.968   1.395 -10.762  1.00  0.00     0.171 C 
BRANCH  32  33
ATOM     33  N   UNL     1      -9.132   2.231  -9.583  1.00  0.00    -0.342 N 
ATOM     34  C   UNL     1      -9.275   1.710  -8.319  1.00  0.00     0.246 CG0
ATOM     35  O   UNL     1      -9.302   0.503  -8.091  1.00  0.00    -0.273 OA
ATOM     36  H   UNL     1      -9.184   3.241  -9.660  1.00  0.00     0.164 HD
ATOM     37  G   UNL     1      -9.376   2.763  -7.204  1.00  0.00     0.000 G0
ENDBRANCH  32  33
BRANCH  32  38
ATOM     38  C   UNL     1     -10.195   1.457 -11.709  1.00  0.00     0.017 C 
ATOM     39  C   UNL     1     -10.588   0.042 -12.155  1.00  0.00     0.010 C 
BRANCH  38  40
ATOM     40  C   UNL     1     -11.395   2.213 -11.094  1.00  0.00     0.002 C 
ATOM     41  C   UNL     1     -12.748   1.672 -11.536  1.00  0.00     0.004 C 
ENDBRANCH  38  40
ENDBRANCH  32  38
ENDBRANCH  29  32
ENDBRANCH  23  26
ENDBRANCH   1  22
TORSDOF 4
ENDMDL
MODEL 45
REMARK VINA RESULT:    -4.284      4.807      8.731
REMARK INTER + INTRA:          -9.094
REMARK INTER:                  -7.314
REMARK INTRA:                  -1.780
REMARK UNBOUND:                -1.804
REMARK SMILES CC[C@H](C)[C@@H]1NC(=O)[C@H]2CSC(=N2)[C@@H]([C@@H](C)CC)NC(=O)c2csc(n2)CNC(=O)[C@H]2N=C1O[C@@H]2C
REMARK SMILES IDX 27 1 25 2 22 3 26 4 23 5 24 6 20 7 19 8 21 9 14 11 12 12
REMARK SMILES IDX 11 13 10 14 13 15 9 16 15 18 16 19 17 20 18 21 28 22 29 23
REMARK SMILES IDX 30 24 31 26 32 27 35 28 33 29 34 30 36 31 5 32 6 33 7 34
REMARK SMILES IDX 8 35 3 38 4 39 2 40 1 41
REMARK H PARENT 19 10 28 25 6 36
REMARK Flexibility Score:   91.900
ROOT
ATOM      1  C   UNL     1      -8.087   3.358   3.228  1.00  0.00     0.183 C 
ENDROOT
BRANCH   1   2
ATOM      2  C   UNL     1      -6.915   2.437   3.049  1.00  0.00     0.113 A 
ATOM      3  C   UNL     1      -5.075   1.553   2.155  1.00  0.00     0.139 A 
ATOM      4  N   UNL     1      -5.958   2.634   2.160  1.00  0.00    -0.234 NA
ATOM      5  C   UNL     1      -5.356   0.579   3.094  1.00  0.00     0.101 A 
ATOM      6  S   UNL     1      -6.761   1.005   3.983  1.00  0.00    -0.125 S 
BRANCH   3   7
ATOM      7  C   UNL     1      -3.985   1.502   1.178  1.00  0.00     0.271 C 
ATOM      8  N   UNL     1      -4.263   2.264   0.070  1.00  0.00    -0.341 N 
ATOM      9  O   UNL     1      -2.971   0.831   1.324  1.00  0.00    -0.267 OA
ATOM     10  H   UNL     1      -5.138   2.785   0.102  1.00  0.00     0.164 HD
BRANCH   8  11
ATOM     11  C   UNL     1      -3.463   2.264  -1.144  1.00  0.00     0.140 C 
BRANCH  11  12
ATOM     12  C   UNL     1      -4.408   2.057  -2.330  1.00  0.00     0.091 C 
ATOM     13  S   UNL     1      -4.191   2.965  -3.808  1.00  0.00    -0.106 SA
ATOM     14  C   UNL     1      -5.371   1.893  -4.655  1.00  0.00     0.113 C 
ATOM     15  N   UNL     1      -5.435   1.268  -2.261  1.00  0.00    -0.267 NA
ATOM     16  C   UNL     1      -6.231   1.349  -3.526  1.00  0.00     0.205 CG0
ATOM     17  G   UNL     1      -7.485   2.217  -3.330  1.00  0.00     0.000 G0
ENDBRANCH  11  12
BRANCH  11  18
ATOM     18  C   UNL     1      -2.477   3.456  -1.248  1.00  0.00     0.015 C 
ATOM     19  C   UNL     1      -3.127   4.737  -0.709  1.00  0.00     0.010 C 
BRANCH  18  20
ATOM     20  C   UNL     1      -1.097   3.210  -0.604  1.00  0.00     0.002 C 
ATOM     21  C   UNL     1      -0.247   2.212  -1.381  1.00  0.00     0.004 C 
ENDBRANCH  18  20
ENDBRANCH  11  18
ENDBRANCH   8  11
ENDBRANCH   3   7
ENDBRANCH   1   2
BRANCH   1  22
ATOM     22  N   UNL     1      -9.116   2.933   2.307  1.00  0.00    -0.348 N 
ATOM     23  C   UNL     1      -9.507   3.632   1.197  1.00  0.00     0.249 C 
ATOM     24  O   UNL     1      -8.957   4.662   0.823  1.00  0.00    -0.272 OA
ATOM     25  H   UNL     1      -9.655   2.098   2.534  1.00  0.00     0.163 HD
BRANCH  23  26
ATOM     26  C   UNL     1     -10.662   2.956   0.444  1.00  0.00     0.238 C 
ATOM     27  N   UNL     1     -10.595   3.332  -0.996  1.00  0.00    -0.236 NA
ATOM     28  C   UNL     1     -10.552   1.442   0.474  1.00  0.00     0.206 C 
ATOM     29  C   UNL     1     -10.260   2.219  -1.579  1.00  0.00     0.208 C 
ATOM     30  O   UNL     1     -10.089   1.101  -0.831  1.00  0.00    -0.474 OA
ATOM     31  C   UNL     1     -11.896   0.763   0.706  1.00  0.00     0.056 C 
BRANCH  29  32
ATOM     32  C   UNL     1      -9.975   2.027  -3.065  1.00  0.00     0.171 C 
BRANCH  32  33
ATOM     33  N   UNL     1      -8.659   1.442  -3.270  1.00  0.00    -0.342 N 
ATOM     34  C   UNL     1      -7.515   2.199  -3.345  1.00  0.00     0.246 CG0
ATOM     35  O   UNL     1      -7.517   3.426  -3.270  1.00  0.00    -0.273 OA
ATOM     36  H   UNL     1      -8.545   0.443  -3.404  1.00  0.00     0.164 HD
ATOM     37  G   UNL     1      -6.221   1.385  -3.505  1.00  0.00     0.000 G0
ENDBRANCH  32  33
BRANCH  32  38
ATOM     38  C   UNL     1     -11.104   1.199  -3.732  1.00  0.00     0.017 C 
ATOM     39  C   UNL     1     -10.635  -0.243  -3.962  1.00  0.00     0.010 C 
BRANCH  38  40
ATOM     40  C   UNL     1     -12.433   1.245  -2.943  1.00  0.00     0.002 C 
ATOM     41  C   UNL     1     -13.505   2.102  -3.604  1.00  0.00     0.004 C 
ENDBRANCH  38  40
ENDBRANCH  32  38
ENDBRANCH  29  32
ENDBRANCH  23  26
ENDBRANCH   1  22
TORSDOF 4
ENDMDL
MODEL 46
REMARK VINA RESULT:    -4.281      4.232      8.465
REMARK INTER + INTRA:          -9.089
REMARK INTER:                  -7.673
REMARK INTRA:                  -1.416
REMARK UNBOUND:                -1.804
REMARK SMILES CC[C@H](C)[C@@H]1NC(=O)[C@H]2CSC(=N2)[C@@H]([C@@H](C)CC)NC(=O)c2csc(n2)CNC(=O)[C@H]2N=C1O[C@@H]2C
REMARK SMILES IDX 27 1 25 2 22 3 26 4 23 5 24 6 20 7 19 8 21 9 14 11 12 12
REMARK SMILES IDX 11 13 10 14 13 15 9 16 15 18 16 19 17 20 18 21 28 22 29 23
REMARK SMILES IDX 30 24 31 26 32 27 35 28 33 29 34 30 36 31 5 32 6 33 7 34
REMARK SMILES IDX 8 35 3 38 4 39 2 40 1 41
REMARK H PARENT 19 10 28 25 6 36
REMARK Flexibility Score:   91.900
ROOT
ATOM      1  C   UNL     1      -1.374   3.165   0.541  1.00  0.00     0.183 C 
ENDROOT
BRANCH   1   2
ATOM      2  C   UNL     1      -2.108   3.472  -0.733  1.00  0.00     0.113 A 
ATOM      3  C   UNL     1      -3.549   3.240  -2.417  1.00  0.00     0.139 A 
ATOM      4  N   UNL     1      -3.160   2.794  -1.152  1.00  0.00    -0.234 NA
ATOM      5  C   UNL     1      -2.807   4.298  -2.903  1.00  0.00     0.101 A 
ATOM      6  S   UNL     1      -1.585   4.730  -1.777  1.00  0.00    -0.125 S 
BRANCH   3   7
ATOM      7  C   UNL     1      -4.637   2.566  -3.129  1.00  0.00     0.271 C 
ATOM      8  N   UNL     1      -5.792   3.308  -3.107  1.00  0.00    -0.341 N 
ATOM      9  O   UNL     1      -4.529   1.461  -3.647  1.00  0.00    -0.267 OA
ATOM     10  H   UNL     1      -5.722   4.220  -2.657  1.00  0.00     0.164 HD
BRANCH   8  11
ATOM     11  C   UNL     1      -7.084   2.822  -3.565  1.00  0.00     0.140 C 
BRANCH  11  12
ATOM     12  C   UNL     1      -7.933   2.511  -2.329  1.00  0.00     0.091 C 
ATOM     13  S   UNL     1      -9.622   2.960  -2.277  1.00  0.00    -0.106 SA
ATOM     14  C   UNL     1      -9.855   1.959  -0.793  1.00  0.00     0.113 C 
ATOM     15  N   UNL     1      -7.425   1.979  -1.262  1.00  0.00    -0.267 NA
ATOM     16  C   UNL     1      -8.462   1.892  -0.187  1.00  0.00     0.205 CG0
ATOM     17  G   UNL     1      -8.268   3.007   0.854  1.00  0.00     0.000 G0
ENDBRANCH  11  12
BRANCH  11  18
ATOM     18  C   UNL     1      -7.744   3.713  -4.648  1.00  0.00     0.015 C 
ATOM     19  C   UNL     1      -6.754   4.776  -5.143  1.00  0.00     0.010 C 
BRANCH  18  20
ATOM     20  C   UNL     1      -8.373   2.939  -5.824  1.00  0.00     0.002 C 
ATOM     21  C   UNL     1      -7.554   1.723  -6.242  1.00  0.00     0.004 C 
ENDBRANCH  18  20
ENDBRANCH  11  18
ENDBRANCH   8  11
ENDBRANCH   3   7
ENDBRANCH   1   2
BRANCH   1  22
ATOM     22  N   UNL     1      -2.193   3.634   1.636  1.00  0.00    -0.348 N 
ATOM     23  C   UNL     1      -2.943   2.828   2.449  1.00  0.00     0.249 C 
ATOM     24  O   UNL     1      -2.930   1.605   2.380  1.00  0.00    -0.272 OA
ATOM     25  H   UNL     1      -2.294   4.640   1.770  1.00  0.00     0.163 HD
BRANCH  23  26
ATOM     26  C   UNL     1      -3.752   3.619   3.488  1.00  0.00     0.238 C 
ATOM     27  N   UNL     1      -5.028   4.077   2.873  1.00  0.00    -0.236 NA
ATOM     28  C   UNL     1      -4.157   2.755   4.670  1.00  0.00     0.206 C 
ATOM     29  C   UNL     1      -5.927   3.367   3.488  1.00  0.00     0.208 C 
ATOM     30  O   UNL     1      -5.541   2.491   4.448  1.00  0.00    -0.474 OA
ATOM     31  C   UNL     1      -4.008   3.479   6.002  1.00  0.00     0.056 C 
BRANCH  29  32
ATOM     32  C   UNL     1      -7.427   3.367   3.207  1.00  0.00     0.171 C 
BRANCH  32  33
ATOM     33  N   UNL     1      -7.744   2.505   2.079  1.00  0.00    -0.342 N 
ATOM     34  C   UNL     1      -8.252   2.988   0.897  1.00  0.00     0.246 CG0
ATOM     35  O   UNL     1      -8.500   4.177   0.710  1.00  0.00    -0.273 OA
ATOM     36  H   UNL     1      -7.634   1.498   2.142  1.00  0.00     0.164 HD
ATOM     37  G   UNL     1      -8.462   1.921  -0.189  1.00  0.00     0.000 G0
ENDBRANCH  32  33
BRANCH  32  38
ATOM     38  C   UNL     1      -8.218   2.987   4.486  1.00  0.00     0.017 C 
ATOM     39  C   UNL     1      -7.924   3.994   5.606  1.00  0.00     0.010 C 
BRANCH  38  40
ATOM     40  C   UNL     1      -9.737   2.843   4.235  1.00  0.00     0.002 C 
ATOM     41  C   UNL     1     -10.592   3.690   5.169  1.00  0.00     0.004 C 
ENDBRANCH  38  40
ENDBRANCH  32  38
ENDBRANCH  29  32
ENDBRANCH  23  26
ENDBRANCH   1  22
TORSDOF 4
ENDMDL
MODEL 47
REMARK VINA RESULT:    -4.170      6.428     10.480
REMARK INTER + INTRA:          -8.900
REMARK INTER:                  -7.289
REMARK INTRA:                  -1.611
REMARK UNBOUND:                -1.804
REMARK SMILES CC[C@H](C)[C@@H]1NC(=O)[C@H]2CSC(=N2)[C@@H]([C@@H](C)CC)NC(=O)c2csc(n2)CNC(=O)[C@H]2N=C1O[C@@H]2C
REMARK SMILES IDX 27 1 25 2 22 3 26 4 23 5 24 6 20 7 19 8 21 9 14 11 12 12
REMARK SMILES IDX 11 13 10 14 13 15 9 16 15 18 16 19 17 20 18 21 28 22 29 23
REMARK SMILES IDX 30 24 31 26 32 27 35 28 33 29 34 30 36 31 5 32 6 33 7 34
REMARK SMILES IDX 8 35 3 38 4 39 2 40 1 41
REMARK H PARENT 19 10 28 25 6 36
REMARK Flexibility Score:   91.900
ROOT
ATOM      1  C   UNL     1     -10.421   3.286  -0.054  1.00  0.00     0.183 C 
ENDROOT
BRANCH   1   2
ATOM      2  C   UNL     1      -9.113   2.706   0.403  1.00  0.00     0.113 A 
ATOM      3  C   UNL     1      -7.017   1.955   0.305  1.00  0.00     0.139 A 
ATOM      4  N   UNL     1      -8.034   2.648  -0.355  1.00  0.00    -0.234 NA
ATOM      5  C   UNL     1      -7.338   1.553   1.587  1.00  0.00     0.101 A 
ATOM      6  S   UNL     1      -8.944   2.023   1.969  1.00  0.00    -0.125 S 
BRANCH   3   7
ATOM      7  C   UNL     1      -5.754   1.677  -0.382  1.00  0.00     0.271 C 
ATOM      8  N   UNL     1      -5.585   2.487  -1.478  1.00  0.00    -0.341 N 
ATOM      9  O   UNL     1      -4.968   0.805  -0.034  1.00  0.00    -0.267 OA
ATOM     10  H   UNL     1      -6.315   3.183  -1.629  1.00  0.00     0.164 HD
BRANCH   8  11
ATOM     11  C   UNL     1      -4.527   2.322  -2.461  1.00  0.00     0.140 C 
BRANCH  11  12
ATOM     12  C   UNL     1      -5.158   2.418  -3.853  1.00  0.00     0.091 C 
ATOM     13  S   UNL     1      -4.790   3.765  -4.903  1.00  0.00    -0.106 SA
ATOM     14  C   UNL     1      -5.577   2.916  -6.289  1.00  0.00     0.113 C 
ATOM     15  N   UNL     1      -6.033   1.558  -4.271  1.00  0.00    -0.267 NA
ATOM     16  C   UNL     1      -6.551   1.964  -5.615  1.00  0.00     0.205 CG0
ATOM     17  G   UNL     1      -7.943   2.605  -5.495  1.00  0.00     0.000 G0
ENDBRANCH  11  12
BRANCH  11  18
ATOM     18  C   UNL     1      -3.285   3.214  -2.205  1.00  0.00     0.015 C 
ATOM     19  C   UNL     1      -3.685   4.481  -1.437  1.00  0.00     0.010 C 
BRANCH  18  20
ATOM     20  C   UNL     1      -2.103   2.493  -1.525  1.00  0.00     0.002 C 
ATOM     21  C   UNL     1      -0.804   3.289  -1.588  1.00  0.00     0.004 C 
ENDBRANCH  18  20
ENDBRANCH  11  18
ENDBRANCH   8  11
ENDBRANCH   3   7
ENDBRANCH   1   2
BRANCH   1  22
ATOM     22  N   UNL     1     -10.901   2.464  -1.142  1.00  0.00    -0.348 N 
ATOM     23  C   UNL     1     -11.929   1.566  -1.046  1.00  0.00     0.249 C 
ATOM     24  O   UNL     1     -12.609   1.429  -0.035  1.00  0.00    -0.272 OA
ATOM     25  H   UNL     1     -10.393   2.483  -2.025  1.00  0.00     0.163 HD
BRANCH  23  26
ATOM     26  C   UNL     1     -12.175   0.799  -2.354  1.00  0.00     0.238 C 
ATOM     27  N   UNL     1     -12.099   1.747  -3.500  1.00  0.00    -0.236 NA
ATOM     28  C   UNL     1     -11.099  -0.240  -2.614  1.00  0.00     0.206 C 
ATOM     29  C   UNL     1     -11.009   1.390  -4.110  1.00  0.00     0.208 C 
ATOM     30  O   UNL     1     -10.287   0.348  -3.630  1.00  0.00    -0.474 OA
ATOM     31  C   UNL     1     -11.667  -1.550  -3.143  1.00  0.00     0.056 C 
BRANCH  29  32
ATOM     32  C   UNL     1     -10.390   2.070  -5.328  1.00  0.00     0.171 C 
BRANCH  32  33
ATOM     33  N   UNL     1      -8.995   1.686  -5.485  1.00  0.00    -0.342 N 
ATOM     34  C   UNL     1      -7.973   2.604  -5.514  1.00  0.00     0.246 CG0
ATOM     35  O   UNL     1      -8.158   3.816  -5.438  1.00  0.00    -0.273 OA
ATOM     36  H   UNL     1      -8.730   0.716  -5.616  1.00  0.00     0.164 HD
ATOM     37  G   UNL     1      -6.568   1.989  -5.628  1.00  0.00     0.000 G0
ENDBRANCH  32  33
BRANCH  32  38
ATOM     38  C   UNL     1     -11.232   1.780  -6.598  1.00  0.00     0.017 C 
ATOM     39  C   UNL     1     -11.394   3.060  -7.427  1.00  0.00     0.010 C 
BRANCH  38  40
ATOM     40  C   UNL     1     -10.663   0.620  -7.448  1.00  0.00     0.002 C 
ATOM     41  C   UNL     1     -11.552   0.230  -8.621  1.00  0.00     0.004 C 
ENDBRANCH  38  40
ENDBRANCH  32  38
ENDBRANCH  29  32
ENDBRANCH  23  26
ENDBRANCH   1  22
TORSDOF 4
ENDMDL
MODEL 48
REMARK VINA RESULT:    -4.137     10.253     15.218
REMARK INTER + INTRA:          -8.843
REMARK INTER:                  -7.484
REMARK INTRA:                  -1.359
REMARK UNBOUND:                -1.804
REMARK SMILES CC[C@H](C)[C@@H]1NC(=O)[C@H]2CSC(=N2)[C@@H]([C@@H](C)CC)NC(=O)c2csc(n2)CNC(=O)[C@H]2N=C1O[C@@H]2C
REMARK SMILES IDX 27 1 25 2 22 3 26 4 23 5 24 6 20 7 19 8 21 9 14 11 12 12
REMARK SMILES IDX 11 13 10 14 13 15 9 16 15 18 16 19 17 20 18 21 28 22 29 23
REMARK SMILES IDX 30 24 31 26 32 27 35 28 33 29 34 30 36 31 5 32 6 33 7 34
REMARK SMILES IDX 8 35 3 38 4 39 2 40 1 41
REMARK H PARENT 19 10 28 25 6 36
REMARK Flexibility Score:   91.900
ROOT
ATOM      1  C   UNL     1     -12.034   2.192  -6.858  1.00  0.00     0.183 C 
ENDROOT
BRANCH   1   2
ATOM      2  C   UNL     1     -11.917   2.625  -8.292  1.00  0.00     0.113 A 
ATOM      3  C   UNL     1     -11.015   3.459 -10.150  1.00  0.00     0.139 A 
ATOM      4  N   UNL     1     -10.784   3.009  -8.849  1.00  0.00    -0.234 NA
ATOM      5  C   UNL     1     -12.326   3.348 -10.570  1.00  0.00     0.101 A 
ATOM      6  S   UNL     1     -13.295   2.694  -9.313  1.00  0.00    -0.125 S 
BRANCH   3   7
ATOM      7  C   UNL     1      -9.917   4.030 -10.934  1.00  0.00     0.271 C 
ATOM      8  N   UNL     1      -8.848   3.171 -11.009  1.00  0.00    -0.341 N 
ATOM      9  O   UNL     1      -9.944   5.150 -11.429  1.00  0.00    -0.267 OA
ATOM     10  H   UNL     1      -8.982   2.262 -10.567  1.00  0.00     0.164 HD
BRANCH   8  11
ATOM     11  C   UNL     1      -7.550   3.528 -11.556  1.00  0.00     0.140 C 
BRANCH  11  12
ATOM     12  C   UNL     1      -6.544   2.462 -11.111  1.00  0.00     0.091 C 
ATOM     13  S   UNL     1      -6.793   0.781 -11.518  1.00  0.00    -0.106 SA
ATOM     14  C   UNL     1      -5.112   0.390 -10.987  1.00  0.00     0.113 C 
ATOM     15  N   UNL     1      -5.524   2.750 -10.364  1.00  0.00    -0.267 NA
ATOM     16  C   UNL     1      -4.784   1.501 -10.002  1.00  0.00     0.205 CG0
ATOM     17  G   UNL     1      -5.111   1.067  -8.564  1.00  0.00     0.000 G0
ENDBRANCH  11  12
BRANCH  11  18
ATOM     18  C   UNL     1      -7.574   3.862 -13.070  1.00  0.00     0.015 C 
ATOM     19  C   UNL     1      -6.147   4.056 -13.598  1.00  0.00     0.010 C 
BRANCH  18  20
ATOM     20  C   UNL     1      -8.366   2.863 -13.938  1.00  0.00     0.002 C 
ATOM     21  C   UNL     1      -9.476   3.526 -14.746  1.00  0.00     0.004 C 
ENDBRANCH  18  20
ENDBRANCH  11  18
ENDBRANCH   8  11
ENDBRANCH   3   7
ENDBRANCH   1   2
BRANCH   1  22
ATOM     22  N   UNL     1     -10.836   2.626  -6.176  1.00  0.00    -0.348 N 
ATOM     23  C   UNL     1      -9.710   1.865  -6.018  1.00  0.00     0.249 C 
ATOM     24  O   UNL     1      -9.572   0.755  -6.520  1.00  0.00    -0.272 OA
ATOM     25  H   UNL     1     -10.849   3.528  -5.701  1.00  0.00     0.163 HD
BRANCH  23  26
ATOM     26  C   UNL     1      -8.621   2.576  -5.200  1.00  0.00     0.238 C 
ATOM     27  N   UNL     1      -7.417   1.702  -5.121  1.00  0.00    -0.236 NA
ATOM     28  C   UNL     1      -8.151   3.856  -5.870  1.00  0.00     0.206 C 
ATOM     29  C   UNL     1      -6.544   2.332  -5.848  1.00  0.00     0.208 C 
ATOM     30  O   UNL     1      -6.884   3.510  -6.427  1.00  0.00    -0.474 OA
ATOM     31  C   UNL     1      -7.952   4.995  -4.879  1.00  0.00     0.056 C 
BRANCH  29  32
ATOM     32  C   UNL     1      -5.134   1.855  -6.185  1.00  0.00     0.171 C 
BRANCH  32  33
ATOM     33  N   UNL     1      -4.846   2.039  -7.598  1.00  0.00    -0.342 N 
ATOM     34  C   UNL     1      -5.116   1.076  -8.541  1.00  0.00     0.246 CG0
ATOM     35  O   UNL     1      -5.595  -0.020  -8.262  1.00  0.00    -0.273 OA
ATOM     36  H   UNL     1      -4.396   2.883  -7.936  1.00  0.00     0.164 HD
ATOM     37  G   UNL     1      -4.793   1.491  -9.986  1.00  0.00     0.000 G0
ENDBRANCH  32  33
BRANCH  32  38
ATOM     38  C   UNL     1      -4.092   2.552  -5.270  1.00  0.00     0.017 C 
ATOM     39  C   UNL     1      -3.375   3.665  -6.043  1.00  0.00     0.010 C 
BRANCH  38  40
ATOM     40  C   UNL     1      -4.704   3.077  -3.951  1.00  0.00     0.002 C 
ATOM     41  C   UNL     1      -4.248   2.307  -2.719  1.00  0.00     0.004 C 
ENDBRANCH  38  40
ENDBRANCH  32  38
ENDBRANCH  29  32
ENDBRANCH  23  26
ENDBRANCH   1  22
TORSDOF 4
ENDMDL
MODEL 49
REMARK VINA RESULT:    -3.953      5.602      9.875
REMARK INTER + INTRA:          -8.531
REMARK INTER:                  -6.728
REMARK INTRA:                  -1.803
REMARK UNBOUND:                -1.804
REMARK SMILES CC[C@H](C)[C@@H]1NC(=O)[C@H]2CSC(=N2)[C@@H]([C@@H](C)CC)NC(=O)c2csc(n2)CNC(=O)[C@H]2N=C1O[C@@H]2C
REMARK SMILES IDX 27 1 25 2 22 3 26 4 23 5 24 6 20 7 19 8 21 9 14 11 12 12
REMARK SMILES IDX 11 13 10 14 13 15 9 16 15 18 16 19 17 20 18 21 28 22 29 23
REMARK SMILES IDX 30 24 31 26 32 27 35 28 33 29 34 30 36 31 5 32 6 33 7 34
REMARK SMILES IDX 8 35 3 38 4 39 2 40 1 41
REMARK H PARENT 19 10 28 25 6 36
REMARK Flexibility Score:   91.900
ROOT
ATOM      1  C   UNL     1      -9.241   2.480   4.763  1.00  0.00     0.183 C 
ENDROOT
BRANCH   1   2
ATOM      2  C   UNL     1      -7.922   2.051   4.186  1.00  0.00     0.113 A 
ATOM      3  C   UNL     1      -6.200   1.942   2.776  1.00  0.00     0.139 A 
ATOM      4  N   UNL     1      -7.355   2.634   3.146  1.00  0.00    -0.234 NA
ATOM      5  C   UNL     1      -5.887   0.873   3.593  1.00  0.00     0.101 A 
ATOM      6  S   UNL     1      -7.066   0.709   4.830  1.00  0.00    -0.125 S 
BRANCH   3   7
ATOM      7  C   UNL     1      -5.453   2.347   1.583  1.00  0.00     0.271 C 
ATOM      8  N   UNL     1      -6.293   2.669   0.546  1.00  0.00    -0.341 N 
ATOM      9  O   UNL     1      -4.230   2.360   1.517  1.00  0.00    -0.267 OA
ATOM     10  H   UNL     1      -7.290   2.633   0.758  1.00  0.00     0.164 HD
BRANCH   8  11
ATOM     11  C   UNL     1      -5.850   2.926  -0.815  1.00  0.00     0.140 C 
BRANCH  11  12
ATOM     12  C   UNL     1      -6.850   2.265  -1.768  1.00  0.00     0.091 C 
ATOM     13  S   UNL     1      -7.050   2.861  -3.398  1.00  0.00    -0.106 SA
ATOM     14  C   UNL     1      -8.016   1.398  -3.829  1.00  0.00     0.113 C 
ATOM     15  N   UNL     1      -7.628   1.301  -1.386  1.00  0.00    -0.267 NA
ATOM     16  C   UNL     1      -8.567   0.930  -2.491  1.00  0.00     0.205 CG0
ATOM     17  G   UNL     1      -9.965   1.518  -2.243  1.00  0.00     0.000 G0
ENDBRANCH  11  12
BRANCH  11  18
ATOM     18  C   UNL     1      -5.510   4.412  -1.096  1.00  0.00     0.015 C 
ATOM     19  C   UNL     1      -6.250   5.327  -0.111  1.00  0.00     0.010 C 
BRANCH  18  20
ATOM     20  C   UNL     1      -4.002   4.732  -1.137  1.00  0.00     0.002 C 
ATOM     21  C   UNL     1      -3.190   3.679  -1.884  1.00  0.00     0.004 C 
ENDBRANCH  18  20
ENDBRANCH  11  18
ENDBRANCH   8  11
ENDBRANCH   3   7
ENDBRANCH   1   2
BRANCH   1  22
ATOM     22  N   UNL     1     -10.281   1.832   3.996  1.00  0.00    -0.348 N 
ATOM     23  C   UNL     1     -11.521   2.361   3.762  1.00  0.00     0.249 C 
ATOM     24  O   UNL     1     -11.848   3.489   4.113  1.00  0.00    -0.272 OA
ATOM     25  H   UNL     1     -10.122   0.878   3.673  1.00  0.00     0.163 HD
BRANCH  23  26
ATOM     26  C   UNL     1     -12.430   1.415   2.962  1.00  0.00     0.238 C 
ATOM     27  N   UNL     1     -12.702   2.011   1.624  1.00  0.00    -0.236 NA
ATOM     28  C   UNL     1     -11.758   0.081   2.684  1.00  0.00     0.206 C 
ATOM     29  C   UNL     1     -12.057   1.227   0.812  1.00  0.00     0.208 C 
ATOM     30  O   UNL     1     -11.381   0.162   1.310  1.00  0.00    -0.474 OA
ATOM     31  C   UNL     1     -12.707  -1.098   2.859  1.00  0.00     0.056 C 
BRANCH  29  32
ATOM     32  C   UNL     1     -11.922   1.402  -0.698  1.00  0.00     0.171 C 
BRANCH  32  33
ATOM     33  N   UNL     1     -10.619   0.949  -1.159  1.00  0.00    -0.342 N 
ATOM     34  C   UNL     1      -9.971   1.523  -2.227  1.00  0.00     0.246 CG0
ATOM     35  O   UNL     1     -10.451   2.440  -2.888  1.00  0.00    -0.273 OA
ATOM     36  H   UNL     1     -10.154   0.160  -0.724  1.00  0.00     0.164 HD
ATOM     37  G   UNL     1      -8.578   0.938  -2.515  1.00  0.00     0.000 G0
ENDBRANCH  32  33
BRANCH  32  38
ATOM     38  C   UNL     1     -13.091   0.694  -1.432  1.00  0.00     0.017 C 
ATOM     39  C   UNL     1     -13.620   1.586  -2.562  1.00  0.00     0.010 C 
BRANCH  38  40
ATOM     40  C   UNL     1     -12.714  -0.714  -1.947  1.00  0.00     0.002 C 
ATOM     41  C   UNL     1     -13.910  -1.643  -2.111  1.00  0.00     0.004 C 
ENDBRANCH  38  40
ENDBRANCH  32  38
ENDBRANCH  29  32
ENDBRANCH  23  26
ENDBRANCH   1  22
TORSDOF 4
ENDMDL
MODEL 50
REMARK VINA RESULT:    -3.915      5.255      8.823
REMARK INTER + INTRA:          -8.466
REMARK INTER:                  -7.991
REMARK INTRA:                  -0.475
REMARK UNBOUND:                -1.804
REMARK SMILES CC[C@H](C)[C@@H]1NC(=O)[C@H]2CSC(=N2)[C@@H]([C@@H](C)CC)NC(=O)c2csc(n2)CNC(=O)[C@H]2N=C1O[C@@H]2C
REMARK SMILES IDX 27 1 25 2 22 3 26 4 23 5 24 6 20 7 19 8 21 9 14 11 12 12
REMARK SMILES IDX 11 13 10 14 13 15 9 16 15 18 16 19 17 20 18 21 28 22 29 23
REMARK SMILES IDX 30 24 31 26 32 27 35 28 33 29 34 30 36 31 5 32 6 33 7 34
REMARK SMILES IDX 8 35 3 38 4 39 2 40 1 41
REMARK H PARENT 19 10 28 25 6 36
REMARK Flexibility Score:   91.900
ROOT
ATOM      1  C   UNL     1      -9.241   5.481  -4.525  1.00  0.00     0.183 C 
ENDROOT
BRANCH   1   2
ATOM      2  C   UNL     1      -9.847   4.604  -3.467  1.00  0.00     0.113 A 
ATOM      3  C   UNL     1      -9.990   3.335  -1.641  1.00  0.00     0.139 A 
ATOM      4  N   UNL     1      -9.212   4.236  -2.370  1.00  0.00    -0.234 NA
ATOM      5  C   UNL     1     -11.236   3.086  -2.183  1.00  0.00     0.101 A 
ATOM      6  S   UNL     1     -11.433   3.970  -3.641  1.00  0.00    -0.125 S 
BRANCH   3   7
ATOM      7  C   UNL     1      -9.450   2.710  -0.432  1.00  0.00     0.271 C 
ATOM      8  N   UNL     1      -9.491   1.340  -0.508  1.00  0.00    -0.341 N 
ATOM      9  O   UNL     1      -9.045   3.341   0.537  1.00  0.00    -0.267 OA
ATOM     10  H   UNL     1      -9.833   0.958  -1.389  1.00  0.00     0.164 HD
BRANCH   8  11
ATOM     11  C   UNL     1      -9.199   0.450   0.604  1.00  0.00     0.140 C 
BRANCH  11  12
ATOM     12  C   UNL     1      -7.709   0.579   0.931  1.00  0.00     0.091 C 
ATOM     13  S   UNL     1      -7.191   1.241   2.464  1.00  0.00    -0.106 SA
ATOM     14  C   UNL     1      -5.500   0.694   2.143  1.00  0.00     0.113 C 
ATOM     15  N   UNL     1      -6.788   0.278   0.070  1.00  0.00    -0.267 NA
ATOM     16  C   UNL     1      -5.438   0.605   0.626  1.00  0.00     0.205 CG0
ATOM     17  G   UNL     1      -4.901   1.915   0.026  1.00  0.00     0.000 G0
ENDBRANCH  11  12
BRANCH  11  18
ATOM     18  C   UNL     1     -10.181   0.589   1.796  1.00  0.00     0.015 C 
ATOM     19  C   UNL     1     -11.621   0.738   1.288  1.00  0.00     0.010 C 
BRANCH  18  20
ATOM     20  C   UNL     1     -10.070  -0.527   2.855  1.00  0.00     0.002 C 
ATOM     21  C   UNL     1     -11.012  -0.321   4.037  1.00  0.00     0.004 C 
ENDBRANCH  18  20
ENDBRANCH  11  18
ENDBRANCH   8  11
ENDBRANCH   3   7
ENDBRANCH   1   2
BRANCH   1  22
ATOM     22  N   UNL     1      -7.894   5.009  -4.758  1.00  0.00    -0.348 N 
ATOM     23  C   UNL     1      -7.577   3.804  -5.323  1.00  0.00     0.249 C 
ATOM     24  O   UNL     1      -8.416   3.029  -5.770  1.00  0.00    -0.272 OA
ATOM     25  H   UNL     1      -7.118   5.566  -4.404  1.00  0.00     0.163 HD
BRANCH  23  26
ATOM     26  C   UNL     1      -6.062   3.557  -5.389  1.00  0.00     0.238 C 
ATOM     27  N   UNL     1      -5.419   4.126  -4.172  1.00  0.00    -0.236 NA
ATOM     28  C   UNL     1      -5.726   2.076  -5.372  1.00  0.00     0.206 C 
ATOM     29  C   UNL     1      -5.031   3.071  -3.520  1.00  0.00     0.208 C 
ATOM     30  O   UNL     1      -5.258   1.842  -4.045  1.00  0.00    -0.474 OA
ATOM     31  C   UNL     1      -4.614   1.718  -6.350  1.00  0.00     0.056 C 
BRANCH  29  32
ATOM     32  C   UNL     1      -4.367   3.051  -2.146  1.00  0.00     0.171 C 
BRANCH  32  33
ATOM     33  N   UNL     1      -4.806   1.899  -1.373  1.00  0.00    -0.342 N 
ATOM     34  C   UNL     1      -4.894   1.917  -0.002  1.00  0.00     0.246 CG0
ATOM     35  O   UNL     1      -4.585   2.893   0.677  1.00  0.00    -0.273 OA
ATOM     36  H   UNL     1      -5.030   1.020  -1.825  1.00  0.00     0.164 HD
ATOM     37  G   UNL     1      -5.435   0.619   0.618  1.00  0.00     0.000 G0
ENDBRANCH  32  33
BRANCH  32  38
ATOM     38  C   UNL     1      -2.823   3.118  -2.289  1.00  0.00     0.017 C 
ATOM     39  C   UNL     1      -2.443   3.500  -3.725  1.00  0.00     0.010 C 
BRANCH  38  40
ATOM     40  C   UNL     1      -2.162   4.059  -1.255  1.00  0.00     0.002 C 
ATOM     41  C   UNL     1      -0.996   4.860  -1.819  1.00  0.00     0.004 C 
ENDBRANCH  38  40
ENDBRANCH  32  38
ENDBRANCH  29  32
ENDBRANCH  23  26
ENDBRANCH   1  22
TORSDOF 4
ENDMDL
