MODEL 1
REMARK VINA RESULT:    -6.602      0.000      0.000
REMARK INTER + INTRA:         -16.318
REMARK INTER:                 -13.356
REMARK INTRA:                  -2.963
REMARK UNBOUND:                -2.963
REMARK SMILES CC[C@@H](C)[C@@H](NC(=O)[C@@H](O)Cc1ccc(O)c(Cl)c1)C(=O)N1[C@H](C(=O)NCCCCN=C(N)N)C[C@H]2CC[C@H](OS(=O)(=O)O)C[C@@H]21
REMARK SMILES IDX 22 1 36 2 46 3 35 4 23 5 45 6 37 7 39 8 38 9 20 10 21 11
REMARK SMILES IDX 5 12 6 13 7 14 8 15 9 17 11 18 12 19 17 20 19 21 15 22 14 23
REMARK SMILES IDX 13 24 18 25 16 26 10 28 3 30 4 31 2 32 1 33 24 34 25 35
REMARK SMILES IDX 26 36 27 38 28 39 29 40 30 41 31 42 32 43 33 44 34 45 40 50
REMARK SMILES IDX 41 51 42 52 43 53 44 54
REMARK H PARENT 6 16 16 27 10 29 26 37 33 46 33 47 34 48 34 49 44 55
ROOT
ATOM      1  N   UNL     1     -10.344  -3.029   7.480  1.00  0.00    -0.326 N 
ATOM      2  C   UNL     1      -9.742  -5.175   8.238  1.00  0.00     0.014 C 
ATOM      3  C   UNL     1     -10.940  -4.332   7.790  1.00  0.00     0.091 C 
ATOM      4  C   UNL     1      -8.864  -4.159   8.951  1.00  0.00     0.041 C 
ATOM      5  C   UNL     1      -8.938  -2.988   7.954  1.00  0.00     0.175 C 
ATOM      6  C   UNL     1     -11.667  -5.080   6.674  1.00  0.00     0.059 C 
ATOM      7  C   UNL     1     -10.200  -6.414   8.982  1.00  0.00     0.008 C 
ATOM      8  C   UNL     1     -11.590  -6.617   6.804  1.00  0.00     0.143 C 
ATOM      9  C   UNL     1     -11.402  -7.066   8.267  1.00  0.00     0.034 C 
ENDROOT
BRANCH   1  10
ATOM     10  C   UNL     1     -10.944  -1.860   7.045  1.00  0.00     0.246 C 
ATOM     11  O   UNL     1     -11.063  -1.661   5.831  1.00  0.00    -0.272 OA
BRANCH  10  12
ATOM     12  C   UNL     1     -11.492  -0.844   8.089  1.00  0.00     0.174 C 
BRANCH  12  13
ATOM     13  N   UNL     1     -10.408  -0.386   8.957  1.00  0.00    -0.342 N 
ATOM     14  C   UNL     1      -9.462   0.553   8.611  1.00  0.00     0.249 C 
ATOM     15  O   UNL     1      -9.442   1.136   7.534  1.00  0.00    -0.272 OA
ATOM     16  H   UNL     1     -10.203  -0.890   9.816  1.00  0.00     0.164 HD
BRANCH  14  17
ATOM     17  C   UNL     1      -8.438   0.809   9.737  1.00  0.00     0.207 C 
BRANCH  17  18
ATOM     18  C   UNL     1      -9.076   0.561  11.108  1.00  0.00     0.077 C 
BRANCH  18  19
ATOM     19  C   UNL     1      -8.510  -0.672  11.776  1.00  0.00    -0.043 A 
ATOM     20  C   UNL     1      -8.309  -2.103  13.724  1.00  0.00     0.083 A 
ATOM     21  C   UNL     1      -8.871  -0.992  13.094  1.00  0.00     0.028 A 
ATOM     22  C   UNL     1      -7.385  -2.898  13.045  1.00  0.00     0.134 A 
ATOM     23  C   UNL     1      -7.020  -2.593  11.739  1.00  0.00     0.048 A 
ATOM     24  C   UNL     1      -7.579  -1.481  11.106  1.00  0.00     0.008 A 
ATOM     25  Cl  UNL     1      -8.764  -2.479  15.345  1.00  0.00    -0.080 Cl
BRANCH  22  26
ATOM     26  O   UNL     1      -6.800  -3.991  13.625  1.00  0.00    -0.506 OA
ATOM     27  H   UNL     1      -5.907  -3.716  13.903  1.00  0.00     0.293 HD
ENDBRANCH  22  26
ENDBRANCH  18  19
ENDBRANCH  17  18
BRANCH  17  28
ATOM     28  O   UNL     1      -7.935   2.154   9.682  1.00  0.00    -0.383 OA
ATOM     29  H   UNL     1      -8.668   2.732   9.993  1.00  0.00     0.211 HD
ENDBRANCH  17  28
ENDBRANCH  14  17
ENDBRANCH  12  13
BRANCH  12  30
ATOM     30  C   UNL     1     -12.698  -1.402   8.892  1.00  0.00     0.018 C 
ATOM     31  C   UNL     1     -13.980  -0.618   8.568  1.00  0.00     0.010 C 
BRANCH  30  32
ATOM     32  C   UNL     1     -12.465  -1.431  10.423  1.00  0.00     0.002 C 
ATOM     33  C   UNL     1     -11.886  -2.730  10.968  1.00  0.00     0.004 C 
ENDBRANCH  30  32
ENDBRANCH  12  30
ENDBRANCH  10  12
ENDBRANCH   1  10
BRANCH   5  34
ATOM     34  C   UNL     1      -7.953  -3.182   6.770  1.00  0.00     0.242 C 
ATOM     35  O   UNL     1      -7.519  -4.288   6.450  1.00  0.00    -0.273 OA
ATOM     36  N   UNL     1      -7.559  -2.022   6.140  1.00  0.00    -0.354 N 
ATOM     37  H   UNL     1      -7.859  -1.127   6.527  1.00  0.00     0.163 HD
BRANCH  36  38
ATOM     38  C   UNL     1      -6.822  -2.032   4.894  1.00  0.00     0.116 C 
BRANCH  38  39
ATOM     39  C   UNL     1      -7.681  -1.440   3.779  1.00  0.00     0.023 C 
BRANCH  39  40
ATOM     40  C   UNL     1      -7.381  -2.062   2.419  1.00  0.00     0.026 C 
BRANCH  40  41
ATOM     41  C   UNL     1      -6.124  -1.446   1.807  1.00  0.00     0.146 C 
BRANCH  41  42
ATOM     42  N   UNL     1      -5.201  -2.501   1.410  1.00  0.00    -0.254 NA
ATOM     43  C   UNL     1      -4.884  -2.634   0.177  1.00  0.00     0.185 C 
ATOM     44  N   UNL     1      -5.274  -1.925  -0.899  1.00  0.00    -0.370 N 
ATOM     45  N   UNL     1      -4.036  -3.616  -0.169  1.00  0.00    -0.370 N 
ATOM     46  H   UNL     1      -5.142  -2.288  -1.827  1.00  0.00     0.159 HD
ATOM     47  H   UNL     1      -5.906  -1.135  -0.815  1.00  0.00     0.159 HD
ATOM     48  H   UNL     1      -3.686  -4.193   0.584  1.00  0.00     0.159 HD
ATOM     49  H   UNL     1      -3.561  -3.638  -1.054  1.00  0.00     0.159 HD
ENDBRANCH  41  42
ENDBRANCH  40  41
ENDBRANCH  39  40
ENDBRANCH  38  39
ENDBRANCH  36  38
ENDBRANCH   5  34
BRANCH   8  50
ATOM     50  O   UNL     1     -10.500  -7.120   6.031  1.00  0.00    -0.245 OA
BRANCH  50  51
ATOM     51  S   UNL     1     -10.773  -8.266   4.910  1.00  0.00     0.397 S 
ATOM     52  O   UNL     1      -9.664  -9.193   4.940  1.00  0.00    -0.169 OA
ATOM     53  O   UNL     1     -11.210  -7.646   3.676  1.00  0.00    -0.169 OA
BRANCH  51  54
ATOM     54  O   UNL     1     -12.024  -9.058   5.537  1.00  0.00    -0.264 OA
ATOM     55  H   UNL     1     -11.770 -10.000   5.618  1.00  0.00     0.236 HD
ENDBRANCH  51  54
ENDBRANCH  50  51
ENDBRANCH   8  50
TORSDOF 19
ENDMDL
MODEL 2
REMARK VINA RESULT:    -6.574     15.661     19.901
REMARK INTER + INTRA:         -16.262
REMARK INTER:                 -12.144
REMARK INTRA:                  -4.118
REMARK UNBOUND:                -2.963
REMARK SMILES CC[C@@H](C)[C@@H](NC(=O)[C@@H](O)Cc1ccc(O)c(Cl)c1)C(=O)N1[C@H](C(=O)NCCCCN=C(N)N)C[C@H]2CC[C@H](OS(=O)(=O)O)C[C@@H]21
REMARK SMILES IDX 22 1 36 2 46 3 35 4 23 5 45 6 37 7 39 8 38 9 20 10 21 11
REMARK SMILES IDX 5 12 6 13 7 14 8 15 9 17 11 18 12 19 17 20 19 21 15 22 14 23
REMARK SMILES IDX 13 24 18 25 16 26 10 28 3 30 4 31 2 32 1 33 24 34 25 35
REMARK SMILES IDX 26 36 27 38 28 39 29 40 30 41 31 42 32 43 33 44 34 45 40 50
REMARK SMILES IDX 41 51 42 52 43 53 44 54
REMARK H PARENT 6 16 16 27 10 29 26 37 33 46 33 47 34 48 34 49 44 55
ROOT
ATOM      1  N   UNL     1       0.263   5.899  -7.028  1.00  0.00    -0.326 N 
ATOM      2  C   UNL     1       0.785   5.208  -9.218  1.00  0.00     0.014 C 
ATOM      3  C   UNL     1       0.901   6.391  -8.252  1.00  0.00     0.091 C 
ATOM      4  C   UNL     1      -0.552   4.593  -8.834  1.00  0.00     0.041 C 
ATOM      5  C   UNL     1      -0.432   4.616  -7.299  1.00  0.00     0.175 C 
ATOM      6  C   UNL     1       2.367   6.816  -8.184  1.00  0.00     0.059 C 
ATOM      7  C   UNL     1       1.016   5.651 -10.649  1.00  0.00     0.008 C 
ATOM      8  C   UNL     1       3.141   6.593  -9.501  1.00  0.00     0.143 C 
ATOM      9  C   UNL     1       2.212   6.623 -10.731  1.00  0.00     0.034 C 
ENDROOT
BRANCH   1  10
ATOM     10  C   UNL     1       0.054   6.537  -5.818  1.00  0.00     0.246 C 
ATOM     11  O   UNL     1       0.905   6.432  -4.928  1.00  0.00    -0.272 OA
BRANCH  10  12
ATOM     12  C   UNL     1      -1.223   7.405  -5.619  1.00  0.00     0.174 C 
BRANCH  12  13
ATOM     13  N   UNL     1      -2.401   6.544  -5.521  1.00  0.00    -0.342 N 
ATOM     14  C   UNL     1      -3.027   6.191  -4.346  1.00  0.00     0.249 C 
ATOM     15  O   UNL     1      -2.677   6.587  -3.242  1.00  0.00    -0.272 OA
ATOM     16  H   UNL     1      -2.708   6.017  -6.334  1.00  0.00     0.164 HD
BRANCH  14  17
ATOM     17  C   UNL     1      -4.234   5.256  -4.572  1.00  0.00     0.207 C 
BRANCH  17  18
ATOM     18  C   UNL     1      -4.077   4.487  -5.888  1.00  0.00     0.077 C 
BRANCH  18  19
ATOM     19  C   UNL     1      -5.327   4.559  -6.734  1.00  0.00    -0.043 A 
ATOM     20  C   UNL     1      -7.555   3.760  -7.268  1.00  0.00     0.083 A 
ATOM     21  C   UNL     1      -6.421   3.725  -6.454  1.00  0.00     0.028 A 
ATOM     22  C   UNL     1      -7.602   4.623  -8.363  1.00  0.00     0.134 A 
ATOM     23  C   UNL     1      -6.526   5.455  -8.651  1.00  0.00     0.048 A 
ATOM     24  C   UNL     1      -5.390   5.421  -7.840  1.00  0.00     0.008 A 
ATOM     25  Cl  UNL     1      -8.888   2.727  -6.908  1.00  0.00    -0.080 Cl
BRANCH  22  26
ATOM     26  O   UNL     1      -8.688   4.685  -9.194  1.00  0.00    -0.506 OA
ATOM     27  H   UNL     1      -9.440   4.984  -8.651  1.00  0.00     0.293 HD
ENDBRANCH  22  26
ENDBRANCH  18  19
ENDBRANCH  17  18
BRANCH  17  28
ATOM     28  O   UNL     1      -5.464   5.998  -4.598  1.00  0.00    -0.383 OA
ATOM     29  H   UNL     1      -5.681   6.131  -5.548  1.00  0.00     0.211 HD
ENDBRANCH  17  28
ENDBRANCH  14  17
ENDBRANCH  12  13
BRANCH  12  30
ATOM     30  C   UNL     1      -1.378   8.501  -6.707  1.00  0.00     0.018 C 
ATOM     31  C   UNL     1      -1.226   9.903  -6.096  1.00  0.00     0.010 C 
BRANCH  30  32
ATOM     32  C   UNL     1      -2.706   8.408  -7.498  1.00  0.00     0.002 C 
ATOM     33  C   UNL     1      -2.635   7.615  -8.797  1.00  0.00     0.004 C 
ENDBRANCH  30  32
ENDBRANCH  12  30
ENDBRANCH  10  12
ENDBRANCH   1  10
BRANCH   5  34
ATOM     34  C   UNL     1       0.402   3.417  -6.773  1.00  0.00     0.242 C 
ATOM     35  O   UNL     1       1.623   3.480  -6.624  1.00  0.00    -0.273 OA
ATOM     36  N   UNL     1      -0.313   2.265  -6.537  1.00  0.00    -0.354 N 
ATOM     37  H   UNL     1      -1.301   2.238  -6.792  1.00  0.00     0.163 HD
BRANCH  36  38
ATOM     38  C   UNL     1       0.259   1.127  -5.846  1.00  0.00     0.116 C 
BRANCH  38  39
ATOM     39  C   UNL     1      -0.501   0.874  -4.546  1.00  0.00     0.023 C 
BRANCH  39  40
ATOM     40  C   UNL     1      -1.879   1.528  -4.540  1.00  0.00     0.026 C 
BRANCH  40  41
ATOM     41  C   UNL     1      -2.022   2.480  -3.352  1.00  0.00     0.146 C 
BRANCH  41  42
ATOM     42  N   UNL     1      -0.935   3.449  -3.365  1.00  0.00    -0.254 NA
ATOM     43  C   UNL     1      -0.776   4.235  -2.367  1.00  0.00     0.185 C 
ATOM     44  N   UNL     1      -1.480   4.337  -1.224  1.00  0.00    -0.370 N 
ATOM     45  N   UNL     1       0.230   5.125  -2.399  1.00  0.00    -0.370 N 
ATOM     46  H   UNL     1      -1.398   5.153  -0.642  1.00  0.00     0.159 HD
ATOM     47  H   UNL     1      -2.269   3.728  -1.029  1.00  0.00     0.159 HD
ATOM     48  H   UNL     1       0.815   5.109  -3.223  1.00  0.00     0.159 HD
ATOM     49  H   UNL     1       0.562   5.600  -1.579  1.00  0.00     0.159 HD
ENDBRANCH  41  42
ENDBRANCH  40  41
ENDBRANCH  39  40
ENDBRANCH  38  39
ENDBRANCH  36  38
ENDBRANCH   5  34
BRANCH   8  50
ATOM     50  O   UNL     1       3.810   5.331  -9.469  1.00  0.00    -0.245 OA
BRANCH  50  51
ATOM     51  S   UNL     1       5.434   5.285  -9.411  1.00  0.00     0.397 S 
ATOM     52  O   UNL     1       5.919   4.951 -10.731  1.00  0.00    -0.169 OA
ATOM     53  O   UNL     1       5.858   4.550  -8.237  1.00  0.00    -0.169 OA
BRANCH  51  54
ATOM     54  O   UNL     1       5.806   6.833  -9.187  1.00  0.00    -0.264 OA
ATOM     55  H   UNL     1       5.714   7.290 -10.048  1.00  0.00     0.236 HD
ENDBRANCH  51  54
ENDBRANCH  50  51
ENDBRANCH   8  50
TORSDOF 19
ENDMDL
MODEL 3
REMARK VINA RESULT:    -6.487     17.203     22.031
REMARK INTER + INTRA:         -16.085
REMARK INTER:                 -11.790
REMARK INTRA:                  -4.295
REMARK UNBOUND:                -2.963
REMARK SMILES CC[C@@H](C)[C@@H](NC(=O)[C@@H](O)Cc1ccc(O)c(Cl)c1)C(=O)N1[C@H](C(=O)NCCCCN=C(N)N)C[C@H]2CC[C@H](OS(=O)(=O)O)C[C@@H]21
REMARK SMILES IDX 22 1 36 2 46 3 35 4 23 5 45 6 37 7 39 8 38 9 20 10 21 11
REMARK SMILES IDX 5 12 6 13 7 14 8 15 9 17 11 18 12 19 17 20 19 21 15 22 14 23
REMARK SMILES IDX 13 24 18 25 16 26 10 28 3 30 4 31 2 32 1 33 24 34 25 35
REMARK SMILES IDX 26 36 27 38 28 39 29 40 30 41 31 42 32 43 33 44 34 45 40 50
REMARK SMILES IDX 41 51 42 52 43 53 44 54
REMARK H PARENT 6 16 16 27 10 29 26 37 33 46 33 47 34 48 34 49 44 55
ROOT
ATOM      1  N   UNL     1       2.570 -10.684  -9.813  1.00  0.00    -0.326 N 
ATOM      2  C   UNL     1       1.574  -8.811  -8.792  1.00  0.00     0.014 C 
ATOM      3  C   UNL     1       2.929  -9.415  -9.174  1.00  0.00     0.091 C 
ATOM      4  C   UNL     1       0.749 -10.038  -8.437  1.00  0.00     0.041 C 
ATOM      5  C   UNL     1       1.129 -10.969  -9.603  1.00  0.00     0.175 C 
ATOM      6  C   UNL     1       3.703  -8.385  -9.994  1.00  0.00     0.059 C 
ATOM      7  C   UNL     1       1.742  -7.706  -7.768  1.00  0.00     0.008 C 
ATOM      8  C   UNL     1       3.398  -6.922  -9.602  1.00  0.00     0.143 C 
ATOM      9  C   UNL     1       2.936  -6.800  -8.136  1.00  0.00     0.034 C 
ENDROOT
BRANCH   1  10
ATOM     10  C   UNL     1       3.382 -11.671 -10.345  1.00  0.00     0.246 C 
ATOM     11  O   UNL     1       3.640 -11.652 -11.553  1.00  0.00    -0.272 OA
BRANCH  10  12
ATOM     12  C   UNL     1       3.987 -12.755  -9.406  1.00  0.00     0.174 C 
BRANCH  12  13
ATOM     13  N   UNL     1       3.251 -12.787  -8.142  1.00  0.00    -0.342 N 
ATOM     14  C   UNL     1       2.772 -13.926  -7.535  1.00  0.00     0.249 C 
ATOM     15  O   UNL     1       2.936 -15.056  -7.978  1.00  0.00    -0.272 OA
ATOM     16  H   UNL     1       2.905 -11.920  -7.739  1.00  0.00     0.164 HD
BRANCH  14  17
ATOM     17  C   UNL     1       2.022 -13.629  -6.219  1.00  0.00     0.207 C 
BRANCH  17  18
ATOM     18  C   UNL     1       2.569 -12.355  -5.567  1.00  0.00     0.077 C 
BRANCH  18  19
ATOM     19  C   UNL     1       1.461 -11.404  -5.175  1.00  0.00    -0.043 A 
ATOM     20  C   UNL     1      -0.903 -10.890  -4.993  1.00  0.00     0.083 A 
ATOM     21  C   UNL     1       0.117 -11.788  -5.309  1.00  0.00     0.028 A 
ATOM     22  C   UNL     1      -0.590  -9.607  -4.544  1.00  0.00     0.134 A 
ATOM     23  C   UNL     1       0.736  -9.213  -4.406  1.00  0.00     0.048 A 
ATOM     24  C   UNL     1       1.760 -10.109  -4.723  1.00  0.00     0.008 A 
ATOM     25  Cl  UNL     1      -2.548 -11.380  -5.165  1.00  0.00    -0.080 Cl
BRANCH  22  26
ATOM     26  O   UNL     1      -1.556  -8.689  -4.232  1.00  0.00    -0.506 OA
ATOM     27  H   UNL     1      -1.102  -7.937  -3.808  1.00  0.00     0.293 HD
ENDBRANCH  22  26
ENDBRANCH  18  19
ENDBRANCH  17  18
BRANCH  17  28
ATOM     28  O   UNL     1       2.140 -14.724  -5.297  1.00  0.00    -0.383 OA
ATOM     29  H   UNL     1       1.220 -14.969  -5.047  1.00  0.00     0.211 HD
ENDBRANCH  17  28
ENDBRANCH  14  17
ENDBRANCH  12  13
BRANCH  12  30
ATOM     30  C   UNL     1       5.515 -12.584  -9.198  1.00  0.00     0.018 C 
ATOM     31  C   UNL     1       5.966 -11.169  -9.595  1.00  0.00     0.010 C 
BRANCH  30  32
ATOM     32  C   UNL     1       6.367 -13.641  -9.941  1.00  0.00     0.002 C 
ATOM     33  C   UNL     1       5.647 -14.943 -10.270  1.00  0.00     0.004 C 
ENDBRANCH  30  32
ENDBRANCH  12  30
ENDBRANCH  10  12
ENDBRANCH   1  10
BRANCH   5  34
ATOM     34  C   UNL     1       0.312 -10.646 -10.883  1.00  0.00     0.242 C 
ATOM     35  O   UNL     1       0.710  -9.852 -11.735  1.00  0.00    -0.273 OA
ATOM     36  N   UNL     1      -0.913 -11.269 -10.968  1.00  0.00    -0.354 N 
ATOM     37  H   UNL     1      -1.240 -11.821 -10.174  1.00  0.00     0.163 HD
BRANCH  36  38
ATOM     38  C   UNL     1      -1.706 -11.253 -12.180  1.00  0.00     0.116 C 
BRANCH  38  39
ATOM     39  C   UNL     1      -3.177 -11.041 -11.834  1.00  0.00     0.023 C 
BRANCH  39  40
ATOM     40  C   UNL     1      -3.617  -9.593 -12.023  1.00  0.00     0.026 C 
BRANCH  40  41
ATOM     41  C   UNL     1      -3.267  -8.755 -10.794  1.00  0.00     0.146 C 
BRANCH  41  42
ATOM     42  N   UNL     1      -2.098  -7.932 -11.075  1.00  0.00    -0.254 NA
ATOM     43  C   UNL     1      -1.553  -7.262 -10.130  1.00  0.00     0.185 C 
ATOM     44  N   UNL     1      -1.885  -7.172  -8.830  1.00  0.00    -0.370 N 
ATOM     45  N   UNL     1      -0.479  -6.506 -10.411  1.00  0.00    -0.370 N 
ATOM     46  H   UNL     1      -1.526  -6.427  -8.259  1.00  0.00     0.159 HD
ATOM     47  H   UNL     1      -2.667  -7.691  -8.442  1.00  0.00     0.159 HD
ATOM     48  H   UNL     1      -0.156  -6.524 -11.370  1.00  0.00     0.159 HD
ATOM     49  H   UNL     1       0.136  -6.149  -9.702  1.00  0.00     0.159 HD
ENDBRANCH  41  42
ENDBRANCH  40  41
ENDBRANCH  39  40
ENDBRANCH  38  39
ENDBRANCH  36  38
ENDBRANCH   5  34
BRANCH   8  50
ATOM     50  O   UNL     1       2.375  -6.392 -10.446  1.00  0.00    -0.245 OA
BRANCH  50  51
ATOM     51  S   UNL     1       2.688  -5.086 -11.363  1.00  0.00     0.397 S 
ATOM     52  O   UNL     1       3.071  -5.546 -12.679  1.00  0.00    -0.169 OA
ATOM     53  O   UNL     1       3.505  -4.152 -10.617  1.00  0.00    -0.169 OA
BRANCH  51  54
ATOM     54  O   UNL     1       1.226  -4.438 -11.534  1.00  0.00    -0.264 OA
ATOM     55  H   UNL     1       0.599  -5.165 -11.727  1.00  0.00     0.236 HD
ENDBRANCH  51  54
ENDBRANCH  50  51
ENDBRANCH   8  50
TORSDOF 19
ENDMDL
MODEL 4
REMARK VINA RESULT:    -6.367     17.241     20.764
REMARK INTER + INTRA:         -15.844
REMARK INTER:                 -12.888
REMARK INTRA:                  -2.956
REMARK UNBOUND:                -2.963
REMARK SMILES CC[C@@H](C)[C@@H](NC(=O)[C@@H](O)Cc1ccc(O)c(Cl)c1)C(=O)N1[C@H](C(=O)NCCCCN=C(N)N)C[C@H]2CC[C@H](OS(=O)(=O)O)C[C@@H]21
REMARK SMILES IDX 22 1 36 2 46 3 35 4 23 5 45 6 37 7 39 8 38 9 20 10 21 11
REMARK SMILES IDX 5 12 6 13 7 14 8 15 9 17 11 18 12 19 17 20 19 21 15 22 14 23
REMARK SMILES IDX 13 24 18 25 16 26 10 28 3 30 4 31 2 32 1 33 24 34 25 35
REMARK SMILES IDX 26 36 27 38 28 39 29 40 30 41 31 42 32 43 33 44 34 45 40 50
REMARK SMILES IDX 41 51 42 52 43 53 44 54
REMARK H PARENT 6 16 16 27 10 29 26 37 33 46 33 47 34 48 34 49 44 55
ROOT
ATOM      1  N   UNL     1       0.562 -10.839  -6.203  1.00  0.00    -0.326 N 
ATOM      2  C   UNL     1      -0.030 -11.764  -4.121  1.00  0.00     0.014 C 
ATOM      3  C   UNL     1      -0.602 -11.021  -5.331  1.00  0.00     0.091 C 
ATOM      4  C   UNL     1       1.368 -11.178  -3.998  1.00  0.00     0.041 C 
ATOM      5  C   UNL     1       1.803 -11.200  -5.475  1.00  0.00     0.175 C 
ATOM      6  C   UNL     1      -1.792 -11.814  -5.867  1.00  0.00     0.059 C 
ATOM      7  C   UNL     1      -0.976 -11.684  -2.939  1.00  0.00     0.008 C 
ATOM      8  C   UNL     1      -2.570 -12.580  -4.776  1.00  0.00     0.143 C 
ATOM      9  C   UNL     1      -2.433 -11.915  -3.391  1.00  0.00     0.034 C 
ENDROOT
BRANCH   1  10
ATOM     10  C   UNL     1       0.660 -10.215  -7.435  1.00  0.00     0.246 C 
ATOM     11  O   UNL     1       0.748 -10.907  -8.455  1.00  0.00    -0.272 OA
BRANCH  10  12
ATOM     12  C   UNL     1       0.614  -8.661  -7.512  1.00  0.00     0.174 C 
BRANCH  12  13
ATOM     13  N   UNL     1       0.383  -8.237  -8.893  1.00  0.00    -0.342 N 
ATOM     14  C   UNL     1      -0.819  -7.787  -9.391  1.00  0.00     0.249 C 
ATOM     15  O   UNL     1      -1.833  -7.664  -8.717  1.00  0.00    -0.272 OA
ATOM     16  H   UNL     1       1.086  -8.430  -9.603  1.00  0.00     0.164 HD
BRANCH  14  17
ATOM     17  C   UNL     1      -0.746  -7.432 -10.892  1.00  0.00     0.207 C 
BRANCH  17  18
ATOM     18  C   UNL     1      -0.823  -5.914 -11.087  1.00  0.00     0.077 C 
BRANCH  18  19
ATOM     19  C   UNL     1       0.475  -5.349 -11.619  1.00  0.00    -0.043 A 
ATOM     20  C   UNL     1       2.895  -5.427 -11.775  1.00  0.00     0.083 A 
ATOM     21  C   UNL     1       1.695  -5.979 -11.324  1.00  0.00     0.028 A 
ATOM     22  C   UNL     1       2.885  -4.247 -12.519  1.00  0.00     0.134 A 
ATOM     23  C   UNL     1       1.684  -3.614 -12.818  1.00  0.00     0.048 A 
ATOM     24  C   UNL     1       0.482  -4.162 -12.367  1.00  0.00     0.008 A 
ATOM     25  Cl  UNL     1       4.383  -6.215 -11.402  1.00  0.00    -0.080 Cl
BRANCH  22  26
ATOM     26  O   UNL     1       4.036  -3.663 -12.973  1.00  0.00    -0.506 OA
ATOM     27  H   UNL     1       4.098  -3.869 -13.924  1.00  0.00     0.293 HD
ENDBRANCH  22  26
ENDBRANCH  18  19
ENDBRANCH  17  18
BRANCH  17  28
ATOM     28  O   UNL     1      -1.809  -8.062 -11.625  1.00  0.00    -0.383 OA
ATOM     29  H   UNL     1      -2.002  -7.470 -12.387  1.00  0.00     0.211 HD
ENDBRANCH  17  28
ENDBRANCH  14  17
ENDBRANCH  12  13
BRANCH  12  30
ATOM     30  C   UNL     1       1.868  -7.992  -6.889  1.00  0.00     0.018 C 
ATOM     31  C   UNL     1       1.495  -7.204  -5.624  1.00  0.00     0.010 C 
BRANCH  30  32
ATOM     32  C   UNL     1       2.641  -7.081  -7.874  1.00  0.00     0.002 C 
ATOM     33  C   UNL     1       3.338  -5.883  -7.243  1.00  0.00     0.004 C 
ENDBRANCH  30  32
ENDBRANCH  12  30
ENDBRANCH  10  12
ENDBRANCH   1  10
BRANCH   5  34
ATOM     34  C   UNL     1       2.304 -12.605  -5.903  1.00  0.00     0.242 C 
ATOM     35  O   UNL     1       3.270 -13.150  -5.369  1.00  0.00    -0.273 OA
ATOM     36  N   UNL     1       1.623 -13.174  -6.956  1.00  0.00    -0.354 N 
ATOM     37  H   UNL     1       0.909 -12.623  -7.434  1.00  0.00     0.163 HD
BRANCH  36  38
ATOM     38  C   UNL     1       1.812 -14.557  -7.342  1.00  0.00     0.116 C 
BRANCH  38  39
ATOM     39  C   UNL     1       0.671 -15.409  -6.792  1.00  0.00     0.023 C 
BRANCH  39  40
ATOM     40  C   UNL     1       0.794 -15.649  -5.291  1.00  0.00     0.026 C 
BRANCH  40  41
ATOM     41  C   UNL     1       1.656 -16.879  -5.008  1.00  0.00     0.146 C 
BRANCH  41  42
ATOM     42  N   UNL     1       3.034 -16.470  -4.768  1.00  0.00    -0.254 NA
ATOM     43  C   UNL     1       3.412 -16.187  -3.579  1.00  0.00     0.185 C 
ATOM     44  N   UNL     1       2.721 -16.199  -2.424  1.00  0.00    -0.370 N 
ATOM     45  N   UNL     1       4.685 -15.807  -3.379  1.00  0.00    -0.370 N 
ATOM     46  H   UNL     1       3.071 -15.722  -1.611  1.00  0.00     0.159 HD
ATOM     47  H   UNL     1       1.744 -16.475  -2.391  1.00  0.00     0.159 HD
ATOM     48  H   UNL     1       5.278 -15.780  -4.198  1.00  0.00     0.159 HD
ATOM     49  H   UNL     1       5.115 -15.800  -2.471  1.00  0.00     0.159 HD
ENDBRANCH  41  42
ENDBRANCH  40  41
ENDBRANCH  39  40
ENDBRANCH  38  39
ENDBRANCH  36  38
ENDBRANCH   5  34
BRANCH   8  50
ATOM     50  O   UNL     1      -2.092 -13.922  -4.683  1.00  0.00    -0.245 OA
BRANCH  50  51
ATOM     51  S   UNL     1      -3.143 -15.159  -4.791  1.00  0.00     0.397 S 
ATOM     52  O   UNL     1      -3.356 -15.443  -6.192  1.00  0.00    -0.169 OA
ATOM     53  O   UNL     1      -4.250 -14.936  -3.884  1.00  0.00    -0.169 OA
BRANCH  51  54
ATOM     54  O   UNL     1      -2.275 -16.388  -4.222  1.00  0.00    -0.264 OA
ATOM     55  H   UNL     1      -1.358 -16.071  -4.093  1.00  0.00     0.236 HD
ENDBRANCH  51  54
ENDBRANCH  50  51
ENDBRANCH   8  50
TORSDOF 19
ENDMDL
MODEL 5
REMARK VINA RESULT:    -6.274     15.827     20.543
REMARK INTER + INTRA:         -15.656
REMARK INTER:                 -12.789
REMARK INTRA:                  -2.867
REMARK UNBOUND:                -2.963
REMARK SMILES CC[C@@H](C)[C@@H](NC(=O)[C@@H](O)Cc1ccc(O)c(Cl)c1)C(=O)N1[C@H](C(=O)NCCCCN=C(N)N)C[C@H]2CC[C@H](OS(=O)(=O)O)C[C@@H]21
REMARK SMILES IDX 22 1 36 2 46 3 35 4 23 5 45 6 37 7 39 8 38 9 20 10 21 11
REMARK SMILES IDX 5 12 6 13 7 14 8 15 9 17 11 18 12 19 17 20 19 21 15 22 14 23
REMARK SMILES IDX 13 24 18 25 16 26 10 28 3 30 4 31 2 32 1 33 24 34 25 35
REMARK SMILES IDX 26 36 27 38 28 39 29 40 30 41 31 42 32 43 33 44 34 45 40 50
REMARK SMILES IDX 41 51 42 52 43 53 44 54
REMARK H PARENT 6 16 16 27 10 29 26 37 33 46 33 47 34 48 34 49 44 55
ROOT
ATOM      1  N   UNL     1       0.235   5.964  -7.191  1.00  0.00    -0.326 N 
ATOM      2  C   UNL     1       0.813   5.274  -9.367  1.00  0.00     0.014 C 
ATOM      3  C   UNL     1       0.897   6.460  -8.401  1.00  0.00     0.091 C 
ATOM      4  C   UNL     1      -0.526   4.648  -9.013  1.00  0.00     0.041 C 
ATOM      5  C   UNL     1      -0.441   4.674  -7.475  1.00  0.00     0.175 C 
ATOM      6  C   UNL     1       2.357   6.898  -8.300  1.00  0.00     0.059 C 
ATOM      7  C   UNL     1       1.073   5.718 -10.793  1.00  0.00     0.008 C 
ATOM      8  C   UNL     1       3.163   6.680  -9.599  1.00  0.00     0.143 C 
ATOM      9  C   UNL     1       2.261   6.700 -10.850  1.00  0.00     0.034 C 
ENDROOT
BRANCH   1  10
ATOM     10  C   UNL     1      -0.007   6.602  -5.987  1.00  0.00     0.246 C 
ATOM     11  O   UNL     1       0.379   6.074  -4.939  1.00  0.00    -0.272 OA
BRANCH  10  12
ATOM     12  C   UNL     1      -0.719   7.985  -5.981  1.00  0.00     0.174 C 
BRANCH  12  13
ATOM     13  N   UNL     1      -1.827   7.979  -6.936  1.00  0.00    -0.342 N 
ATOM     14  C   UNL     1      -3.159   7.884  -6.600  1.00  0.00     0.249 C 
ATOM     15  O   UNL     1      -3.569   7.820  -5.447  1.00  0.00    -0.272 OA
ATOM     16  H   UNL     1      -1.637   7.868  -7.928  1.00  0.00     0.164 HD
BRANCH  14  17
ATOM     17  C   UNL     1      -4.087   7.887  -7.833  1.00  0.00     0.207 C 
BRANCH  17  18
ATOM     18  C   UNL     1      -3.992   6.551  -8.577  1.00  0.00     0.077 C 
BRANCH  18  19
ATOM     19  C   UNL     1      -5.251   5.728  -8.417  1.00  0.00    -0.043 A 
ATOM     20  C   UNL     1      -7.407   4.998  -9.257  1.00  0.00     0.083 A 
ATOM     21  C   UNL     1      -6.224   5.719  -9.429  1.00  0.00     0.028 A 
ATOM     22  C   UNL     1      -7.625   4.286  -8.077  1.00  0.00     0.134 A 
ATOM     23  C   UNL     1      -6.670   4.287  -7.067  1.00  0.00     0.048 A 
ATOM     24  C   UNL     1      -5.486   5.008  -7.236  1.00  0.00     0.008 A 
ATOM     25  Cl  UNL     1      -8.591   4.999 -10.510  1.00  0.00    -0.080 Cl
BRANCH  22  26
ATOM     26  O   UNL     1      -8.773   3.574  -7.858  1.00  0.00    -0.506 OA
ATOM     27  H   UNL     1      -9.311   4.094  -7.233  1.00  0.00     0.293 HD
ENDBRANCH  22  26
ENDBRANCH  18  19
ENDBRANCH  17  18
BRANCH  17  28
ATOM     28  O   UNL     1      -3.750   8.957  -8.731  1.00  0.00    -0.383 OA
ATOM     29  H   UNL     1      -3.083   8.589  -9.354  1.00  0.00     0.211 HD
ENDBRANCH  17  28
ENDBRANCH  14  17
ENDBRANCH  12  13
BRANCH  12  30
ATOM     30  C   UNL     1       0.261   9.166  -6.219  1.00  0.00     0.018 C 
ATOM     31  C   UNL     1       1.075   9.464  -4.950  1.00  0.00     0.010 C 
BRANCH  30  32
ATOM     32  C   UNL     1      -0.431  10.456  -6.723  1.00  0.00     0.002 C 
ATOM     33  C   UNL     1       0.143  11.044  -8.005  1.00  0.00     0.004 C 
ENDBRANCH  30  32
ENDBRANCH  12  30
ENDBRANCH  10  12
ENDBRANCH   1  10
BRANCH   5  34
ATOM     34  C   UNL     1       0.392   3.484  -6.929  1.00  0.00     0.242 C 
ATOM     35  O   UNL     1       1.620   3.520  -6.854  1.00  0.00    -0.273 OA
ATOM     36  N   UNL     1      -0.337   2.367  -6.585  1.00  0.00    -0.354 N 
ATOM     37  H   UNL     1      -1.339   2.355  -6.783  1.00  0.00     0.163 HD
BRANCH  36  38
ATOM     38  C   UNL     1       0.245   1.255  -5.863  1.00  0.00     0.116 C 
BRANCH  38  39
ATOM     39  C   UNL     1       0.084   1.472  -4.360  1.00  0.00     0.023 C 
BRANCH  39  40
ATOM     40  C   UNL     1      -0.674   2.753  -4.034  1.00  0.00     0.026 C 
BRANCH  40  41
ATOM     41  C   UNL     1      -2.119   2.443  -3.640  1.00  0.00     0.146 C 
BRANCH  41  42
ATOM     42  N   UNL     1      -2.935   2.295  -4.838  1.00  0.00    -0.254 NA
ATOM     43  C   UNL     1      -3.903   1.457  -4.844  1.00  0.00     0.185 C 
ATOM     44  N   UNL     1      -4.337   0.628  -3.877  1.00  0.00    -0.370 N 
ATOM     45  N   UNL     1      -4.641   1.333  -5.960  1.00  0.00    -0.370 N 
ATOM     46  H   UNL     1      -4.944  -0.143  -4.097  1.00  0.00     0.159 HD
ATOM     47  H   UNL     1      -3.899   0.602  -2.962  1.00  0.00     0.159 HD
ATOM     48  H   UNL     1      -4.385   1.929  -6.735  1.00  0.00     0.159 HD
ATOM     49  H   UNL     1      -5.541   0.887  -5.970  1.00  0.00     0.159 HD
ENDBRANCH  41  42
ENDBRANCH  40  41
ENDBRANCH  39  40
ENDBRANCH  38  39
ENDBRANCH  36  38
ENDBRANCH   5  34
BRANCH   8  50
ATOM     50  O   UNL     1       3.842   5.425  -9.550  1.00  0.00    -0.245 OA
BRANCH  50  51
ATOM     51  S   UNL     1       5.423   5.382  -9.173  1.00  0.00     0.397 S 
ATOM     52  O   UNL     1       5.616   4.358  -8.171  1.00  0.00    -0.169 OA
ATOM     53  O   UNL     1       5.915   6.731  -8.985  1.00  0.00    -0.169 OA
BRANCH  51  54
ATOM     54  O   UNL     1       6.074   4.801 -10.524  1.00  0.00    -0.264 OA
ATOM     55  H   UNL     1       6.514   3.955 -10.303  1.00  0.00     0.236 HD
ENDBRANCH  51  54
ENDBRANCH  50  51
ENDBRANCH   8  50
TORSDOF 19
ENDMDL
MODEL 6
REMARK VINA RESULT:    -6.266      1.691      2.181
REMARK INTER + INTRA:         -15.639
REMARK INTER:                 -13.301
REMARK INTRA:                  -2.337
REMARK UNBOUND:                -2.963
REMARK SMILES CC[C@@H](C)[C@@H](NC(=O)[C@@H](O)Cc1ccc(O)c(Cl)c1)C(=O)N1[C@H](C(=O)NCCCCN=C(N)N)C[C@H]2CC[C@H](OS(=O)(=O)O)C[C@@H]21
REMARK SMILES IDX 22 1 36 2 46 3 35 4 23 5 45 6 37 7 39 8 38 9 20 10 21 11
REMARK SMILES IDX 5 12 6 13 7 14 8 15 9 17 11 18 12 19 17 20 19 21 15 22 14 23
REMARK SMILES IDX 13 24 18 25 16 26 10 28 3 30 4 31 2 32 1 33 24 34 25 35
REMARK SMILES IDX 26 36 27 38 28 39 29 40 30 41 31 42 32 43 33 44 34 45 40 50
REMARK SMILES IDX 41 51 42 52 43 53 44 54
REMARK H PARENT 6 16 16 27 10 29 26 37 33 46 33 47 34 48 34 49 44 55
ROOT
ATOM      1  N   UNL     1     -10.246  -2.806   7.306  1.00  0.00    -0.326 N 
ATOM      2  C   UNL     1      -9.644  -4.951   8.066  1.00  0.00     0.014 C 
ATOM      3  C   UNL     1     -10.849  -4.090   7.677  1.00  0.00     0.091 C 
ATOM      4  C   UNL     1      -8.703  -3.941   8.704  1.00  0.00     0.041 C 
ATOM      5  C   UNL     1      -8.814  -2.787   7.691  1.00  0.00     0.175 C 
ATOM      6  C   UNL     1     -11.659  -4.841   6.622  1.00  0.00     0.059 C 
ATOM      7  C   UNL     1     -10.080  -6.166   8.861  1.00  0.00     0.008 C 
ATOM      8  C   UNL     1     -11.607  -6.377   6.776  1.00  0.00     0.143 C 
ATOM      9  C   UNL     1     -11.337  -6.804   8.233  1.00  0.00     0.034 C 
ENDROOT
BRANCH   1  10
ATOM     10  C   UNL     1     -10.848  -1.632   6.886  1.00  0.00     0.246 C 
ATOM     11  O   UNL     1     -10.592  -1.195   5.759  1.00  0.00    -0.272 OA
BRANCH  10  12
ATOM     12  C   UNL     1     -11.862  -0.912   7.822  1.00  0.00     0.174 C 
BRANCH  12  13
ATOM     13  N   UNL     1     -11.520  -1.170   9.220  1.00  0.00    -0.342 N 
ATOM     14  C   UNL     1     -10.624  -0.435   9.963  1.00  0.00     0.249 C 
ATOM     15  O   UNL     1     -10.028   0.547   9.537  1.00  0.00    -0.272 OA
ATOM     16  H   UNL     1     -11.814  -2.039   9.658  1.00  0.00     0.164 HD
BRANCH  14  17
ATOM     17  C   UNL     1     -10.466  -0.967  11.403  1.00  0.00     0.207 C 
BRANCH  17  18
ATOM     18  C   UNL     1      -9.089  -1.612  11.587  1.00  0.00     0.077 C 
BRANCH  18  19
ATOM     19  C   UNL     1      -8.505  -1.312  12.949  1.00  0.00    -0.043 A 
ATOM     20  C   UNL     1      -7.517   0.257  14.514  1.00  0.00     0.083 A 
ATOM     21  C   UNL     1      -8.101  -0.007  13.274  1.00  0.00     0.028 A 
ATOM     22  C   UNL     1      -7.332  -0.776  15.433  1.00  0.00     0.134 A 
ATOM     23  C   UNL     1      -7.728  -2.072  15.125  1.00  0.00     0.048 A 
ATOM     24  C   UNL     1      -8.311  -2.341  13.884  1.00  0.00     0.008 A 
ATOM     25  Cl  UNL     1      -7.026   1.866  14.895  1.00  0.00    -0.080 Cl
BRANCH  22  26
ATOM     26  O   UNL     1      -6.755  -0.568  16.657  1.00  0.00    -0.506 OA
ATOM     27  H   UNL     1      -6.183  -1.338  16.831  1.00  0.00     0.293 HD
ENDBRANCH  22  26
ENDBRANCH  18  19
ENDBRANCH  17  18
BRANCH  17  28
ATOM     28  O   UNL     1     -11.488  -1.928  11.714  1.00  0.00    -0.383 OA
ATOM     29  H   UNL     1     -11.769  -2.314  10.854  1.00  0.00     0.211 HD
ENDBRANCH  17  28
ENDBRANCH  14  17
ENDBRANCH  12  13
BRANCH  12  30
ATOM     30  C   UNL     1     -13.337  -1.271   7.496  1.00  0.00     0.018 C 
ATOM     31  C   UNL     1     -14.219  -0.012   7.500  1.00  0.00     0.010 C 
BRANCH  30  32
ATOM     32  C   UNL     1     -13.937  -2.344   8.437  1.00  0.00     0.002 C 
ATOM     33  C   UNL     1     -15.239  -2.974   7.959  1.00  0.00     0.004 C 
ENDBRANCH  30  32
ENDBRANCH  12  30
ENDBRANCH  10  12
ENDBRANCH   1  10
BRANCH   5  34
ATOM     34  C   UNL     1      -7.908  -3.024   6.453  1.00  0.00     0.242 C 
ATOM     35  O   UNL     1      -7.591  -4.152   6.076  1.00  0.00    -0.273 OA
ATOM     36  N   UNL     1      -7.442  -1.882   5.842  1.00  0.00    -0.354 N 
ATOM     37  H   UNL     1      -7.641  -0.978   6.272  1.00  0.00     0.163 HD
BRANCH  36  38
ATOM     38  C   UNL     1      -6.769  -1.910   4.559  1.00  0.00     0.116 C 
BRANCH  38  39
ATOM     39  C   UNL     1      -5.614  -0.912   4.558  1.00  0.00     0.023 C 
BRANCH  39  40
ATOM     40  C   UNL     1      -4.831  -0.929   3.249  1.00  0.00     0.026 C 
BRANCH  40  41
ATOM     41  C   UNL     1      -5.732  -1.336   2.083  1.00  0.00     0.146 C 
BRANCH  41  42
ATOM     42  N   UNL     1      -4.918  -1.651   0.917  1.00  0.00    -0.254 NA
ATOM     43  C   UNL     1      -4.921  -2.841   0.446  1.00  0.00     0.185 C 
ATOM     44  N   UNL     1      -5.589  -3.934   0.859  1.00  0.00    -0.370 N 
ATOM     45  N   UNL     1      -4.160  -3.113  -0.627  1.00  0.00    -0.370 N 
ATOM     46  H   UNL     1      -5.313  -4.851   0.551  1.00  0.00     0.159 HD
ATOM     47  H   UNL     1      -6.223  -3.903   1.652  1.00  0.00     0.159 HD
ATOM     48  H   UNL     1      -3.629  -2.341  -1.007  1.00  0.00     0.159 HD
ATOM     49  H   UNL     1      -4.286  -3.936  -1.189  1.00  0.00     0.159 HD
ENDBRANCH  41  42
ENDBRANCH  40  41
ENDBRANCH  39  40
ENDBRANCH  38  39
ENDBRANCH  36  38
ENDBRANCH   5  34
BRANCH   8  50
ATOM     50  O   UNL     1     -10.577  -6.918   5.947  1.00  0.00    -0.245 OA
BRANCH  50  51
ATOM     51  S   UNL     1     -10.921  -8.145   4.937  1.00  0.00     0.397 S 
ATOM     52  O   UNL     1     -11.086  -7.598   3.609  1.00  0.00    -0.169 OA
ATOM     53  O   UNL     1     -11.925  -9.001   5.536  1.00  0.00    -0.169 OA
BRANCH  51  54
ATOM     54  O   UNL     1      -9.533  -8.956   4.908  1.00  0.00    -0.264 OA
ATOM     55  H   UNL     1      -8.900  -8.483   5.487  1.00  0.00     0.236 HD
ENDBRANCH  51  54
ENDBRANCH  50  51
ENDBRANCH   8  50
TORSDOF 19
ENDMDL
MODEL 7
REMARK VINA RESULT:    -6.169     14.574     19.680
REMARK INTER + INTRA:         -15.443
REMARK INTER:                 -12.240
REMARK INTRA:                  -3.203
REMARK UNBOUND:                -2.963
REMARK SMILES CC[C@@H](C)[C@@H](NC(=O)[C@@H](O)Cc1ccc(O)c(Cl)c1)C(=O)N1[C@H](C(=O)NCCCCN=C(N)N)C[C@H]2CC[C@H](OS(=O)(=O)O)C[C@@H]21
REMARK SMILES IDX 22 1 36 2 46 3 35 4 23 5 45 6 37 7 39 8 38 9 20 10 21 11
REMARK SMILES IDX 5 12 6 13 7 14 8 15 9 17 11 18 12 19 17 20 19 21 15 22 14 23
REMARK SMILES IDX 13 24 18 25 16 26 10 28 3 30 4 31 2 32 1 33 24 34 25 35
REMARK SMILES IDX 26 36 27 38 28 39 29 40 30 41 31 42 32 43 33 44 34 45 40 50
REMARK SMILES IDX 41 51 42 52 43 53 44 54
REMARK H PARENT 6 16 16 27 10 29 26 37 33 46 33 47 34 48 34 49 44 55
ROOT
ATOM      1  N   UNL     1       0.206   5.936  -7.239  1.00  0.00    -0.326 N 
ATOM      2  C   UNL     1       0.858   5.225  -9.387  1.00  0.00     0.014 C 
ATOM      3  C   UNL     1       0.874   6.433  -8.446  1.00  0.00     0.091 C 
ATOM      4  C   UNL     1      -0.463   4.552  -9.046  1.00  0.00     0.041 C 
ATOM      5  C   UNL     1      -0.411   4.614  -7.509  1.00  0.00     0.175 C 
ATOM      6  C   UNL     1       2.312   6.933  -8.324  1.00  0.00     0.059 C 
ATOM      7  C   UNL     1       1.130   5.648 -10.817  1.00  0.00     0.008 C 
ATOM      8  C   UNL     1       3.154   6.720  -9.602  1.00  0.00     0.143 C 
ATOM      9  C   UNL     1       2.279   6.677 -10.871  1.00  0.00     0.034 C 
ENDROOT
BRANCH   1  10
ATOM     10  C   UNL     1      -0.087   6.589  -6.054  1.00  0.00     0.246 C 
ATOM     11  O   UNL     1      -0.047   7.824  -6.022  1.00  0.00    -0.272 OA
BRANCH  10  12
ATOM     12  C   UNL     1      -0.501   5.760  -4.804  1.00  0.00     0.174 C 
BRANCH  12  13
ATOM     13  N   UNL     1      -1.887   6.060  -4.444  1.00  0.00    -0.342 N 
ATOM     14  C   UNL     1      -2.992   5.405  -4.939  1.00  0.00     0.249 C 
ATOM     15  O   UNL     1      -2.933   4.468  -5.726  1.00  0.00    -0.272 OA
ATOM     16  H   UNL     1      -2.100   6.909  -3.925  1.00  0.00     0.164 HD
BRANCH  14  17
ATOM     17  C   UNL     1      -4.317   5.965  -4.379  1.00  0.00     0.207 C 
BRANCH  17  18
ATOM     18  C   UNL     1      -4.899   7.015  -5.331  1.00  0.00     0.077 C 
BRANCH  18  19
ATOM     19  C   UNL     1      -5.681   6.380  -6.458  1.00  0.00    -0.043 A 
ATOM     20  C   UNL     1      -7.087   4.588  -7.293  1.00  0.00     0.083 A 
ATOM     21  C   UNL     1      -6.407   5.199  -6.239  1.00  0.00     0.028 A 
ATOM     22  C   UNL     1      -7.046   5.151  -8.570  1.00  0.00     0.134 A 
ATOM     23  C   UNL     1      -6.331   6.320  -8.801  1.00  0.00     0.048 A 
ATOM     24  C   UNL     1      -5.648   6.933  -7.748  1.00  0.00     0.008 A 
ATOM     25  Cl  UNL     1      -7.973   3.137  -7.004  1.00  0.00    -0.080 Cl
BRANCH  22  26
ATOM     26  O   UNL     1      -7.688   4.583  -9.636  1.00  0.00    -0.506 OA
ATOM     27  H   UNL     1      -7.016   4.079 -10.133  1.00  0.00     0.293 HD
ENDBRANCH  22  26
ENDBRANCH  18  19
ENDBRANCH  17  18
BRANCH  17  28
ATOM     28  O   UNL     1      -4.123   6.552  -3.082  1.00  0.00    -0.383 OA
ATOM     29  H   UNL     1      -3.394   6.044  -2.660  1.00  0.00     0.211 HD
ENDBRANCH  17  28
ENDBRANCH  14  17
ENDBRANCH  12  13
BRANCH  12  30
ATOM     30  C   UNL     1       0.474   5.946  -3.611  1.00  0.00     0.018 C 
ATOM     31  C   UNL     1       1.935   5.905  -4.088  1.00  0.00     0.010 C 
BRANCH  30  32
ATOM     32  C   UNL     1       0.260   4.924  -2.468  1.00  0.00     0.002 C 
ATOM     33  C   UNL     1       1.358   4.886  -1.413  1.00  0.00     0.004 C 
ENDBRANCH  30  32
ENDBRANCH  12  30
ENDBRANCH  10  12
ENDBRANCH   1  10
BRANCH   5  34
ATOM     34  C   UNL     1       0.457   3.471  -6.919  1.00  0.00     0.242 C 
ATOM     35  O   UNL     1       1.674   3.578  -6.772  1.00  0.00    -0.273 OA
ATOM     36  N   UNL     1      -0.224   2.311  -6.623  1.00  0.00    -0.354 N 
ATOM     37  H   UNL     1      -1.210   2.241  -6.879  1.00  0.00     0.163 HD
BRANCH  36  38
ATOM     38  C   UNL     1       0.379   1.230  -5.873  1.00  0.00     0.116 C 
BRANCH  38  39
ATOM     39  C   UNL     1      -0.481   0.899  -4.656  1.00  0.00     0.023 C 
BRANCH  39  40
ATOM     40  C   UNL     1      -1.191   2.127  -4.094  1.00  0.00     0.026 C 
BRANCH  40  41
ATOM     41  C   UNL     1      -2.559   1.749  -3.526  1.00  0.00     0.146 C 
BRANCH  41  42
ATOM     42  N   UNL     1      -2.920   2.672  -2.458  1.00  0.00    -0.254 NA
ATOM     43  C   UNL     1      -4.142   3.028  -2.315  1.00  0.00     0.185 C 
ATOM     44  N   UNL     1      -5.233   2.680  -3.021  1.00  0.00    -0.370 N 
ATOM     45  N   UNL     1      -4.454   3.883  -1.328  1.00  0.00    -0.370 N 
ATOM     46  H   UNL     1      -6.080   3.218  -2.956  1.00  0.00     0.159 HD
ATOM     47  H   UNL     1      -5.179   2.028  -3.798  1.00  0.00     0.159 HD
ATOM     48  H   UNL     1      -3.689   4.189  -0.741  1.00  0.00     0.159 HD
ATOM     49  H   UNL     1      -5.395   4.021  -1.005  1.00  0.00     0.159 HD
ENDBRANCH  41  42
ENDBRANCH  40  41
ENDBRANCH  39  40
ENDBRANCH  38  39
ENDBRANCH  36  38
ENDBRANCH   5  34
BRANCH   8  50
ATOM     50  O   UNL     1       3.882   5.495  -9.511  1.00  0.00    -0.245 OA
BRANCH  50  51
ATOM     51  S   UNL     1       5.474   5.530  -9.183  1.00  0.00     0.397 S 
ATOM     52  O   UNL     1       5.757   4.481  -8.229  1.00  0.00    -0.169 OA
ATOM     53  O   UNL     1       5.894   6.897  -8.955  1.00  0.00    -0.169 OA
BRANCH  51  54
ATOM     54  O   UNL     1       6.114   5.040 -10.574  1.00  0.00    -0.264 OA
ATOM     55  H   UNL     1       6.788   4.360 -10.370  1.00  0.00     0.236 HD
ENDBRANCH  51  54
ENDBRANCH  50  51
ENDBRANCH   8  50
TORSDOF 19
ENDMDL
MODEL 8
REMARK VINA RESULT:    -6.144      4.726      8.504
REMARK INTER + INTRA:         -15.391
REMARK INTER:                 -12.812
REMARK INTRA:                  -2.579
REMARK UNBOUND:                -2.963
REMARK SMILES CC[C@@H](C)[C@@H](NC(=O)[C@@H](O)Cc1ccc(O)c(Cl)c1)C(=O)N1[C@H](C(=O)NCCCCN=C(N)N)C[C@H]2CC[C@H](OS(=O)(=O)O)C[C@@H]21
REMARK SMILES IDX 22 1 36 2 46 3 35 4 23 5 45 6 37 7 39 8 38 9 20 10 21 11
REMARK SMILES IDX 5 12 6 13 7 14 8 15 9 17 11 18 12 19 17 20 19 21 15 22 14 23
REMARK SMILES IDX 13 24 18 25 16 26 10 28 3 30 4 31 2 32 1 33 24 34 25 35
REMARK SMILES IDX 26 36 27 38 28 39 29 40 30 41 31 42 32 43 33 44 34 45 40 50
REMARK SMILES IDX 41 51 42 52 43 53 44 54
REMARK H PARENT 6 16 16 27 10 29 26 37 33 46 33 47 34 48 34 49 44 55
ROOT
ATOM      1  N   UNL     1     -11.143  -4.980   6.335  1.00  0.00    -0.326 N 
ATOM      2  C   UNL     1     -13.050  -5.538   5.073  1.00  0.00     0.014 C 
ATOM      3  C   UNL     1     -12.011  -4.433   5.289  1.00  0.00     0.091 C 
ATOM      4  C   UNL     1     -13.223  -6.112   6.470  1.00  0.00     0.041 C 
ATOM      5  C   UNL     1     -11.750  -6.205   6.911  1.00  0.00     0.175 C 
ATOM      6  C   UNL     1     -11.387  -4.086   3.938  1.00  0.00     0.059 C 
ATOM      7  C   UNL     1     -14.261  -5.005   4.332  1.00  0.00     0.008 C 
ATOM      8  C   UNL     1     -12.354  -4.253   2.746  1.00  0.00     0.143 C 
ATOM      9  C   UNL     1     -13.828  -4.089   3.168  1.00  0.00     0.034 C 
ENDROOT
BRANCH   1  10
ATOM     10  C   UNL     1     -10.038  -4.420   6.954  1.00  0.00     0.246 C 
ATOM     11  O   UNL     1      -8.997  -5.081   7.040  1.00  0.00    -0.272 OA
BRANCH  10  12
ATOM     12  C   UNL     1     -10.116  -2.960   7.489  1.00  0.00     0.174 C 
BRANCH  12  13
ATOM     13  N   UNL     1      -9.142  -2.121   6.791  1.00  0.00    -0.342 N 
ATOM     14  C   UNL     1      -9.457  -1.067   5.963  1.00  0.00     0.249 C 
ATOM     15  O   UNL     1     -10.602  -0.694   5.740  1.00  0.00    -0.272 OA
ATOM     16  H   UNL     1      -8.167  -2.405   6.755  1.00  0.00     0.164 HD
BRANCH  14  17
ATOM     17  C   UNL     1      -8.209  -0.388   5.361  1.00  0.00     0.207 C 
BRANCH  17  18
ATOM     18  C   UNL     1      -7.154  -1.437   4.993  1.00  0.00     0.077 C 
BRANCH  18  19
ATOM     19  C   UNL     1      -7.340  -1.951   3.583  1.00  0.00    -0.043 A 
ATOM     20  C   UNL     1      -6.399  -2.744   1.493  1.00  0.00     0.083 A 
ATOM     21  C   UNL     1      -6.228  -2.318   2.810  1.00  0.00     0.028 A 
ATOM     22  C   UNL     1      -7.679  -2.805   0.940  1.00  0.00     0.134 A 
ATOM     23  C   UNL     1      -8.789  -2.445   1.694  1.00  0.00     0.048 A 
ATOM     24  C   UNL     1      -8.621  -2.016   3.013  1.00  0.00     0.008 A 
ATOM     25  Cl  UNL     1      -5.020  -3.190   0.559  1.00  0.00    -0.080 Cl
BRANCH  22  26
ATOM     26  O   UNL     1      -7.896  -3.207  -0.350  1.00  0.00    -0.506 OA
ATOM     27  H   UNL     1      -8.518  -2.566  -0.742  1.00  0.00     0.293 HD
ENDBRANCH  22  26
ENDBRANCH  18  19
ENDBRANCH  17  18
BRANCH  17  28
ATOM     28  O   UNL     1      -7.639   0.557   6.281  1.00  0.00    -0.383 OA
ATOM     29  H   UNL     1      -8.398   1.048   6.670  1.00  0.00     0.211 HD
ENDBRANCH  17  28
ENDBRANCH  14  17
ENDBRANCH  12  13
BRANCH  12  30
ATOM     30  C   UNL     1      -9.970  -2.878   9.032  1.00  0.00     0.018 C 
ATOM     31  C   UNL     1      -8.489  -2.848   9.440  1.00  0.00     0.010 C 
BRANCH  30  32
ATOM     32  C   UNL     1     -10.706  -4.012   9.787  1.00  0.00     0.002 C 
ATOM     33  C   UNL     1     -12.146  -3.705  10.179  1.00  0.00     0.004 C 
ENDBRANCH  30  32
ENDBRANCH  12  30
ENDBRANCH  10  12
ENDBRANCH   1  10
BRANCH   5  34
ATOM     34  C   UNL     1     -11.063  -7.477   6.346  1.00  0.00     0.242 C 
ATOM     35  O   UNL     1     -10.330  -7.445   5.358  1.00  0.00    -0.273 OA
ATOM     36  N   UNL     1     -11.375  -8.649   6.998  1.00  0.00    -0.354 N 
ATOM     37  H   UNL     1     -12.082  -8.629   7.734  1.00  0.00     0.163 HD
BRANCH  36  38
ATOM     38  C   UNL     1     -10.666  -9.887   6.746  1.00  0.00     0.116 C 
BRANCH  38  39
ATOM     39  C   UNL     1      -9.829 -10.262   7.966  1.00  0.00     0.023 C 
BRANCH  39  40
ATOM     40  C   UNL     1     -10.624 -11.057   8.996  1.00  0.00     0.026 C 
BRANCH  40  41
ATOM     41  C   UNL     1     -11.465 -12.137   8.315  1.00  0.00     0.146 C 
BRANCH  41  42
ATOM     42  N   UNL     1     -12.298 -12.809   9.304  1.00  0.00    -0.254 NA
ATOM     43  C   UNL     1     -11.988 -13.987   9.696  1.00  0.00     0.185 C 
ATOM     44  N   UNL     1     -10.959 -14.776   9.338  1.00  0.00    -0.370 N 
ATOM     45  N   UNL     1     -12.771 -14.592  10.605  1.00  0.00    -0.370 N 
ATOM     46  H   UNL     1     -10.974 -15.762   9.539  1.00  0.00     0.159 HD
ATOM     47  H   UNL     1     -10.260 -14.470   8.668  1.00  0.00     0.159 HD
ATOM     48  H   UNL     1     -13.566 -14.061  10.936  1.00  0.00     0.159 HD
ATOM     49  H   UNL     1     -12.475 -15.395  11.130  1.00  0.00     0.159 HD
ENDBRANCH  41  42
ENDBRANCH  40  41
ENDBRANCH  39  40
ENDBRANCH  38  39
ENDBRANCH  36  38
ENDBRANCH   5  34
BRANCH   8  50
ATOM     50  O   UNL     1     -12.191  -5.544   2.159  1.00  0.00    -0.245 OA
BRANCH  50  51
ATOM     51  S   UNL     1     -11.745  -5.667   0.599  1.00  0.00     0.397 S 
ATOM     52  O   UNL     1     -10.651  -4.749   0.374  1.00  0.00    -0.169 OA
ATOM     53  O   UNL     1     -12.922  -5.668  -0.244  1.00  0.00    -0.169 OA
BRANCH  51  54
ATOM     54  O   UNL     1     -11.098  -7.138   0.550  1.00  0.00    -0.264 OA
ATOM     55  H   UNL     1     -11.830  -7.787   0.597  1.00  0.00     0.236 HD
ENDBRANCH  51  54
ENDBRANCH  50  51
ENDBRANCH   8  50
TORSDOF 19
ENDMDL
MODEL 9
REMARK VINA RESULT:    -6.114     17.518     21.165
REMARK INTER + INTRA:         -15.332
REMARK INTER:                  -9.773
REMARK INTRA:                  -5.559
REMARK UNBOUND:                -2.963
REMARK SMILES CC[C@@H](C)[C@@H](NC(=O)[C@@H](O)Cc1ccc(O)c(Cl)c1)C(=O)N1[C@H](C(=O)NCCCCN=C(N)N)C[C@H]2CC[C@H](OS(=O)(=O)O)C[C@@H]21
REMARK SMILES IDX 22 1 36 2 46 3 35 4 23 5 45 6 37 7 39 8 38 9 20 10 21 11
REMARK SMILES IDX 5 12 6 13 7 14 8 15 9 17 11 18 12 19 17 20 19 21 15 22 14 23
REMARK SMILES IDX 13 24 18 25 16 26 10 28 3 30 4 31 2 32 1 33 24 34 25 35
REMARK SMILES IDX 26 36 27 38 28 39 29 40 30 41 31 42 32 43 33 44 34 45 40 50
REMARK SMILES IDX 41 51 42 52 43 53 44 54
REMARK H PARENT 6 16 16 27 10 29 26 37 33 46 33 47 34 48 34 49 44 55
ROOT
ATOM      1  N   UNL     1       1.494 -10.262  -9.754  1.00  0.00    -0.326 N 
ATOM      2  C   UNL     1       1.285 -12.087  -8.281  1.00  0.00     0.014 C 
ATOM      3  C   UNL     1       0.491 -10.955  -8.940  1.00  0.00     0.091 C 
ATOM      4  C   UNL     1       2.650 -11.454  -8.059  1.00  0.00     0.041 C 
ATOM      5  C   UNL     1       2.851 -10.758  -9.418  1.00  0.00     0.175 C 
ATOM      6  C   UNL     1      -0.721 -11.562  -9.644  1.00  0.00     0.059 C 
ATOM      7  C   UNL     1       0.531 -12.661  -7.098  1.00  0.00     0.008 C 
ATOM      8  C   UNL     1      -1.276 -12.824  -8.950  1.00  0.00     0.143 C 
ATOM      9  C   UNL     1      -0.964 -12.839  -7.440  1.00  0.00     0.034 C 
ENDROOT
BRANCH   1  10
ATOM     10  C   UNL     1       1.364  -9.145 -10.561  1.00  0.00     0.246 C 
ATOM     11  O   UNL     1       1.646  -9.233 -11.760  1.00  0.00    -0.272 OA
BRANCH  10  12
ATOM     12  C   UNL     1       0.827  -7.817  -9.951  1.00  0.00     0.174 C 
BRANCH  12  13
ATOM     13  N   UNL     1       0.810  -7.909  -8.492  1.00  0.00    -0.342 N 
ATOM     14  C   UNL     1       1.844  -7.533  -7.664  1.00  0.00     0.249 C 
ATOM     15  O   UNL     1       2.895  -7.048  -8.064  1.00  0.00    -0.272 OA
ATOM     16  H   UNL     1       0.072  -8.434  -8.029  1.00  0.00     0.164 HD
BRANCH  14  17
ATOM     17  C   UNL     1       1.529  -7.769  -6.172  1.00  0.00     0.207 C 
BRANCH  17  18
ATOM     18  C   UNL     1       0.180  -8.479  -6.015  1.00  0.00     0.077 C 
BRANCH  18  19
ATOM     19  C   UNL     1       0.270  -9.653  -5.067  1.00  0.00    -0.043 A 
ATOM     20  C   UNL     1      -0.812 -11.370  -3.738  1.00  0.00     0.083 A 
ATOM     21  C   UNL     1      -0.894 -10.318  -4.651  1.00  0.00     0.028 A 
ATOM     22  C   UNL     1       0.429 -11.762  -3.234  1.00  0.00     0.134 A 
ATOM     23  C   UNL     1       1.589 -11.112  -3.638  1.00  0.00     0.048 A 
ATOM     24  C   UNL     1       1.510 -10.058  -4.550  1.00  0.00     0.008 A 
ATOM     25  Cl  UNL     1      -2.254 -12.174  -3.238  1.00  0.00    -0.080 Cl
BRANCH  22  26
ATOM     26  O   UNL     1       0.558 -12.780  -2.329  1.00  0.00    -0.506 OA
ATOM     27  H   UNL     1       0.901 -13.550  -2.820  1.00  0.00     0.293 HD
ENDBRANCH  22  26
ENDBRANCH  18  19
ENDBRANCH  17  18
BRANCH  17  28
ATOM     28  O   UNL     1       1.503  -6.530  -5.446  1.00  0.00    -0.383 OA
ATOM     29  H   UNL     1       2.272  -6.008  -5.771  1.00  0.00     0.211 HD
ENDBRANCH  17  28
ENDBRANCH  14  17
ENDBRANCH  12  13
BRANCH  12  30
ATOM     30  C   UNL     1      -0.552  -7.404 -10.535  1.00  0.00     0.018 C 
ATOM     31  C   UNL     1      -0.547  -5.925 -10.952  1.00  0.00     0.010 C 
BRANCH  30  32
ATOM     32  C   UNL     1      -1.739  -7.684  -9.582  1.00  0.00     0.002 C 
ATOM     33  C   UNL     1      -2.586  -6.470  -9.223  1.00  0.00     0.004 C 
ENDBRANCH  30  32
ENDBRANCH  12  30
ENDBRANCH  10  12
ENDBRANCH   1  10
BRANCH   5  34
ATOM     34  C   UNL     1       3.358 -11.750 -10.499  1.00  0.00     0.242 C 
ATOM     35  O   UNL     1       2.590 -12.368 -11.236  1.00  0.00    -0.273 OA
ATOM     36  N   UNL     1       4.723 -11.928 -10.537  1.00  0.00    -0.354 N 
ATOM     37  H   UNL     1       5.297 -11.480  -9.822  1.00  0.00     0.163 HD
BRANCH  36  38
ATOM     38  C   UNL     1       5.379 -12.643 -11.612  1.00  0.00     0.116 C 
BRANCH  38  39
ATOM     39  C   UNL     1       6.331 -13.688 -11.034  1.00  0.00     0.023 C 
BRANCH  39  40
ATOM     40  C   UNL     1       5.692 -14.502  -9.914  1.00  0.00     0.026 C 
BRANCH  40  41
ATOM     41  C   UNL     1       4.699 -15.516 -10.480  1.00  0.00     0.146 C 
BRANCH  41  42
ATOM     42  N   UNL     1       3.664 -15.796  -9.493  1.00  0.00    -0.254 NA
ATOM     43  C   UNL     1       2.434 -15.606  -9.794  1.00  0.00     0.185 C 
ATOM     44  N   UNL     1       1.882 -15.165 -10.939  1.00  0.00    -0.370 N 
ATOM     45  N   UNL     1       1.496 -15.865  -8.868  1.00  0.00    -0.370 N 
ATOM     46  H   UNL     1       0.933 -14.833 -10.955  1.00  0.00     0.159 HD
ATOM     47  H   UNL     1       2.448 -14.935 -11.750  1.00  0.00     0.159 HD
ATOM     48  H   UNL     1       1.828 -16.210  -7.978  1.00  0.00     0.159 HD
ATOM     49  H   UNL     1       0.523 -15.970  -9.095  1.00  0.00     0.159 HD
ENDBRANCH  41  42
ENDBRANCH  40  41
ENDBRANCH  39  40
ENDBRANCH  38  39
ENDBRANCH  36  38
ENDBRANCH   5  34
BRANCH   8  50
ATOM     50  O   UNL     1      -0.714 -13.996  -9.541  1.00  0.00    -0.245 OA
BRANCH  50  51
ATOM     51  S   UNL     1      -1.527 -14.770 -10.718  1.00  0.00     0.397 S 
ATOM     52  O   UNL     1      -2.902 -14.327 -10.676  1.00  0.00    -0.169 OA
ATOM     53  O   UNL     1      -1.181 -16.176 -10.703  1.00  0.00    -0.169 OA
BRANCH  51  54
ATOM     54  O   UNL     1      -0.897 -14.118 -12.046  1.00  0.00    -0.264 OA
ATOM     55  H   UNL     1       0.000 -14.492 -12.165  1.00  0.00     0.236 HD
ENDBRANCH  51  54
ENDBRANCH  50  51
ENDBRANCH   8  50
TORSDOF 19
ENDMDL
MODEL 10
REMARK VINA RESULT:    -6.016      5.317      9.005
REMARK INTER + INTRA:         -15.132
REMARK INTER:                 -11.473
REMARK INTRA:                  -3.659
REMARK UNBOUND:                -2.963
REMARK SMILES CC[C@@H](C)[C@@H](NC(=O)[C@@H](O)Cc1ccc(O)c(Cl)c1)C(=O)N1[C@H](C(=O)NCCCCN=C(N)N)C[C@H]2CC[C@H](OS(=O)(=O)O)C[C@@H]21
REMARK SMILES IDX 22 1 36 2 46 3 35 4 23 5 45 6 37 7 39 8 38 9 20 10 21 11
REMARK SMILES IDX 5 12 6 13 7 14 8 15 9 17 11 18 12 19 17 20 19 21 15 22 14 23
REMARK SMILES IDX 13 24 18 25 16 26 10 28 3 30 4 31 2 32 1 33 24 34 25 35
REMARK SMILES IDX 26 36 27 38 28 39 29 40 30 41 31 42 32 43 33 44 34 45 40 50
REMARK SMILES IDX 41 51 42 52 43 53 44 54
REMARK H PARENT 6 16 16 27 10 29 26 37 33 46 33 47 34 48 34 49 44 55
ROOT
ATOM      1  N   UNL     1     -11.573  -3.096   1.061  1.00  0.00    -0.326 N 
ATOM      2  C   UNL     1     -11.329  -2.542  -1.214  1.00  0.00     0.014 C 
ATOM      3  C   UNL     1     -12.309  -2.465  -0.039  1.00  0.00     0.091 C 
ATOM      4  C   UNL     1     -10.615  -3.862  -0.970  1.00  0.00     0.041 C 
ATOM      5  C   UNL     1     -10.347  -3.750   0.542  1.00  0.00     0.175 C 
ATOM      6  C   UNL     1     -12.754  -1.013   0.125  1.00  0.00     0.059 C 
ATOM      7  C   UNL     1     -12.045  -2.316  -2.532  1.00  0.00     0.008 C 
ATOM      8  C   UNL     1     -12.808  -0.226  -1.202  1.00  0.00     0.143 C 
ATOM      9  C   UNL     1     -13.048  -1.149  -2.414  1.00  0.00     0.034 C 
ENDROOT
BRANCH   1  10
ATOM     10  C   UNL     1     -11.962  -3.330   2.369  1.00  0.00     0.246 C 
ATOM     11  O   UNL     1     -11.729  -2.473   3.228  1.00  0.00    -0.272 OA
BRANCH  10  12
ATOM     12  C   UNL     1     -12.719  -4.644   2.720  1.00  0.00     0.174 C 
BRANCH  12  13
ATOM     13  N   UNL     1     -11.801  -5.596   3.346  1.00  0.00    -0.342 N 
ATOM     14  C   UNL     1     -11.912  -6.070   4.634  1.00  0.00     0.249 C 
ATOM     15  O   UNL     1     -12.820  -5.764   5.398  1.00  0.00    -0.272 OA
ATOM     16  H   UNL     1     -10.918  -5.817   2.893  1.00  0.00     0.164 HD
BRANCH  14  17
ATOM     17  C   UNL     1     -10.779  -7.049   5.008  1.00  0.00     0.207 C 
BRANCH  17  18
ATOM     18  C   UNL     1     -11.269  -8.497   4.913  1.00  0.00     0.077 C 
BRANCH  18  19
ATOM     19  C   UNL     1     -11.288  -9.174   6.265  1.00  0.00    -0.043 A 
ATOM     20  C   UNL     1     -12.318  -9.505   8.436  1.00  0.00     0.083 A 
ATOM     21  C   UNL     1     -12.330  -8.918   7.171  1.00  0.00     0.028 A 
ATOM     22  C   UNL     1     -11.270 -10.349   8.805  1.00  0.00     0.134 A 
ATOM     23  C   UNL     1     -10.232 -10.611   7.918  1.00  0.00     0.048 A 
ATOM     24  C   UNL     1     -10.240 -10.023   6.651  1.00  0.00     0.008 A 
ATOM     25  Cl  UNL     1     -13.607  -9.178   9.535  1.00  0.00    -0.080 Cl
BRANCH  22  26
ATOM     26  O   UNL     1     -11.210 -10.939  10.038  1.00  0.00    -0.506 OA
ATOM     27  H   UNL     1     -10.265 -11.069  10.241  1.00  0.00     0.293 HD
ENDBRANCH  22  26
ENDBRANCH  18  19
ENDBRANCH  17  18
BRANCH  17  28
ATOM     28  O   UNL     1     -10.294  -6.796   6.337  1.00  0.00    -0.383 OA
ATOM     29  H   UNL     1     -10.965  -7.178   6.948  1.00  0.00     0.211 HD
ENDBRANCH  17  28
ENDBRANCH  14  17
ENDBRANCH  12  13
BRANCH  12  30
ATOM     30  C   UNL     1     -13.462  -5.253   1.501  1.00  0.00     0.018 C 
ATOM     31  C   UNL     1     -14.975  -5.002   1.603  1.00  0.00     0.010 C 
BRANCH  30  32
ATOM     32  C   UNL     1     -13.186  -6.762   1.295  1.00  0.00     0.002 C 
ATOM     33  C   UNL     1     -12.307  -7.106   0.100  1.00  0.00     0.004 C 
ENDBRANCH  30  32
ENDBRANCH  12  30
ENDBRANCH  10  12
ENDBRANCH   1  10
BRANCH   5  34
ATOM     34  C   UNL     1      -9.094  -2.884   0.839  1.00  0.00     0.242 C 
ATOM     35  O   UNL     1      -7.986  -3.148   0.371  1.00  0.00    -0.273 OA
ATOM     36  N   UNL     1      -9.299  -1.833   1.704  1.00  0.00    -0.354 N 
ATOM     37  H   UNL     1     -10.211  -1.738   2.153  1.00  0.00     0.163 HD
BRANCH  36  38
ATOM     38  C   UNL     1      -8.304  -0.804   1.921  1.00  0.00     0.116 C 
BRANCH  38  39
ATOM     39  C   UNL     1      -7.858  -0.814   3.382  1.00  0.00     0.023 C 
BRANCH  39  40
ATOM     40  C   UNL     1      -6.768  -1.845   3.651  1.00  0.00     0.026 C 
BRANCH  40  41
ATOM     41  C   UNL     1      -7.175  -2.780   4.789  1.00  0.00     0.146 C 
BRANCH  41  42
ATOM     42  N   UNL     1      -8.626  -2.787   4.925  1.00  0.00    -0.254 NA
ATOM     43  C   UNL     1      -9.175  -3.528   5.813  1.00  0.00     0.185 C 
ATOM     44  N   UNL     1      -8.617  -4.361   6.711  1.00  0.00    -0.370 N 
ATOM     45  N   UNL     1     -10.514  -3.523   5.920  1.00  0.00    -0.370 N 
ATOM     46  H   UNL     1      -9.172  -5.058   7.177  1.00  0.00     0.159 HD
ATOM     47  H   UNL     1      -7.611  -4.476   6.778  1.00  0.00     0.159 HD
ATOM     48  H   UNL     1     -11.012  -2.914   5.285  1.00  0.00     0.159 HD
ATOM     49  H   UNL     1     -10.997  -3.880   6.725  1.00  0.00     0.159 HD
ENDBRANCH  41  42
ENDBRANCH  40  41
ENDBRANCH  39  40
ENDBRANCH  38  39
ENDBRANCH  36  38
ENDBRANCH   5  34
BRANCH   8  50
ATOM     50  O   UNL     1     -11.584   0.480  -1.404  1.00  0.00    -0.245 OA
BRANCH  50  51
ATOM     51  S   UNL     1     -11.608   1.945  -2.109  1.00  0.00     0.397 S 
ATOM     52  O   UNL     1     -10.486   2.703  -1.603  1.00  0.00    -0.169 OA
ATOM     53  O   UNL     1     -12.956   2.475  -2.083  1.00  0.00    -0.169 OA
BRANCH  51  54
ATOM     54  O   UNL     1     -11.245   1.590  -3.635  1.00  0.00    -0.264 OA
ATOM     55  H   UNL     1     -10.392   2.022  -3.847  1.00  0.00     0.236 HD
ENDBRANCH  51  54
ENDBRANCH  50  51
ENDBRANCH   8  50
TORSDOF 19
ENDMDL
