MODEL 1
REMARK VINA RESULT:    -5.319      0.000      0.000
REMARK INTER + INTRA:         -11.857
REMARK INTER:                  -9.517
REMARK INTRA:                  -2.340
REMARK UNBOUND:                -2.340
REMARK SMILES CC[C@H](C)[C@H]1NC(=O)c2coc(n2)[C@H](C(C)C)NC(=O)[C@H]([C@@H](C)O)NC(=O)[C@H](C)NC(=O)c2csc1n2
REMARK SMILES IDX 11 1 13 2 12 3 9 4 10 5 7 6 6 7 8 8 5 10 36 11 35 12 34 13
REMARK SMILES IDX 37 14 33 15 31 16 32 17 30 18 28 20 29 21 3 23 4 24 2 25
REMARK SMILES IDX 1 26 14 27 18 28 19 29 20 30 21 32 25 33 26 34 27 35 22 38
REMARK SMILES IDX 23 39 24 40 15 42 16 43 17 44
REMARK H PARENT 6 9 30 19 18 31 25 36 24 41
REMARK Flexibility Score:   94.900
ROOT
ATOM      1  O   UNL     1       9.744  -4.539  -1.057  1.00  0.00    -0.446 OA
ATOM      2  N   UNL     1       8.272  -4.145   0.605  1.00  0.00    -0.207 NA
ATOM      3  C   UNL     1       8.440  -4.559  -0.639  1.00  0.00     0.217 A 
ATOM      4  C   UNL     1       9.554  -3.859   1.042  1.00  0.00     0.167 A 
ATOM      5  C   UNL     1      10.445  -4.102   0.026  1.00  0.00     0.231 A 
ENDROOT
BRANCH   4   6
ATOM      6  C   UNL     1       9.843  -3.351   2.372  1.00  0.00     0.273 C 
ATOM      7  N   UNL     1       9.165  -4.046   3.342  1.00  0.00    -0.341 N 
ATOM      8  O   UNL     1      10.585  -2.400   2.588  1.00  0.00    -0.267 OA
ATOM      9  H   UNL     1       8.514  -4.750   3.006  1.00  0.00     0.164 HD
BRANCH   7  10
ATOM     10  C   UNL     1       9.075  -3.600   4.718  1.00  0.00     0.145 C 
BRANCH  10  11
ATOM     11  C   UNL     1       7.650  -3.122   4.955  1.00  0.00     0.116 A 
ATOM     12  S   UNL     1       6.831  -3.562   6.406  1.00  0.00    -0.124 S 
ATOM     13  C   UNL     1       5.469  -2.660   5.902  1.00  0.00     0.101 A 
ATOM     14  N   UNL     1       6.958  -2.359   4.124  1.00  0.00    -0.234 NA
ATOM     15  C   UNL     1       5.705  -2.075   4.673  1.00  0.00     0.139 A 
BRANCH  15  16
ATOM     16  C   UNL     1       4.740  -1.215   3.983  1.00  0.00     0.271 C 
ATOM     17  O   UNL     1       4.055  -0.383   4.567  1.00  0.00    -0.267 OA
ATOM     18  N   UNL     1       4.682  -1.434   2.623  1.00  0.00    -0.339 N 
ATOM     19  H   UNL     1       5.217  -2.226   2.277  1.00  0.00     0.164 HD
BRANCH  18  20
ATOM     20  C   UNL     1       3.731  -0.718   1.784  1.00  0.00     0.168 CG0
ATOM     21  C   UNL     1       4.296   0.627   1.324  1.00  0.00     0.041 C 
ATOM     22  G   UNL     1       3.328  -1.512   0.531  1.00  0.00     0.000 G0
ENDBRANCH  18  20
ENDBRANCH  15  16
ENDBRANCH  10  11
BRANCH  10  23
ATOM     23  C   UNL     1       9.503  -4.705   5.721  1.00  0.00     0.015 C 
ATOM     24  C   UNL     1       9.615  -6.098   5.080  1.00  0.00     0.010 C 
BRANCH  23  25
ATOM     25  C   UNL     1      10.833  -4.380   6.437  1.00  0.00     0.002 C 
ATOM     26  C   UNL     1      12.059  -4.486   5.540  1.00  0.00     0.004 C 
ENDBRANCH  23  25
ENDBRANCH  10  23
ENDBRANCH   7  10
ENDBRANCH   4   6
BRANCH   3  27
ATOM     27  C   UNL     1       7.368  -4.979  -1.607  1.00  0.00     0.171 C 
BRANCH  27  28
ATOM     28  N   UNL     1       6.396  -3.894  -1.695  1.00  0.00    -0.342 N 
ATOM     29  C   UNL     1       5.058  -4.066  -1.418  1.00  0.00     0.245 C 
ATOM     30  O   UNL     1       4.585  -5.143  -1.061  1.00  0.00    -0.273 OA
ATOM     31  H   UNL     1       6.732  -2.949  -1.873  1.00  0.00     0.164 HD
BRANCH  29  32
ATOM     32  C   UNL     1       4.210  -2.777  -1.440  1.00  0.00     0.200 C 
BRANCH  32  33
ATOM     33  N   UNL     1       4.412  -2.070  -0.169  1.00  0.00    -0.340 N 
ATOM     34  C   UNL     1       3.349  -1.536   0.530  1.00  0.00     0.243 CG0
ATOM     35  O   UNL     1       2.201  -1.571   0.093  1.00  0.00    -0.273 OA
ATOM     36  H   UNL     1       5.352  -1.999   0.202  1.00  0.00     0.164 HD
ATOM     37  G   UNL     1       3.718  -0.707   1.771  1.00  0.00     0.000 G0
ENDBRANCH  32  33
BRANCH  32  38
ATOM     38  C   UNL     1       4.539  -1.904  -2.674  1.00  0.00     0.143 C 
ATOM     39  C   UNL     1       5.673  -0.910  -2.448  1.00  0.00     0.041 C 
BRANCH  38  40
ATOM     40  O   UNL     1       4.870  -2.743  -3.797  1.00  0.00    -0.391 OA
ATOM     41  H   UNL     1       5.265  -3.557  -3.431  1.00  0.00     0.211 HD
ENDBRANCH  38  40
ENDBRANCH  32  38
ENDBRANCH  29  32
ENDBRANCH  27  28
BRANCH  27  42
ATOM     42  C   UNL     1       7.820  -5.454  -3.010  1.00  0.00     0.015 C 
ATOM     43  C   UNL     1       7.064  -6.662  -3.574  1.00  0.00     0.010 C 
ATOM     44  C   UNL     1       7.826  -4.309  -4.027  1.00  0.00     0.010 C 
ENDBRANCH  27  42
ENDBRANCH   3  27
TORSDOF 5
ENDMDL
MODEL 2
REMARK VINA RESULT:    -5.155      2.286      5.968
REMARK INTER + INTRA:         -11.563
REMARK INTER:                  -9.274
REMARK INTRA:                  -2.289
REMARK UNBOUND:                -2.340
REMARK SMILES CC[C@H](C)[C@H]1NC(=O)c2coc(n2)[C@H](C(C)C)NC(=O)[C@H]([C@@H](C)O)NC(=O)[C@H](C)NC(=O)c2csc1n2
REMARK SMILES IDX 11 1 13 2 12 3 9 4 10 5 7 6 6 7 8 8 5 10 36 11 35 12 34 13
REMARK SMILES IDX 37 14 33 15 31 16 32 17 30 18 28 20 29 21 3 23 4 24 2 25
REMARK SMILES IDX 1 26 14 27 18 28 19 29 20 30 21 32 25 33 26 34 27 35 22 38
REMARK SMILES IDX 23 39 24 40 15 42 16 43 17 44
REMARK H PARENT 6 9 30 19 18 31 25 36 24 41
REMARK Flexibility Score:   94.900
ROOT
ATOM      1  O   UNL     1       4.724  -2.217   6.051  1.00  0.00    -0.446 OA
ATOM      2  N   UNL     1       6.586  -1.960   4.808  1.00  0.00    -0.207 NA
ATOM      3  C   UNL     1       5.386  -1.491   5.098  1.00  0.00     0.217 A 
ATOM      4  C   UNL     1       6.734  -3.052   5.644  1.00  0.00     0.167 A 
ATOM      5  C   UNL     1       5.597  -3.203   6.399  1.00  0.00     0.231 A 
ENDROOT
BRANCH   4   6
ATOM      6  C   UNL     1       7.921  -3.891   5.652  1.00  0.00     0.273 C 
ATOM      7  N   UNL     1       9.000  -3.252   5.094  1.00  0.00    -0.341 N 
ATOM      8  O   UNL     1       7.938  -5.037   6.084  1.00  0.00    -0.267 OA
ATOM      9  H   UNL     1       8.812  -2.337   4.694  1.00  0.00     0.164 HD
BRANCH   7  10
ATOM     10  C   UNL     1      10.232  -3.934   4.751  1.00  0.00     0.145 C 
BRANCH  10  11
ATOM     11  C   UNL     1      10.078  -4.480   3.339  1.00  0.00     0.116 A 
ATOM     12  S   UNL     1      10.930  -5.905   2.876  1.00  0.00    -0.124 S 
ATOM     13  C   UNL     1      10.214  -5.821   1.326  1.00  0.00     0.101 A 
ATOM     14  N   UNL     1       9.310  -3.950   2.401  1.00  0.00    -0.234 NA
ATOM     15  C   UNL     1       9.371  -4.729   1.242  1.00  0.00     0.139 A 
BRANCH  15  16
ATOM     16  C   UNL     1       8.588  -4.397   0.050  1.00  0.00     0.271 C 
ATOM     17  O   UNL     1       9.030  -4.508  -1.088  1.00  0.00    -0.267 OA
ATOM     18  N   UNL     1       7.314  -3.953   0.334  1.00  0.00    -0.339 N 
ATOM     19  H   UNL     1       7.106  -3.799   1.318  1.00  0.00     0.164 HD
BRANCH  18  20
ATOM     20  C   UNL     1       6.414  -3.513  -0.724  1.00  0.00     0.168 CG0
ATOM     21  C   UNL     1       5.282  -4.519  -0.945  1.00  0.00     0.041 C 
ATOM     22  G   UNL     1       5.777  -2.145  -0.432  1.00  0.00     0.000 G0
ENDBRANCH  18  20
ENDBRANCH  15  16
ENDBRANCH  10  11
BRANCH  10  23
ATOM     23  C   UNL     1      11.472  -3.012   4.896  1.00  0.00     0.015 C 
ATOM     24  C   UNL     1      11.182  -1.722   5.682  1.00  0.00     0.010 C 
BRANCH  23  25
ATOM     25  C   UNL     1      12.676  -3.728   5.548  1.00  0.00     0.002 C 
ATOM     26  C   UNL     1      13.525  -2.827   6.435  1.00  0.00     0.004 C 
ENDBRANCH  23  25
ENDBRANCH  10  23
ENDBRANCH   7  10
ENDBRANCH   4   6
BRANCH   3  27
ATOM     27  C   UNL     1       4.694  -0.315   4.463  1.00  0.00     0.171 C 
BRANCH  27  28
ATOM     28  N   UNL     1       4.145  -0.757   3.185  1.00  0.00    -0.342 N 
ATOM     29  C   UNL     1       4.573  -0.257   1.976  1.00  0.00     0.245 C 
ATOM     30  O   UNL     1       5.462   0.588   1.882  1.00  0.00    -0.273 OA
ATOM     31  H   UNL     1       3.488  -1.536   3.177  1.00  0.00     0.164 HD
BRANCH  29  32
ATOM     32  C   UNL     1       3.968  -0.938   0.730  1.00  0.00     0.200 C 
BRANCH  32  33
ATOM     33  N   UNL     1       4.741  -2.154   0.448  1.00  0.00    -0.340 N 
ATOM     34  C   UNL     1       5.791  -2.145  -0.446  1.00  0.00     0.243 CG0
ATOM     35  O   UNL     1       6.085  -1.141  -1.092  1.00  0.00    -0.273 OA
ATOM     36  H   UNL     1       4.503  -3.006   0.943  1.00  0.00     0.164 HD
ATOM     37  G   UNL     1       6.422  -3.513  -0.748  1.00  0.00     0.000 G0
ENDBRANCH  32  33
BRANCH  32  38
ATOM     38  C   UNL     1       2.458  -1.213   0.913  1.00  0.00     0.143 C 
ATOM     39  C   UNL     1       1.596   0.044   0.941  1.00  0.00     0.041 C 
BRANCH  38  40
ATOM     40  O   UNL     1       1.984  -2.081  -0.135  1.00  0.00    -0.391 OA
ATOM     41  H   UNL     1       2.736  -2.225  -0.740  1.00  0.00     0.211 HD
ENDBRANCH  38  40
ENDBRANCH  32  38
ENDBRANCH  29  32
ENDBRANCH  27  28
BRANCH  27  42
ATOM     42  C   UNL     1       3.635   0.431   5.310  1.00  0.00     0.015 C 
ATOM     43  C   UNL     1       4.053   1.815   5.822  1.00  0.00     0.010 C 
ATOM     44  C   UNL     1       2.284   0.517   4.592  1.00  0.00     0.010 C 
ENDBRANCH  27  42
ENDBRANCH   3  27
TORSDOF 5
ENDMDL
MODEL 3
REMARK VINA RESULT:    -4.826      2.504      6.580
REMARK INTER + INTRA:         -10.974
REMARK INTER:                  -8.755
REMARK INTRA:                  -2.219
REMARK UNBOUND:                -2.340
REMARK SMILES CC[C@H](C)[C@H]1NC(=O)c2coc(n2)[C@H](C(C)C)NC(=O)[C@H]([C@@H](C)O)NC(=O)[C@H](C)NC(=O)c2csc1n2
REMARK SMILES IDX 11 1 13 2 12 3 9 4 10 5 7 6 6 7 8 8 5 10 36 11 35 12 34 13
REMARK SMILES IDX 37 14 33 15 31 16 32 17 30 18 28 20 29 21 3 23 4 24 2 25
REMARK SMILES IDX 1 26 14 27 18 28 19 29 20 30 21 32 25 33 26 34 27 35 22 38
REMARK SMILES IDX 23 39 24 40 15 42 16 43 17 44
REMARK H PARENT 6 9 30 19 18 31 25 36 24 41
REMARK Flexibility Score:   94.900
ROOT
ATOM      1  O   UNL     1       7.496  -4.567   6.130  1.00  0.00    -0.446 OA
ATOM      2  N   UNL     1       7.964  -3.048   4.532  1.00  0.00    -0.207 NA
ATOM      3  C   UNL     1       8.220  -4.252   5.011  1.00  0.00     0.217 A 
ATOM      4  C   UNL     1       6.988  -2.547   5.376  1.00  0.00     0.167 A 
ATOM      5  C   UNL     1       6.707  -3.478   6.347  1.00  0.00     0.231 A 
ENDROOT
BRANCH   4   6
ATOM      6  C   UNL     1       6.413  -1.222   5.226  1.00  0.00     0.273 C 
ATOM      7  N   UNL     1       5.120  -1.276   4.771  1.00  0.00    -0.341 N 
ATOM      8  O   UNL     1       7.027  -0.187   5.457  1.00  0.00    -0.267 OA
ATOM      9  H   UNL     1       4.775  -2.201   4.535  1.00  0.00     0.164 HD
BRANCH   7  10
ATOM     10  C   UNL     1       4.397  -0.111   4.301  1.00  0.00     0.145 C 
BRANCH  10  11
ATOM     11  C   UNL     1       4.345  -0.183   2.782  1.00  0.00     0.116 A 
ATOM     12  S   UNL     1       4.262   1.270   1.859  1.00  0.00    -0.124 S 
ATOM     13  C   UNL     1       4.281   0.348   0.419  1.00  0.00     0.101 A 
ATOM     14  N   UNL     1       4.372  -1.301   2.075  1.00  0.00    -0.234 NA
ATOM     15  C   UNL     1       4.353  -1.001   0.711  1.00  0.00     0.139 A 
BRANCH  15  16
ATOM     16  C   UNL     1       4.413  -2.050  -0.309  1.00  0.00     0.271 C 
ATOM     17  O   UNL     1       3.431  -2.415  -0.947  1.00  0.00    -0.267 OA
ATOM     18  N   UNL     1       5.674  -2.582  -0.479  1.00  0.00    -0.339 N 
ATOM     19  H   UNL     1       6.379  -2.274   0.186  1.00  0.00     0.164 HD
BRANCH  18  20
ATOM     20  C   UNL     1       5.911  -3.683  -1.403  1.00  0.00     0.168 CG0
ATOM     21  C   UNL     1       6.284  -3.170  -2.796  1.00  0.00     0.041 C 
ATOM     22  G   UNL     1       7.032  -4.623  -0.932  1.00  0.00     0.000 G0
ENDBRANCH  18  20
ENDBRANCH  15  16
ENDBRANCH  10  11
BRANCH  10  23
ATOM     23  C   UNL     1       2.986  -0.000   4.937  1.00  0.00     0.015 C 
ATOM     24  C   UNL     1       2.626   1.429   5.374  1.00  0.00     0.010 C 
BRANCH  23  25
ATOM     25  C   UNL     1       1.869  -0.531   4.010  1.00  0.00     0.002 C 
ATOM     26  C   UNL     1       0.856   0.527   3.594  1.00  0.00     0.004 C 
ENDBRANCH  23  25
ENDBRANCH  10  23
ENDBRANCH   7  10
ENDBRANCH   4   6
BRANCH   3  27
ATOM     27  C   UNL     1       9.229  -5.240   4.492  1.00  0.00     0.171 C 
BRANCH  27  28
ATOM     28  N   UNL     1       9.420  -4.976   3.070  1.00  0.00    -0.342 N 
ATOM     29  C   UNL     1       8.597  -5.494   2.095  1.00  0.00     0.245 C 
ATOM     30  O   UNL     1       7.628  -6.207   2.353  1.00  0.00    -0.273 OA
ATOM     31  H   UNL     1      10.132  -4.302   2.788  1.00  0.00     0.164 HD
BRANCH  29  32
ATOM     32  C   UNL     1       8.879  -5.000   0.661  1.00  0.00     0.200 C 
BRANCH  32  33
ATOM     33  N   UNL     1       7.707  -4.249   0.193  1.00  0.00    -0.340 N 
ATOM     34  C   UNL     1       7.028  -4.622  -0.948  1.00  0.00     0.243 CG0
ATOM     35  O   UNL     1       7.408  -5.553  -1.656  1.00  0.00    -0.273 OA
ATOM     36  H   UNL     1       7.388  -3.458   0.739  1.00  0.00     0.164 HD
ATOM     37  G   UNL     1       5.907  -3.670  -1.397  1.00  0.00     0.000 G0
ENDBRANCH  32  33
BRANCH  32  38
ATOM     38  C   UNL     1      10.187  -4.177   0.594  1.00  0.00     0.143 C 
ATOM     39  C   UNL     1      10.754  -4.023  -0.813  1.00  0.00     0.041 C 
BRANCH  38  40
ATOM     40  O   UNL     1       9.977  -2.869   1.159  1.00  0.00    -0.391 OA
ATOM     41  H   UNL     1       9.243  -2.464   0.659  1.00  0.00     0.211 HD
ENDBRANCH  38  40
ENDBRANCH  32  38
ENDBRANCH  29  32
ENDBRANCH  27  28
BRANCH  27  42
ATOM     42  C   UNL     1      10.581  -5.339   5.240  1.00  0.00     0.015 C 
ATOM     43  C   UNL     1      11.669  -6.155   4.533  1.00  0.00     0.010 C 
ATOM     44  C   UNL     1      11.121  -3.960   5.632  1.00  0.00     0.010 C 
ENDBRANCH  27  42
ENDBRANCH   3  27
TORSDOF 5
ENDMDL
MODEL 4
REMARK VINA RESULT:    -4.675      2.408      6.356
REMARK INTER + INTRA:         -10.705
REMARK INTER:                  -8.431
REMARK INTRA:                  -2.273
REMARK UNBOUND:                -2.340
REMARK SMILES CC[C@H](C)[C@H]1NC(=O)c2coc(n2)[C@H](C(C)C)NC(=O)[C@H]([C@@H](C)O)NC(=O)[C@H](C)NC(=O)c2csc1n2
REMARK SMILES IDX 11 1 13 2 12 3 9 4 10 5 7 6 6 7 8 8 5 10 36 11 35 12 34 13
REMARK SMILES IDX 37 14 33 15 31 16 32 17 30 18 28 20 29 21 3 23 4 24 2 25
REMARK SMILES IDX 1 26 14 27 18 28 19 29 20 30 21 32 25 33 26 34 27 35 22 38
REMARK SMILES IDX 23 39 24 40 15 42 16 43 17 44
REMARK H PARENT 6 9 30 19 18 31 25 36 24 41
REMARK Flexibility Score:   94.900
ROOT
ATOM      1  O   UNL     1       5.654  -4.702  -1.511  1.00  0.00    -0.446 OA
ATOM      2  N   UNL     1       5.893  -2.705  -0.493  1.00  0.00    -0.207 NA
ATOM      3  C   UNL     1       6.505  -3.768  -0.983  1.00  0.00     0.217 A 
ATOM      4  C   UNL     1       4.552  -2.942  -0.739  1.00  0.00     0.167 A 
ATOM      5  C   UNL     1       4.413  -4.159  -1.360  1.00  0.00     0.231 A 
ENDROOT
BRANCH   4   6
ATOM      6  C   UNL     1       3.498  -2.022  -0.347  1.00  0.00     0.273 C 
ATOM      7  N   UNL     1       4.004  -0.824   0.091  1.00  0.00    -0.341 N 
ATOM      8  O   UNL     1       2.306  -2.302  -0.382  1.00  0.00    -0.267 OA
ATOM      9  H   UNL     1       5.017  -0.770   0.152  1.00  0.00     0.164 HD
BRANCH   7  10
ATOM     10  C   UNL     1       3.201   0.175   0.768  1.00  0.00     0.145 C 
BRANCH  10  11
ATOM     11  C   UNL     1       3.404  -0.009   2.265  1.00  0.00     0.116 A 
ATOM     12  S   UNL     1       2.055   0.107   3.331  1.00  0.00    -0.124 S 
ATOM     13  C   UNL     1       3.081  -0.235   4.654  1.00  0.00     0.101 A 
ATOM     14  N   UNL     1       4.563  -0.273   2.846  1.00  0.00    -0.234 NA
ATOM     15  C   UNL     1       4.381  -0.421   4.223  1.00  0.00     0.139 A 
BRANCH  15  16
ATOM     16  C   UNL     1       5.493  -0.756   5.115  1.00  0.00     0.271 C 
ATOM     17  O   UNL     1       5.745  -0.119   6.131  1.00  0.00    -0.267 OA
ATOM     18  N   UNL     1       6.220  -1.852   4.701  1.00  0.00    -0.339 N 
ATOM     19  H   UNL     1       5.980  -2.225   3.786  1.00  0.00     0.164 HD
BRANCH  18  20
ATOM     20  C   UNL     1       7.404  -2.291   5.428  1.00  0.00     0.168 CG0
ATOM     21  C   UNL     1       7.086  -3.470   6.349  1.00  0.00     0.041 C 
ATOM     22  G   UNL     1       8.549  -2.718   4.495  1.00  0.00     0.000 G0
ENDBRANCH  18  20
ENDBRANCH  15  16
ENDBRANCH  10  11
BRANCH  10  23
ATOM     23  C   UNL     1       3.537   1.614   0.297  1.00  0.00     0.015 C 
ATOM     24  C   UNL     1       3.673   2.617   1.455  1.00  0.00     0.010 C 
BRANCH  23  25
ATOM     25  C   UNL     1       4.818   1.678  -0.566  1.00  0.00     0.002 C 
ATOM     26  C   UNL     1       5.993   2.359   0.122  1.00  0.00     0.004 C 
ENDBRANCH  23  25
ENDBRANCH  10  23
ENDBRANCH   7  10
ENDBRANCH   4   6
BRANCH   3  27
ATOM     27  C   UNL     1       7.982  -4.054  -0.962  1.00  0.00     0.171 C 
BRANCH  27  28
ATOM     28  N   UNL     1       8.333  -4.492   0.384  1.00  0.00    -0.342 N 
ATOM     29  C   UNL     1       9.035  -3.703   1.268  1.00  0.00     0.245 C 
ATOM     30  O   UNL     1       9.405  -2.563   0.992  1.00  0.00    -0.273 OA
ATOM     31  H   UNL     1       7.962  -5.379   0.723  1.00  0.00     0.164 HD
BRANCH  29  32
ATOM     32  C   UNL     1       9.200  -4.287   2.687  1.00  0.00     0.200 C 
BRANCH  32  33
ATOM     33  N   UNL     1       8.187  -3.676   3.557  1.00  0.00    -0.340 N 
ATOM     34  C   UNL     1       8.529  -2.724   4.494  1.00  0.00     0.243 CG0
ATOM     35  O   UNL     1       9.697  -2.392   4.687  1.00  0.00    -0.273 OA
ATOM     36  H   UNL     1       7.219  -3.952   3.442  1.00  0.00     0.164 HD
ATOM     37  G   UNL     1       7.396  -2.271   5.428  1.00  0.00     0.000 G0
ENDBRANCH  32  33
BRANCH  32  38
ATOM     38  C   UNL     1       9.131  -5.832   2.674  1.00  0.00     0.143 C 
ATOM     39  C   UNL     1       9.904  -6.499   3.805  1.00  0.00     0.041 C 
BRANCH  38  40
ATOM     40  O   UNL     1       7.757  -6.264   2.729  1.00  0.00    -0.391 OA
ATOM     41  H   UNL     1       7.278  -5.605   3.266  1.00  0.00     0.211 HD
ENDBRANCH  38  40
ENDBRANCH  32  38
ENDBRANCH  29  32
ENDBRANCH  27  28
BRANCH  27  42
ATOM     42  C   UNL     1       8.536  -5.019  -2.038  1.00  0.00     0.015 C 
ATOM     43  C   UNL     1       8.088  -4.734  -3.476  1.00  0.00     0.010 C 
ATOM     44  C   UNL     1      10.063  -5.136  -1.971  1.00  0.00     0.010 C 
ENDBRANCH  27  42
ENDBRANCH   3  27
TORSDOF 5
ENDMDL
MODEL 5
REMARK VINA RESULT:    -4.661      2.838      7.691
REMARK INTER + INTRA:         -10.679
REMARK INTER:                  -8.274
REMARK INTRA:                  -2.405
REMARK UNBOUND:                -2.340
REMARK SMILES CC[C@H](C)[C@H]1NC(=O)c2coc(n2)[C@H](C(C)C)NC(=O)[C@H]([C@@H](C)O)NC(=O)[C@H](C)NC(=O)c2csc1n2
REMARK SMILES IDX 11 1 13 2 12 3 9 4 10 5 7 6 6 7 8 8 5 10 36 11 35 12 34 13
REMARK SMILES IDX 37 14 33 15 31 16 32 17 30 18 28 20 29 21 3 23 4 24 2 25
REMARK SMILES IDX 1 26 14 27 18 28 19 29 20 30 21 32 25 33 26 34 27 35 22 38
REMARK SMILES IDX 23 39 24 40 15 42 16 43 17 44
REMARK H PARENT 6 9 30 19 18 31 25 36 24 41
REMARK Flexibility Score:   94.900
ROOT
ATOM      1  O   UNL     1       3.661  -2.474  -0.568  1.00  0.00    -0.446 OA
ATOM      2  N   UNL     1       5.855  -1.984  -0.741  1.00  0.00    -0.207 NA
ATOM      3  C   UNL     1       4.750  -1.838  -0.032  1.00  0.00     0.217 A 
ATOM      4  C   UNL     1       5.475  -2.790  -1.800  1.00  0.00     0.167 A 
ATOM      5  C   UNL     1       4.138  -3.086  -1.688  1.00  0.00     0.231 A 
ENDROOT
BRANCH   4   6
ATOM      6  C   UNL     1       6.387  -3.200  -2.853  1.00  0.00     0.273 C 
ATOM      7  N   UNL     1       7.140  -4.285  -2.482  1.00  0.00    -0.341 N 
ATOM      8  O   UNL     1       6.484  -2.622  -3.929  1.00  0.00    -0.267 OA
ATOM      9  H   UNL     1       7.016  -4.601  -1.524  1.00  0.00     0.164 HD
BRANCH   7  10
ATOM     10  C   UNL     1       8.291  -4.745  -3.234  1.00  0.00     0.145 C 
BRANCH  10  11
ATOM     11  C   UNL     1       9.508  -4.633  -2.327  1.00  0.00     0.116 A 
ATOM     12  S   UNL     1      11.041  -5.190  -2.882  1.00  0.00    -0.124 S 
ATOM     13  C   UNL     1      11.747  -4.691  -1.407  1.00  0.00     0.101 A 
ATOM     14  N   UNL     1       9.501  -4.116  -1.109  1.00  0.00    -0.234 NA
ATOM     15  C   UNL     1      10.793  -4.131  -0.580  1.00  0.00     0.139 A 
BRANCH  15  16
ATOM     16  C   UNL     1      11.089  -3.582   0.746  1.00  0.00     0.271 C 
ATOM     17  O   UNL     1      12.231  -3.452   1.172  1.00  0.00    -0.267 OA
ATOM     18  N   UNL     1       9.963  -3.228   1.458  1.00  0.00    -0.339 N 
ATOM     19  H   UNL     1       9.073  -3.488   1.041  1.00  0.00     0.164 HD
BRANCH  18  20
ATOM     20  C   UNL     1      10.060  -2.727   2.823  1.00  0.00     0.168 CG0
ATOM     21  C   UNL     1      10.300  -1.216   2.845  1.00  0.00     0.041 C 
ATOM     22  G   UNL     1       8.798  -3.015   3.653  1.00  0.00     0.000 G0
ENDBRANCH  18  20
ENDBRANCH  15  16
ENDBRANCH  10  11
BRANCH  10  23
ATOM     23  C   UNL     1       8.094  -6.182  -3.785  1.00  0.00     0.015 C 
ATOM     24  C   UNL     1       6.966  -6.956  -3.082  1.00  0.00     0.010 C 
BRANCH  23  25
ATOM     25  C   UNL     1       7.837  -6.208  -5.309  1.00  0.00     0.002 C 
ATOM     26  C   UNL     1       6.559  -6.933  -5.708  1.00  0.00     0.004 C 
ENDBRANCH  23  25
ENDBRANCH  10  23
ENDBRANCH   7  10
ENDBRANCH   4   6
BRANCH   3  27
ATOM     27  C   UNL     1       4.578  -1.029   1.224  1.00  0.00     0.171 C 
BRANCH  27  28
ATOM     28  N   UNL     1       5.605  -1.450   2.171  1.00  0.00    -0.342 N 
ATOM     29  C   UNL     1       5.337  -1.720   3.494  1.00  0.00     0.245 C 
ATOM     30  O   UNL     1       4.206  -1.642   3.973  1.00  0.00    -0.273 OA
ATOM     31  H   UNL     1       6.542  -1.647   1.821  1.00  0.00     0.164 HD
BRANCH  29  32
ATOM     32  C   UNL     1       6.524  -2.276   4.308  1.00  0.00     0.200 C 
BRANCH  32  33
ATOM     33  N   UNL     1       7.736  -2.169   3.487  1.00  0.00    -0.340 N 
ATOM     34  C   UNL     1       8.798  -3.033   3.660  1.00  0.00     0.243 CG0
ATOM     35  O   UNL     1       8.804  -3.885   4.546  1.00  0.00    -0.273 OA
ATOM     36  H   UNL     1       7.773  -1.456   2.768  1.00  0.00     0.164 HD
ATOM     37  G   UNL     1      10.053  -2.721   2.830  1.00  0.00     0.000 G0
ENDBRANCH  32  33
BRANCH  32  38
ATOM     38  C   UNL     1       6.656  -1.564   5.674  1.00  0.00     0.143 C 
ATOM     39  C   UNL     1       6.898  -0.062   5.572  1.00  0.00     0.041 C 
BRANCH  38  40
ATOM     40  O   UNL     1       5.475  -1.794   6.466  1.00  0.00    -0.391 OA
ATOM     41  H   UNL     1       4.730  -1.394   5.979  1.00  0.00     0.211 HD
ENDBRANCH  38  40
ENDBRANCH  32  38
ENDBRANCH  29  32
ENDBRANCH  27  28
BRANCH  27  42
ATOM     42  C   UNL     1       4.535   0.512   1.079  1.00  0.00     0.015 C 
ATOM     43  C   UNL     1       3.605   1.242   2.055  1.00  0.00     0.010 C 
ATOM     44  C   UNL     1       5.936   1.131   1.118  1.00  0.00     0.010 C 
ENDBRANCH  27  42
ENDBRANCH   3  27
TORSDOF 5
ENDMDL
MODEL 6
REMARK VINA RESULT:    -4.548      2.446      6.418
REMARK INTER + INTRA:         -10.476
REMARK INTER:                  -8.136
REMARK INTRA:                  -2.340
REMARK UNBOUND:                -2.340
REMARK SMILES CC[C@H](C)[C@H]1NC(=O)c2coc(n2)[C@H](C(C)C)NC(=O)[C@H]([C@@H](C)O)NC(=O)[C@H](C)NC(=O)c2csc1n2
REMARK SMILES IDX 11 1 13 2 12 3 9 4 10 5 7 6 6 7 8 8 5 10 36 11 35 12 34 13
REMARK SMILES IDX 37 14 33 15 31 16 32 17 30 18 28 20 29 21 3 23 4 24 2 25
REMARK SMILES IDX 1 26 14 27 18 28 19 29 20 30 21 32 25 33 26 34 27 35 22 38
REMARK SMILES IDX 23 39 24 40 15 42 16 43 17 44
REMARK H PARENT 6 9 30 19 18 31 25 36 24 41
REMARK Flexibility Score:   94.900
ROOT
ATOM      1  O   UNL     1       5.772  -5.092  -2.116  1.00  0.00    -0.446 OA
ATOM      2  N   UNL     1       6.095  -2.907  -1.666  1.00  0.00    -0.207 NA
ATOM      3  C   UNL     1       6.595  -4.002  -2.211  1.00  0.00     0.217 A 
ATOM      4  C   UNL     1       4.849  -3.295  -1.207  1.00  0.00     0.167 A 
ATOM      5  C   UNL     1       4.658  -4.627  -1.484  1.00  0.00     0.231 A 
ENDROOT
BRANCH   4   6
ATOM      6  C   UNL     1       3.942  -2.396  -0.516  1.00  0.00     0.273 C 
ATOM      7  N   UNL     1       4.611  -1.547   0.329  1.00  0.00    -0.341 N 
ATOM      8  O   UNL     1       2.725  -2.418  -0.658  1.00  0.00    -0.267 OA
ATOM      9  H   UNL     1       5.611  -1.707   0.413  1.00  0.00     0.164 HD
BRANCH   7  10
ATOM     10  C   UNL     1       3.943  -0.722   1.316  1.00  0.00     0.145 C 
BRANCH  10  11
ATOM     11  C   UNL     1       4.775  -0.763   2.590  1.00  0.00     0.116 A 
ATOM     12  S   UNL     1       4.181  -0.014   4.024  1.00  0.00    -0.124 S 
ATOM     13  C   UNL     1       5.578  -0.529   4.863  1.00  0.00     0.101 A 
ATOM     14  N   UNL     1       5.952  -1.355   2.708  1.00  0.00    -0.234 NA
ATOM     15  C   UNL     1       6.413  -1.238   4.021  1.00  0.00     0.139 A 
BRANCH  15  16
ATOM     16  C   UNL     1       7.680  -1.836   4.449  1.00  0.00     0.271 C 
ATOM     17  O   UNL     1       8.111  -1.735   5.592  1.00  0.00    -0.267 OA
ATOM     18  N   UNL     1       8.333  -2.520   3.445  1.00  0.00    -0.339 N 
ATOM     19  H   UNL     1       7.929  -2.436   2.515  1.00  0.00     0.164 HD
BRANCH  18  20
ATOM     20  C   UNL     1       9.640  -3.122   3.668  1.00  0.00     0.168 CG0
ATOM     21  C   UNL     1       9.511  -4.532   4.250  1.00  0.00     0.041 C 
ATOM     22  G   UNL     1      10.477  -3.219   2.383  1.00  0.00     0.000 G0
ENDBRANCH  18  20
ENDBRANCH  15  16
ENDBRANCH  10  11
BRANCH  10  23
ATOM     23  C   UNL     1       3.708   0.725   0.809  1.00  0.00     0.015 C 
ATOM     24  C   UNL     1       4.506   1.062  -0.462  1.00  0.00     0.010 C 
BRANCH  23  25
ATOM     25  C   UNL     1       2.216   1.035   0.553  1.00  0.00     0.002 C 
ATOM     26  C   UNL     1       1.258   0.166   1.356  1.00  0.00     0.004 C 
ENDBRANCH  23  25
ENDBRANCH  10  23
ENDBRANCH   7  10
ENDBRANCH   4   6
BRANCH   3  27
ATOM     27  C   UNL     1       7.949  -4.161  -2.846  1.00  0.00     0.171 C 
BRANCH  27  28
ATOM     28  N   UNL     1       8.904  -4.480  -1.790  1.00  0.00    -0.342 N 
ATOM     29  C   UNL     1       9.660  -3.523  -1.152  1.00  0.00     0.245 C 
ATOM     30  O   UNL     1       9.575  -2.324  -1.415  1.00  0.00    -0.273 OA
ATOM     31  H   UNL     1       8.945  -5.437  -1.439  1.00  0.00     0.164 HD
BRANCH  29  32
ATOM     32  C   UNL     1      10.517  -4.035   0.025  1.00  0.00     0.200 C 
BRANCH  32  33
ATOM     33  N   UNL     1       9.804  -3.744   1.275  1.00  0.00    -0.340 N 
ATOM     34  C   UNL     1      10.464  -3.232   2.373  1.00  0.00     0.243 CG0
ATOM     35  O   UNL     1      11.680  -3.058   2.377  1.00  0.00    -0.273 OA
ATOM     36  H   UNL     1       8.804  -3.907   1.312  1.00  0.00     0.164 HD
ATOM     37  G   UNL     1       9.625  -3.105   3.655  1.00  0.00     0.000 G0
ENDBRANCH  32  33
BRANCH  32  38
ATOM     38  C   UNL     1      10.862  -5.534  -0.137  1.00  0.00     0.143 C 
ATOM     39  C   UNL     1      12.197  -5.794  -0.825  1.00  0.00     0.041 C 
BRANCH  38  40
ATOM     40  O   UNL     1      10.865  -6.181   1.150  1.00  0.00    -0.391 OA
ATOM     41  H   UNL     1      11.679  -6.718   1.191  1.00  0.00     0.211 HD
ENDBRANCH  38  40
ENDBRANCH  32  38
ENDBRANCH  29  32
ENDBRANCH  27  28
BRANCH  27  42
ATOM     42  C   UNL     1       8.067  -5.144  -4.036  1.00  0.00     0.015 C 
ATOM     43  C   UNL     1       8.273  -4.497  -5.411  1.00  0.00     0.010 C 
ATOM     44  C   UNL     1       9.133  -6.217  -3.790  1.00  0.00     0.010 C 
ENDBRANCH  27  42
ENDBRANCH   3  27
TORSDOF 5
ENDMDL
MODEL 7
REMARK VINA RESULT:    -4.482      3.600      8.746
REMARK INTER + INTRA:         -10.358
REMARK INTER:                  -8.563
REMARK INTRA:                  -1.796
REMARK UNBOUND:                -2.340
REMARK SMILES CC[C@H](C)[C@H]1NC(=O)c2coc(n2)[C@H](C(C)C)NC(=O)[C@H]([C@@H](C)O)NC(=O)[C@H](C)NC(=O)c2csc1n2
REMARK SMILES IDX 11 1 13 2 12 3 9 4 10 5 7 6 6 7 8 8 5 10 36 11 35 12 34 13
REMARK SMILES IDX 37 14 33 15 31 16 32 17 30 18 28 20 29 21 3 23 4 24 2 25
REMARK SMILES IDX 1 26 14 27 18 28 19 29 20 30 21 32 25 33 26 34 27 35 22 38
REMARK SMILES IDX 23 39 24 40 15 42 16 43 17 44
REMARK H PARENT 6 9 30 19 18 31 25 36 24 41
REMARK Flexibility Score:   94.900
ROOT
ATOM      1  O   UNL     1       6.548  -1.282   3.793  1.00  0.00    -0.446 OA
ATOM      2  N   UNL     1       7.326  -2.914   2.447  1.00  0.00    -0.207 NA
ATOM      3  C   UNL     1       7.089  -2.536   3.690  1.00  0.00     0.217 A 
ATOM      4  C   UNL     1       6.888  -1.849   1.679  1.00  0.00     0.167 A 
ATOM      5  C   UNL     1       6.415  -0.859   2.505  1.00  0.00     0.231 A 
ENDROOT
BRANCH   4   6
ATOM      6  C   UNL     1       6.973  -1.829   0.229  1.00  0.00     0.273 C 
ATOM      7  N   UNL     1       6.647  -3.044  -0.318  1.00  0.00    -0.341 N 
ATOM      8  O   UNL     1       7.321  -0.847  -0.415  1.00  0.00    -0.267 OA
ATOM      9  H   UNL     1       6.469  -3.792   0.345  1.00  0.00     0.164 HD
BRANCH   7  10
ATOM     10  C   UNL     1       6.884  -3.375  -1.709  1.00  0.00     0.145 C 
BRANCH  10  11
ATOM     11  C   UNL     1       8.239  -4.063  -1.795  1.00  0.00     0.116 A 
ATOM     12  S   UNL     1       8.627  -5.017  -3.177  1.00  0.00    -0.124 S 
ATOM     13  C   UNL     1      10.172  -5.330  -2.517  1.00  0.00     0.101 A 
ATOM     14  N   UNL     1       9.189  -3.983  -0.878  1.00  0.00    -0.234 NA
ATOM     15  C   UNL     1      10.314  -4.698  -1.296  1.00  0.00     0.139 A 
BRANCH  15  16
ATOM     16  C   UNL     1      11.536  -4.751  -0.491  1.00  0.00     0.271 C 
ATOM     17  O   UNL     1      12.624  -5.075  -0.954  1.00  0.00    -0.267 OA
ATOM     18  N   UNL     1      11.341  -4.401   0.829  1.00  0.00    -0.339 N 
ATOM     19  H   UNL     1      10.375  -4.262   1.114  1.00  0.00     0.164 HD
BRANCH  18  20
ATOM     20  C   UNL     1      12.430  -4.461   1.794  1.00  0.00     0.168 CG0
ATOM     21  C   UNL     1      12.960  -3.064   2.122  1.00  0.00     0.041 C 
ATOM     22  G   UNL     1      12.017  -5.129   3.116  1.00  0.00     0.000 G0
ENDBRANCH  18  20
ENDBRANCH  15  16
ENDBRANCH  10  11
BRANCH  10  23
ATOM     23  C   UNL     1       5.743  -4.239  -2.309  1.00  0.00     0.015 C 
ATOM     24  C   UNL     1       4.910  -4.972  -1.243  1.00  0.00     0.010 C 
BRANCH  23  25
ATOM     25  C   UNL     1       4.787  -3.426  -3.210  1.00  0.00     0.002 C 
ATOM     26  C   UNL     1       4.667  -1.959  -2.820  1.00  0.00     0.004 C 
ENDBRANCH  23  25
ENDBRANCH  10  23
ENDBRANCH   7  10
ENDBRANCH   4   6
BRANCH   3  27
ATOM     27  C   UNL     1       7.397  -3.304   4.946  1.00  0.00     0.171 C 
BRANCH  27  28
ATOM     28  N   UNL     1       8.839  -3.524   4.993  1.00  0.00    -0.342 N 
ATOM     29  C   UNL     1       9.402  -4.689   5.462  1.00  0.00     0.245 C 
ATOM     30  O   UNL     1       8.731  -5.639   5.862  1.00  0.00    -0.273 OA
ATOM     31  H   UNL     1       9.454  -2.828   4.573  1.00  0.00     0.164 HD
BRANCH  29  32
ATOM     32  C   UNL     1      10.935  -4.787   5.313  1.00  0.00     0.200 C 
BRANCH  32  33
ATOM     33  N   UNL     1      11.298  -4.321   3.969  1.00  0.00    -0.340 N 
ATOM     34  C   UNL     1      12.024  -5.117   3.108  1.00  0.00     0.243 CG0
ATOM     35  O   UNL     1      12.452  -6.219   3.446  1.00  0.00    -0.273 OA
ATOM     36  H   UNL     1      10.986  -3.404   3.673  1.00  0.00     0.164 HD
ATOM     37  G   UNL     1      12.452  -4.454   1.789  1.00  0.00     0.000 G0
ENDBRANCH  32  33
BRANCH  32  38
ATOM     38  C   UNL     1      11.663  -4.013   6.437  1.00  0.00     0.143 C 
ATOM     39  C   UNL     1      12.984  -3.387   6.007  1.00  0.00     0.041 C 
BRANCH  38  40
ATOM     40  O   UNL     1      10.805  -2.979   6.959  1.00  0.00    -0.391 OA
ATOM     41  H   UNL     1      11.292  -2.554   7.689  1.00  0.00     0.211 HD
ENDBRANCH  38  40
ENDBRANCH  32  38
ENDBRANCH  29  32
ENDBRANCH  27  28
BRANCH  27  42
ATOM     42  C   UNL     1       6.864  -2.730   6.282  1.00  0.00     0.015 C 
ATOM     43  C   UNL     1       7.268  -1.283   6.588  1.00  0.00     0.010 C 
ATOM     44  C   UNL     1       5.347  -2.897   6.413  1.00  0.00     0.010 C 
ENDBRANCH  27  42
ENDBRANCH   3  27
TORSDOF 5
ENDMDL
MODEL 8
REMARK VINA RESULT:    -4.297      2.839      6.751
REMARK INTER + INTRA:         -10.028
REMARK INTER:                  -7.413
REMARK INTRA:                  -2.615
REMARK UNBOUND:                -2.340
REMARK SMILES CC[C@H](C)[C@H]1NC(=O)c2coc(n2)[C@H](C(C)C)NC(=O)[C@H]([C@@H](C)O)NC(=O)[C@H](C)NC(=O)c2csc1n2
REMARK SMILES IDX 11 1 13 2 12 3 9 4 10 5 7 6 6 7 8 8 5 10 36 11 35 12 34 13
REMARK SMILES IDX 37 14 33 15 31 16 32 17 30 18 28 20 29 21 3 23 4 24 2 25
REMARK SMILES IDX 1 26 14 27 18 28 19 29 20 30 21 32 25 33 26 34 27 35 22 38
REMARK SMILES IDX 23 39 24 40 15 42 16 43 17 44
REMARK H PARENT 6 9 30 19 18 31 25 36 24 41
REMARK Flexibility Score:   94.900
ROOT
ATOM      1  O   UNL     1       3.653  -2.566  -0.578  1.00  0.00    -0.446 OA
ATOM      2  N   UNL     1       4.785  -0.778   0.199  1.00  0.00    -0.207 NA
ATOM      3  C   UNL     1       4.851  -1.910  -0.478  1.00  0.00     0.217 A 
ATOM      4  C   UNL     1       3.449  -0.667   0.544  1.00  0.00     0.167 A 
ATOM      5  C   UNL     1       2.765  -1.759   0.067  1.00  0.00     0.231 A 
ENDROOT
BRANCH   4   6
ATOM      6  C   UNL     1       2.919   0.440   1.321  1.00  0.00     0.273 C 
ATOM      7  N   UNL     1       3.833   1.455   1.451  1.00  0.00    -0.341 N 
ATOM      8  O   UNL     1       1.799   0.445   1.817  1.00  0.00    -0.267 OA
ATOM      9  H   UNL     1       4.754   1.271   1.064  1.00  0.00     0.164 HD
BRANCH   7  10
ATOM     10  C   UNL     1       3.663   2.561   2.373  1.00  0.00     0.145 C 
BRANCH  10  11
ATOM     11  C   UNL     1       4.202   2.120   3.726  1.00  0.00     0.116 A 
ATOM     12  S   UNL     1       3.607   2.858   5.165  1.00  0.00    -0.124 S 
ATOM     13  C   UNL     1       4.616   1.839   6.095  1.00  0.00     0.101 A 
ATOM     14  N   UNL     1       5.112   1.177   3.908  1.00  0.00    -0.234 NA
ATOM     15  C   UNL     1       5.342   0.998   5.274  1.00  0.00     0.139 A 
BRANCH  15  16
ATOM     16  C   UNL     1       6.278  -0.013   5.771  1.00  0.00     0.271 C 
ATOM     17  O   UNL     1       6.699  -0.021   6.923  1.00  0.00    -0.267 OA
ATOM     18  N   UNL     1       6.633  -0.948   4.822  1.00  0.00    -0.339 N 
ATOM     19  H   UNL     1       6.305  -0.769   3.877  1.00  0.00     0.164 HD
BRANCH  18  20
ATOM     20  C   UNL     1       7.608  -1.990   5.117  1.00  0.00     0.168 CG0
ATOM     21  C   UNL     1       6.920  -3.311   5.468  1.00  0.00     0.041 C 
ATOM     22  G   UNL     1       8.566  -2.256   3.945  1.00  0.00     0.000 G0
ENDBRANCH  18  20
ENDBRANCH  15  16
ENDBRANCH  10  11
BRANCH  10  23
ATOM     23  C   UNL     1       4.339   3.860   1.861  1.00  0.00     0.015 C 
ATOM     24  C   UNL     1       5.587   3.599   1.001  1.00  0.00     0.010 C 
BRANCH  23  25
ATOM     25  C   UNL     1       3.371   4.765   1.066  1.00  0.00     0.002 C 
ATOM     26  C   UNL     1       1.917   4.650   1.503  1.00  0.00     0.004 C 
ENDBRANCH  23  25
ENDBRANCH  10  23
ENDBRANCH   7  10
ENDBRANCH   4   6
BRANCH   3  27
ATOM     27  C   UNL     1       6.081  -2.540  -1.072  1.00  0.00     0.171 C 
BRANCH  27  28
ATOM     28  N   UNL     1       6.898  -3.048   0.025  1.00  0.00    -0.342 N 
ATOM     29  C   UNL     1       8.131  -2.525   0.343  1.00  0.00     0.245 C 
ATOM     30  O   UNL     1       8.630  -1.579  -0.266  1.00  0.00    -0.273 OA
ATOM     31  H   UNL     1       6.501  -3.754   0.645  1.00  0.00     0.164 HD
BRANCH  29  32
ATOM     32  C   UNL     1       8.787  -3.106   1.613  1.00  0.00     0.200 C 
BRANCH  32  33
ATOM     33  N   UNL     1       7.975  -2.712   2.772  1.00  0.00    -0.340 N 
ATOM     34  C   UNL     1       8.561  -2.244   3.930  1.00  0.00     0.243 CG0
ATOM     35  O   UNL     1       9.782  -2.197   4.068  1.00  0.00    -0.273 OA
ATOM     36  H   UNL     1       6.966  -2.769   2.699  1.00  0.00     0.164 HD
ATOM     37  G   UNL     1       7.605  -1.999   5.108  1.00  0.00     0.000 G0
ENDBRANCH  32  33
BRANCH  32  38
ATOM     38  C   UNL     1       8.975  -4.637   1.502  1.00  0.00     0.143 C 
ATOM     39  C   UNL     1       7.922  -5.450   2.246  1.00  0.00     0.041 C 
BRANCH  38  40
ATOM     40  O   UNL     1       8.980  -5.034   0.117  1.00  0.00    -0.391 OA
ATOM     41  H   UNL     1       9.481  -5.870   0.068  1.00  0.00     0.211 HD
ENDBRANCH  38  40
ENDBRANCH  32  38
ENDBRANCH  29  32
ENDBRANCH  27  28
BRANCH  27  42
ATOM     42  C   UNL     1       5.874  -3.611  -2.171  1.00  0.00     0.015 C 
ATOM     43  C   UNL     1       6.825  -3.521  -3.370  1.00  0.00     0.010 C 
ATOM     44  C   UNL     1       5.879  -5.031  -1.595  1.00  0.00     0.010 C 
ENDBRANCH  27  42
ENDBRANCH   3  27
TORSDOF 5
ENDMDL
MODEL 9
REMARK VINA RESULT:    -4.250      2.896      6.592
REMARK INTER + INTRA:          -9.944
REMARK INTER:                  -7.542
REMARK INTRA:                  -2.402
REMARK UNBOUND:                -2.340
REMARK SMILES CC[C@H](C)[C@H]1NC(=O)c2coc(n2)[C@H](C(C)C)NC(=O)[C@H]([C@@H](C)O)NC(=O)[C@H](C)NC(=O)c2csc1n2
REMARK SMILES IDX 11 1 13 2 12 3 9 4 10 5 7 6 6 7 8 8 5 10 36 11 35 12 34 13
REMARK SMILES IDX 37 14 33 15 31 16 32 17 30 18 28 20 29 21 3 23 4 24 2 25
REMARK SMILES IDX 1 26 14 27 18 28 19 29 20 30 21 32 25 33 26 34 27 35 22 38
REMARK SMILES IDX 23 39 24 40 15 42 16 43 17 44
REMARK H PARENT 6 9 30 19 18 31 25 36 24 41
REMARK Flexibility Score:   94.900
ROOT
ATOM      1  O   UNL     1       3.300  -0.206  -3.547  1.00  0.00    -0.446 OA
ATOM      2  N   UNL     1       4.955  -0.188  -2.016  1.00  0.00    -0.207 NA
ATOM      3  C   UNL     1       3.772   0.289  -2.360  1.00  0.00     0.217 A 
ATOM      4  C   UNL     1       5.270  -1.076  -3.029  1.00  0.00     0.167 A 
ATOM      5  C   UNL     1       4.259  -1.083  -3.958  1.00  0.00     0.231 A 
ENDROOT
BRANCH   4   6
ATOM      6  C   UNL     1       6.511  -1.831  -3.065  1.00  0.00     0.273 C 
ATOM      7  N   UNL     1       6.452  -2.949  -2.272  1.00  0.00    -0.341 N 
ATOM      8  O   UNL     1       7.495  -1.487  -3.710  1.00  0.00    -0.267 OA
ATOM      9  H   UNL     1       5.603  -3.055  -1.724  1.00  0.00     0.164 HD
BRANCH   7  10
ATOM     10  C   UNL     1       7.617  -3.740  -1.930  1.00  0.00     0.145 C 
BRANCH  10  11
ATOM     11  C   UNL     1       7.757  -3.722  -0.414  1.00  0.00     0.116 A 
ATOM     12  S   UNL     1       8.959  -4.695   0.345  1.00  0.00    -0.124 S 
ATOM     13  C   UNL     1       8.480  -4.087   1.868  1.00  0.00     0.101 A 
ATOM     14  N   UNL     1       7.021  -2.990   0.406  1.00  0.00    -0.234 NA
ATOM     15  C   UNL     1       7.445  -3.183   1.724  1.00  0.00     0.139 A 
BRANCH  15  16
ATOM     16  C   UNL     1       6.830  -2.466   2.843  1.00  0.00     0.271 C 
ATOM     17  O   UNL     1       7.286  -2.492   3.980  1.00  0.00    -0.267 OA
ATOM     18  N   UNL     1       5.696  -1.764   2.491  1.00  0.00    -0.339 N 
ATOM     19  H   UNL     1       5.358  -1.913   1.544  1.00  0.00     0.164 HD
BRANCH  18  20
ATOM     20  C   UNL     1       4.913  -1.046   3.488  1.00  0.00     0.168 CG0
ATOM     21  C   UNL     1       5.398   0.397   3.642  1.00  0.00     0.041 C 
ATOM     22  G   UNL     1       3.414  -1.006   3.149  1.00  0.00     0.000 G0
ENDBRANCH  18  20
ENDBRANCH  15  16
ENDBRANCH  10  11
BRANCH  10  23
ATOM     23  C   UNL     1       7.535  -5.181  -2.499  1.00  0.00     0.015 C 
ATOM     24  C   UNL     1       6.152  -5.530  -3.076  1.00  0.00     0.010 C 
BRANCH  23  25
ATOM     25  C   UNL     1       8.606  -5.459  -3.578  1.00  0.00     0.002 C 
ATOM     26  C   UNL     1       8.153  -5.138  -4.996  1.00  0.00     0.004 C 
ENDBRANCH  23  25
ENDBRANCH  10  23
ENDBRANCH   7  10
ENDBRANCH   4   6
BRANCH   3  27
ATOM     27  C   UNL     1       2.962   1.321  -1.625  1.00  0.00     0.171 C 
BRANCH  27  28
ATOM     28  N   UNL     1       2.818   0.875  -0.244  1.00  0.00    -0.342 N 
ATOM     29  C   UNL     1       1.594   0.630   0.339  1.00  0.00     0.245 C 
ATOM     30  O   UNL     1       0.532   0.754  -0.268  1.00  0.00    -0.273 OA
ATOM     31  H   UNL     1       3.657   0.640   0.286  1.00  0.00     0.164 HD
BRANCH  29  32
ATOM     32  C   UNL     1       1.648   0.042   1.765  1.00  0.00     0.200 C 
BRANCH  32  33
ATOM     33  N   UNL     1       3.057  -0.154   2.129  1.00  0.00    -0.340 N 
ATOM     34  C   UNL     1       3.422  -1.023   3.136  1.00  0.00     0.243 CG0
ATOM     35  O   UNL     1       2.587  -1.621   3.813  1.00  0.00    -0.273 OA
ATOM     36  H   UNL     1       3.767   0.349   1.609  1.00  0.00     0.164 HD
ATOM     37  G   UNL     1       4.914  -1.027   3.505  1.00  0.00     0.000 G0
ENDBRANCH  32  33
BRANCH  32  38
ATOM     38  C   UNL     1       0.883   0.930   2.772  1.00  0.00     0.143 C 
ATOM     39  C   UNL     1       1.629   2.195   3.180  1.00  0.00     0.041 C 
BRANCH  38  40
ATOM     40  O   UNL     1      -0.400   1.299   2.228  1.00  0.00    -0.391 OA
ATOM     41  H   UNL     1      -0.222   1.799   1.409  1.00  0.00     0.211 HD
ENDBRANCH  38  40
ENDBRANCH  32  38
ENDBRANCH  29  32
ENDBRANCH  27  28
BRANCH  27  42
ATOM     42  C   UNL     1       3.441   2.791  -1.702  1.00  0.00     0.015 C 
ATOM     43  C   UNL     1       4.579   3.166  -0.746  1.00  0.00     0.010 C 
ATOM     44  C   UNL     1       3.793   3.205  -3.135  1.00  0.00     0.010 C 
ENDBRANCH  27  42
ENDBRANCH   3  27
TORSDOF 5
ENDMDL
MODEL 10
REMARK VINA RESULT:    -4.235      5.025      7.304
REMARK INTER + INTRA:          -9.917
REMARK INTER:                  -7.319
REMARK INTRA:                  -2.598
REMARK UNBOUND:                -2.340
REMARK SMILES CC[C@H](C)[C@H]1NC(=O)c2coc(n2)[C@H](C(C)C)NC(=O)[C@H]([C@@H](C)O)NC(=O)[C@H](C)NC(=O)c2csc1n2
REMARK SMILES IDX 11 1 13 2 12 3 9 4 10 5 7 6 6 7 8 8 5 10 36 11 35 12 34 13
REMARK SMILES IDX 37 14 33 15 31 16 32 17 30 18 28 20 29 21 3 23 4 24 2 25
REMARK SMILES IDX 1 26 14 27 18 28 19 29 20 30 21 32 25 33 26 34 27 35 22 38
REMARK SMILES IDX 23 39 24 40 15 42 16 43 17 44
REMARK H PARENT 6 9 30 19 18 31 25 36 24 41
REMARK Flexibility Score:   94.900
ROOT
ATOM      1  O   UNL     1       7.962  -0.365  -7.995  1.00  0.00    -0.446 OA
ATOM      2  N   UNL     1       6.769  -1.579  -6.518  1.00  0.00    -0.207 NA
ATOM      3  C   UNL     1       6.728  -0.761  -7.554  1.00  0.00     0.217 A 
ATOM      4  C   UNL     1       8.121  -1.754  -6.278  1.00  0.00     0.167 A 
ATOM      5  C   UNL     1       8.842  -1.013  -7.181  1.00  0.00     0.231 A 
ENDROOT
BRANCH   4   6
ATOM      6  C   UNL     1       8.634  -2.581  -5.200  1.00  0.00     0.273 C 
ATOM      7  N   UNL     1       7.711  -3.506  -4.783  1.00  0.00    -0.341 N 
ATOM      8  O   UNL     1       9.750  -2.443  -4.712  1.00  0.00    -0.267 OA
ATOM      9  H   UNL     1       6.795  -3.441  -5.217  1.00  0.00     0.164 HD
BRANCH   7  10
ATOM     10  C   UNL     1       7.864  -4.287  -3.571  1.00  0.00     0.145 C 
BRANCH  10  11
ATOM     11  C   UNL     1       6.651  -4.016  -2.692  1.00  0.00     0.116 A 
ATOM     12  S   UNL     1       6.054  -5.255  -1.654  1.00  0.00    -0.124 S 
ATOM     13  C   UNL     1       4.851  -4.184  -1.081  1.00  0.00     0.101 A 
ATOM     14  N   UNL     1       5.995  -2.868  -2.639  1.00  0.00    -0.234 NA
ATOM     15  C   UNL     1       4.966  -2.953  -1.698  1.00  0.00     0.139 A 
BRANCH  15  16
ATOM     16  C   UNL     1       4.097  -1.812  -1.403  1.00  0.00     0.271 C 
ATOM     17  O   UNL     1       3.109  -1.897  -0.682  1.00  0.00    -0.267 OA
ATOM     18  N   UNL     1       4.499  -0.642  -2.011  1.00  0.00    -0.339 N 
ATOM     19  H   UNL     1       5.267  -0.725  -2.672  1.00  0.00     0.164 HD
BRANCH  18  20
ATOM     20  C   UNL     1       3.718   0.581  -1.885  1.00  0.00     0.168 CG0
ATOM     21  C   UNL     1       4.608   1.777  -1.539  1.00  0.00     0.041 C 
ATOM     22  G   UNL     1       2.944   0.927  -3.168  1.00  0.00     0.000 G0
ENDBRANCH  18  20
ENDBRANCH  15  16
ENDBRANCH  10  11
BRANCH  10  23
ATOM     23  C   UNL     1       8.053  -5.798  -3.867  1.00  0.00     0.015 C 
ATOM     24  C   UNL     1       7.308  -6.270  -5.128  1.00  0.00     0.010 C 
BRANCH  23  25
ATOM     25  C   UNL     1       9.540  -6.202  -3.991  1.00  0.00     0.002 C 
ATOM     26  C   UNL     1      10.406  -5.734  -2.830  1.00  0.00     0.004 C 
ENDBRANCH  23  25
ENDBRANCH  10  23
ENDBRANCH   7  10
ENDBRANCH   4   6
BRANCH   3  27
ATOM     27  C   UNL     1       5.500  -0.209  -8.226  1.00  0.00     0.171 C 
BRANCH  27  28
ATOM     28  N   UNL     1       4.822   0.661  -7.271  1.00  0.00    -0.342 N 
ATOM     29  C   UNL     1       3.608   0.345  -6.703  1.00  0.00     0.245 C 
ATOM     30  O   UNL     1       3.012  -0.702  -6.947  1.00  0.00    -0.273 OA
ATOM     31  H   UNL     1       5.308   1.492  -6.934  1.00  0.00     0.164 HD
BRANCH  29  32
ATOM     32  C   UNL     1       3.111   1.327  -5.620  1.00  0.00     0.200 C 
BRANCH  32  33
ATOM     33  N   UNL     1       3.692   0.925  -4.333  1.00  0.00    -0.340 N 
ATOM     34  C   UNL     1       2.938   0.918  -3.178  1.00  0.00     0.243 CG0
ATOM     35  O   UNL     1       1.771   1.305  -3.162  1.00  0.00    -0.273 OA
ATOM     36  H   UNL     1       4.661   0.630  -4.310  1.00  0.00     0.164 HD
ATOM     37  G   UNL     1       3.706   0.611  -1.883  1.00  0.00     0.000 G0
ENDBRANCH  32  33
BRANCH  32  38
ATOM     38  C   UNL     1       3.431   2.792  -5.996  1.00  0.00     0.143 C 
ATOM     39  C   UNL     1       2.316   3.777  -5.665  1.00  0.00     0.041 C 
BRANCH  38  40
ATOM     40  O   UNL     1       4.640   3.217  -5.337  1.00  0.00    -0.391 OA
ATOM     41  H   UNL     1       4.802   4.138  -5.617  1.00  0.00     0.211 HD
ENDBRANCH  38  40
ENDBRANCH  32  38
ENDBRANCH  29  32
ENDBRANCH  27  28
BRANCH  27  42
ATOM     42  C   UNL     1       5.688   0.486  -9.596  1.00  0.00     0.015 C 
ATOM     43  C   UNL     1       4.693   0.076 -10.688  1.00  0.00     0.010 C 
ATOM     44  C   UNL     1       5.732   2.012  -9.463  1.00  0.00     0.010 C 
ENDBRANCH  27  42
ENDBRANCH   3  27
TORSDOF 5
ENDMDL
