MODEL 1
REMARK VINA RESULT:    -4.951      0.000      0.000
REMARK INTER + INTRA:          -9.736
REMARK INTER:                  -8.425
REMARK INTRA:                  -1.312
REMARK UNBOUND:                -1.312
REMARK SMILES CC[C@H](C)[C@@H]1NC(=O)[C@H]2CSC(=N2)[C@@H]([C@@H](C)CC)NC(=O)c2csc(n2)CNC(=O)[C@H]2N=C1O[C@@H]2C
REMARK SMILES IDX 27 1 25 2 22 3 26 4 23 5 24 6 20 7 19 8 21 9 14 11 12 12
REMARK SMILES IDX 11 13 10 14 13 15 9 16 15 18 16 19 17 20 18 21 28 22 29 23
REMARK SMILES IDX 30 24 31 26 32 27 35 28 33 29 34 30 36 31 5 32 6 33 7 34
REMARK SMILES IDX 8 35 3 38 4 39 2 40 1 41
REMARK H PARENT 19 10 28 25 6 36
REMARK Flexibility Score:   91.900
ROOT
ATOM      1  C   UNL     1      -3.955  -0.070  -5.845  1.00  0.00     0.183 C 
ENDROOT
BRANCH   1   2
ATOM      2  C   UNL     1      -3.439  -0.597  -7.153  1.00  0.00     0.113 A 
ATOM      3  C   UNL     1      -2.492  -0.603  -9.171  1.00  0.00     0.139 A 
ATOM      4  N   UNL     1      -2.725   0.122  -8.000  1.00  0.00    -0.234 NA
ATOM      5  C   UNL     1      -2.994  -1.889  -9.156  1.00  0.00     0.101 A 
ATOM      6  S   UNL     1      -3.791  -2.196  -7.668  1.00  0.00    -0.125 S 
BRANCH   3   7
ATOM      7  C   UNL     1      -1.803   0.028 -10.299  1.00  0.00     0.271 C 
ATOM      8  N   UNL     1      -0.442   0.039 -10.118  1.00  0.00    -0.341 N 
ATOM      9  O   UNL     1      -2.380   0.514 -11.263  1.00  0.00    -0.267 OA
ATOM     10  H   UNL     1      -0.106  -0.426  -9.275  1.00  0.00     0.164 HD
BRANCH   8  11
ATOM     11  C   UNL     1       0.490   0.757 -10.971  1.00  0.00     0.140 C 
BRANCH  11  12
ATOM     12  C   UNL     1       1.503   1.467 -10.068  1.00  0.00     0.091 C 
ATOM     13  S   UNL     1       2.987   0.669  -9.601  1.00  0.00    -0.106 SA
ATOM     14  C   UNL     1       3.635   2.225  -8.956  1.00  0.00     0.113 C 
ATOM     15  N   UNL     1       1.271   2.637  -9.562  1.00  0.00    -0.267 NA
ATOM     16  C   UNL     1       2.383   3.028  -8.640  1.00  0.00     0.205 CG0
ATOM     17  G   UNL     1       1.971   2.837  -7.171  1.00  0.00     0.000 G0
ENDBRANCH  11  12
BRANCH  11  18
ATOM     18  C   UNL     1       1.075  -0.097 -12.125  1.00  0.00     0.015 C 
ATOM     19  C   UNL     1       2.220   0.653 -12.819  1.00  0.00     0.010 C 
BRANCH  18  20
ATOM     20  C   UNL     1       1.500  -1.523 -11.720  1.00  0.00     0.002 C 
ATOM     21  C   UNL     1       0.577  -2.600 -12.279  1.00  0.00     0.004 C 
ENDBRANCH  18  20
ENDBRANCH  11  18
ENDBRANCH   8  11
ENDBRANCH   3   7
ENDBRANCH   1   2
BRANCH   1  22
ATOM     22  N   UNL     1      -3.481   1.289  -5.708  1.00  0.00    -0.348 N 
ATOM     23  C   UNL     1      -3.118   1.872  -4.524  1.00  0.00     0.249 C 
ATOM     24  O   UNL     1      -3.080   1.266  -3.460  1.00  0.00    -0.272 OA
ATOM     25  H   UNL     1      -3.493   1.892  -6.530  1.00  0.00     0.163 HD
BRANCH  23  26
ATOM     26  C   UNL     1      -2.709   3.344  -4.687  1.00  0.00     0.238 C 
ATOM     27  N   UNL     1      -1.347   3.541  -4.119  1.00  0.00    -0.236 NA
ATOM     28  C   UNL     1      -2.603   3.747  -6.148  1.00  0.00     0.206 C 
ATOM     29  C   UNL     1      -0.616   3.768  -5.169  1.00  0.00     0.208 C 
ATOM     30  O   UNL     1      -1.198   3.791  -6.394  1.00  0.00    -0.474 OA
ATOM     31  C   UNL     1      -3.187   5.127  -6.417  1.00  0.00     0.056 C 
BRANCH  29  32
ATOM     32  C   UNL     1       0.896   3.970  -5.193  1.00  0.00     0.171 C 
BRANCH  32  33
ATOM     33  N   UNL     1       1.401   3.957  -6.557  1.00  0.00    -0.342 N 
ATOM     34  C   UNL     1       1.951   2.837  -7.133  1.00  0.00     0.246 CG0
ATOM     35  O   UNL     1       2.081   1.771  -6.535  1.00  0.00    -0.273 OA
ATOM     36  H   UNL     1       1.398   4.797  -7.125  1.00  0.00     0.164 HD
ATOM     37  G   UNL     1       2.369   3.015  -8.601  1.00  0.00     0.000 G0
ENDBRANCH  32  33
BRANCH  32  38
ATOM     38  C   UNL     1       1.282   5.264  -4.428  1.00  0.00     0.017 C 
ATOM     39  C   UNL     1       2.448   4.983  -3.472  1.00  0.00     0.010 C 
BRANCH  38  40
ATOM     40  C   UNL     1       1.592   6.451  -5.370  1.00  0.00     0.002 C 
ATOM     41  C   UNL     1       0.375   7.308  -5.691  1.00  0.00     0.004 C 
ENDBRANCH  38  40
ENDBRANCH  32  38
ENDBRANCH  29  32
ENDBRANCH  23  26
ENDBRANCH   1  22
TORSDOF 4
ENDMDL
MODEL 2
REMARK VINA RESULT:    -4.924      2.307      6.014
REMARK INTER + INTRA:          -9.689
REMARK INTER:                  -8.004
REMARK INTRA:                  -1.685
REMARK UNBOUND:                -1.312
REMARK SMILES CC[C@H](C)[C@@H]1NC(=O)[C@H]2CSC(=N2)[C@@H]([C@@H](C)CC)NC(=O)c2csc(n2)CNC(=O)[C@H]2N=C1O[C@@H]2C
REMARK SMILES IDX 27 1 25 2 22 3 26 4 23 5 24 6 20 7 19 8 21 9 14 11 12 12
REMARK SMILES IDX 11 13 10 14 13 15 9 16 15 18 16 19 17 20 18 21 28 22 29 23
REMARK SMILES IDX 30 24 31 26 32 27 35 28 33 29 34 30 36 31 5 32 6 33 7 34
REMARK SMILES IDX 8 35 3 38 4 39 2 40 1 41
REMARK H PARENT 19 10 28 25 6 36
REMARK Flexibility Score:   91.900
ROOT
ATOM      1  C   UNL     1      -1.363   5.291  -6.015  1.00  0.00     0.183 C 
ENDROOT
BRANCH   1   2
ATOM      2  C   UNL     1       0.072   4.912  -5.785  1.00  0.00     0.113 A 
ATOM      3  C   UNL     1       2.077   4.016  -6.160  1.00  0.00     0.139 A 
ATOM      4  N   UNL     1       0.837   4.354  -6.705  1.00  0.00    -0.234 NA
ATOM      5  C   UNL     1       2.242   4.385  -4.840  1.00  0.00     0.101 A 
ATOM      6  S   UNL     1       0.818   5.145  -4.257  1.00  0.00    -0.125 S 
BRANCH   3   7
ATOM      7  C   UNL     1       3.060   3.291  -6.969  1.00  0.00     0.271 C 
ATOM      8  N   UNL     1       2.638   3.145  -8.267  1.00  0.00    -0.341 N 
ATOM      9  O   UNL     1       4.110   2.845  -6.525  1.00  0.00    -0.267 OA
ATOM     10  H   UNL     1       1.751   3.592  -8.495  1.00  0.00     0.164 HD
BRANCH   8  11
ATOM     11  C   UNL     1       3.307   2.315  -9.256  1.00  0.00     0.140 C 
BRANCH  11  12
ATOM     12  C   UNL     1       2.412   1.104  -9.536  1.00  0.00     0.091 C 
ATOM     13  S   UNL     1       2.340   0.405 -11.136  1.00  0.00    -0.106 SA
ATOM     14  C   UNL     1       1.454  -1.027 -10.484  1.00  0.00     0.113 C 
ATOM     15  N   UNL     1       1.629   0.605  -8.631  1.00  0.00    -0.267 NA
ATOM     16  C   UNL     1       0.801  -0.494  -9.219  1.00  0.00     0.205 CG0
ATOM     17  G   UNL     1      -0.629  -0.009  -9.508  1.00  0.00     0.000 G0
ENDBRANCH  11  12
BRANCH  11  18
ATOM     18  C   UNL     1       3.817   3.096 -10.494  1.00  0.00     0.015 C 
ATOM     19  C   UNL     1       2.907   4.299 -10.780  1.00  0.00     0.010 C 
BRANCH  18  20
ATOM     20  C   UNL     1       5.300   3.515 -10.427  1.00  0.00     0.002 C 
ATOM     21  C   UNL     1       6.084   2.758  -9.360  1.00  0.00     0.004 C 
ENDBRANCH  18  20
ENDBRANCH  11  18
ENDBRANCH   8  11
ENDBRANCH   3   7
ENDBRANCH   1   2
BRANCH   1  22
ATOM     22  N   UNL     1      -2.141   4.073  -5.994  1.00  0.00    -0.348 N 
ATOM     23  C   UNL     1      -3.485   4.011  -5.741  1.00  0.00     0.249 C 
ATOM     24  O   UNL     1      -4.187   5.004  -5.588  1.00  0.00    -0.272 OA
ATOM     25  H   UNL     1      -1.652   3.184  -6.088  1.00  0.00     0.163 HD
BRANCH  23  26
ATOM     26  C   UNL     1      -4.022   2.572  -5.731  1.00  0.00     0.238 C 
ATOM     27  N   UNL     1      -4.163   2.090  -7.133  1.00  0.00    -0.236 NA
ATOM     28  C   UNL     1      -3.055   1.608  -5.065  1.00  0.00     0.206 C 
ATOM     29  C   UNL     1      -3.236   1.185  -7.232  1.00  0.00     0.208 C 
ATOM     30  O   UNL     1      -2.460   0.906  -6.156  1.00  0.00    -0.474 OA
ATOM     31  C   UNL     1      -3.759   0.601  -4.166  1.00  0.00     0.056 C 
BRANCH  29  32
ATOM     32  C   UNL     1      -2.868   0.399  -8.488  1.00  0.00     0.171 C 
BRANCH  32  33
ATOM     33  N   UNL     1      -1.490  -0.060  -8.428  1.00  0.00    -0.342 N 
ATOM     34  C   UNL     1      -0.645  -0.010  -9.511  1.00  0.00     0.246 CG0
ATOM     35  O   UNL     1      -0.994   0.400 -10.615  1.00  0.00    -0.273 OA
ATOM     36  H   UNL     1      -1.110  -0.472  -7.583  1.00  0.00     0.164 HD
ATOM     37  G   UNL     1       0.788  -0.488  -9.224  1.00  0.00     0.000 G0
ENDBRANCH  32  33
BRANCH  32  38
ATOM     38  C   UNL     1      -3.872  -0.762  -8.714  1.00  0.00     0.017 C 
ATOM     39  C   UNL     1      -4.660  -0.532 -10.010  1.00  0.00     0.010 C 
BRANCH  38  40
ATOM     40  C   UNL     1      -3.198  -2.153  -8.698  1.00  0.00     0.002 C 
ATOM     41  C   UNL     1      -3.187  -2.809  -7.323  1.00  0.00     0.004 C 
ENDBRANCH  38  40
ENDBRANCH  32  38
ENDBRANCH  29  32
ENDBRANCH  23  26
ENDBRANCH   1  22
TORSDOF 4
ENDMDL
MODEL 3
REMARK VINA RESULT:    -4.391      1.444      1.770
REMARK INTER + INTRA:          -8.783
REMARK INTER:                  -7.791
REMARK INTRA:                  -0.992
REMARK UNBOUND:                -1.312
REMARK SMILES CC[C@H](C)[C@@H]1NC(=O)[C@H]2CSC(=N2)[C@@H]([C@@H](C)CC)NC(=O)c2csc(n2)CNC(=O)[C@H]2N=C1O[C@@H]2C
REMARK SMILES IDX 27 1 25 2 22 3 26 4 23 5 24 6 20 7 19 8 21 9 14 11 12 12
REMARK SMILES IDX 11 13 10 14 13 15 9 16 15 18 16 19 17 20 18 21 28 22 29 23
REMARK SMILES IDX 30 24 31 26 32 27 35 28 33 29 34 30 36 31 5 32 6 33 7 34
REMARK SMILES IDX 8 35 3 38 4 39 2 40 1 41
REMARK H PARENT 19 10 28 25 6 36
REMARK Flexibility Score:   91.900
ROOT
ATOM      1  C   UNL     1      -4.213  -0.404  -6.662  1.00  0.00     0.183 C 
ENDROOT
BRANCH   1   2
ATOM      2  C   UNL     1      -3.210  -0.715  -7.736  1.00  0.00     0.113 A 
ATOM      3  C   UNL     1      -1.349  -0.575  -8.955  1.00  0.00     0.139 A 
ATOM      4  N   UNL     1      -2.002  -0.184  -7.784  1.00  0.00    -0.234 NA
ATOM      5  C   UNL     1      -2.068  -1.450  -9.745  1.00  0.00     0.101 A 
ATOM      6  S   UNL     1      -3.596  -1.773  -9.031  1.00  0.00    -0.125 S 
BRANCH   3   7
ATOM      7  C   UNL     1      -0.029  -0.029  -9.275  1.00  0.00     0.271 C 
ATOM      8  N   UNL     1      -0.124   1.145  -9.982  1.00  0.00    -0.341 N 
ATOM      9  O   UNL     1       1.025  -0.576  -8.976  1.00  0.00    -0.267 OA
ATOM     10  H   UNL     1      -1.071   1.490 -10.136  1.00  0.00     0.164 HD
BRANCH   8  11
ATOM     11  C   UNL     1       1.005   1.821 -10.599  1.00  0.00     0.140 C 
BRANCH  11  12
ATOM     12  C   UNL     1       1.789   2.532  -9.492  1.00  0.00     0.091 C 
ATOM     13  S   UNL     1       3.372   1.959  -9.019  1.00  0.00    -0.106 SA
ATOM     14  C   UNL     1       3.643   3.465  -8.059  1.00  0.00     0.113 C 
ATOM     15  N   UNL     1       1.289   3.522  -8.823  1.00  0.00    -0.267 NA
ATOM     16  C   UNL     1       2.234   3.942  -7.741  1.00  0.00     0.205 CG0
ATOM     17  G   UNL     1       1.775   3.408  -6.375  1.00  0.00     0.000 G0
ENDBRANCH  11  12
BRANCH  11  18
ATOM     18  C   UNL     1       1.827   0.925 -11.560  1.00  0.00     0.015 C 
ATOM     19  C   UNL     1       0.939   0.404 -12.698  1.00  0.00     0.010 C 
BRANCH  18  20
ATOM     20  C   UNL     1       3.115   1.576 -12.105  1.00  0.00     0.002 C 
ATOM     21  C   UNL     1       2.843   2.794 -12.980  1.00  0.00     0.004 C 
ENDBRANCH  18  20
ENDBRANCH  11  18
ENDBRANCH   8  11
ENDBRANCH   3   7
ENDBRANCH   1   2
BRANCH   1  22
ATOM     22  N   UNL     1      -3.902   0.910  -6.147  1.00  0.00    -0.348 N 
ATOM     23  C   UNL     1      -3.636   1.190  -4.834  1.00  0.00     0.249 C 
ATOM     24  O   UNL     1      -3.550   0.328  -3.967  1.00  0.00    -0.272 OA
ATOM     25  H   UNL     1      -3.966   1.707  -6.780  1.00  0.00     0.163 HD
BRANCH  23  26
ATOM     26  C   UNL     1      -3.397   2.686  -4.581  1.00  0.00     0.238 C 
ATOM     27  N   UNL     1      -2.112   2.861  -3.847  1.00  0.00    -0.236 NA
ATOM     28  C   UNL     1      -3.235   3.463  -5.876  1.00  0.00     0.206 C 
ATOM     29  C   UNL     1      -1.341   3.424  -4.729  1.00  0.00     0.208 C 
ATOM     30  O   UNL     1      -1.831   3.707  -5.960  1.00  0.00    -0.474 OA
ATOM     31  C   UNL     1      -3.960   4.802  -5.849  1.00  0.00     0.056 C 
BRANCH  29  32
ATOM     32  C   UNL     1       0.134   3.773  -4.548  1.00  0.00     0.171 C 
BRANCH  32  33
ATOM     33  N   UNL     1       0.743   4.129  -5.820  1.00  0.00    -0.342 N 
ATOM     34  C   UNL     1       1.791   3.425  -6.363  1.00  0.00     0.246 CG0
ATOM     35  O   UNL     1       2.310   2.461  -5.807  1.00  0.00    -0.273 OA
ATOM     36  H   UNL     1       0.434   4.944  -6.340  1.00  0.00     0.164 HD
ATOM     37  G   UNL     1       2.250   3.928  -7.742  1.00  0.00     0.000 G0
ENDBRANCH  32  33
BRANCH  32  38
ATOM     38  C   UNL     1       0.302   4.883  -3.477  1.00  0.00     0.017 C 
ATOM     39  C   UNL     1       1.554   4.615  -2.633  1.00  0.00     0.010 C 
BRANCH  38  40
ATOM     40  C   UNL     1       0.316   6.306  -4.081  1.00  0.00     0.002 C 
ATOM     41  C   UNL     1      -0.753   7.224  -3.502  1.00  0.00     0.004 C 
ENDBRANCH  38  40
ENDBRANCH  32  38
ENDBRANCH  29  32
ENDBRANCH  23  26
ENDBRANCH   1  22
TORSDOF 4
ENDMDL
MODEL 4
REMARK VINA RESULT:    -4.267      2.125      4.197
REMARK INTER + INTRA:          -8.573
REMARK INTER:                  -6.835
REMARK INTRA:                  -1.738
REMARK UNBOUND:                -1.312
REMARK SMILES CC[C@H](C)[C@@H]1NC(=O)[C@H]2CSC(=N2)[C@@H]([C@@H](C)CC)NC(=O)c2csc(n2)CNC(=O)[C@H]2N=C1O[C@@H]2C
REMARK SMILES IDX 27 1 25 2 22 3 26 4 23 5 24 6 20 7 19 8 21 9 14 11 12 12
REMARK SMILES IDX 11 13 10 14 13 15 9 16 15 18 16 19 17 20 18 21 28 22 29 23
REMARK SMILES IDX 30 24 31 26 32 27 35 28 33 29 34 30 36 31 5 32 6 33 7 34
REMARK SMILES IDX 8 35 3 38 4 39 2 40 1 41
REMARK H PARENT 19 10 28 25 6 36
REMARK Flexibility Score:   91.900
ROOT
ATOM      1  C   UNL     1      -2.402   4.320  -4.676  1.00  0.00     0.183 C 
ENDROOT
BRANCH   1   2
ATOM      2  C   UNL     1      -2.776   3.003  -5.294  1.00  0.00     0.113 A 
ATOM      3  C   UNL     1      -3.309   1.512  -6.863  1.00  0.00     0.139 A 
ATOM      4  N   UNL     1      -2.818   2.792  -6.597  1.00  0.00    -0.234 NA
ATOM      5  C   UNL     1      -3.574   0.756  -5.738  1.00  0.00     0.101 A 
ATOM      6  S   UNL     1      -3.231   1.664  -4.322  1.00  0.00    -0.125 S 
BRANCH   3   7
ATOM      7  C   UNL     1      -3.538   1.087  -8.245  1.00  0.00     0.271 C 
ATOM      8  N   UNL     1      -2.569   0.213  -8.674  1.00  0.00    -0.341 N 
ATOM      9  O   UNL     1      -4.463   1.494  -8.938  1.00  0.00    -0.267 OA
ATOM     10  H   UNL     1      -1.875  -0.052  -7.976  1.00  0.00     0.164 HD
BRANCH   8  11
ATOM     11  C   UNL     1      -2.423  -0.234 -10.049  1.00  0.00     0.140 C 
BRANCH  11  12
ATOM     12  C   UNL     1      -1.010   0.131 -10.514  1.00  0.00     0.091 C 
ATOM     13  S   UNL     1       0.011  -1.066 -11.276  1.00  0.00    -0.106 SA
ATOM     14  C   UNL     1       1.173   0.224 -11.773  1.00  0.00     0.113 C 
ATOM     15  N   UNL     1      -0.497   1.302 -10.297  1.00  0.00    -0.267 NA
ATOM     16  C   UNL     1       0.925   1.334 -10.763  1.00  0.00     0.205 CG0
ATOM     17  G   UNL     1       1.894   1.216  -9.576  1.00  0.00     0.000 G0
ENDBRANCH  11  12
BRANCH  11  18
ATOM     18  C   UNL     1      -2.868  -1.700 -10.286  1.00  0.00     0.015 C 
ATOM     19  C   UNL     1      -3.117  -2.407  -8.946  1.00  0.00     0.010 C 
BRANCH  18  20
ATOM     20  C   UNL     1      -4.069  -1.863 -11.240  1.00  0.00     0.002 C 
ATOM     21  C   UNL     1      -4.485  -0.553 -11.901  1.00  0.00     0.004 C 
ENDBRANCH  18  20
ENDBRANCH  11  18
ENDBRANCH   8  11
ENDBRANCH   3   7
ENDBRANCH   1   2
BRANCH   1  22
ATOM     22  N   UNL     1      -1.021   4.580  -5.018  1.00  0.00    -0.348 N 
ATOM     23  C   UNL     1       0.057   4.066  -4.351  1.00  0.00     0.249 C 
ATOM     24  O   UNL     1      -0.042   3.254  -3.437  1.00  0.00    -0.272 OA
ATOM     25  H   UNL     1      -0.823   5.261  -5.750  1.00  0.00     0.163 HD
BRANCH  23  26
ATOM     26  C   UNL     1       1.397   4.567  -4.910  1.00  0.00     0.238 C 
ATOM     27  N   UNL     1       2.207   3.402  -5.363  1.00  0.00    -0.236 NA
ATOM     28  C   UNL     1       1.211   5.436  -6.141  1.00  0.00     0.206 C 
ATOM     29  C   UNL     1       2.218   3.532  -6.656  1.00  0.00     0.208 C 
ATOM     30  O   UNL     1       1.583   4.586  -7.225  1.00  0.00    -0.474 OA
ATOM     31  C   UNL     1       2.125   6.653  -6.142  1.00  0.00     0.056 C 
BRANCH  29  32
ATOM     32  C   UNL     1       2.849   2.567  -7.656  1.00  0.00     0.171 C 
BRANCH  32  33
ATOM     33  N   UNL     1       2.021   2.439  -8.846  1.00  0.00    -0.342 N 
ATOM     34  C   UNL     1       1.914   1.264  -9.551  1.00  0.00     0.246 CG0
ATOM     35  O   UNL     1       2.525   0.243  -9.247  1.00  0.00    -0.273 OA
ATOM     36  H   UNL     1       1.518   3.235  -9.222  1.00  0.00     0.164 HD
ATOM     37  G   UNL     1       0.943   1.322 -10.742  1.00  0.00     0.000 G0
ENDBRANCH  32  33
BRANCH  32  38
ATOM     38  C   UNL     1       4.302   3.000  -7.986  1.00  0.00     0.017 C 
ATOM     39  C   UNL     1       4.292   4.133  -9.021  1.00  0.00     0.010 C 
BRANCH  38  40
ATOM     40  C   UNL     1       5.116   3.384  -6.730  1.00  0.00     0.002 C 
ATOM     41  C   UNL     1       6.480   3.983  -7.047  1.00  0.00     0.004 C 
ENDBRANCH  38  40
ENDBRANCH  32  38
ENDBRANCH  29  32
ENDBRANCH  23  26
ENDBRANCH   1  22
TORSDOF 4
ENDMDL
MODEL 5
REMARK VINA RESULT:    -4.246      2.616      6.312
REMARK INTER + INTRA:          -8.536
REMARK INTER:                  -7.122
REMARK INTRA:                  -1.413
REMARK UNBOUND:                -1.312
REMARK SMILES CC[C@H](C)[C@@H]1NC(=O)[C@H]2CSC(=N2)[C@@H]([C@@H](C)CC)NC(=O)c2csc(n2)CNC(=O)[C@H]2N=C1O[C@@H]2C
REMARK SMILES IDX 27 1 25 2 22 3 26 4 23 5 24 6 20 7 19 8 21 9 14 11 12 12
REMARK SMILES IDX 11 13 10 14 13 15 9 16 15 18 16 19 17 20 18 21 28 22 29 23
REMARK SMILES IDX 30 24 31 26 32 27 35 28 33 29 34 30 36 31 5 32 6 33 7 34
REMARK SMILES IDX 8 35 3 38 4 39 2 40 1 41
REMARK H PARENT 19 10 28 25 6 36
REMARK Flexibility Score:   91.900
ROOT
ATOM      1  C   UNL     1      -3.675   6.135  -6.537  1.00  0.00     0.183 C 
ENDROOT
BRANCH   1   2
ATOM      2  C   UNL     1      -2.249   6.342  -6.115  1.00  0.00     0.113 A 
ATOM      3  C   UNL     1      -0.151   5.853  -5.543  1.00  0.00     0.139 A 
ATOM      4  N   UNL     1      -1.347   5.379  -6.086  1.00  0.00    -0.234 NA
ATOM      5  C   UNL     1      -0.161   7.197  -5.225  1.00  0.00     0.101 A 
ATOM      6  S   UNL     1      -1.695   7.878  -5.584  1.00  0.00    -0.125 S 
BRANCH   3   7
ATOM      7  C   UNL     1       0.967   4.935  -5.319  1.00  0.00     0.271 C 
ATOM      8  N   UNL     1       1.796   4.871  -6.412  1.00  0.00    -0.341 N 
ATOM      9  O   UNL     1       1.117   4.283  -4.293  1.00  0.00    -0.267 OA
ATOM     10  H   UNL     1       1.556   5.491  -7.184  1.00  0.00     0.164 HD
BRANCH   8  11
ATOM     11  C   UNL     1       2.880   3.913  -6.560  1.00  0.00     0.140 C 
BRANCH  11  12
ATOM     12  C   UNL     1       2.456   2.884  -7.612  1.00  0.00     0.091 C 
ATOM     13  S   UNL     1       2.918   3.085  -9.286  1.00  0.00    -0.106 SA
ATOM     14  C   UNL     1       2.380   1.400  -9.650  1.00  0.00     0.113 C 
ATOM     15  N   UNL     1       1.689   1.880  -7.322  1.00  0.00    -0.267 NA
ATOM     16  C   UNL     1       1.357   1.111  -8.562  1.00  0.00     0.205 CG0
ATOM     17  G   UNL     1      -0.063   1.442  -9.049  1.00  0.00     0.000 G0
ENDBRANCH  11  12
BRANCH  11  18
ATOM     18  C   UNL     1       4.274   4.563  -6.754  1.00  0.00     0.015 C 
ATOM     19  C   UNL     1       4.530   5.614  -5.666  1.00  0.00     0.010 C 
BRANCH  18  20
ATOM     20  C   UNL     1       5.443   3.563  -6.858  1.00  0.00     0.002 C 
ATOM     21  C   UNL     1       6.245   3.716  -8.145  1.00  0.00     0.004 C 
ENDBRANCH  18  20
ENDBRANCH  11  18
ENDBRANCH   8  11
ENDBRANCH   3   7
ENDBRANCH   1   2
BRANCH   1  22
ATOM     22  N   UNL     1      -3.934   4.713  -6.504  1.00  0.00    -0.348 N 
ATOM     23  C   UNL     1      -4.319   4.017  -5.390  1.00  0.00     0.249 C 
ATOM     24  O   UNL     1      -4.568   4.551  -4.316  1.00  0.00    -0.272 OA
ATOM     25  H   UNL     1      -3.736   4.164  -7.340  1.00  0.00     0.163 HD
BRANCH  23  26
ATOM     26  C   UNL     1      -4.463   2.510  -5.651  1.00  0.00     0.238 C 
ATOM     27  N   UNL     1      -4.310   2.246  -7.109  1.00  0.00    -0.236 NA
ATOM     28  C   UNL     1      -3.364   1.708  -4.975  1.00  0.00     0.206 C 
ATOM     29  C   UNL     1      -3.175   1.616  -7.179  1.00  0.00     0.208 C 
ATOM     30  O   UNL     1      -2.484   1.358  -6.042  1.00  0.00    -0.474 OA
ATOM     31  C   UNL     1      -3.884   0.428  -4.334  1.00  0.00     0.056 C 
BRANCH  29  32
ATOM     32  C   UNL     1      -2.473   1.159  -8.455  1.00  0.00     0.171 C 
BRANCH  32  33
ATOM     33  N   UNL     1      -1.058   0.923  -8.213  1.00  0.00    -0.342 N 
ATOM     34  C   UNL     1      -0.074   1.407  -9.041  1.00  0.00     0.246 CG0
ATOM     35  O   UNL     1      -0.312   2.052 -10.059  1.00  0.00    -0.273 OA
ATOM     36  H   UNL     1      -0.747   0.354  -7.433  1.00  0.00     0.164 HD
ATOM     37  G   UNL     1       1.359   1.098  -8.576  1.00  0.00     0.000 G0
ENDBRANCH  32  33
BRANCH  32  38
ATOM     38  C   UNL     1      -3.188  -0.081  -9.053  1.00  0.00     0.017 C 
ATOM     39  C   UNL     1      -3.473   0.144 -10.543  1.00  0.00     0.010 C 
BRANCH  38  40
ATOM     40  C   UNL     1      -2.413  -1.398  -8.814  1.00  0.00     0.002 C 
ATOM     41  C   UNL     1      -3.126  -2.362  -7.875  1.00  0.00     0.004 C 
ENDBRANCH  38  40
ENDBRANCH  32  38
ENDBRANCH  29  32
ENDBRANCH  23  26
ENDBRANCH   1  22
TORSDOF 4
ENDMDL
MODEL 6
REMARK VINA RESULT:    -4.145      9.414     13.456
REMARK INTER + INTRA:          -8.364
REMARK INTER:                  -7.688
REMARK INTRA:                  -0.676
REMARK UNBOUND:                -1.312
REMARK SMILES CC[C@H](C)[C@@H]1NC(=O)[C@H]2CSC(=N2)[C@@H]([C@@H](C)CC)NC(=O)c2csc(n2)CNC(=O)[C@H]2N=C1O[C@@H]2C
REMARK SMILES IDX 27 1 25 2 22 3 26 4 23 5 24 6 20 7 19 8 21 9 14 11 12 12
REMARK SMILES IDX 11 13 10 14 13 15 9 16 15 18 16 19 17 20 18 21 28 22 29 23
REMARK SMILES IDX 30 24 31 26 32 27 35 28 33 29 34 30 36 31 5 32 6 33 7 34
REMARK SMILES IDX 8 35 3 38 4 39 2 40 1 41
REMARK H PARENT 19 10 28 25 6 36
REMARK Flexibility Score:   91.900
ROOT
ATOM      1  C   UNL     1       3.642   5.458  -1.722  1.00  0.00     0.183 C 
ENDROOT
BRANCH   1   2
ATOM      2  C   UNL     1       2.721   5.844  -0.600  1.00  0.00     0.113 A 
ATOM      3  C   UNL     1       1.897   5.987   1.466  1.00  0.00     0.139 A 
ATOM      4  N   UNL     1       2.989   5.624   0.674  1.00  0.00    -0.234 NA
ATOM      5  C   UNL     1       0.840   6.534   0.766  1.00  0.00     0.101 A 
ATOM      6  S   UNL     1       1.199   6.575  -0.912  1.00  0.00    -0.125 S 
BRANCH   3   7
ATOM      7  C   UNL     1       1.924   5.740   2.909  1.00  0.00     0.271 C 
ATOM      8  N   UNL     1       0.967   4.830   3.285  1.00  0.00    -0.341 N 
ATOM      9  O   UNL     1       2.687   6.306   3.682  1.00  0.00    -0.267 OA
ATOM     10  H   UNL     1       0.421   4.426   2.525  1.00  0.00     0.164 HD
BRANCH   8  11
ATOM     11  C   UNL     1       0.627   4.524   4.664  1.00  0.00     0.140 C 
BRANCH  11  12
ATOM     12  C   UNL     1       1.924   4.174   5.401  1.00  0.00     0.091 C 
ATOM     13  S   UNL     1       2.461   5.136   6.758  1.00  0.00    -0.106 SA
ATOM     14  C   UNL     1       3.698   3.887   7.170  1.00  0.00     0.113 C 
ATOM     15  N   UNL     1       2.699   3.213   5.008  1.00  0.00    -0.267 NA
ATOM     16  C   UNL     1       3.937   3.174   5.848  1.00  0.00     0.205 CG0
ATOM     17  G   UNL     1       5.127   3.799   5.101  1.00  0.00     0.000 G0
ENDBRANCH  11  12
BRANCH  11  18
ATOM     18  C   UNL     1      -0.284   5.581   5.339  1.00  0.00     0.015 C 
ATOM     19  C   UNL     1      -1.113   6.325   4.283  1.00  0.00     0.010 C 
BRANCH  18  20
ATOM     20  C   UNL     1      -1.176   5.034   6.472  1.00  0.00     0.002 C 
ATOM     21  C   UNL     1      -1.613   6.112   7.458  1.00  0.00     0.004 C 
ENDBRANCH  18  20
ENDBRANCH  11  18
ENDBRANCH   8  11
ENDBRANCH   3   7
ENDBRANCH   1   2
BRANCH   1  22
ATOM     22  N   UNL     1       4.709   4.665  -1.153  1.00  0.00    -0.348 N 
ATOM     23  C   UNL     1       4.904   3.333  -1.396  1.00  0.00     0.249 C 
ATOM     24  O   UNL     1       4.235   2.690  -2.197  1.00  0.00    -0.272 OA
ATOM     25  H   UNL     1       5.313   5.096  -0.455  1.00  0.00     0.163 HD
BRANCH  23  26
ATOM     26  C   UNL     1       6.086   2.751  -0.605  1.00  0.00     0.238 C 
ATOM     27  N   UNL     1       6.530   3.742   0.414  1.00  0.00    -0.236 NA
ATOM     28  C   UNL     1       5.691   1.511   0.178  1.00  0.00     0.206 C 
ATOM     29  C   UNL     1       6.186   3.188   1.538  1.00  0.00     0.208 C 
ATOM     30  O   UNL     1       5.590   1.970   1.526  1.00  0.00    -0.474 OA
ATOM     31  C   UNL     1       6.749   0.418   0.115  1.00  0.00     0.056 C 
BRANCH  29  32
ATOM     32  C   UNL     1       6.334   3.797   2.930  1.00  0.00     0.171 C 
BRANCH  32  33
ATOM     33  N   UNL     1       5.319   3.279   3.834  1.00  0.00    -0.342 N 
ATOM     34  C   UNL     1       5.113   3.796   5.090  1.00  0.00     0.246 CG0
ATOM     35  O   UNL     1       5.783   4.715   5.555  1.00  0.00    -0.273 OA
ATOM     36  H   UNL     1       4.746   2.482   3.577  1.00  0.00     0.164 HD
ATOM     37  G   UNL     1       3.953   3.147   5.864  1.00  0.00     0.000 G0
ENDBRANCH  32  33
BRANCH  32  38
ATOM     38  C   UNL     1       7.774   3.581   3.466  1.00  0.00     0.017 C 
ATOM     39  C   UNL     1       8.290   2.198   3.049  1.00  0.00     0.010 C 
BRANCH  38  40
ATOM     40  C   UNL     1       8.749   4.704   3.042  1.00  0.00     0.002 C 
ATOM     41  C   UNL     1       8.613   5.974   3.871  1.00  0.00     0.004 C 
ENDBRANCH  38  40
ENDBRANCH  32  38
ENDBRANCH  29  32
ENDBRANCH  23  26
ENDBRANCH   1  22
TORSDOF 4
ENDMDL
MODEL 7
REMARK VINA RESULT:    -4.129      8.776     12.129
REMARK INTER + INTRA:          -8.337
REMARK INTER:                  -6.932
REMARK INTRA:                  -1.405
REMARK UNBOUND:                -1.312
REMARK SMILES CC[C@H](C)[C@@H]1NC(=O)[C@H]2CSC(=N2)[C@@H]([C@@H](C)CC)NC(=O)c2csc(n2)CNC(=O)[C@H]2N=C1O[C@@H]2C
REMARK SMILES IDX 27 1 25 2 22 3 26 4 23 5 24 6 20 7 19 8 21 9 14 11 12 12
REMARK SMILES IDX 11 13 10 14 13 15 9 16 15 18 16 19 17 20 18 21 28 22 29 23
REMARK SMILES IDX 30 24 31 26 32 27 35 28 33 29 34 30 36 31 5 32 6 33 7 34
REMARK SMILES IDX 8 35 3 38 4 39 2 40 1 41
REMARK H PARENT 19 10 28 25 6 36
REMARK Flexibility Score:   91.900
ROOT
ATOM      1  C   UNL     1       0.086   5.684  -1.132  1.00  0.00     0.183 C 
ENDROOT
BRANCH   1   2
ATOM      2  C   UNL     1       1.423   5.004  -1.202  1.00  0.00     0.113 A 
ATOM      3  C   UNL     1       3.511   4.447  -0.655  1.00  0.00     0.139 A 
ATOM      4  N   UNL     1       2.337   5.087  -0.253  1.00  0.00    -0.234 NA
ATOM      5  C   UNL     1       3.434   3.837  -1.892  1.00  0.00     0.101 A 
ATOM      6  S   UNL     1       1.881   4.086  -2.579  1.00  0.00    -0.125 S 
BRANCH   3   7
ATOM      7  C   UNL     1       4.701   4.494   0.197  1.00  0.00     0.271 C 
ATOM      8  N   UNL     1       4.549   3.721   1.322  1.00  0.00    -0.341 N 
ATOM      9  O   UNL     1       5.691   5.170  -0.054  1.00  0.00    -0.267 OA
ATOM     10  H   UNL     1       3.677   3.196   1.381  1.00  0.00     0.164 HD
BRANCH   8  11
ATOM     11  C   UNL     1       5.478   3.714   2.440  1.00  0.00     0.140 C 
BRANCH  11  12
ATOM     12  C   UNL     1       4.663   3.864   3.728  1.00  0.00     0.091 C 
ATOM     13  S   UNL     1       3.998   2.457   4.526  1.00  0.00    -0.106 SA
ATOM     14  C   UNL     1       3.600   3.454   5.978  1.00  0.00     0.113 C 
ATOM     15  N   UNL     1       4.377   5.024   4.229  1.00  0.00    -0.267 NA
ATOM     16  C   UNL     1       3.485   4.864   5.420  1.00  0.00     0.205 CG0
ATOM     17  G   UNL     1       2.026   5.190   5.061  1.00  0.00     0.000 G0
ENDBRANCH  11  12
BRANCH  11  18
ATOM     18  C   UNL     1       6.500   2.550   2.402  1.00  0.00     0.015 C 
ATOM     19  C   UNL     1       6.147   1.563   1.281  1.00  0.00     0.010 C 
BRANCH  18  20
ATOM     20  C   UNL     1       7.976   2.990   2.321  1.00  0.00     0.002 C 
ATOM     21  C   UNL     1       8.952   1.822   2.412  1.00  0.00     0.004 C 
ENDBRANCH  18  20
ENDBRANCH  11  18
ENDBRANCH   8  11
ENDBRANCH   3   7
ENDBRANCH   1   2
BRANCH   1  22
ATOM     22  N   UNL     1       0.171   6.700  -0.106  1.00  0.00    -0.348 N 
ATOM     23  C   UNL     1       0.306   8.040  -0.346  1.00  0.00     0.249 C 
ATOM     24  O   UNL     1       0.284   8.527  -1.471  1.00  0.00    -0.272 OA
ATOM     25  H   UNL     1       0.220   6.402   0.867  1.00  0.00     0.163 HD
BRANCH  23  26
ATOM     26  C   UNL     1       0.426   8.866   0.943  1.00  0.00     0.238 C 
ATOM     27  N   UNL     1      -0.285   8.162   2.046  1.00  0.00    -0.236 NA
ATOM     28  C   UNL     1       1.867   8.994   1.405  1.00  0.00     0.206 C 
ATOM     29  C   UNL     1       0.681   7.778   2.826  1.00  0.00     0.208 C 
ATOM     30  O   UNL     1       1.961   8.088   2.503  1.00  0.00    -0.474 OA
ATOM     31  C   UNL     1       2.201  10.395   1.900  1.00  0.00     0.056 C 
BRANCH  29  32
ATOM     32  C   UNL     1       0.541   6.937   4.091  1.00  0.00     0.171 C 
BRANCH  32  33
ATOM     33  N   UNL     1       1.838   6.453   4.539  1.00  0.00    -0.342 N 
ATOM     34  C   UNL     1       2.017   5.197   5.069  1.00  0.00     0.246 CG0
ATOM     35  O   UNL     1       1.096   4.400   5.230  1.00  0.00    -0.273 OA
ATOM     36  H   UNL     1       2.659   7.047   4.507  1.00  0.00     0.164 HD
ATOM     37  G   UNL     1       3.474   4.858   5.425  1.00  0.00     0.000 G0
ENDBRANCH  32  33
BRANCH  32  38
ATOM     38  C   UNL     1      -0.208   7.733   5.192  1.00  0.00     0.017 C 
ATOM     39  C   UNL     1      -0.844   6.768   6.200  1.00  0.00     0.010 C 
BRANCH  38  40
ATOM     40  C   UNL     1       0.688   8.780   5.894  1.00  0.00     0.002 C 
ATOM     41  C   UNL     1       0.246  10.218   5.656  1.00  0.00     0.004 C 
ENDBRANCH  38  40
ENDBRANCH  32  38
ENDBRANCH  29  32
ENDBRANCH  23  26
ENDBRANCH   1  22
TORSDOF 4
ENDMDL
MODEL 8
REMARK VINA RESULT:    -3.984      8.099     12.007
REMARK INTER + INTRA:          -8.090
REMARK INTER:                  -6.814
REMARK INTRA:                  -1.276
REMARK UNBOUND:                -1.312
REMARK SMILES CC[C@H](C)[C@@H]1NC(=O)[C@H]2CSC(=N2)[C@@H]([C@@H](C)CC)NC(=O)c2csc(n2)CNC(=O)[C@H]2N=C1O[C@@H]2C
REMARK SMILES IDX 27 1 25 2 22 3 26 4 23 5 24 6 20 7 19 8 21 9 14 11 12 12
REMARK SMILES IDX 11 13 10 14 13 15 9 16 15 18 16 19 17 20 18 21 28 22 29 23
REMARK SMILES IDX 30 24 31 26 32 27 35 28 33 29 34 30 36 31 5 32 6 33 7 34
REMARK SMILES IDX 8 35 3 38 4 39 2 40 1 41
REMARK H PARENT 19 10 28 25 6 36
REMARK Flexibility Score:   91.900
ROOT
ATOM      1  C   UNL     1       3.044   7.255  -3.661  1.00  0.00     0.183 C 
ENDROOT
BRANCH   1   2
ATOM      2  C   UNL     1       2.040   7.816  -2.695  1.00  0.00     0.113 A 
ATOM      3  C   UNL     1       0.687   7.936  -0.928  1.00  0.00     0.139 A 
ATOM      4  N   UNL     1       1.729   7.242  -1.548  1.00  0.00    -0.234 NA
ATOM      5  C   UNL     1       0.270   9.065  -1.605  1.00  0.00     0.101 A 
ATOM      6  S   UNL     1       1.175   9.255  -3.051  1.00  0.00    -0.125 S 
BRANCH   3   7
ATOM      7  C   UNL     1       0.103   7.425   0.314  1.00  0.00     0.271 C 
ATOM      8  N   UNL     1       1.059   7.235   1.281  1.00  0.00    -0.341 N 
ATOM      9  O   UNL     1      -1.086   7.171   0.453  1.00  0.00    -0.267 OA
ATOM     10  H   UNL     1       2.006   7.514   1.026  1.00  0.00     0.164 HD
BRANCH   8  11
ATOM     11  C   UNL     1       0.817   6.567   2.549  1.00  0.00     0.140 C 
BRANCH  11  12
ATOM     12  C   UNL     1       2.166   6.086   3.093  1.00  0.00     0.091 C 
ATOM     13  S   UNL     1       3.345   7.234   3.682  1.00  0.00    -0.106 SA
ATOM     14  C   UNL     1       4.317   5.889   4.394  1.00  0.00     0.113 C 
ATOM     15  N   UNL     1       2.511   4.837   3.068  1.00  0.00    -0.267 NA
ATOM     16  C   UNL     1       3.915   4.682   3.561  1.00  0.00     0.205 CG0
ATOM     17  G   UNL     1       4.889   4.480   2.389  1.00  0.00     0.000 G0
ENDBRANCH  11  12
BRANCH  11  18
ATOM     18  C   UNL     1      -0.071   7.376   3.529  1.00  0.00     0.015 C 
ATOM     19  C   UNL     1      -0.111   6.695   4.903  1.00  0.00     0.010 C 
BRANCH  18  20
ATOM     20  C   UNL     1       0.298   8.869   3.650  1.00  0.00     0.002 C 
ATOM     21  C   UNL     1      -0.081   9.468   5.000  1.00  0.00     0.004 C 
ENDBRANCH  18  20
ENDBRANCH  11  18
ENDBRANCH   8  11
ENDBRANCH   3   7
ENDBRANCH   1   2
BRANCH   1  22
ATOM     22  N   UNL     1       3.287   5.881  -3.282  1.00  0.00    -0.348 N 
ATOM     23  C   UNL     1       4.519   5.356  -2.998  1.00  0.00     0.249 C 
ATOM     24  O   UNL     1       5.542   6.030  -2.953  1.00  0.00    -0.272 OA
ATOM     25  H   UNL     1       2.506   5.226  -3.308  1.00  0.00     0.163 HD
BRANCH  23  26
ATOM     26  C   UNL     1       4.468   3.854  -2.682  1.00  0.00     0.238 C 
ATOM     27  N   UNL     1       5.598   3.504  -1.778  1.00  0.00    -0.236 NA
ATOM     28  C   UNL     1       3.208   3.474  -1.924  1.00  0.00     0.206 C 
ATOM     29  C   UNL     1       5.006   3.224  -0.655  1.00  0.00     0.208 C 
ATOM     30  O   UNL     1       3.654   3.289  -0.581  1.00  0.00    -0.474 OA
ATOM     31  C   UNL     1       2.599   2.169  -2.418  1.00  0.00     0.056 C 
BRANCH  29  32
ATOM     32  C   UNL     1       5.687   2.865   0.662  1.00  0.00     0.171 C 
BRANCH  32  33
ATOM     33  N   UNL     1       4.851   3.230   1.796  1.00  0.00    -0.342 N 
ATOM     34  C   UNL     1       4.920   4.462   2.401  1.00  0.00     0.246 CG0
ATOM     35  O   UNL     1       5.706   5.338   2.050  1.00  0.00    -0.273 OA
ATOM     36  H   UNL     1       4.206   2.564   2.207  1.00  0.00     0.164 HD
ATOM     37  G   UNL     1       3.911   4.668   3.542  1.00  0.00     0.000 G0
ENDBRANCH  32  33
BRANCH  32  38
ATOM     38  C   UNL     1       6.086   1.366   0.676  1.00  0.00     0.017 C 
ATOM     39  C   UNL     1       5.229   0.584  -0.327  1.00  0.00     0.010 C 
BRANCH  38  40
ATOM     40  C   UNL     1       7.596   1.142   0.431  1.00  0.00     0.002 C 
ATOM     41  C   UNL     1       7.921   0.670  -0.981  1.00  0.00     0.004 C 
ENDBRANCH  38  40
ENDBRANCH  32  38
ENDBRANCH  29  32
ENDBRANCH  23  26
ENDBRANCH   1  22
TORSDOF 4
ENDMDL
MODEL 9
REMARK VINA RESULT:    -3.894      1.645      2.248
REMARK INTER + INTRA:          -7.937
REMARK INTER:                  -6.247
REMARK INTRA:                  -1.690
REMARK UNBOUND:                -1.312
REMARK SMILES CC[C@H](C)[C@@H]1NC(=O)[C@H]2CSC(=N2)[C@@H]([C@@H](C)CC)NC(=O)c2csc(n2)CNC(=O)[C@H]2N=C1O[C@@H]2C
REMARK SMILES IDX 27 1 25 2 22 3 26 4 23 5 24 6 20 7 19 8 21 9 14 11 12 12
REMARK SMILES IDX 11 13 10 14 13 15 9 16 15 18 16 19 17 20 18 21 28 22 29 23
REMARK SMILES IDX 30 24 31 26 32 27 35 28 33 29 34 30 36 31 5 32 6 33 7 34
REMARK SMILES IDX 8 35 3 38 4 39 2 40 1 41
REMARK H PARENT 19 10 28 25 6 36
REMARK Flexibility Score:   91.900
ROOT
ATOM      1  C   UNL     1      -3.495   1.597  -5.300  1.00  0.00     0.183 C 
ENDROOT
BRANCH   1   2
ATOM      2  C   UNL     1      -3.299   0.642  -6.442  1.00  0.00     0.113 A 
ATOM      3  C   UNL     1      -2.785  -0.089  -8.483  1.00  0.00     0.139 A 
ATOM      4  N   UNL     1      -2.717   0.973  -7.580  1.00  0.00    -0.234 NA
ATOM      5  C   UNL     1      -3.374  -1.232  -7.979  1.00  0.00     0.101 A 
ATOM      6  S   UNL     1      -3.875  -0.973  -6.358  1.00  0.00    -0.125 S 
BRANCH   3   7
ATOM      7  C   UNL     1      -2.291   0.079  -9.852  1.00  0.00     0.271 C 
ATOM      8  N   UNL     1      -0.939   0.315  -9.876  1.00  0.00    -0.341 N 
ATOM      9  O   UNL     1      -3.010   0.047 -10.843  1.00  0.00    -0.267 OA
ATOM     10  H   UNL     1      -0.471   0.289  -8.971  1.00  0.00     0.164 HD
BRANCH   8  11
ATOM     11  C   UNL     1      -0.198   0.704 -11.065  1.00  0.00     0.140 C 
BRANCH  11  12
ATOM     12  C   UNL     1       0.750   1.842 -10.676  1.00  0.00     0.091 C 
ATOM     13  S   UNL     1       2.379   1.894 -11.306  1.00  0.00    -0.106 SA
ATOM     14  C   UNL     1       2.575   3.582 -10.695  1.00  0.00     0.113 C 
ATOM     15  N   UNL     1       0.412   2.756  -9.821  1.00  0.00    -0.267 NA
ATOM     16  C   UNL     1       1.570   3.667  -9.558  1.00  0.00     0.205 CG0
ATOM     17  G   UNL     1       2.238   3.331  -8.215  1.00  0.00     0.000 G0
ENDBRANCH  11  12
BRANCH  11  18
ATOM     18  C   UNL     1       0.432  -0.485 -11.833  1.00  0.00     0.015 C 
ATOM     19  C   UNL     1       0.978  -1.529 -10.849  1.00  0.00     0.010 C 
BRANCH  18  20
ATOM     20  C   UNL     1      -0.489  -1.132 -12.888  1.00  0.00     0.002 C 
ATOM     21  C   UNL     1      -1.033  -2.488 -12.451  1.00  0.00     0.004 C 
ENDBRANCH  18  20
ENDBRANCH  11  18
ENDBRANCH   8  11
ENDBRANCH   3   7
ENDBRANCH   1   2
BRANCH   1  22
ATOM     22  N   UNL     1      -2.207   1.795  -4.675  1.00  0.00    -0.348 N 
ATOM     23  C   UNL     1      -1.616   3.013  -4.473  1.00  0.00     0.249 C 
ATOM     24  O   UNL     1      -2.167   4.078  -4.731  1.00  0.00    -0.272 OA
ATOM     25  H   UNL     1      -1.651   0.973  -4.440  1.00  0.00     0.163 HD
BRANCH  23  26
ATOM     26  C   UNL     1      -0.223   2.902  -3.837  1.00  0.00     0.238 C 
ATOM     27  N   UNL     1       0.791   2.692  -4.908  1.00  0.00    -0.236 NA
ATOM     28  C   UNL     1       0.186   4.185  -3.136  1.00  0.00     0.206 C 
ATOM     29  C   UNL     1       1.458   3.807  -4.909  1.00  0.00     0.208 C 
ATOM     30  O   UNL     1       1.128   4.782  -4.026  1.00  0.00    -0.474 OA
ATOM     31  C   UNL     1       0.874   3.929  -1.801  1.00  0.00     0.056 C 
BRANCH  29  32
ATOM     32  C   UNL     1       2.585   4.186  -5.866  1.00  0.00     0.171 C 
BRANCH  32  33
ATOM     33  N   UNL     1       2.088   4.328  -7.225  1.00  0.00    -0.342 N 
ATOM     34  C   UNL     1       2.242   3.348  -8.177  1.00  0.00     0.246 CG0
ATOM     35  O   UNL     1       2.832   2.292  -7.962  1.00  0.00    -0.273 OA
ATOM     36  H   UNL     1       1.636   5.183  -7.531  1.00  0.00     0.164 HD
ATOM     37  G   UNL     1       1.593   3.670  -9.533  1.00  0.00     0.000 G0
ENDBRANCH  32  33
BRANCH  32  38
ATOM     38  C   UNL     1       3.318   5.458  -5.364  1.00  0.00     0.017 C 
ATOM     39  C   UNL     1       4.824   5.189  -5.252  1.00  0.00     0.010 C 
BRANCH  38  40
ATOM     40  C   UNL     1       3.025   6.703  -6.233  1.00  0.00     0.002 C 
ATOM     41  C   UNL     1       3.902   7.902  -5.894  1.00  0.00     0.004 C 
ENDBRANCH  38  40
ENDBRANCH  32  38
ENDBRANCH  29  32
ENDBRANCH  23  26
ENDBRANCH   1  22
TORSDOF 4
ENDMDL
MODEL 10
REMARK VINA RESULT:    -3.393      4.486      9.092
REMARK INTER + INTRA:          -7.085
REMARK INTER:                  -6.366
REMARK INTRA:                  -0.719
REMARK UNBOUND:                -1.312
REMARK SMILES CC[C@H](C)[C@@H]1NC(=O)[C@H]2CSC(=N2)[C@@H]([C@@H](C)CC)NC(=O)c2csc(n2)CNC(=O)[C@H]2N=C1O[C@@H]2C
REMARK SMILES IDX 27 1 25 2 22 3 26 4 23 5 24 6 20 7 19 8 21 9 14 11 12 12
REMARK SMILES IDX 11 13 10 14 13 15 9 16 15 18 16 19 17 20 18 21 28 22 29 23
REMARK SMILES IDX 30 24 31 26 32 27 35 28 33 29 34 30 36 31 5 32 6 33 7 34
REMARK SMILES IDX 8 35 3 38 4 39 2 40 1 41
REMARK H PARENT 19 10 28 25 6 36
REMARK Flexibility Score:   91.900
ROOT
ATOM      1  C   UNL     1      -1.162   9.541  -6.096  1.00  0.00     0.183 C 
ENDROOT
BRANCH   1   2
ATOM      2  C   UNL     1      -0.409   9.684  -4.804  1.00  0.00     0.113 A 
ATOM      3  C   UNL     1       0.664   9.099  -2.940  1.00  0.00     0.139 A 
ATOM      4  N   UNL     1       0.135   8.668  -4.159  1.00  0.00    -0.234 NA
ATOM      5  C   UNL     1       0.555  10.458  -2.718  1.00  0.00     0.101 A 
ATOM      6  S   UNL     1      -0.241  11.211  -4.039  1.00  0.00    -0.125 S 
BRANCH   3   7
ATOM      7  C   UNL     1       1.233   8.127  -2.004  1.00  0.00     0.271 C 
ATOM      8  N   UNL     1       0.395   7.056  -1.815  1.00  0.00    -0.341 N 
ATOM      9  O   UNL     1       2.308   8.277  -1.438  1.00  0.00    -0.267 OA
ATOM     10  H   UNL     1      -0.458   7.060  -2.374  1.00  0.00     0.164 HD
BRANCH   8  11
ATOM     11  C   UNL     1       0.598   6.027  -0.808  1.00  0.00     0.140 C 
BRANCH  11  12
ATOM     12  C   UNL     1       1.185   4.797  -1.506  1.00  0.00     0.091 C 
ATOM     13  S   UNL     1       2.795   4.845  -2.183  1.00  0.00    -0.106 SA
ATOM     14  C   UNL     1       2.769   3.053  -2.406  1.00  0.00     0.113 C 
ATOM     15  N   UNL     1       0.495   3.715  -1.684  1.00  0.00    -0.267 NA
ATOM     16  C   UNL     1       1.285   2.727  -2.485  1.00  0.00     0.205 CG0
ATOM     17  G   UNL     1       0.811   2.702  -3.947  1.00  0.00     0.000 G0
ENDBRANCH  11  12
BRANCH  11  18
ATOM     18  C   UNL     1       1.344   6.523   0.458  1.00  0.00     0.015 C 
ATOM     19  C   UNL     1       0.350   7.113   1.467  1.00  0.00     0.010 C 
BRANCH  18  20
ATOM     20  C   UNL     1       2.261   5.473   1.118  1.00  0.00     0.002 C 
ATOM     21  C   UNL     1       2.139   5.447   2.637  1.00  0.00     0.004 C 
ENDBRANCH  18  20
ENDBRANCH  11  18
ENDBRANCH   8  11
ENDBRANCH   3   7
ENDBRANCH   1   2
BRANCH   1  22
ATOM     22  N   UNL     1      -1.920   8.311  -6.021  1.00  0.00    -0.348 N 
ATOM     23  C   UNL     1      -1.542   7.127  -6.593  1.00  0.00     0.249 C 
ATOM     24  O   UNL     1      -0.468   6.968  -7.163  1.00  0.00    -0.272 OA
ATOM     25  H   UNL     1      -2.842   8.336  -5.587  1.00  0.00     0.163 HD
BRANCH  23  26
ATOM     26  C   UNL     1      -2.578   6.011  -6.391  1.00  0.00     0.238 C 
ATOM     27  N   UNL     1      -1.968   4.703  -6.757  1.00  0.00    -0.236 NA
ATOM     28  C   UNL     1      -2.990   5.875  -4.936  1.00  0.00     0.206 C 
ATOM     29  C   UNL     1      -1.864   4.093  -5.614  1.00  0.00     0.208 C 
ATOM     30  O   UNL     1      -2.301   4.708  -4.488  1.00  0.00    -0.474 OA
ATOM     31  C   UNL     1      -4.487   5.648  -4.771  1.00  0.00     0.056 C 
BRANCH  29  32
ATOM     32  C   UNL     1      -1.232   2.725  -5.373  1.00  0.00     0.171 C 
BRANCH  32  33
ATOM     33  N   UNL     1      -0.570   2.679  -4.079  1.00  0.00    -0.342 N 
ATOM     34  C   UNL     1       0.797   2.704  -3.944  1.00  0.00     0.246 CG0
ATOM     35  O   UNL     1       1.565   2.742  -4.903  1.00  0.00    -0.273 OA
ATOM     36  H   UNL     1      -1.103   2.588  -3.221  1.00  0.00     0.164 HD
ATOM     37  G   UNL     1       1.294   2.708  -2.489  1.00  0.00     0.000 G0
ENDBRANCH  32  33
BRANCH  32  38
ATOM     38  C   UNL     1      -2.289   1.601  -5.541  1.00  0.00     0.017 C 
ATOM     39  C   UNL     1      -3.184   1.530  -4.298  1.00  0.00     0.010 C 
BRANCH  38  40
ATOM     40  C   UNL     1      -3.122   1.747  -6.835  1.00  0.00     0.002 C 
ATOM     41  C   UNL     1      -2.842   0.661  -7.866  1.00  0.00     0.004 C 
ENDBRANCH  38  40
ENDBRANCH  32  38
ENDBRANCH  29  32
ENDBRANCH  23  26
ENDBRANCH   1  22
TORSDOF 4
ENDMDL
