MODEL 1
REMARK VINA RESULT:    -4.777      0.000      0.000
REMARK INTER + INTRA:         -11.132
REMARK INTER:                  -8.547
REMARK INTRA:                  -2.585
REMARK UNBOUND:                -2.585
REMARK SMILES CC[C@H](C)[C@H]1NC(=O)c2coc(n2)[C@H](C(C)C)NC(=O)[C@H]([C@@H](C)O)NC(=O)[C@H](C)NC(=O)c2csc1n2
REMARK SMILES IDX 11 1 13 2 12 3 9 4 10 5 7 6 6 7 8 8 5 10 36 11 35 12 34 13
REMARK SMILES IDX 37 14 33 15 31 16 32 17 30 18 28 20 29 21 3 23 4 24 2 25
REMARK SMILES IDX 1 26 14 27 18 28 19 29 20 30 21 32 25 33 26 34 27 35 22 38
REMARK SMILES IDX 23 39 24 40 15 42 16 43 17 44
REMARK H PARENT 6 9 30 19 18 31 25 36 24 41
REMARK Flexibility Score:   94.900
ROOT
ATOM      1  O   UNL     1      13.053   5.620  10.612  1.00  0.00    -0.446 OA
ATOM      2  N   UNL     1      14.254   4.798  12.333  1.00  0.00    -0.207 NA
ATOM      3  C   UNL     1      13.401   5.724  11.932  1.00  0.00     0.217 A 
ATOM      4  C   UNL     1      14.460   4.017  11.209  1.00  0.00     0.167 A 
ATOM      5  C   UNL     1      13.725   4.523  10.165  1.00  0.00     0.231 A 
ENDROOT
BRANCH   4   6
ATOM      6  C   UNL     1      15.353   2.872  11.192  1.00  0.00     0.273 C 
ATOM      7  N   UNL     1      14.688   1.703  11.461  1.00  0.00    -0.341 N 
ATOM      8  O   UNL     1      16.558   2.956  10.985  1.00  0.00    -0.267 OA
ATOM      9  H   UNL     1      13.706   1.800  11.703  1.00  0.00     0.164 HD
BRANCH   7  10
ATOM     10  C   UNL     1      15.367   0.454  11.748  1.00  0.00     0.145 C 
BRANCH  10  11
ATOM     11  C   UNL     1      15.167   0.152  13.226  1.00  0.00     0.116 A 
ATOM     12  S   UNL     1      15.956  -1.207  13.935  1.00  0.00    -0.124 S 
ATOM     13  C   UNL     1      15.280  -0.799  15.451  1.00  0.00     0.101 A 
ATOM     14  N   UNL     1      14.426   0.870  14.054  1.00  0.00    -0.234 NA
ATOM     15  C   UNL     1      14.501   0.337  15.343  1.00  0.00     0.139 A 
BRANCH  15  16
ATOM     16  C   UNL     1      13.806   0.956  16.474  1.00  0.00     0.271 C 
ATOM     17  O   UNL     1      13.738   0.431  17.580  1.00  0.00    -0.267 OA
ATOM     18  N   UNL     1      13.242   2.177  16.172  1.00  0.00    -0.339 N 
ATOM     19  H   UNL     1      13.272   2.451  15.193  1.00  0.00     0.164 HD
BRANCH  18  20
ATOM     20  C   UNL     1      12.454   2.908  17.155  1.00  0.00     0.168 CG0
ATOM     21  C   UNL     1      13.301   3.955  17.880  1.00  0.00     0.041 C 
ATOM     22  G   UNL     1      11.248   3.630  16.531  1.00  0.00     0.000 G0
ENDBRANCH  18  20
ENDBRANCH  15  16
ENDBRANCH  10  11
BRANCH  10  23
ATOM     23  C   UNL     1      14.877  -0.702  10.837  1.00  0.00     0.015 C 
ATOM     24  C   UNL     1      13.366  -0.964  10.944  1.00  0.00     0.010 C 
BRANCH  23  25
ATOM     25  C   UNL     1      15.238  -0.485   9.349  1.00  0.00     0.002 C 
ATOM     26  C   UNL     1      16.714  -0.204   9.105  1.00  0.00     0.004 C 
ENDBRANCH  23  25
ENDBRANCH  10  23
ENDBRANCH   7  10
ENDBRANCH   4   6
BRANCH   3  27
ATOM     27  C   UNL     1      12.848   6.861  12.747  1.00  0.00     0.171 C 
BRANCH  27  28
ATOM     28  N   UNL     1      12.233   6.296  13.943  1.00  0.00    -0.342 N 
ATOM     29  C   UNL     1      10.927   6.546  14.301  1.00  0.00     0.245 C 
ATOM     30  O   UNL     1      10.177   7.252  13.630  1.00  0.00    -0.273 OA
ATOM     31  H   UNL     1      12.757   5.611  14.486  1.00  0.00     0.164 HD
BRANCH  29  32
ATOM     32  C   UNL     1      10.417   5.758  15.526  1.00  0.00     0.200 C 
BRANCH  32  33
ATOM     33  N   UNL     1      11.502   4.889  16.000  1.00  0.00    -0.340 N 
ATOM     34  C   UNL     1      11.239   3.651  16.549  1.00  0.00     0.243 CG0
ATOM     35  O   UNL     1      10.091   3.249  16.725  1.00  0.00    -0.273 OA
ATOM     36  H   UNL     1      12.458   5.207  15.896  1.00  0.00     0.164 HD
ATOM     37  G   UNL     1      12.454   2.908  17.128  1.00  0.00     0.000 G0
ENDBRANCH  32  33
BRANCH  32  38
ATOM     38  C   UNL     1       9.880   6.705  16.624  1.00  0.00     0.143 C 
ATOM     39  C   UNL     1      10.947   7.587  17.261  1.00  0.00     0.041 C 
BRANCH  38  40
ATOM     40  O   UNL     1       8.840   7.544  16.086  1.00  0.00    -0.391 OA
ATOM     41  H   UNL     1       9.153   8.465  16.168  1.00  0.00     0.211 HD
ENDBRANCH  38  40
ENDBRANCH  32  38
ENDBRANCH  29  32
ENDBRANCH  27  28
BRANCH  27  42
ATOM     42  C   UNL     1      13.811   8.023  13.096  1.00  0.00     0.015 C 
ATOM     43  C   UNL     1      13.319   9.425  12.719  1.00  0.00     0.010 C 
ATOM     44  C   UNL     1      14.241   7.988  14.566  1.00  0.00     0.010 C 
ENDBRANCH  27  42
ENDBRANCH   3  27
TORSDOF 5
ENDMDL
MODEL 2
REMARK VINA RESULT:    -4.704      2.249      5.712
REMARK INTER + INTRA:         -11.002
REMARK INTER:                  -8.796
REMARK INTRA:                  -2.206
REMARK UNBOUND:                -2.585
REMARK SMILES CC[C@H](C)[C@H]1NC(=O)c2coc(n2)[C@H](C(C)C)NC(=O)[C@H]([C@@H](C)O)NC(=O)[C@H](C)NC(=O)c2csc1n2
REMARK SMILES IDX 11 1 13 2 12 3 9 4 10 5 7 6 6 7 8 8 5 10 36 11 35 12 34 13
REMARK SMILES IDX 37 14 33 15 31 16 32 17 30 18 28 20 29 21 3 23 4 24 2 25
REMARK SMILES IDX 1 26 14 27 18 28 19 29 20 30 21 32 25 33 26 34 27 35 22 38
REMARK SMILES IDX 23 39 24 40 15 42 16 43 17 44
REMARK H PARENT 6 9 30 19 18 31 25 36 24 41
REMARK Flexibility Score:   94.900
ROOT
ATOM      1  O   UNL     1      11.668   4.037  17.441  1.00  0.00    -0.446 OA
ATOM      2  N   UNL     1      11.604   2.825  15.541  1.00  0.00    -0.207 NA
ATOM      3  C   UNL     1      11.151   3.888  16.181  1.00  0.00     0.217 A 
ATOM      4  C   UNL     1      12.498   2.250  16.428  1.00  0.00     0.167 A 
ATOM      5  C   UNL     1      12.532   2.993  17.583  1.00  0.00     0.231 A 
ENDROOT
BRANCH   4   6
ATOM      6  C   UNL     1      13.232   1.031  16.137  1.00  0.00     0.273 C 
ATOM      7  N   UNL     1      14.586   1.248  16.095  1.00  0.00    -0.341 N 
ATOM      8  O   UNL     1      12.694  -0.051  15.931  1.00  0.00    -0.267 OA
ATOM      9  H   UNL     1      14.880   2.216  16.194  1.00  0.00     0.164 HD
BRANCH   7  10
ATOM     10  C   UNL     1      15.529   0.272  15.587  1.00  0.00     0.145 C 
BRANCH  10  11
ATOM     11  C   UNL     1      15.743   0.564  14.109  1.00  0.00     0.116 A 
ATOM     12  S   UNL     1      16.614  -0.558  13.133  1.00  0.00    -0.124 S 
ATOM     13  C   UNL     1      16.360   0.441  11.770  1.00  0.00     0.101 A 
ATOM     14  N   UNL     1      15.294   1.635  13.475  1.00  0.00    -0.234 NA
ATOM     15  C   UNL     1      15.632   1.562  12.121  1.00  0.00     0.139 A 
BRANCH  15  16
ATOM     16  C   UNL     1      15.228   2.600  11.170  1.00  0.00     0.271 C 
ATOM     17  O   UNL     1      15.610   2.619  10.005  1.00  0.00    -0.267 OA
ATOM     18  N   UNL     1      14.381   3.543  11.712  1.00  0.00    -0.339 N 
ATOM     19  H   UNL     1      14.228   3.480  12.715  1.00  0.00     0.164 HD
BRANCH  18  20
ATOM     20  C   UNL     1      13.929   4.687  10.932  1.00  0.00     0.168 CG0
ATOM     21  C   UNL     1      12.635   4.371  10.178  1.00  0.00     0.041 C 
ATOM     22  G   UNL     1      13.677   5.933  11.796  1.00  0.00     0.000 G0
ENDBRANCH  18  20
ENDBRANCH  15  16
ENDBRANCH  10  11
BRANCH  10  23
ATOM     23  C   UNL     1      16.858   0.268  16.388  1.00  0.00     0.015 C 
ATOM     24  C   UNL     1      17.379   1.679  16.709  1.00  0.00     0.010 C 
BRANCH  23  25
ATOM     25  C   UNL     1      16.760  -0.534  17.705  1.00  0.00     0.002 C 
ATOM     26  C   UNL     1      15.656  -1.582  17.710  1.00  0.00     0.004 C 
ENDBRANCH  23  25
ENDBRANCH  10  23
ENDBRANCH   7  10
ENDBRANCH   4   6
BRANCH   3  27
ATOM     27  C   UNL     1      10.125   4.872  15.691  1.00  0.00     0.171 C 
BRANCH  27  28
ATOM     28  N   UNL     1      10.667   5.531  14.508  1.00  0.00    -0.342 N 
ATOM     29  C   UNL     1      11.449   6.663  14.575  1.00  0.00     0.245 C 
ATOM     30  O   UNL     1      11.761   7.193  15.640  1.00  0.00    -0.273 OA
ATOM     31  H   UNL     1      10.547   5.084  13.599  1.00  0.00     0.164 HD
BRANCH  29  32
ATOM     32  C   UNL     1      12.036   7.139  13.230  1.00  0.00     0.200 C 
BRANCH  32  33
ATOM     33  N   UNL     1      12.465   5.959  12.470  1.00  0.00    -0.340 N 
ATOM     34  C   UNL     1      13.671   5.938  11.800  1.00  0.00     0.243 CG0
ATOM     35  O   UNL     1      14.407   6.922  11.755  1.00  0.00    -0.273 OA
ATOM     36  H   UNL     1      11.865   5.142  12.463  1.00  0.00     0.164 HD
ATOM     37  G   UNL     1      13.931   4.695  10.935  1.00  0.00     0.000 G0
ENDBRANCH  32  33
BRANCH  32  38
ATOM     38  C   UNL     1      11.031   8.022  12.455  1.00  0.00     0.143 C 
ATOM     39  C   UNL     1      10.597   9.277  13.205  1.00  0.00     0.041 C 
BRANCH  38  40
ATOM     40  O   UNL     1      11.590   8.407  11.184  1.00  0.00    -0.391 OA
ATOM     41  H   UNL     1      10.857   8.781  10.659  1.00  0.00     0.211 HD
ENDBRANCH  38  40
ENDBRANCH  32  38
ENDBRANCH  29  32
ENDBRANCH  27  28
BRANCH  27  42
ATOM     42  C   UNL     1       8.691   4.343  15.441  1.00  0.00     0.015 C 
ATOM     43  C   UNL     1       7.904   3.949  16.696  1.00  0.00     0.010 C 
ATOM     44  C   UNL     1       7.868   5.304  14.577  1.00  0.00     0.010 C 
ENDBRANCH  27  42
ENDBRANCH   3  27
TORSDOF 5
ENDMDL
MODEL 3
REMARK VINA RESULT:    -4.643      3.056      7.539
REMARK INTER + INTRA:         -10.892
REMARK INTER:                  -9.806
REMARK INTRA:                  -1.087
REMARK UNBOUND:                -2.585
REMARK SMILES CC[C@H](C)[C@H]1NC(=O)c2coc(n2)[C@H](C(C)C)NC(=O)[C@H]([C@@H](C)O)NC(=O)[C@H](C)NC(=O)c2csc1n2
REMARK SMILES IDX 11 1 13 2 12 3 9 4 10 5 7 6 6 7 8 8 5 10 36 11 35 12 34 13
REMARK SMILES IDX 37 14 33 15 31 16 32 17 30 18 28 20 29 21 3 23 4 24 2 25
REMARK SMILES IDX 1 26 14 27 18 28 19 29 20 30 21 32 25 33 26 34 27 35 22 38
REMARK SMILES IDX 23 39 24 40 15 42 16 43 17 44
REMARK H PARENT 6 9 30 19 18 31 25 36 24 41
REMARK Flexibility Score:   94.900
ROOT
ATOM      1  O   UNL     1      14.979   3.118   9.705  1.00  0.00    -0.446 OA
ATOM      2  N   UNL     1      14.132   1.694  11.233  1.00  0.00    -0.207 NA
ATOM      3  C   UNL     1      15.117   1.939  10.387  1.00  0.00     0.217 A 
ATOM      4  C   UNL     1      13.304   2.797  11.118  1.00  0.00     0.167 A 
ATOM      5  C   UNL     1      13.826   3.661  10.187  1.00  0.00     0.231 A 
ENDROOT
BRANCH   4   6
ATOM      6  C   UNL     1      12.071   2.945  11.870  1.00  0.00     0.273 C 
ATOM      7  N   UNL     1      12.246   3.718  12.991  1.00  0.00    -0.341 N 
ATOM      8  O   UNL     1      11.013   2.418  11.548  1.00  0.00    -0.267 OA
ATOM      9  H   UNL     1      13.201   4.010  13.179  1.00  0.00     0.164 HD
BRANCH   7  10
ATOM     10  C   UNL     1      11.254   3.824  14.043  1.00  0.00     0.145 C 
BRANCH  10  11
ATOM     11  C   UNL     1      11.848   3.203  15.299  1.00  0.00     0.116 A 
ATOM     12  S   UNL     1      11.559   3.935  16.832  1.00  0.00    -0.124 S 
ATOM     13  C   UNL     1      12.458   2.693  17.587  1.00  0.00     0.101 A 
ATOM     14  N   UNL     1      12.582   2.103  15.327  1.00  0.00    -0.234 NA
ATOM     15  C   UNL     1      12.923   1.793  16.646  1.00  0.00     0.139 A 
BRANCH  15  16
ATOM     16  C   UNL     1      13.705   0.601  16.979  1.00  0.00     0.271 C 
ATOM     17  O   UNL     1      14.250   0.445  18.067  1.00  0.00    -0.267 OA
ATOM     18  N   UNL     1      13.764  -0.323  15.957  1.00  0.00    -0.339 N 
ATOM     19  H   UNL     1      13.366  -0.028  15.069  1.00  0.00     0.164 HD
BRANCH  18  20
ATOM     20  C   UNL     1      14.553  -1.540  16.084  1.00  0.00     0.168 CG0
ATOM     21  C   UNL     1      13.679  -2.788  15.939  1.00  0.00     0.041 C 
ATOM     22  G   UNL     1      15.678  -1.630  15.040  1.00  0.00     0.000 G0
ENDBRANCH  18  20
ENDBRANCH  15  16
ENDBRANCH  10  11
BRANCH  10  23
ATOM     23  C   UNL     1      10.793   5.288  14.268  1.00  0.00     0.015 C 
ATOM     24  C   UNL     1      11.728   6.326  13.626  1.00  0.00     0.010 C 
BRANCH  23  25
ATOM     25  C   UNL     1       9.352   5.544  13.769  1.00  0.00     0.002 C 
ATOM     26  C   UNL     1       8.346   4.495  14.221  1.00  0.00     0.004 C 
ENDBRANCH  23  25
ENDBRANCH  10  23
ENDBRANCH   7  10
ENDBRANCH   4   6
BRANCH   3  27
ATOM     27  C   UNL     1      16.293   1.052  10.083  1.00  0.00     0.171 C 
BRANCH  27  28
ATOM     28  N   UNL     1      16.500   0.176  11.232  1.00  0.00    -0.342 N 
ATOM     29  C   UNL     1      15.770  -0.973  11.436  1.00  0.00     0.245 C 
ATOM     30  O   UNL     1      14.899  -1.356  10.657  1.00  0.00    -0.273 OA
ATOM     31  H   UNL     1      17.281   0.367  11.859  1.00  0.00     0.164 HD
BRANCH  29  32
ATOM     32  C   UNL     1      16.220  -1.836  12.634  1.00  0.00     0.200 C 
BRANCH  32  33
ATOM     33  N   UNL     1      15.258  -1.644  13.727  1.00  0.00    -0.340 N 
ATOM     34  C   UNL     1      15.666  -1.619  15.044  1.00  0.00     0.243 CG0
ATOM     35  O   UNL     1      16.836  -1.818  15.366  1.00  0.00    -0.273 OA
ATOM     36  H   UNL     1      14.281  -1.508  13.494  1.00  0.00     0.164 HD
ATOM     37  G   UNL     1      14.541  -1.550  16.089  1.00  0.00     0.000 G0
ENDBRANCH  32  33
BRANCH  32  38
ATOM     38  C   UNL     1      16.388  -3.319  12.232  1.00  0.00     0.143 C 
ATOM     39  C   UNL     1      17.415  -3.553  11.130  1.00  0.00     0.041 C 
BRANCH  38  40
ATOM     40  O   UNL     1      16.751  -4.105  13.384  1.00  0.00    -0.391 OA
ATOM     41  H   UNL     1      17.695  -3.925  13.557  1.00  0.00     0.211 HD
ENDBRANCH  38  40
ENDBRANCH  32  38
ENDBRANCH  29  32
ENDBRANCH  27  28
BRANCH  27  42
ATOM     42  C   UNL     1      16.261   0.254   8.757  1.00  0.00     0.015 C 
ATOM     43  C   UNL     1      15.932   1.070   7.502  1.00  0.00     0.010 C 
ATOM     44  C   UNL     1      17.544  -0.555   8.543  1.00  0.00     0.010 C 
ENDBRANCH  27  42
ENDBRANCH   3  27
TORSDOF 5
ENDMDL
MODEL 4
REMARK VINA RESULT:    -4.423      1.700      2.157
REMARK INTER + INTRA:         -10.499
REMARK INTER:                  -8.580
REMARK INTRA:                  -1.919
REMARK UNBOUND:                -2.585
REMARK SMILES CC[C@H](C)[C@H]1NC(=O)c2coc(n2)[C@H](C(C)C)NC(=O)[C@H]([C@@H](C)O)NC(=O)[C@H](C)NC(=O)c2csc1n2
REMARK SMILES IDX 11 1 13 2 12 3 9 4 10 5 7 6 6 7 8 8 5 10 36 11 35 12 34 13
REMARK SMILES IDX 37 14 33 15 31 16 32 17 30 18 28 20 29 21 3 23 4 24 2 25
REMARK SMILES IDX 1 26 14 27 18 28 19 29 20 30 21 32 25 33 26 34 27 35 22 38
REMARK SMILES IDX 23 39 24 40 15 42 16 43 17 44
REMARK H PARENT 6 9 30 19 18 31 25 36 24 41
REMARK Flexibility Score:   94.900
ROOT
ATOM      1  O   UNL     1      12.868   5.288  10.404  1.00  0.00    -0.446 OA
ATOM      2  N   UNL     1      14.390   4.878  12.016  1.00  0.00    -0.207 NA
ATOM      3  C   UNL     1      13.297   5.540  11.680  1.00  0.00     0.217 A 
ATOM      4  C   UNL     1      14.685   4.120  10.896  1.00  0.00     0.167 A 
ATOM      5  C   UNL     1      13.754   4.374   9.919  1.00  0.00     0.231 A 
ENDROOT
BRANCH   4   6
ATOM      6  C   UNL     1      15.835   3.236  10.817  1.00  0.00     0.273 C 
ATOM      7  N   UNL     1      15.463   1.915  10.810  1.00  0.00    -0.341 N 
ATOM      8  O   UNL     1      16.994   3.633  10.787  1.00  0.00    -0.267 OA
ATOM      9  H   UNL     1      14.471   1.736  10.933  1.00  0.00     0.164 HD
BRANCH   7  10
ATOM     10  C   UNL     1      16.405   0.827  10.985  1.00  0.00     0.145 C 
BRANCH  10  11
ATOM     11  C   UNL     1      15.930  -0.006  12.167  1.00  0.00     0.116 A 
ATOM     12  S   UNL     1      16.561  -1.593  12.402  1.00  0.00    -0.124 S 
ATOM     13  C   UNL     1      15.617  -1.750  13.819  1.00  0.00     0.101 A 
ATOM     14  N   UNL     1      15.055   0.395  13.074  1.00  0.00    -0.234 NA
ATOM     15  C   UNL     1      14.883  -0.600  14.040  1.00  0.00     0.139 A 
BRANCH  15  16
ATOM     16  C   UNL     1      13.995  -0.412  15.189  1.00  0.00     0.271 C 
ATOM     17  O   UNL     1      13.428  -1.343  15.751  1.00  0.00    -0.267 OA
ATOM     18  N   UNL     1      13.864   0.906  15.573  1.00  0.00    -0.339 N 
ATOM     19  H   UNL     1      14.295   1.593  14.960  1.00  0.00     0.164 HD
BRANCH  18  20
ATOM     20  C   UNL     1      12.968   1.290  16.656  1.00  0.00     0.168 CG0
ATOM     21  C   UNL     1      13.695   1.299  18.003  1.00  0.00     0.041 C 
ATOM     22  G   UNL     1      12.347   2.681  16.447  1.00  0.00     0.000 G0
ENDBRANCH  18  20
ENDBRANCH  15  16
ENDBRANCH  10  11
BRANCH  10  23
ATOM     23  C   UNL     1      16.570  -0.018   9.694  1.00  0.00     0.015 C 
ATOM     24  C   UNL     1      15.917   0.623   8.458  1.00  0.00     0.010 C 
BRANCH  23  25
ATOM     25  C   UNL     1      18.049  -0.328   9.367  1.00  0.00     0.002 C 
ATOM     26  C   UNL     1      18.238  -1.240   8.163  1.00  0.00     0.004 C 
ENDBRANCH  23  25
ENDBRANCH  10  23
ENDBRANCH   7  10
ENDBRANCH   4   6
BRANCH   3  27
ATOM     27  C   UNL     1      12.549   6.540  12.518  1.00  0.00     0.171 C 
BRANCH  27  28
ATOM     28  N   UNL     1      12.852   6.265  13.919  1.00  0.00    -0.342 N 
ATOM     29  C   UNL     1      12.165   5.333  14.663  1.00  0.00     0.245 C 
ATOM     30  O   UNL     1      11.253   4.651  14.198  1.00  0.00    -0.273 OA
ATOM     31  H   UNL     1      13.668   6.708  14.339  1.00  0.00     0.164 HD
BRANCH  29  32
ATOM     32  C   UNL     1      12.713   5.090  16.085  1.00  0.00     0.200 C 
BRANCH  32  33
ATOM     33  N   UNL     1      13.190   3.704  16.165  1.00  0.00    -0.340 N 
ATOM     34  C   UNL     1      12.330   2.667  16.464  1.00  0.00     0.243 CG0
ATOM     35  O   UNL     1      11.148   2.863  16.738  1.00  0.00    -0.273 OA
ATOM     36  H   UNL     1      14.167   3.515  15.974  1.00  0.00     0.164 HD
ATOM     37  G   UNL     1      12.986   1.290  16.650  1.00  0.00     0.000 G0
ENDBRANCH  32  33
BRANCH  32  38
ATOM     38  C   UNL     1      13.802   6.124  16.455  1.00  0.00     0.143 C 
ATOM     39  C   UNL     1      14.030   6.279  17.955  1.00  0.00     0.041 C 
BRANCH  38  40
ATOM     40  O   UNL     1      15.050   5.772  15.827  1.00  0.00    -0.391 OA
ATOM     41  H   UNL     1      15.306   6.531  15.270  1.00  0.00     0.211 HD
ENDBRANCH  38  40
ENDBRANCH  32  38
ENDBRANCH  29  32
ENDBRANCH  27  28
BRANCH  27  42
ATOM     42  C   UNL     1      12.737   8.039  12.178  1.00  0.00     0.015 C 
ATOM     43  C   UNL     1      11.532   8.939  12.469  1.00  0.00     0.010 C 
ATOM     44  C   UNL     1      14.001   8.618  12.823  1.00  0.00     0.010 C 
ENDBRANCH  27  42
ENDBRANCH   3  27
TORSDOF 5
ENDMDL
MODEL 5
REMARK VINA RESULT:    -4.258      3.366      6.023
REMARK INTER + INTRA:         -10.203
REMARK INTER:                  -7.629
REMARK INTRA:                  -2.574
REMARK UNBOUND:                -2.585
REMARK SMILES CC[C@H](C)[C@H]1NC(=O)c2coc(n2)[C@H](C(C)C)NC(=O)[C@H]([C@@H](C)O)NC(=O)[C@H](C)NC(=O)c2csc1n2
REMARK SMILES IDX 11 1 13 2 12 3 9 4 10 5 7 6 6 7 8 8 5 10 36 11 35 12 34 13
REMARK SMILES IDX 37 14 33 15 31 16 32 17 30 18 28 20 29 21 3 23 4 24 2 25
REMARK SMILES IDX 1 26 14 27 18 28 19 29 20 30 21 32 25 33 26 34 27 35 22 38
REMARK SMILES IDX 23 39 24 40 15 42 16 43 17 44
REMARK H PARENT 6 9 30 19 18 31 25 36 24 41
REMARK Flexibility Score:   94.900
ROOT
ATOM      1  O   UNL     1      10.172   3.846  17.504  1.00  0.00    -0.446 OA
ATOM      2  N   UNL     1      10.842   4.132  15.371  1.00  0.00    -0.207 NA
ATOM      3  C   UNL     1       9.968   4.469  16.302  1.00  0.00     0.217 A 
ATOM      4  C   UNL     1      11.695   3.249  16.010  1.00  0.00     0.167 A 
ATOM      5  C   UNL     1      11.282   3.079  17.309  1.00  0.00     0.231 A 
ENDROOT
BRANCH   4   6
ATOM      6  C   UNL     1      12.816   2.608  15.346  1.00  0.00     0.273 C 
ATOM      7  N   UNL     1      14.016   2.976  15.901  1.00  0.00    -0.341 N 
ATOM      8  O   UNL     1      12.696   1.851  14.390  1.00  0.00    -0.267 OA
ATOM      9  H   UNL     1      13.966   3.684  16.628  1.00  0.00     0.164 HD
BRANCH   7  10
ATOM     10  C   UNL     1      15.296   2.685  15.285  1.00  0.00     0.145 C 
BRANCH  10  11
ATOM     11  C   UNL     1      15.576   3.780  14.266  1.00  0.00     0.116 A 
ATOM     12  S   UNL     1      16.717   3.502  13.005  1.00  0.00    -0.124 S 
ATOM     13  C   UNL     1      16.399   5.062  12.383  1.00  0.00     0.101 A 
ATOM     14  N   UNL     1      14.992   4.967  14.249  1.00  0.00    -0.234 NA
ATOM     15  C   UNL     1      15.450   5.705  13.155  1.00  0.00     0.139 A 
BRANCH  15  16
ATOM     16  C   UNL     1      14.943   7.048  12.866  1.00  0.00     0.271 C 
ATOM     17  O   UNL     1      15.600   7.893  12.267  1.00  0.00    -0.267 OA
ATOM     18  N   UNL     1      13.662   7.265  13.329  1.00  0.00    -0.339 N 
ATOM     19  H   UNL     1      13.267   6.526  13.905  1.00  0.00     0.164 HD
BRANCH  18  20
ATOM     20  C   UNL     1      13.019   8.565  13.192  1.00  0.00     0.168 CG0
ATOM     21  C   UNL     1      11.937   8.539  12.111  1.00  0.00     0.041 C 
ATOM     22  G   UNL     1      12.368   9.047  14.498  1.00  0.00     0.000 G0
ENDBRANCH  18  20
ENDBRANCH  15  16
ENDBRANCH  10  11
BRANCH  10  23
ATOM     23  C   UNL     1      16.432   2.548  16.333  1.00  0.00     0.015 C 
ATOM     24  C   UNL     1      16.079   3.161  17.698  1.00  0.00     0.010 C 
BRANCH  23  25
ATOM     25  C   UNL     1      16.873   1.082  16.548  1.00  0.00     0.002 C 
ATOM     26  C   UNL     1      16.259   0.100  15.560  1.00  0.00     0.004 C 
ENDBRANCH  23  25
ENDBRANCH  10  23
ENDBRANCH   7  10
ENDBRANCH   4   6
BRANCH   3  27
ATOM     27  C   UNL     1       8.790   5.392  16.148  1.00  0.00     0.171 C 
BRANCH  27  28
ATOM     28  N   UNL     1       9.292   6.684  15.691  1.00  0.00    -0.342 N 
ATOM     29  C   UNL     1       9.682   7.682  16.555  1.00  0.00     0.245 C 
ATOM     30  O   UNL     1       9.652   7.553  17.778  1.00  0.00    -0.273 OA
ATOM     31  H   UNL     1       9.453   6.821  14.694  1.00  0.00     0.164 HD
BRANCH  29  32
ATOM     32  C   UNL     1      10.306   8.926  15.887  1.00  0.00     0.200 C 
BRANCH  32  33
ATOM     33  N   UNL     1      11.121   8.479  14.751  1.00  0.00    -0.340 N 
ATOM     34  C   UNL     1      12.359   9.033  14.497  1.00  0.00     0.243 CG0
ATOM     35  O   UNL     1      12.805   9.963  15.166  1.00  0.00    -0.273 OA
ATOM     36  H   UNL     1      10.767   7.734  14.163  1.00  0.00     0.164 HD
ATOM     37  G   UNL     1      13.042   8.570  13.200  1.00  0.00     0.000 G0
ENDBRANCH  32  33
BRANCH  32  38
ATOM     38  C   UNL     1       9.222   9.954  15.484  1.00  0.00     0.143 C 
ATOM     39  C   UNL     1       9.071  10.141  13.979  1.00  0.00     0.041 C 
BRANCH  38  40
ATOM     40  O   UNL     1       7.949   9.570  16.037  1.00  0.00    -0.391 OA
ATOM     41  H   UNL     1       7.537   8.961  15.395  1.00  0.00     0.211 HD
ENDBRANCH  38  40
ENDBRANCH  32  38
ENDBRANCH  29  32
ENDBRANCH  27  28
BRANCH  27  42
ATOM     42  C   UNL     1       7.607   4.900  15.279  1.00  0.00     0.015 C 
ATOM     43  C   UNL     1       6.524   4.111  16.023  1.00  0.00     0.010 C 
ATOM     44  C   UNL     1       6.975   6.040  14.473  1.00  0.00     0.010 C 
ENDBRANCH  27  42
ENDBRANCH   3  27
TORSDOF 5
ENDMDL
MODEL 6
REMARK VINA RESULT:    -4.100      2.614      7.000
REMARK INTER + INTRA:          -9.920
REMARK INTER:                  -8.991
REMARK INTRA:                  -0.929
REMARK UNBOUND:                -2.585
REMARK SMILES CC[C@H](C)[C@H]1NC(=O)c2coc(n2)[C@H](C(C)C)NC(=O)[C@H]([C@@H](C)O)NC(=O)[C@H](C)NC(=O)c2csc1n2
REMARK SMILES IDX 11 1 13 2 12 3 9 4 10 5 7 6 6 7 8 8 5 10 36 11 35 12 34 13
REMARK SMILES IDX 37 14 33 15 31 16 32 17 30 18 28 20 29 21 3 23 4 24 2 25
REMARK SMILES IDX 1 26 14 27 18 28 19 29 20 30 21 32 25 33 26 34 27 35 22 38
REMARK SMILES IDX 23 39 24 40 15 42 16 43 17 44
REMARK H PARENT 6 9 30 19 18 31 25 36 24 41
REMARK Flexibility Score:   94.900
ROOT
ATOM      1  O   UNL     1      16.285   1.846   9.790  1.00  0.00    -0.446 OA
ATOM      2  N   UNL     1      14.562   1.634  11.228  1.00  0.00    -0.207 NA
ATOM      3  C   UNL     1      15.673   1.096  10.759  1.00  0.00     0.217 A 
ATOM      4  C   UNL     1      14.448   2.830  10.541  1.00  0.00     0.167 A 
ATOM      5  C   UNL     1      15.501   2.954   9.668  1.00  0.00     0.231 A 
ENDROOT
BRANCH   4   6
ATOM      6  C   UNL     1      13.345   3.755  10.735  1.00  0.00     0.273 C 
ATOM      7  N   UNL     1      13.706   4.823  11.516  1.00  0.00    -0.341 N 
ATOM      8  O   UNL     1      12.224   3.579  10.273  1.00  0.00    -0.267 OA
ATOM      9  H   UNL     1      14.644   4.788  11.905  1.00  0.00     0.164 HD
BRANCH   7  10
ATOM     10  C   UNL     1      12.748   5.760  12.070  1.00  0.00     0.145 C 
BRANCH  10  11
ATOM     11  C   UNL     1      12.535   5.392  13.531  1.00  0.00     0.116 A 
ATOM     12  S   UNL     1      11.093   5.884  14.335  1.00  0.00    -0.124 S 
ATOM     13  C   UNL     1      11.623   5.093  15.754  1.00  0.00     0.101 A 
ATOM     14  N   UNL     1      13.381   4.690  14.267  1.00  0.00    -0.234 NA
ATOM     15  C   UNL     1      12.853   4.500  15.546  1.00  0.00     0.139 A 
BRANCH  15  16
ATOM     16  C   UNL     1      13.562   3.722  16.564  1.00  0.00     0.271 C 
ATOM     17  O   UNL     1      13.923   4.199  17.634  1.00  0.00    -0.267 OA
ATOM     18  N   UNL     1      13.781   2.409  16.201  1.00  0.00    -0.339 N 
ATOM     19  H   UNL     1      13.534   2.166  15.245  1.00  0.00     0.164 HD
BRANCH  18  20
ATOM     20  C   UNL     1      14.531   1.504  17.060  1.00  0.00     0.168 CG0
ATOM     21  C   UNL     1      13.691   1.045  18.254  1.00  0.00     0.041 C 
ATOM     22  G   UNL     1      15.020   0.249  16.319  1.00  0.00     0.000 G0
ENDBRANCH  18  20
ENDBRANCH  15  16
ENDBRANCH  10  11
BRANCH  10  23
ATOM     23  C   UNL     1      13.199   7.234  11.890  1.00  0.00     0.015 C 
ATOM     24  C   UNL     1      12.026   8.228  11.846  1.00  0.00     0.010 C 
BRANCH  23  25
ATOM     25  C   UNL     1      14.194   7.692  12.980  1.00  0.00     0.002 C 
ATOM     26  C   UNL     1      14.841   9.041  12.699  1.00  0.00     0.004 C 
ENDBRANCH  23  25
ENDBRANCH  10  23
ENDBRANCH   7  10
ENDBRANCH   4   6
BRANCH   3  27
ATOM     27  C   UNL     1      16.268  -0.232  11.139  1.00  0.00     0.171 C 
BRANCH  27  28
ATOM     28  N   UNL     1      15.944  -0.483  12.539  1.00  0.00    -0.342 N 
ATOM     29  C   UNL     1      14.748  -1.033  12.942  1.00  0.00     0.245 C 
ATOM     30  O   UNL     1      13.870  -1.370  12.149  1.00  0.00    -0.273 OA
ATOM     31  H   UNL     1      16.666  -0.336  13.243  1.00  0.00     0.164 HD
BRANCH  29  32
ATOM     32  C   UNL     1      14.639  -1.342  14.450  1.00  0.00     0.200 C 
BRANCH  32  33
ATOM     33  N   UNL     1      14.360  -0.087  15.158  1.00  0.00    -0.340 N 
ATOM     34  C   UNL     1      15.012   0.234  16.331  1.00  0.00     0.243 CG0
ATOM     35  O   UNL     1      15.804  -0.539  16.866  1.00  0.00    -0.273 OA
ATOM     36  H   UNL     1      13.689   0.558  14.757  1.00  0.00     0.164 HD
ATOM     37  G   UNL     1      14.525   1.510  17.037  1.00  0.00     0.000 G0
ENDBRANCH  32  33
BRANCH  32  38
ATOM     38  C   UNL     1      13.584  -2.438  14.728  1.00  0.00     0.143 C 
ATOM     39  C   UNL     1      14.056  -3.529  15.682  1.00  0.00     0.041 C 
BRANCH  38  40
ATOM     40  O   UNL     1      12.382  -1.843  15.256  1.00  0.00    -0.391 OA
ATOM     41  H   UNL     1      11.683  -2.521  15.192  1.00  0.00     0.211 HD
ENDBRANCH  38  40
ENDBRANCH  32  38
ENDBRANCH  29  32
ENDBRANCH  27  28
BRANCH  27  42
ATOM     42  C   UNL     1      15.922  -1.450  10.248  1.00  0.00     0.015 C 
ATOM     43  C   UNL     1      14.883  -1.192   9.150  1.00  0.00     0.010 C 
ATOM     44  C   UNL     1      17.176  -2.098   9.650  1.00  0.00     0.010 C 
ENDBRANCH  27  42
ENDBRANCH   3  27
TORSDOF 5
ENDMDL
MODEL 7
REMARK VINA RESULT:    -3.823      2.988      4.458
REMARK INTER + INTRA:          -9.425
REMARK INTER:                  -7.518
REMARK INTRA:                  -1.907
REMARK UNBOUND:                -2.585
REMARK SMILES CC[C@H](C)[C@H]1NC(=O)c2coc(n2)[C@H](C(C)C)NC(=O)[C@H]([C@@H](C)O)NC(=O)[C@H](C)NC(=O)c2csc1n2
REMARK SMILES IDX 11 1 13 2 12 3 9 4 10 5 7 6 6 7 8 8 5 10 36 11 35 12 34 13
REMARK SMILES IDX 37 14 33 15 31 16 32 17 30 18 28 20 29 21 3 23 4 24 2 25
REMARK SMILES IDX 1 26 14 27 18 28 19 29 20 30 21 32 25 33 26 34 27 35 22 38
REMARK SMILES IDX 23 39 24 40 15 42 16 43 17 44
REMARK H PARENT 6 9 30 19 18 31 25 36 24 41
REMARK Flexibility Score:   94.900
ROOT
ATOM      1  O   UNL     1      15.375   7.000  12.084  1.00  0.00    -0.446 OA
ATOM      2  N   UNL     1      14.703   7.269  14.218  1.00  0.00    -0.207 NA
ATOM      3  C   UNL     1      14.807   7.820  13.022  1.00  0.00     0.217 A 
ATOM      4  C   UNL     1      15.212   5.992  14.049  1.00  0.00     0.167 A 
ATOM      5  C   UNL     1      15.619   5.835  12.747  1.00  0.00     0.231 A 
ENDROOT
BRANCH   4   6
ATOM      6  C   UNL     1      15.305   5.026  15.130  1.00  0.00     0.273 C 
ATOM      7  N   UNL     1      14.865   3.785  14.743  1.00  0.00    -0.341 N 
ATOM      8  O   UNL     1      15.705   5.302  16.254  1.00  0.00    -0.267 OA
ATOM      9  H   UNL     1      14.475   3.728  13.806  1.00  0.00     0.164 HD
BRANCH   7  10
ATOM     10  C   UNL     1      14.617   2.706  15.678  1.00  0.00     0.145 C 
BRANCH  10  11
ATOM     11  C   UNL     1      13.257   2.953  16.316  1.00  0.00     0.116 A 
ATOM     12  S   UNL     1      13.019   2.599  17.985  1.00  0.00    -0.124 S 
ATOM     13  C   UNL     1      11.408   3.157  17.866  1.00  0.00     0.101 A 
ATOM     14  N   UNL     1      12.203   3.446  15.686  1.00  0.00    -0.234 NA
ATOM     15  C   UNL     1      11.138   3.582  16.580  1.00  0.00     0.139 A 
BRANCH  15  16
ATOM     16  C   UNL     1       9.850   4.142  16.163  1.00  0.00     0.271 C 
ATOM     17  O   UNL     1       8.781   3.583  16.380  1.00  0.00    -0.267 OA
ATOM     18  N   UNL     1       9.961   5.351  15.509  1.00  0.00    -0.339 N 
ATOM     19  H   UNL     1      10.907   5.654  15.293  1.00  0.00     0.164 HD
BRANCH  18  20
ATOM     20  C   UNL     1       8.790   6.023  14.962  1.00  0.00     0.168 CG0
ATOM     21  C   UNL     1       7.996   6.736  16.058  1.00  0.00     0.041 C 
ATOM     22  G   UNL     1       9.150   7.064  13.889  1.00  0.00     0.000 G0
ENDBRANCH  18  20
ENDBRANCH  15  16
ENDBRANCH  10  11
BRANCH  10  23
ATOM     23  C   UNL     1      14.709   1.312  15.002  1.00  0.00     0.015 C 
ATOM     24  C   UNL     1      14.137   1.288  13.575  1.00  0.00     0.010 C 
BRANCH  23  25
ATOM     25  C   UNL     1      16.152   0.759  14.966  1.00  0.00     0.002 C 
ATOM     26  C   UNL     1      16.816   0.853  13.599  1.00  0.00     0.004 C 
ENDBRANCH  23  25
ENDBRANCH  10  23
ENDBRANCH   7  10
ENDBRANCH   4   6
BRANCH   3  27
ATOM     27  C   UNL     1      14.425   9.221  12.633  1.00  0.00     0.171 C 
BRANCH  27  28
ATOM     28  N   UNL     1      13.046   9.441  13.055  1.00  0.00    -0.342 N 
ATOM     29  C   UNL     1      12.001   8.648  12.638  1.00  0.00     0.245 C 
ATOM     30  O   UNL     1      12.156   7.683  11.890  1.00  0.00    -0.273 OA
ATOM     31  H   UNL     1      12.857  10.150  13.764  1.00  0.00     0.164 HD
BRANCH  29  32
ATOM     32  C   UNL     1      10.637   8.955  13.291  1.00  0.00     0.200 C 
BRANCH  32  33
ATOM     33  N   UNL     1      10.272   7.822  14.151  1.00  0.00    -0.340 N 
ATOM     34  C   UNL     1       9.141   7.072  13.904  1.00  0.00     0.243 CG0
ATOM     35  O   UNL     1       8.359   7.354  12.999  1.00  0.00    -0.273 OA
ATOM     36  H   UNL     1      10.882   7.584  14.924  1.00  0.00     0.164 HD
ATOM     37  G   UNL     1       8.805   6.006  14.960  1.00  0.00     0.000 G0
ENDBRANCH  32  33
BRANCH  32  38
ATOM     38  C   UNL     1      10.664  10.303  14.049  1.00  0.00     0.143 C 
ATOM     39  C   UNL     1       9.287  10.905  14.298  1.00  0.00     0.041 C 
BRANCH  38  40
ATOM     40  O   UNL     1      11.340  10.145  15.312  1.00  0.00    -0.391 OA
ATOM     41  H   UNL     1      10.646  10.016  15.986  1.00  0.00     0.211 HD
ENDBRANCH  38  40
ENDBRANCH  32  38
ENDBRANCH  29  32
ENDBRANCH  27  28
BRANCH  27  42
ATOM     42  C   UNL     1      15.354  10.369  13.100  1.00  0.00     0.015 C 
ATOM     43  C   UNL     1      15.271  10.722  14.590  1.00  0.00     0.010 C 
ATOM     44  C   UNL     1      16.811  10.130  12.691  1.00  0.00     0.010 C 
ENDBRANCH  27  42
ENDBRANCH   3  27
TORSDOF 5
ENDMDL
MODEL 8
REMARK VINA RESULT:    -3.656      2.548      5.748
REMARK INTER + INTRA:          -9.127
REMARK INTER:                  -7.218
REMARK INTRA:                  -1.908
REMARK UNBOUND:                -2.585
REMARK SMILES CC[C@H](C)[C@H]1NC(=O)c2coc(n2)[C@H](C(C)C)NC(=O)[C@H]([C@@H](C)O)NC(=O)[C@H](C)NC(=O)c2csc1n2
REMARK SMILES IDX 11 1 13 2 12 3 9 4 10 5 7 6 6 7 8 8 5 10 36 11 35 12 34 13
REMARK SMILES IDX 37 14 33 15 31 16 32 17 30 18 28 20 29 21 3 23 4 24 2 25
REMARK SMILES IDX 1 26 14 27 18 28 19 29 20 30 21 32 25 33 26 34 27 35 22 38
REMARK SMILES IDX 23 39 24 40 15 42 16 43 17 44
REMARK H PARENT 6 9 30 19 18 31 25 36 24 41
REMARK Flexibility Score:   94.900
ROOT
ATOM      1  O   UNL     1      13.789   5.126  18.583  1.00  0.00    -0.446 OA
ATOM      2  N   UNL     1      12.678   4.830  16.644  1.00  0.00    -0.207 NA
ATOM      3  C   UNL     1      13.132   5.701  17.527  1.00  0.00     0.217 A 
ATOM      4  C   UNL     1      13.085   3.603  17.137  1.00  0.00     0.167 A 
ATOM      5  C   UNL     1      13.762   3.790  18.318  1.00  0.00     0.231 A 
ENDROOT
BRANCH   4   6
ATOM      6  C   UNL     1      12.784   2.343  16.479  1.00  0.00     0.273 C 
ATOM      7  N   UNL     1      13.866   1.500  16.471  1.00  0.00    -0.341 N 
ATOM      8  O   UNL     1      11.698   2.086  15.973  1.00  0.00    -0.267 OA
ATOM      9  H   UNL     1      14.728   1.886  16.846  1.00  0.00     0.164 HD
BRANCH   7  10
ATOM     10  C   UNL     1      13.923   0.292  15.673  1.00  0.00     0.145 C 
BRANCH  10  11
ATOM     11  C   UNL     1      14.107   0.707  14.220  1.00  0.00     0.116 A 
ATOM     12  S   UNL     1      14.090  -0.489  12.980  1.00  0.00    -0.124 S 
ATOM     13  C   UNL     1      14.298   0.735  11.806  1.00  0.00     0.101 A 
ATOM     14  N   UNL     1      14.273   1.952  13.803  1.00  0.00    -0.234 NA
ATOM     15  C   UNL     1      14.366   1.976  12.409  1.00  0.00     0.139 A 
BRANCH  15  16
ATOM     16  C   UNL     1      14.516   3.232  11.670  1.00  0.00     0.271 C 
ATOM     17  O   UNL     1      14.853   3.274  10.492  1.00  0.00    -0.267 OA
ATOM     18  N   UNL     1      14.241   4.352  12.426  1.00  0.00    -0.339 N 
ATOM     19  H   UNL     1      14.081   4.191  13.417  1.00  0.00     0.164 HD
BRANCH  18  20
ATOM     20  C   UNL     1      14.402   5.691  11.876  1.00  0.00     0.168 CG0
ATOM     21  C   UNL     1      13.048   6.334  11.569  1.00  0.00     0.041 C 
ATOM     22  G   UNL     1      15.166   6.633  12.821  1.00  0.00     0.000 G0
ENDBRANCH  18  20
ENDBRANCH  15  16
ENDBRANCH  10  11
BRANCH  10  23
ATOM     23  C   UNL     1      15.034  -0.678  16.156  1.00  0.00     0.015 C 
ATOM     24  C   UNL     1      15.690  -0.243  17.477  1.00  0.00     0.010 C 
BRANCH  23  25
ATOM     25  C   UNL     1      14.533  -2.133  16.308  1.00  0.00     0.002 C 
ATOM     26  C   UNL     1      15.453  -3.020  17.135  1.00  0.00     0.004 C 
ENDBRANCH  23  25
ENDBRANCH  10  23
ENDBRANCH   7  10
ENDBRANCH   4   6
BRANCH   3  27
ATOM     27  C   UNL     1      12.953   7.194  17.504  1.00  0.00     0.171 C 
BRANCH  27  28
ATOM     28  N   UNL     1      13.377   7.674  16.193  1.00  0.00    -0.342 N 
ATOM     29  C   UNL     1      14.653   8.128  15.941  1.00  0.00     0.245 C 
ATOM     30  O   UNL     1      15.534   8.147  16.799  1.00  0.00    -0.273 OA
ATOM     31  H   UNL     1      12.736   7.582  15.406  1.00  0.00     0.164 HD
BRANCH  29  32
ATOM     32  C   UNL     1      14.950   8.472  14.466  1.00  0.00     0.200 C 
BRANCH  32  33
ATOM     33  N   UNL     1      14.362   7.426  13.621  1.00  0.00    -0.340 N 
ATOM     34  C   UNL     1      15.148   6.641  12.803  1.00  0.00     0.243 CG0
ATOM     35  O   UNL     1      16.359   6.821  12.697  1.00  0.00    -0.273 OA
ATOM     36  H   UNL     1      13.361   7.274  13.663  1.00  0.00     0.164 HD
ATOM     37  G   UNL     1      14.389   5.681  11.872  1.00  0.00     0.000 G0
ENDBRANCH  32  33
BRANCH  32  38
ATOM     38  C   UNL     1      14.451   9.891  14.106  1.00  0.00     0.143 C 
ATOM     39  C   UNL     1      14.090  10.069  12.635  1.00  0.00     0.041 C 
BRANCH  38  40
ATOM     40  O   UNL     1      13.307  10.231  14.912  1.00  0.00    -0.391 OA
ATOM     41  H   UNL     1      12.606   9.591  14.686  1.00  0.00     0.211 HD
ENDBRANCH  38  40
ENDBRANCH  32  38
ENDBRANCH  29  32
ENDBRANCH  27  28
BRANCH  27  42
ATOM     42  C   UNL     1      11.561   7.751  17.891  1.00  0.00     0.015 C 
ATOM     43  C   UNL     1      11.544   9.200  18.390  1.00  0.00     0.010 C 
ATOM     44  C   UNL     1      10.536   7.564  16.767  1.00  0.00     0.010 C 
ENDBRANCH  27  42
ENDBRANCH   3  27
TORSDOF 5
ENDMDL
MODEL 9
REMARK VINA RESULT:    -3.568      2.582      5.730
REMARK INTER + INTRA:          -8.969
REMARK INTER:                  -7.009
REMARK INTRA:                  -1.960
REMARK UNBOUND:                -2.585
REMARK SMILES CC[C@H](C)[C@H]1NC(=O)c2coc(n2)[C@H](C(C)C)NC(=O)[C@H]([C@@H](C)O)NC(=O)[C@H](C)NC(=O)c2csc1n2
REMARK SMILES IDX 11 1 13 2 12 3 9 4 10 5 7 6 6 7 8 8 5 10 36 11 35 12 34 13
REMARK SMILES IDX 37 14 33 15 31 16 32 17 30 18 28 20 29 21 3 23 4 24 2 25
REMARK SMILES IDX 1 26 14 27 18 28 19 29 20 30 21 32 25 33 26 34 27 35 22 38
REMARK SMILES IDX 23 39 24 40 15 42 16 43 17 44
REMARK H PARENT 6 9 30 19 18 31 25 36 24 41
REMARK Flexibility Score:   94.900
ROOT
ATOM      1  O   UNL     1      15.101   4.200  17.730  1.00  0.00    -0.446 OA
ATOM      2  N   UNL     1      13.539   3.633  16.206  1.00  0.00    -0.207 NA
ATOM      3  C   UNL     1      14.239   4.614  16.749  1.00  0.00     0.217 A 
ATOM      4  C   UNL     1      13.989   2.496  16.854  1.00  0.00     0.167 A 
ATOM      5  C   UNL     1      14.940   2.848  17.780  1.00  0.00     0.231 A 
ENDROOT
BRANCH   4   6
ATOM      6  C   UNL     1      13.473   1.167  16.575  1.00  0.00     0.273 C 
ATOM      7  N   UNL     1      14.460   0.216  16.622  1.00  0.00    -0.341 N 
ATOM      8  O   UNL     1      12.299   0.939  16.307  1.00  0.00    -0.267 OA
ATOM      9  H   UNL     1      15.403   0.567  16.765  1.00  0.00     0.164 HD
BRANCH   7  10
ATOM     10  C   UNL     1      14.276  -1.141  16.147  1.00  0.00     0.145 C 
BRANCH  10  11
ATOM     11  C   UNL     1      14.370  -1.113  14.628  1.00  0.00     0.116 A 
ATOM     12  S   UNL     1      14.454  -2.594  13.750  1.00  0.00    -0.124 S 
ATOM     13  C   UNL     1      14.487  -1.714  12.285  1.00  0.00     0.101 A 
ATOM     14  N   UNL     1      14.379  -0.016  13.889  1.00  0.00    -0.234 NA
ATOM     15  C   UNL     1      14.429  -0.357  12.535  1.00  0.00     0.139 A 
BRANCH  15  16
ATOM     16  C   UNL     1      14.413   0.663  11.484  1.00  0.00     0.271 C 
ATOM     17  O   UNL     1      14.872   0.471  10.363  1.00  0.00    -0.267 OA
ATOM     18  N   UNL     1      13.831   1.850  11.877  1.00  0.00    -0.339 N 
ATOM     19  H   UNL     1      13.590   1.922  12.862  1.00  0.00     0.164 HD
BRANCH  18  20
ATOM     20  C   UNL     1      13.786   3.000  10.985  1.00  0.00     0.168 CG0
ATOM     21  C   UNL     1      12.372   3.576  10.889  1.00  0.00     0.041 C 
ATOM     22  G   UNL     1      14.726   4.133  11.428  1.00  0.00     0.000 G0
ENDBRANCH  18  20
ENDBRANCH  15  16
ENDBRANCH  10  11
BRANCH  10  23
ATOM     23  C   UNL     1      15.289  -2.128  16.784  1.00  0.00     0.015 C 
ATOM     24  C   UNL     1      16.445  -1.425  17.516  1.00  0.00     0.010 C 
BRANCH  23  25
ATOM     25  C   UNL     1      14.621  -3.126  17.757  1.00  0.00     0.002 C 
ATOM     26  C   UNL     1      13.483  -3.925  17.138  1.00  0.00     0.004 C 
ENDBRANCH  23  25
ENDBRANCH  10  23
ENDBRANCH   7  10
ENDBRANCH   4   6
BRANCH   3  27
ATOM     27  C   UNL     1      14.136   6.082  16.437  1.00  0.00     0.171 C 
BRANCH  27  28
ATOM     28  N   UNL     1      14.064   6.226  14.987  1.00  0.00    -0.342 N 
ATOM     29  C   UNL     1      15.182   6.266  14.183  1.00  0.00     0.245 C 
ATOM     30  O   UNL     1      16.325   6.167  14.628  1.00  0.00    -0.273 OA
ATOM     31  H   UNL     1      13.150   6.198  14.536  1.00  0.00     0.164 HD
BRANCH  29  32
ATOM     32  C   UNL     1      14.903   6.292  12.666  1.00  0.00     0.200 C 
BRANCH  32  33
ATOM     33  N   UNL     1      14.179   5.066  12.309  1.00  0.00    -0.340 N 
ATOM     34  C   UNL     1      14.714   4.149  11.428  1.00  0.00     0.243 CG0
ATOM     35  O   UNL     1      15.784   4.345  10.856  1.00  0.00    -0.273 OA
ATOM     36  H   UNL     1      13.279   4.891  12.742  1.00  0.00     0.164 HD
ATOM     37  G   UNL     1      13.792   2.982  11.039  1.00  0.00     0.000 G0
ENDBRANCH  32  33
BRANCH  32  38
ATOM     38  C   UNL     1      14.151   7.578  12.251  1.00  0.00     0.143 C 
ATOM     39  C   UNL     1      12.635   7.427  12.211  1.00  0.00     0.041 C 
BRANCH  38  40
ATOM     40  O   UNL     1      14.490   8.656  13.145  1.00  0.00    -0.391 OA
ATOM     41  H   UNL     1      14.292   9.486  12.670  1.00  0.00     0.211 HD
ENDBRANCH  38  40
ENDBRANCH  32  38
ENDBRANCH  29  32
ENDBRANCH  27  28
BRANCH  27  42
ATOM     42  C   UNL     1      13.019   6.885  17.145  1.00  0.00     0.015 C 
ATOM     43  C   UNL     1      13.346   8.353  17.442  1.00  0.00     0.010 C 
ATOM     44  C   UNL     1      11.680   6.778  16.407  1.00  0.00     0.010 C 
ENDBRANCH  27  42
ENDBRANCH   3  27
TORSDOF 5
ENDMDL
