MODEL 1
REMARK VINA RESULT:    -8.453      0.000      0.000
REMARK INTER + INTRA:         -20.127
REMARK INTER:                 -17.101
REMARK INTRA:                  -3.026
REMARK UNBOUND:                -3.026
REMARK SMILES CC[C@@H](C)[C@@H](NC(=O)[C@@H](O)Cc1ccc(O)c(Cl)c1)C(=O)N1[C@H](C(=O)NCCCCN=C(N)N)C[C@H]2CC[C@H](OS(=O)(=O)O)C[C@@H]21
REMARK SMILES IDX 22 1 36 2 46 3 35 4 23 5 45 6 37 7 39 8 38 9 20 10 21 11
REMARK SMILES IDX 5 12 6 13 7 14 8 15 9 17 11 18 12 19 17 20 19 21 15 22 14 23
REMARK SMILES IDX 13 24 18 25 16 26 10 28 3 30 4 31 2 32 1 33 24 34 25 35
REMARK SMILES IDX 26 36 27 38 28 39 29 40 30 41 31 42 32 43 33 44 34 45 40 50
REMARK SMILES IDX 41 51 42 52 43 53 44 54
REMARK H PARENT 6 16 16 27 10 29 26 37 33 46 33 47 34 48 34 49 44 55
ROOT
ATOM      1  N   UNL     1     -12.183 -12.045   3.155  1.00  0.00    -0.326 N 
ATOM      2  C   UNL     1     -13.117 -14.032   2.306  1.00  0.00     0.014 C 
ATOM      3  C   UNL     1     -13.191 -13.057   3.484  1.00  0.00     0.091 C 
ATOM      4  C   UNL     1     -11.639 -14.013   1.948  1.00  0.00     0.041 C 
ATOM      5  C   UNL     1     -11.364 -12.499   2.004  1.00  0.00     0.175 C 
ATOM      6  C   UNL     1     -14.642 -12.608   3.649  1.00  0.00     0.059 C 
ATOM      7  C   UNL     1     -13.781 -15.351   2.651  1.00  0.00     0.008 C 
ATOM      8  C   UNL     1     -15.675 -13.683   3.247  1.00  0.00     0.143 C 
ATOM      9  C   UNL     1     -15.112 -15.111   3.395  1.00  0.00     0.034 C 
ENDROOT
BRANCH   1  10
ATOM     10  C   UNL     1     -11.789 -10.922   3.862  1.00  0.00     0.246 C 
ATOM     11  O   UNL     1     -11.592  -9.866   3.253  1.00  0.00    -0.272 OA
BRANCH  10  12
ATOM     12  C   UNL     1     -11.643 -11.003   5.410  1.00  0.00     0.174 C 
BRANCH  12  13
ATOM     13  N   UNL     1     -12.628 -10.131   6.049  1.00  0.00    -0.342 N 
ATOM     14  C   UNL     1     -13.532 -10.530   7.008  1.00  0.00     0.249 C 
ATOM     15  O   UNL     1     -13.594 -11.668   7.455  1.00  0.00    -0.272 OA
ATOM     16  H   UNL     1     -12.800  -9.203   5.671  1.00  0.00     0.164 HD
BRANCH  14  17
ATOM     17  C   UNL     1     -14.451  -9.381   7.475  1.00  0.00     0.207 C 
BRANCH  17  18
ATOM     18  C   UNL     1     -13.687  -8.426   8.398  1.00  0.00     0.077 C 
BRANCH  18  19
ATOM     19  C   UNL     1     -13.962  -6.978   8.061  1.00  0.00    -0.043 A 
ATOM     20  C   UNL     1     -15.028  -5.312   6.658  1.00  0.00     0.083 A 
ATOM     21  C   UNL     1     -14.815  -6.648   6.997  1.00  0.00     0.028 A 
ATOM     22  C   UNL     1     -14.392  -4.299   7.376  1.00  0.00     0.134 A 
ATOM     23  C   UNL     1     -13.545  -4.611   8.433  1.00  0.00     0.048 A 
ATOM     24  C   UNL     1     -13.328  -5.948   8.774  1.00  0.00     0.008 A 
ATOM     25  Cl  UNL     1     -16.080  -4.927   5.346  1.00  0.00    -0.080 Cl
BRANCH  22  26
ATOM     26  O   UNL     1     -14.562  -2.975   7.074  1.00  0.00    -0.506 OA
ATOM     27  H   UNL     1     -15.486  -2.754   7.291  1.00  0.00     0.293 HD
ENDBRANCH  22  26
ENDBRANCH  18  19
ENDBRANCH  17  18
BRANCH  17  28
ATOM     28  O   UNL     1     -15.605  -9.888   8.164  1.00  0.00    -0.383 OA
ATOM     29  H   UNL     1     -16.255  -9.150   8.185  1.00  0.00     0.211 HD
ENDBRANCH  17  28
ENDBRANCH  14  17
ENDBRANCH  12  13
BRANCH  12  30
ATOM     30  C   UNL     1     -10.196 -10.715   5.892  1.00  0.00     0.018 C 
ATOM     31  C   UNL     1      -9.215 -11.755   5.327  1.00  0.00     0.010 C 
BRANCH  30  32
ATOM     32  C   UNL     1     -10.058 -10.636   7.432  1.00  0.00     0.002 C 
ATOM     33  C   UNL     1      -8.922 -11.458   8.028  1.00  0.00     0.004 C 
ENDBRANCH  30  32
ENDBRANCH  12  30
ENDBRANCH  10  12
ENDBRANCH   1  10
BRANCH   5  34
ATOM     34  C   UNL     1     -11.809 -11.789   0.698  1.00  0.00     0.242 C 
ATOM     35  O   UNL     1     -11.239 -11.972  -0.378  1.00  0.00    -0.273 OA
ATOM     36  N   UNL     1     -12.851 -10.899   0.840  1.00  0.00    -0.354 N 
ATOM     37  H   UNL     1     -13.203 -10.701   1.777  1.00  0.00     0.163 HD
BRANCH  36  38
ATOM     38  C   UNL     1     -13.530 -10.316  -0.298  1.00  0.00     0.116 C 
BRANCH  38  39
ATOM     39  C   UNL     1     -14.204  -9.009   0.115  1.00  0.00     0.023 C 
BRANCH  39  40
ATOM     40  C   UNL     1     -14.859  -9.100   1.489  1.00  0.00     0.026 C 
BRANCH  40  41
ATOM     41  C   UNL     1     -16.234  -8.433   1.479  1.00  0.00     0.146 C 
BRANCH  41  42
ATOM     42  N   UNL     1     -16.125  -7.072   1.990  1.00  0.00    -0.254 NA
ATOM     43  C   UNL     1     -16.194  -6.084   1.179  1.00  0.00     0.185 C 
ATOM     44  N   UNL     1     -16.363  -6.070  -0.156  1.00  0.00    -0.370 N 
ATOM     45  N   UNL     1     -16.087  -4.838   1.669  1.00  0.00    -0.370 N 
ATOM     46  H   UNL     1     -16.154  -5.245  -0.691  1.00  0.00     0.159 HD
ATOM     47  H   UNL     1     -16.475  -6.928  -0.688  1.00  0.00     0.159 HD
ATOM     48  H   UNL     1     -15.966  -4.759   2.669  1.00  0.00     0.159 HD
ATOM     49  H   UNL     1     -16.363  -4.024   1.150  1.00  0.00     0.159 HD
ENDBRANCH  41  42
ENDBRANCH  40  41
ENDBRANCH  39  40
ENDBRANCH  38  39
ENDBRANCH  36  38
ENDBRANCH   5  34
BRANCH   8  50
ATOM     50  O   UNL     1     -16.077 -13.493   1.890  1.00  0.00    -0.245 OA
BRANCH  50  51
ATOM     51  S   UNL     1     -17.381 -12.579   1.560  1.00  0.00     0.397 S 
ATOM     52  O   UNL     1     -17.514 -11.596   2.611  1.00  0.00    -0.169 OA
ATOM     53  O   UNL     1     -18.486 -13.430   1.171  1.00  0.00    -0.169 OA
BRANCH  51  54
ATOM     54  O   UNL     1     -16.900 -11.766   0.259  1.00  0.00    -0.264 OA
ATOM     55  H   UNL     1     -16.045 -11.339   0.473  1.00  0.00     0.236 HD
ENDBRANCH  51  54
ENDBRANCH  50  51
ENDBRANCH   8  50
TORSDOF 19
ENDMDL
MODEL 2
REMARK VINA RESULT:    -8.271      4.321      8.900
REMARK INTER + INTRA:         -19.758
REMARK INTER:                 -16.455
REMARK INTRA:                  -3.303
REMARK UNBOUND:                -3.026
REMARK SMILES CC[C@@H](C)[C@@H](NC(=O)[C@@H](O)Cc1ccc(O)c(Cl)c1)C(=O)N1[C@H](C(=O)NCCCCN=C(N)N)C[C@H]2CC[C@H](OS(=O)(=O)O)C[C@@H]21
REMARK SMILES IDX 22 1 36 2 46 3 35 4 23 5 45 6 37 7 39 8 38 9 20 10 21 11
REMARK SMILES IDX 5 12 6 13 7 14 8 15 9 17 11 18 12 19 17 20 19 21 15 22 14 23
REMARK SMILES IDX 13 24 18 25 16 26 10 28 3 30 4 31 2 32 1 33 24 34 25 35
REMARK SMILES IDX 26 36 27 38 28 39 29 40 30 41 31 42 32 43 33 44 34 45 40 50
REMARK SMILES IDX 41 51 42 52 43 53 44 54
REMARK H PARENT 6 16 16 27 10 29 26 37 33 46 33 47 34 48 34 49 44 55
ROOT
ATOM      1  N   UNL     1     -14.026 -10.435   2.495  1.00  0.00    -0.326 N 
ATOM      2  C   UNL     1     -15.672 -10.474   4.178  1.00  0.00     0.014 C 
ATOM      3  C   UNL     1     -14.228 -10.883   3.876  1.00  0.00     0.091 C 
ATOM      4  C   UNL     1     -16.363 -10.667   2.837  1.00  0.00     0.041 C 
ATOM      5  C   UNL     1     -15.322 -10.025   1.900  1.00  0.00     0.175 C 
ATOM      6  C   UNL     1     -13.325 -10.306   4.965  1.00  0.00     0.059 C 
ATOM      7  C   UNL     1     -16.200 -11.204   5.397  1.00  0.00     0.008 C 
ATOM      8  C   UNL     1     -14.007 -10.199   6.346  1.00  0.00     0.143 C 
ATOM      9  C   UNL     1     -15.137 -11.234   6.516  1.00  0.00     0.034 C 
ENDROOT
BRANCH   1  10
ATOM     10  C   UNL     1     -12.915 -10.550   1.678  1.00  0.00     0.246 C 
ATOM     11  O   UNL     1     -12.533  -9.563   1.041  1.00  0.00    -0.272 OA
BRANCH  10  12
ATOM     12  C   UNL     1     -12.148 -11.903   1.613  1.00  0.00     0.174 C 
BRANCH  12  13
ATOM     13  N   UNL     1     -11.269 -11.922   0.444  1.00  0.00    -0.342 N 
ATOM     14  C   UNL     1      -9.904 -12.097   0.484  1.00  0.00     0.249 C 
ATOM     15  O   UNL     1      -9.272 -12.287   1.515  1.00  0.00    -0.272 OA
ATOM     16  H   UNL     1     -11.627 -11.623  -0.460  1.00  0.00     0.164 HD
BRANCH  14  17
ATOM     17  C   UNL     1      -9.256 -12.050  -0.916  1.00  0.00     0.207 C 
BRANCH  17  18
ATOM     18  C   UNL     1     -10.278 -12.430  -1.992  1.00  0.00     0.077 C 
BRANCH  18  19
ATOM     19  C   UNL     1      -9.616 -12.701  -3.325  1.00  0.00    -0.043 A 
ATOM     20  C   UNL     1      -8.990 -14.248  -5.085  1.00  0.00     0.083 A 
ATOM     21  C   UNL     1      -9.644 -13.990  -3.880  1.00  0.00     0.028 A 
ATOM     22  C   UNL     1      -8.305 -13.225  -5.741  1.00  0.00     0.134 A 
ATOM     23  C   UNL     1      -8.270 -11.944  -5.203  1.00  0.00     0.048 A 
ATOM     24  C   UNL     1      -8.922 -11.682  -3.995  1.00  0.00     0.008 A 
ATOM     25  Cl  UNL     1      -9.035 -15.838  -5.751  1.00  0.00    -0.080 Cl
BRANCH  22  26
ATOM     26  O   UNL     1      -7.641 -13.432  -6.919  1.00  0.00    -0.506 OA
ATOM     27  H   UNL     1      -8.169 -13.003  -7.618  1.00  0.00     0.293 HD
ENDBRANCH  22  26
ENDBRANCH  18  19
ENDBRANCH  17  18
BRANCH  17  28
ATOM     28  O   UNL     1      -8.129 -12.939  -0.994  1.00  0.00    -0.383 OA
ATOM     29  H   UNL     1      -8.458 -13.757  -1.432  1.00  0.00     0.211 HD
ENDBRANCH  17  28
ENDBRANCH  14  17
ENDBRANCH  12  13
BRANCH  12  30
ATOM     30  C   UNL     1     -13.095 -13.132   1.662  1.00  0.00     0.018 C 
ATOM     31  C   UNL     1     -12.350 -14.375   2.172  1.00  0.00     0.010 C 
BRANCH  30  32
ATOM     32  C   UNL     1     -13.782 -13.441   0.309  1.00  0.00     0.002 C 
ATOM     33  C   UNL     1     -15.305 -13.395   0.327  1.00  0.00     0.004 C 
ENDBRANCH  30  32
ENDBRANCH  12  30
ENDBRANCH  10  12
ENDBRANCH   1  10
BRANCH   5  34
ATOM     34  C   UNL     1     -15.452  -8.478   1.876  1.00  0.00     0.242 C 
ATOM     35  O   UNL     1     -14.871  -7.756   2.686  1.00  0.00    -0.273 OA
ATOM     36  N   UNL     1     -16.305  -7.977   0.919  1.00  0.00    -0.354 N 
ATOM     37  H   UNL     1     -16.850  -8.631   0.355  1.00  0.00     0.163 HD
BRANCH  36  38
ATOM     38  C   UNL     1     -16.380  -6.563   0.613  1.00  0.00     0.116 C 
BRANCH  38  39
ATOM     39  C   UNL     1     -17.821  -6.078   0.753  1.00  0.00     0.023 C 
BRANCH  39  40
ATOM     40  C   UNL     1     -17.989  -5.069   1.884  1.00  0.00     0.026 C 
BRANCH  40  41
ATOM     41  C   UNL     1     -16.667  -4.856   2.621  1.00  0.00     0.146 C 
BRANCH  41  42
ATOM     42  N   UNL     1     -16.929  -4.492   4.008  1.00  0.00    -0.254 NA
ATOM     43  C   UNL     1     -16.331  -5.118   4.950  1.00  0.00     0.185 C 
ATOM     44  N   UNL     1     -15.438  -6.123   4.891  1.00  0.00    -0.370 N 
ATOM     45  N   UNL     1     -16.590  -4.771   6.222  1.00  0.00    -0.370 N 
ATOM     46  H   UNL     1     -15.237  -6.679   5.705  1.00  0.00     0.159 HD
ATOM     47  H   UNL     1     -15.118  -6.501   4.005  1.00  0.00     0.159 HD
ATOM     48  H   UNL     1     -17.247  -4.014   6.355  1.00  0.00     0.159 HD
ATOM     49  H   UNL     1     -16.001  -5.040   6.990  1.00  0.00     0.159 HD
ENDBRANCH  41  42
ENDBRANCH  40  41
ENDBRANCH  39  40
ENDBRANCH  38  39
ENDBRANCH  36  38
ENDBRANCH   5  34
BRANCH   8  50
ATOM     50  O   UNL     1     -14.558  -8.893   6.521  1.00  0.00    -0.245 OA
BRANCH  50  51
ATOM     51  S   UNL     1     -14.310  -8.097   7.918  1.00  0.00     0.397 S 
ATOM     52  O   UNL     1     -14.693  -6.718   7.719  1.00  0.00    -0.169 OA
ATOM     53  O   UNL     1     -13.016  -8.456   8.459  1.00  0.00    -0.169 OA
BRANCH  51  54
ATOM     54  O   UNL     1     -15.440  -8.733   8.870  1.00  0.00    -0.264 OA
ATOM     55  H   UNL     1     -15.698  -8.051   9.523  1.00  0.00     0.236 HD
ENDBRANCH  51  54
ENDBRANCH  50  51
ENDBRANCH   8  50
TORSDOF 19
ENDMDL
MODEL 3
REMARK VINA RESULT:    -8.265      2.971      6.537
REMARK INTER + INTRA:         -19.747
REMARK INTER:                 -17.276
REMARK INTRA:                  -2.471
REMARK UNBOUND:                -3.026
REMARK SMILES CC[C@@H](C)[C@@H](NC(=O)[C@@H](O)Cc1ccc(O)c(Cl)c1)C(=O)N1[C@H](C(=O)NCCCCN=C(N)N)C[C@H]2CC[C@H](OS(=O)(=O)O)C[C@@H]21
REMARK SMILES IDX 22 1 36 2 46 3 35 4 23 5 45 6 37 7 39 8 38 9 20 10 21 11
REMARK SMILES IDX 5 12 6 13 7 14 8 15 9 17 11 18 12 19 17 20 19 21 15 22 14 23
REMARK SMILES IDX 13 24 18 25 16 26 10 28 3 30 4 31 2 32 1 33 24 34 25 35
REMARK SMILES IDX 26 36 27 38 28 39 29 40 30 41 31 42 32 43 33 44 34 45 40 50
REMARK SMILES IDX 41 51 42 52 43 53 44 54
REMARK H PARENT 6 16 16 27 10 29 26 37 33 46 33 47 34 48 34 49 44 55
ROOT
ATOM      1  N   UNL     1     -13.528 -11.413   2.573  1.00  0.00    -0.326 N 
ATOM      2  C   UNL     1     -12.222 -13.009   1.438  1.00  0.00     0.014 C 
ATOM      3  C   UNL     1     -12.756 -11.577   1.338  1.00  0.00     0.091 C 
ATOM      4  C   UNL     1     -13.353 -13.739   2.146  1.00  0.00     0.041 C 
ATOM      5  C   UNL     1     -13.684 -12.722   3.253  1.00  0.00     0.175 C 
ATOM      6  C   UNL     1     -11.577 -10.638   1.091  1.00  0.00     0.059 C 
ATOM      7  C   UNL     1     -11.746 -13.505   0.087  1.00  0.00     0.008 C 
ATOM      8  C   UNL     1     -10.434 -11.277   0.274  1.00  0.00     0.143 C 
ATOM      9  C   UNL     1     -10.939 -12.410  -0.642  1.00  0.00     0.034 C 
ENDROOT
BRANCH   1  10
ATOM     10  C   UNL     1     -14.258 -10.326   3.026  1.00  0.00     0.246 C 
ATOM     11  O   UNL     1     -13.709  -9.497   3.759  1.00  0.00    -0.272 OA
BRANCH  10  12
ATOM     12  C   UNL     1     -15.736 -10.151   2.569  1.00  0.00     0.174 C 
BRANCH  12  13
ATOM     13  N   UNL     1     -15.972  -8.765   2.167  1.00  0.00    -0.342 N 
ATOM     14  C   UNL     1     -15.463  -8.174   1.032  1.00  0.00     0.249 C 
ATOM     15  O   UNL     1     -14.770  -8.760   0.210  1.00  0.00    -0.272 OA
ATOM     16  H   UNL     1     -16.396  -8.115   2.824  1.00  0.00     0.164 HD
BRANCH  14  17
ATOM     17  C   UNL     1     -15.878  -6.693   0.895  1.00  0.00     0.207 C 
BRANCH  17  18
ATOM     18  C   UNL     1     -17.203  -6.439   1.622  1.00  0.00     0.077 C 
BRANCH  18  19
ATOM     19  C   UNL     1     -17.104  -5.269   2.576  1.00  0.00    -0.043 A 
ATOM     20  C   UNL     1     -16.405  -4.348   4.708  1.00  0.00     0.083 A 
ATOM     21  C   UNL     1     -16.451  -5.415   3.810  1.00  0.00     0.028 A 
ATOM     22  C   UNL     1     -17.010  -3.134   4.382  1.00  0.00     0.134 A 
ATOM     23  C   UNL     1     -17.660  -2.976   3.163  1.00  0.00     0.048 A 
ATOM     24  C   UNL     1     -17.709  -4.042   2.263  1.00  0.00     0.008 A 
ATOM     25  Cl  UNL     1     -15.599  -4.546   6.220  1.00  0.00    -0.080 Cl
BRANCH  22  26
ATOM     26  O   UNL     1     -17.000  -2.063   5.235  1.00  0.00    -0.506 OA
ATOM     27  H   UNL     1     -16.204  -1.542   5.021  1.00  0.00     0.293 HD
ENDBRANCH  22  26
ENDBRANCH  18  19
ENDBRANCH  17  18
BRANCH  17  28
ATOM     28  O   UNL     1     -16.013  -6.320  -0.486  1.00  0.00    -0.383 OA
ATOM     29  H   UNL     1     -16.618  -6.984  -0.889  1.00  0.00     0.211 HD
ENDBRANCH  17  28
ENDBRANCH  14  17
ENDBRANCH  12  13
BRANCH  12  30
ATOM     30  C   UNL     1     -16.754 -10.641   3.633  1.00  0.00     0.018 C 
ATOM     31  C   UNL     1     -16.264 -10.312   5.052  1.00  0.00     0.010 C 
BRANCH  30  32
ATOM     32  C   UNL     1     -17.091 -12.148   3.523  1.00  0.00     0.002 C 
ATOM     33  C   UNL     1     -17.056 -12.921   4.835  1.00  0.00     0.004 C 
ENDBRANCH  30  32
ENDBRANCH  12  30
ENDBRANCH  10  12
ENDBRANCH   1  10
BRANCH   5  34
ATOM     34  C   UNL     1     -12.703 -12.840   4.450  1.00  0.00     0.242 C 
ATOM     35  O   UNL     1     -11.900 -13.768   4.554  1.00  0.00    -0.273 OA
ATOM     36  N   UNL     1     -12.832 -11.864   5.412  1.00  0.00    -0.354 N 
ATOM     37  H   UNL     1     -13.596 -11.191   5.330  1.00  0.00     0.163 HD
BRANCH  36  38
ATOM     38  C   UNL     1     -11.867 -11.696   6.478  1.00  0.00     0.116 C 
BRANCH  38  39
ATOM     39  C   UNL     1     -12.576 -11.722   7.830  1.00  0.00     0.023 C 
BRANCH  39  40
ATOM     40  C   UNL     1     -13.758 -10.759   7.886  1.00  0.00     0.026 C 
BRANCH  40  41
ATOM     41  C   UNL     1     -13.277  -9.308   7.866  1.00  0.00     0.146 C 
BRANCH  41  42
ATOM     42  N   UNL     1     -13.733  -8.622   9.067  1.00  0.00    -0.254 NA
ATOM     43  C   UNL     1     -14.699  -7.786   8.991  1.00  0.00     0.185 C 
ATOM     44  N   UNL     1     -15.425  -7.397   7.926  1.00  0.00    -0.370 N 
ATOM     45  N   UNL     1     -15.102  -7.160  10.109  1.00  0.00    -0.370 N 
ATOM     46  H   UNL     1     -15.983  -6.561   7.964  1.00  0.00     0.159 HD
ATOM     47  H   UNL     1     -15.262  -7.782   7.001  1.00  0.00     0.159 HD
ATOM     48  H   UNL     1     -14.612  -7.403  10.960  1.00  0.00     0.159 HD
ATOM     49  H   UNL     1     -15.984  -6.684  10.179  1.00  0.00     0.159 HD
ENDBRANCH  41  42
ENDBRANCH  40  41
ENDBRANCH  39  40
ENDBRANCH  38  39
ENDBRANCH  36  38
ENDBRANCH   5  34
BRANCH   8  50
ATOM     50  O   UNL     1      -9.444 -11.813   1.153  1.00  0.00    -0.245 OA
BRANCH  50  51
ATOM     51  S   UNL     1      -8.076 -10.977   1.427  1.00  0.00     0.397 S 
ATOM     52  O   UNL     1      -6.963 -11.779   0.970  1.00  0.00    -0.169 OA
ATOM     53  O   UNL     1      -8.109 -10.414   2.761  1.00  0.00    -0.169 OA
BRANCH  51  54
ATOM     54  O   UNL     1      -8.206  -9.767   0.375  1.00  0.00    -0.264 OA
ATOM     55  H   UNL     1      -8.020  -8.934   0.854  1.00  0.00     0.236 HD
ENDBRANCH  51  54
ENDBRANCH  50  51
ENDBRANCH   8  50
TORSDOF 19
ENDMDL
MODEL 4
REMARK VINA RESULT:    -8.242      3.466      7.486
REMARK INTER + INTRA:         -19.700
REMARK INTER:                 -16.336
REMARK INTRA:                  -3.364
REMARK UNBOUND:                -3.026
REMARK SMILES CC[C@@H](C)[C@@H](NC(=O)[C@@H](O)Cc1ccc(O)c(Cl)c1)C(=O)N1[C@H](C(=O)NCCCCN=C(N)N)C[C@H]2CC[C@H](OS(=O)(=O)O)C[C@@H]21
REMARK SMILES IDX 22 1 36 2 46 3 35 4 23 5 45 6 37 7 39 8 38 9 20 10 21 11
REMARK SMILES IDX 5 12 6 13 7 14 8 15 9 17 11 18 12 19 17 20 19 21 15 22 14 23
REMARK SMILES IDX 13 24 18 25 16 26 10 28 3 30 4 31 2 32 1 33 24 34 25 35
REMARK SMILES IDX 26 36 27 38 28 39 29 40 30 41 31 42 32 43 33 44 34 45 40 50
REMARK SMILES IDX 41 51 42 52 43 53 44 54
REMARK H PARENT 6 16 16 27 10 29 26 37 33 46 33 47 34 48 34 49 44 55
ROOT
ATOM      1  N   UNL     1     -15.034 -11.351   3.828  1.00  0.00    -0.326 N 
ATOM      2  C   UNL     1     -13.841  -9.621   2.767  1.00  0.00     0.014 C 
ATOM      3  C   UNL     1     -14.773 -10.804   2.493  1.00  0.00     0.091 C 
ATOM      4  C   UNL     1     -13.015 -10.111   3.947  1.00  0.00     0.041 C 
ATOM      5  C   UNL     1     -14.125 -10.725   4.820  1.00  0.00     0.175 C 
ATOM      6  C   UNL     1     -15.959 -10.305   1.670  1.00  0.00     0.059 C 
ATOM      7  C   UNL     1     -13.136  -9.180   1.499  1.00  0.00     0.008 C 
ATOM      8  C   UNL     1     -15.609  -9.139   0.720  1.00  0.00     0.143 C 
ATOM      9  C   UNL     1     -14.122  -9.152   0.312  1.00  0.00     0.034 C 
ENDROOT
BRANCH   1  10
ATOM     10  C   UNL     1     -15.797 -12.442   4.207  1.00  0.00     0.246 C 
ATOM     11  O   UNL     1     -16.947 -12.258   4.620  1.00  0.00    -0.272 OA
BRANCH  10  12
ATOM     12  C   UNL     1     -15.209 -13.876   4.064  1.00  0.00     0.174 C 
BRANCH  12  13
ATOM     13  N   UNL     1     -13.802 -13.801   3.672  1.00  0.00    -0.342 N 
ATOM     14  C   UNL     1     -12.734 -13.971   4.524  1.00  0.00     0.249 C 
ATOM     15  O   UNL     1     -12.847 -14.234   5.715  1.00  0.00    -0.272 OA
ATOM     16  H   UNL     1     -13.553 -13.437   2.756  1.00  0.00     0.164 HD
BRANCH  14  17
ATOM     17  C   UNL     1     -11.373 -13.814   3.813  1.00  0.00     0.207 C 
BRANCH  17  18
ATOM     18  C   UNL     1     -11.553 -13.881   2.293  1.00  0.00     0.077 C 
BRANCH  18  19
ATOM     19  C   UNL     1     -10.815 -12.763   1.590  1.00  0.00    -0.043 A 
ATOM     20  C   UNL     1      -9.049 -11.101   1.563  1.00  0.00     0.083 A 
ATOM     21  C   UNL     1      -9.697 -12.165   2.191  1.00  0.00     0.028 A 
ATOM     22  C   UNL     1      -9.512 -10.628   0.334  1.00  0.00     0.134 A 
ATOM     23  C   UNL     1     -10.618 -11.212  -0.273  1.00  0.00     0.048 A 
ATOM     24  C   UNL     1     -11.270 -12.276   0.355  1.00  0.00     0.008 A 
ATOM     25  Cl  UNL     1      -7.677 -10.378   2.317  1.00  0.00    -0.080 Cl
BRANCH  22  26
ATOM     26  O   UNL     1      -8.916  -9.581  -0.315  1.00  0.00    -0.506 OA
ATOM     27  H   UNL     1      -8.128  -9.941  -0.763  1.00  0.00     0.293 HD
ENDBRANCH  22  26
ENDBRANCH  18  19
ENDBRANCH  17  18
BRANCH  17  28
ATOM     28  O   UNL     1     -10.451 -14.834   4.229  1.00  0.00    -0.383 OA
ATOM     29  H   UNL     1     -10.129 -15.262   3.404  1.00  0.00     0.211 HD
ENDBRANCH  17  28
ENDBRANCH  14  17
ENDBRANCH  12  13
BRANCH  12  30
ATOM     30  C   UNL     1     -16.042 -14.774   3.110  1.00  0.00     0.018 C 
ATOM     31  C   UNL     1     -15.390 -16.157   2.953  1.00  0.00     0.010 C 
BRANCH  30  32
ATOM     32  C   UNL     1     -16.289 -14.141   1.719  1.00  0.00     0.002 C 
ATOM     33  C   UNL     1     -17.739 -13.786   1.414  1.00  0.00     0.004 C 
ENDBRANCH  30  32
ENDBRANCH  12  30
ENDBRANCH  10  12
ENDBRANCH   1  10
BRANCH   5  34
ATOM     34  C   UNL     1     -14.871  -9.641   5.643  1.00  0.00     0.242 C 
ATOM     35  O   UNL     1     -16.048  -9.347   5.430  1.00  0.00    -0.273 OA
ATOM     36  N   UNL     1     -14.108  -8.995   6.590  1.00  0.00    -0.354 N 
ATOM     37  H   UNL     1     -13.109  -9.198   6.637  1.00  0.00     0.163 HD
BRANCH  36  38
ATOM     38  C   UNL     1     -14.689  -8.118   7.584  1.00  0.00     0.116 C 
BRANCH  38  39
ATOM     39  C   UNL     1     -14.029  -8.361   8.939  1.00  0.00     0.023 C 
BRANCH  39  40
ATOM     40  C   UNL     1     -13.549  -7.070   9.594  1.00  0.00     0.026 C 
BRANCH  40  41
ATOM     41  C   UNL     1     -13.761  -5.878   8.661  1.00  0.00     0.146 C 
BRANCH  41  42
ATOM     42  N   UNL     1     -12.625  -4.971   8.755  1.00  0.00    -0.254 NA
ATOM     43  C   UNL     1     -12.779  -3.731   8.474  1.00  0.00     0.185 C 
ATOM     44  N   UNL     1     -13.879  -3.064   8.079  1.00  0.00    -0.370 N 
ATOM     45  N   UNL     1     -11.718  -2.912   8.563  1.00  0.00    -0.370 N 
ATOM     46  H   UNL     1     -13.803  -2.153   7.660  1.00  0.00     0.159 HD
ATOM     47  H   UNL     1     -14.775  -3.529   7.973  1.00  0.00     0.159 HD
ATOM     48  H   UNL     1     -10.850  -3.334   8.863  1.00  0.00     0.159 HD
ATOM     49  H   UNL     1     -11.804  -1.912   8.592  1.00  0.00     0.159 HD
ENDBRANCH  41  42
ENDBRANCH  40  41
ENDBRANCH  39  40
ENDBRANCH  38  39
ENDBRANCH  36  38
ENDBRANCH   5  34
BRANCH   8  50
ATOM     50  O   UNL     1     -15.896  -7.890   1.350  1.00  0.00    -0.245 OA
BRANCH  50  51
ATOM     51  S   UNL     1     -16.856  -6.814   0.598  1.00  0.00     0.397 S 
ATOM     52  O   UNL     1     -17.074  -5.705   1.498  1.00  0.00    -0.169 OA
ATOM     53  O   UNL     1     -17.959  -7.506  -0.035  1.00  0.00    -0.169 OA
BRANCH  51  54
ATOM     54  O   UNL     1     -15.891  -6.255  -0.561  1.00  0.00    -0.264 OA
ATOM     55  H   UNL     1     -15.693  -6.997  -1.168  1.00  0.00     0.236 HD
ENDBRANCH  51  54
ENDBRANCH  50  51
ENDBRANCH   8  50
TORSDOF 19
ENDMDL
MODEL 5
REMARK VINA RESULT:    -8.206      4.488      8.722
REMARK INTER + INTRA:         -19.626
REMARK INTER:                 -17.202
REMARK INTRA:                  -2.424
REMARK UNBOUND:                -3.026
REMARK SMILES CC[C@@H](C)[C@@H](NC(=O)[C@@H](O)Cc1ccc(O)c(Cl)c1)C(=O)N1[C@H](C(=O)NCCCCN=C(N)N)C[C@H]2CC[C@H](OS(=O)(=O)O)C[C@@H]21
REMARK SMILES IDX 22 1 36 2 46 3 35 4 23 5 45 6 37 7 39 8 38 9 20 10 21 11
REMARK SMILES IDX 5 12 6 13 7 14 8 15 9 17 11 18 12 19 17 20 19 21 15 22 14 23
REMARK SMILES IDX 13 24 18 25 16 26 10 28 3 30 4 31 2 32 1 33 24 34 25 35
REMARK SMILES IDX 26 36 27 38 28 39 29 40 30 41 31 42 32 43 33 44 34 45 40 50
REMARK SMILES IDX 41 51 42 52 43 53 44 54
REMARK H PARENT 6 16 16 27 10 29 26 37 33 46 33 47 34 48 34 49 44 55
ROOT
ATOM      1  N   UNL     1     -12.065 -11.356   2.414  1.00  0.00    -0.326 N 
ATOM      2  C   UNL     1     -13.941  -9.948   2.215  1.00  0.00     0.014 C 
ATOM      3  C   UNL     1     -13.173 -11.064   1.500  1.00  0.00     0.091 C 
ATOM      4  C   UNL     1     -12.833  -9.165   2.902  1.00  0.00     0.041 C 
ATOM      5  C   UNL     1     -11.997 -10.324   3.478  1.00  0.00     0.175 C 
ATOM      6  C   UNL     1     -14.152 -12.188   1.167  1.00  0.00     0.059 C 
ATOM      7  C   UNL     1     -14.873  -9.233   1.257  1.00  0.00     0.008 C 
ATOM      8  C   UNL     1     -15.587 -11.696   0.879  1.00  0.00     0.143 C 
ATOM      9  C   UNL     1     -15.609 -10.246   0.355  1.00  0.00     0.034 C 
ENDROOT
BRANCH   1  10
ATOM     10  C   UNL     1     -11.028 -12.265   2.290  1.00  0.00     0.246 C 
ATOM     11  O   UNL     1     -11.177 -13.411   2.729  1.00  0.00    -0.272 OA
BRANCH  10  12
ATOM     12  C   UNL     1      -9.718 -11.841   1.565  1.00  0.00     0.174 C 
BRANCH  12  13
ATOM     13  N   UNL     1      -9.607 -12.540   0.286  1.00  0.00    -0.342 N 
ATOM     14  C   UNL     1      -9.314 -11.942  -0.919  1.00  0.00     0.249 C 
ATOM     15  O   UNL     1      -9.084 -10.746  -1.049  1.00  0.00    -0.272 OA
ATOM     16  H   UNL     1      -9.923 -13.504   0.209  1.00  0.00     0.164 HD
BRANCH  14  17
ATOM     17  C   UNL     1      -9.286 -12.946  -2.091  1.00  0.00     0.207 C 
BRANCH  17  18
ATOM     18  C   UNL     1     -10.104 -12.414  -3.272  1.00  0.00     0.077 C 
BRANCH  18  19
ATOM     19  C   UNL     1      -9.236 -12.141  -4.480  1.00  0.00    -0.043 A 
ATOM     20  C   UNL     1      -7.135 -12.409  -5.664  1.00  0.00     0.083 A 
ATOM     21  C   UNL     1      -7.953 -12.703  -4.572  1.00  0.00     0.028 A 
ATOM     22  C   UNL     1      -7.591 -11.554  -6.667  1.00  0.00     0.134 A 
ATOM     23  C   UNL     1      -8.859 -10.990  -6.589  1.00  0.00     0.048 A 
ATOM     24  C   UNL     1      -9.679 -11.281  -5.496  1.00  0.00     0.008 A 
ATOM     25  Cl  UNL     1      -5.562 -13.110  -5.759  1.00  0.00    -0.080 Cl
BRANCH  22  26
ATOM     26  O   UNL     1      -6.822 -11.228  -7.751  1.00  0.00    -0.506 OA
ATOM     27  H   UNL     1      -6.082 -10.687  -7.417  1.00  0.00     0.293 HD
ENDBRANCH  22  26
ENDBRANCH  18  19
ENDBRANCH  17  18
BRANCH  17  28
ATOM     28  O   UNL     1      -9.804 -14.224  -1.690  1.00  0.00    -0.383 OA
ATOM     29  H   UNL     1      -9.889 -14.188  -0.710  1.00  0.00     0.211 HD
ENDBRANCH  17  28
ENDBRANCH  14  17
ENDBRANCH  12  13
BRANCH  12  30
ATOM     30  C   UNL     1      -8.456 -12.022   2.451  1.00  0.00     0.018 C 
ATOM     31  C   UNL     1      -7.538 -10.794   2.352  1.00  0.00     0.010 C 
BRANCH  30  32
ATOM     32  C   UNL     1      -7.657 -13.310   2.138  1.00  0.00     0.002 C 
ATOM     33  C   UNL     1      -7.753 -14.408   3.189  1.00  0.00     0.004 C 
ENDBRANCH  30  32
ENDBRANCH  12  30
ENDBRANCH  10  12
ENDBRANCH   1  10
BRANCH   5  34
ATOM     34  C   UNL     1     -12.600 -10.859   4.804  1.00  0.00     0.242 C 
ATOM     35  O   UNL     1     -13.292 -11.877   4.849  1.00  0.00    -0.273 OA
ATOM     36  N   UNL     1     -12.350 -10.086   5.915  1.00  0.00    -0.354 N 
ATOM     37  H   UNL     1     -11.873  -9.191   5.795  1.00  0.00     0.163 HD
BRANCH  36  38
ATOM     38  C   UNL     1     -12.649 -10.541   7.257  1.00  0.00     0.116 C 
BRANCH  38  39
ATOM     39  C   UNL     1     -13.502  -9.502   7.980  1.00  0.00     0.023 C 
BRANCH  39  40
ATOM     40  C   UNL     1     -14.523  -8.843   7.058  1.00  0.00     0.026 C 
BRANCH  40  41
ATOM     41  C   UNL     1     -14.405  -7.320   7.119  1.00  0.00     0.146 C 
BRANCH  41  42
ATOM     42  N   UNL     1     -14.669  -6.753   5.804  1.00  0.00    -0.254 NA
ATOM     43  C   UNL     1     -15.687  -5.995   5.634  1.00  0.00     0.185 C 
ATOM     44  N   UNL     1     -16.626  -5.597   6.512  1.00  0.00    -0.370 N 
ATOM     45  N   UNL     1     -15.916  -5.486   4.412  1.00  0.00    -0.370 N 
ATOM     46  H   UNL     1     -17.496  -5.207   6.191  1.00  0.00     0.159 HD
ATOM     47  H   UNL     1     -16.598  -5.880   7.487  1.00  0.00     0.159 HD
ATOM     48  H   UNL     1     -15.249  -5.730   3.693  1.00  0.00     0.159 HD
ATOM     49  H   UNL     1     -16.536  -4.712   4.253  1.00  0.00     0.159 HD
ENDBRANCH  41  42
ENDBRANCH  40  41
ENDBRANCH  39  40
ENDBRANCH  38  39
ENDBRANCH  36  38
ENDBRANCH   5  34
BRANCH   8  50
ATOM     50  O   UNL     1     -16.375 -11.760   2.068  1.00  0.00    -0.245 OA
BRANCH  50  51
ATOM     51  S   UNL     1     -17.214 -13.112   2.404  1.00  0.00     0.397 S 
ATOM     52  O   UNL     1     -17.301 -13.239   3.841  1.00  0.00    -0.169 OA
ATOM     53  O   UNL     1     -16.738 -14.199   1.572  1.00  0.00    -0.169 OA
BRANCH  51  54
ATOM     54  O   UNL     1     -18.693 -12.721   1.909  1.00  0.00    -0.264 OA
ATOM     55  H   UNL     1     -19.333 -13.223   2.454  1.00  0.00     0.236 HD
ENDBRANCH  51  54
ENDBRANCH  50  51
ENDBRANCH   8  50
TORSDOF 19
ENDMDL
MODEL 6
REMARK VINA RESULT:    -8.121      3.039      5.269
REMARK INTER + INTRA:         -19.455
REMARK INTER:                 -14.710
REMARK INTRA:                  -4.744
REMARK UNBOUND:                -3.026
REMARK SMILES CC[C@@H](C)[C@@H](NC(=O)[C@@H](O)Cc1ccc(O)c(Cl)c1)C(=O)N1[C@H](C(=O)NCCCCN=C(N)N)C[C@H]2CC[C@H](OS(=O)(=O)O)C[C@@H]21
REMARK SMILES IDX 22 1 36 2 46 3 35 4 23 5 45 6 37 7 39 8 38 9 20 10 21 11
REMARK SMILES IDX 5 12 6 13 7 14 8 15 9 17 11 18 12 19 17 20 19 21 15 22 14 23
REMARK SMILES IDX 13 24 18 25 16 26 10 28 3 30 4 31 2 32 1 33 24 34 25 35
REMARK SMILES IDX 26 36 27 38 28 39 29 40 30 41 31 42 32 43 33 44 34 45 40 50
REMARK SMILES IDX 41 51 42 52 43 53 44 54
REMARK H PARENT 6 16 16 27 10 29 26 37 33 46 33 47 34 48 34 49 44 55
ROOT
ATOM      1  N   UNL     1     -11.271 -12.715   2.544  1.00  0.00    -0.326 N 
ATOM      2  C   UNL     1      -9.483 -11.460   1.665  1.00  0.00     0.014 C 
ATOM      3  C   UNL     1      -9.856 -12.851   2.188  1.00  0.00     0.091 C 
ATOM      4  C   UNL     1     -10.325 -10.539   2.534  1.00  0.00     0.041 C 
ATOM      5  C   UNL     1     -11.671 -11.286   2.499  1.00  0.00     0.175 C 
ATOM      6  C   UNL     1      -9.471 -13.884   1.131  1.00  0.00     0.059 C 
ATOM      7  C   UNL     1      -7.978 -11.280   1.631  1.00  0.00     0.008 C 
ATOM      8  C   UNL     1      -8.231 -13.489   0.299  1.00  0.00     0.143 C 
ATOM      9  C   UNL     1      -7.291 -12.544   1.073  1.00  0.00     0.034 C 
ENDROOT
BRANCH   1  10
ATOM     10  C   UNL     1     -12.143 -13.643   3.088  1.00  0.00     0.246 C 
ATOM     11  O   UNL     1     -12.565 -14.560   2.377  1.00  0.00    -0.272 OA
BRANCH  10  12
ATOM     12  C   UNL     1     -12.536 -13.536   4.590  1.00  0.00     0.174 C 
BRANCH  12  13
ATOM     13  N   UNL     1     -13.654 -12.607   4.748  1.00  0.00    -0.342 N 
ATOM     14  C   UNL     1     -14.980 -12.923   4.549  1.00  0.00     0.249 C 
ATOM     15  O   UNL     1     -15.375 -14.040   4.241  1.00  0.00    -0.272 OA
ATOM     16  H   UNL     1     -13.471 -11.611   4.847  1.00  0.00     0.164 HD
BRANCH  14  17
ATOM     17  C   UNL     1     -15.920 -11.720   4.777  1.00  0.00     0.207 C 
BRANCH  17  18
ATOM     18  C   UNL     1     -15.601 -11.037   6.111  1.00  0.00     0.077 C 
BRANCH  18  19
ATOM     19  C   UNL     1     -15.436  -9.542   5.950  1.00  0.00    -0.043 A 
ATOM     20  C   UNL     1     -14.726  -7.398   6.835  1.00  0.00     0.083 A 
ATOM     21  C   UNL     1     -14.831  -8.784   6.965  1.00  0.00     0.028 A 
ATOM     22  C   UNL     1     -15.223  -6.763   5.697  1.00  0.00     0.134 A 
ATOM     23  C   UNL     1     -15.824  -7.502   4.685  1.00  0.00     0.048 A 
ATOM     24  C   UNL     1     -15.933  -8.889   4.812  1.00  0.00     0.008 A 
ATOM     25  Cl  UNL     1     -13.980  -6.483   8.093  1.00  0.00    -0.080 Cl
BRANCH  22  26
ATOM     26  O   UNL     1     -15.151  -5.407   5.530  1.00  0.00    -0.506 OA
ATOM     27  H   UNL     1     -14.695  -5.252   4.682  1.00  0.00     0.293 HD
ENDBRANCH  22  26
ENDBRANCH  18  19
ENDBRANCH  17  18
BRANCH  17  28
ATOM     28  O   UNL     1     -17.296 -12.131   4.769  1.00  0.00    -0.383 OA
ATOM     29  H   UNL     1     -17.791 -11.434   5.257  1.00  0.00     0.211 HD
ENDBRANCH  17  28
ENDBRANCH  14  17
ENDBRANCH  12  13
BRANCH  12  30
ATOM     30  C   UNL     1     -11.333 -13.176   5.502  1.00  0.00     0.018 C 
ATOM     31  C   UNL     1     -10.981 -14.347   6.432  1.00  0.00     0.010 C 
BRANCH  30  32
ATOM     32  C   UNL     1     -11.545 -11.885   6.330  1.00  0.00     0.002 C 
ATOM     33  C   UNL     1     -12.029 -12.100   7.758  1.00  0.00     0.004 C 
ENDBRANCH  30  32
ENDBRANCH  12  30
ENDBRANCH  10  12
ENDBRANCH   1  10
BRANCH   5  34
ATOM     34  C   UNL     1     -12.463 -10.978   1.200  1.00  0.00     0.242 C 
ATOM     35  O   UNL     1     -12.692 -11.837   0.349  1.00  0.00    -0.273 OA
ATOM     36  N   UNL     1     -12.843  -9.664   1.045  1.00  0.00    -0.354 N 
ATOM     37  H   UNL     1     -12.521  -8.975   1.725  1.00  0.00     0.163 HD
BRANCH  36  38
ATOM     38  C   UNL     1     -13.766  -9.243   0.011  1.00  0.00     0.116 C 
BRANCH  38  39
ATOM     39  C   UNL     1     -14.925  -8.468   0.634  1.00  0.00     0.023 C 
BRANCH  39  40
ATOM     40  C   UNL     1     -16.022  -9.385   1.162  1.00  0.00     0.026 C 
BRANCH  40  41
ATOM     41  C   UNL     1     -16.140 -10.642   0.299  1.00  0.00     0.146 C 
BRANCH  41  42
ATOM     42  N   UNL     1     -17.001 -11.614   0.960  1.00  0.00    -0.254 NA
ATOM     43  C   UNL     1     -16.532 -12.762   1.278  1.00  0.00     0.185 C 
ATOM     44  N   UNL     1     -15.299 -13.273   1.102  1.00  0.00    -0.370 N 
ATOM     45  N   UNL     1     -17.343 -13.646   1.883  1.00  0.00    -0.370 N 
ATOM     46  H   UNL     1     -15.139 -14.263   1.175  1.00  0.00     0.159 HD
ATOM     47  H   UNL     1     -14.556 -12.733   0.671  1.00  0.00     0.159 HD
ATOM     48  H   UNL     1     -18.289 -13.337   2.061  1.00  0.00     0.159 HD
ATOM     49  H   UNL     1     -17.000 -14.456   2.368  1.00  0.00     0.159 HD
ENDBRANCH  41  42
ENDBRANCH  40  41
ENDBRANCH  39  40
ENDBRANCH  38  39
ENDBRANCH  36  38
ENDBRANCH   5  34
BRANCH   8  50
ATOM     50  O   UNL     1      -8.637 -12.839  -0.906  1.00  0.00    -0.245 OA
BRANCH  50  51
ATOM     51  S   UNL     1      -8.210 -13.471  -2.343  1.00  0.00     0.397 S 
ATOM     52  O   UNL     1      -8.140 -12.393  -3.302  1.00  0.00    -0.169 OA
ATOM     53  O   UNL     1      -8.989 -14.666  -2.598  1.00  0.00    -0.169 OA
BRANCH  51  54
ATOM     54  O   UNL     1      -6.689 -13.919  -2.074  1.00  0.00    -0.264 OA
ATOM     55  H   UNL     1      -6.474 -14.638  -2.703  1.00  0.00     0.236 HD
ENDBRANCH  51  54
ENDBRANCH  50  51
ENDBRANCH   8  50
TORSDOF 19
ENDMDL
MODEL 7
REMARK VINA RESULT:    -8.109      2.965      6.455
REMARK INTER + INTRA:         -19.431
REMARK INTER:                 -15.086
REMARK INTRA:                  -4.346
REMARK UNBOUND:                -3.026
REMARK SMILES CC[C@@H](C)[C@@H](NC(=O)[C@@H](O)Cc1ccc(O)c(Cl)c1)C(=O)N1[C@H](C(=O)NCCCCN=C(N)N)C[C@H]2CC[C@H](OS(=O)(=O)O)C[C@@H]21
REMARK SMILES IDX 22 1 36 2 46 3 35 4 23 5 45 6 37 7 39 8 38 9 20 10 21 11
REMARK SMILES IDX 5 12 6 13 7 14 8 15 9 17 11 18 12 19 17 20 19 21 15 22 14 23
REMARK SMILES IDX 13 24 18 25 16 26 10 28 3 30 4 31 2 32 1 33 24 34 25 35
REMARK SMILES IDX 26 36 27 38 28 39 29 40 30 41 31 42 32 43 33 44 34 45 40 50
REMARK SMILES IDX 41 51 42 52 43 53 44 54
REMARK H PARENT 6 16 16 27 10 29 26 37 33 46 33 47 34 48 34 49 44 55
ROOT
ATOM      1  N   UNL     1     -13.422 -11.778   2.715  1.00  0.00    -0.326 N 
ATOM      2  C   UNL     1     -12.332 -13.324   1.313  1.00  0.00     0.014 C 
ATOM      3  C   UNL     1     -12.609 -11.829   1.496  1.00  0.00     0.091 C 
ATOM      4  C   UNL     1     -13.613 -13.967   1.821  1.00  0.00     0.041 C 
ATOM      5  C   UNL     1     -13.839 -13.147   3.104  1.00  0.00     0.175 C 
ATOM      6  C   UNL     1     -11.275 -11.085   1.483  1.00  0.00     0.059 C 
ATOM      7  C   UNL     1     -11.859 -13.619  -0.096  1.00  0.00     0.008 C 
ATOM      8  C   UNL     1     -10.205 -11.744   0.586  1.00  0.00     0.143 C 
ATOM      9  C   UNL     1     -10.833 -12.563  -0.559  1.00  0.00     0.034 C 
ENDROOT
BRANCH   1  10
ATOM     10  C   UNL     1     -13.986 -10.691   3.360  1.00  0.00     0.246 C 
ATOM     11  O   UNL     1     -13.511 -10.320   4.439  1.00  0.00    -0.272 OA
BRANCH  10  12
ATOM     12  C   UNL     1     -15.173  -9.936   2.696  1.00  0.00     0.174 C 
BRANCH  12  13
ATOM     13  N   UNL     1     -15.260  -8.576   3.228  1.00  0.00    -0.342 N 
ATOM     14  C   UNL     1     -15.786  -7.496   2.554  1.00  0.00     0.249 C 
ATOM     15  O   UNL     1     -16.272  -7.563   1.432  1.00  0.00    -0.272 OA
ATOM     16  H   UNL     1     -14.758  -8.335   4.079  1.00  0.00     0.164 HD
BRANCH  14  17
ATOM     17  C   UNL     1     -15.718  -6.191   3.376  1.00  0.00     0.207 C 
BRANCH  17  18
ATOM     18  C   UNL     1     -16.375  -6.386   4.746  1.00  0.00     0.077 C 
BRANCH  18  19
ATOM     19  C   UNL     1     -15.454  -5.980   5.874  1.00  0.00    -0.043 A 
ATOM     20  C   UNL     1     -14.020  -6.577   7.737  1.00  0.00     0.083 A 
ATOM     21  C   UNL     1     -14.830  -6.956   6.666  1.00  0.00     0.028 A 
ATOM     22  C   UNL     1     -13.829  -5.225   8.024  1.00  0.00     0.134 A 
ATOM     23  C   UNL     1     -14.440  -4.248   7.248  1.00  0.00     0.048 A 
ATOM     24  C   UNL     1     -15.253  -4.624   6.176  1.00  0.00     0.008 A 
ATOM     25  Cl  UNL     1     -13.262  -7.792   8.699  1.00  0.00    -0.080 Cl
BRANCH  22  26
ATOM     26  O   UNL     1     -13.052  -4.806   9.070  1.00  0.00    -0.506 OA
ATOM     27  H   UNL     1     -13.065  -5.520   9.733  1.00  0.00     0.293 HD
ENDBRANCH  22  26
ENDBRANCH  18  19
ENDBRANCH  17  18
BRANCH  17  28
ATOM     28  O   UNL     1     -16.367  -5.111   2.686  1.00  0.00    -0.383 OA
ATOM     29  H   UNL     1     -16.229  -4.311   3.242  1.00  0.00     0.211 HD
ENDBRANCH  17  28
ENDBRANCH  14  17
ENDBRANCH  12  13
BRANCH  12  30
ATOM     30  C   UNL     1     -16.516 -10.705   2.817  1.00  0.00     0.018 C 
ATOM     31  C   UNL     1     -16.680 -11.301   4.224  1.00  0.00     0.010 C 
BRANCH  30  32
ATOM     32  C   UNL     1     -16.699 -11.809   1.748  1.00  0.00     0.002 C 
ATOM     33  C   UNL     1     -17.506 -13.021   2.194  1.00  0.00     0.004 C 
ENDBRANCH  30  32
ENDBRANCH  12  30
ENDBRANCH  10  12
ENDBRANCH   1  10
BRANCH   5  34
ATOM     34  C   UNL     1     -12.973 -13.674   4.279  1.00  0.00     0.242 C 
ATOM     35  O   UNL     1     -12.005 -14.414   4.103  1.00  0.00    -0.273 OA
ATOM     36  N   UNL     1     -13.397 -13.298   5.534  1.00  0.00    -0.354 N 
ATOM     37  H   UNL     1     -14.274 -12.784   5.623  1.00  0.00     0.163 HD
BRANCH  36  38
ATOM     38  C   UNL     1     -12.593 -13.515   6.719  1.00  0.00     0.116 C 
BRANCH  38  39
ATOM     39  C   UNL     1     -12.646 -12.280   7.615  1.00  0.00     0.023 C 
BRANCH  39  40
ATOM     40  C   UNL     1     -11.653 -11.206   7.185  1.00  0.00     0.026 C 
BRANCH  40  41
ATOM     41  C   UNL     1     -10.270 -11.811   6.945  1.00  0.00     0.146 C 
BRANCH  41  42
ATOM     42  N   UNL     1      -9.564 -11.040   5.929  1.00  0.00    -0.254 NA
ATOM     43  C   UNL     1      -9.252 -11.594   4.819  1.00  0.00     0.185 C 
ATOM     44  N   UNL     1      -9.472 -12.849   4.385  1.00  0.00    -0.370 N 
ATOM     45  N   UNL     1      -8.598 -10.868   3.897  1.00  0.00    -0.370 N 
ATOM     46  H   UNL     1      -8.962 -13.217   3.600  1.00  0.00     0.159 HD
ATOM     47  H   UNL     1      -9.967 -13.530   4.952  1.00  0.00     0.159 HD
ATOM     48  H   UNL     1      -8.400  -9.907   4.141  1.00  0.00     0.159 HD
ATOM     49  H   UNL     1      -8.530 -11.146   2.934  1.00  0.00     0.159 HD
ENDBRANCH  41  42
ENDBRANCH  40  41
ENDBRANCH  39  40
ENDBRANCH  38  39
ENDBRANCH  36  38
ENDBRANCH   5  34
BRANCH   8  50
ATOM     50  O   UNL     1      -9.379 -12.611   1.364  1.00  0.00    -0.245 OA
BRANCH  50  51
ATOM     51  S   UNL     1      -7.783 -12.685   1.061  1.00  0.00     0.397 S 
ATOM     52  O   UNL     1      -7.274 -11.333   1.014  1.00  0.00    -0.169 OA
ATOM     53  O   UNL     1      -7.535 -13.628  -0.011  1.00  0.00    -0.169 OA
BRANCH  51  54
ATOM     54  O   UNL     1      -7.212 -13.321   2.423  1.00  0.00    -0.264 OA
ATOM     55  H   UNL     1      -7.682 -14.166   2.578  1.00  0.00     0.236 HD
ENDBRANCH  51  54
ENDBRANCH  50  51
ENDBRANCH   8  50
TORSDOF 19
ENDMDL
MODEL 8
REMARK VINA RESULT:    -8.102      3.658      6.764
REMARK INTER + INTRA:         -19.416
REMARK INTER:                 -14.896
REMARK INTRA:                  -4.519
REMARK UNBOUND:                -3.026
REMARK SMILES CC[C@@H](C)[C@@H](NC(=O)[C@@H](O)Cc1ccc(O)c(Cl)c1)C(=O)N1[C@H](C(=O)NCCCCN=C(N)N)C[C@H]2CC[C@H](OS(=O)(=O)O)C[C@@H]21
REMARK SMILES IDX 22 1 36 2 46 3 35 4 23 5 45 6 37 7 39 8 38 9 20 10 21 11
REMARK SMILES IDX 5 12 6 13 7 14 8 15 9 17 11 18 12 19 17 20 19 21 15 22 14 23
REMARK SMILES IDX 13 24 18 25 16 26 10 28 3 30 4 31 2 32 1 33 24 34 25 35
REMARK SMILES IDX 26 36 27 38 28 39 29 40 30 41 31 42 32 43 33 44 34 45 40 50
REMARK SMILES IDX 41 51 42 52 43 53 44 54
REMARK H PARENT 6 16 16 27 10 29 26 37 33 46 33 47 34 48 34 49 44 55
ROOT
ATOM      1  N   UNL     1     -12.214 -12.003   4.020  1.00  0.00    -0.326 N 
ATOM      2  C   UNL     1     -11.286 -12.288   6.165  1.00  0.00     0.014 C 
ATOM      3  C   UNL     1     -12.273 -12.908   5.171  1.00  0.00     0.091 C 
ATOM      4  C   UNL     1     -11.452 -10.797   5.916  1.00  0.00     0.041 C 
ATOM      5  C   UNL     1     -11.457 -10.777   4.376  1.00  0.00     0.175 C 
ATOM      6  C   UNL     1     -11.892 -14.372   4.962  1.00  0.00     0.059 C 
ATOM      7  C   UNL     1     -11.506 -12.838   7.561  1.00  0.00     0.008 C 
ATOM      8  C   UNL     1     -11.265 -15.036   6.207  1.00  0.00     0.143 C 
ATOM      9  C   UNL     1     -11.728 -14.364   7.516  1.00  0.00     0.034 C 
ENDROOT
BRANCH   1  10
ATOM     10  C   UNL     1     -12.906 -12.044   2.821  1.00  0.00     0.246 C 
ATOM     11  O   UNL     1     -12.299 -12.342   1.787  1.00  0.00    -0.272 OA
BRANCH  10  12
ATOM     12  C   UNL     1     -14.435 -11.757   2.809  1.00  0.00     0.174 C 
BRANCH  12  13
ATOM     13  N   UNL     1     -14.702 -10.447   3.401  1.00  0.00    -0.342 N 
ATOM     14  C   UNL     1     -14.596  -9.244   2.738  1.00  0.00     0.249 C 
ATOM     15  O   UNL     1     -14.290  -9.141   1.557  1.00  0.00    -0.272 OA
ATOM     16  H   UNL     1     -14.813 -10.362   4.408  1.00  0.00     0.164 HD
BRANCH  14  17
ATOM     17  C   UNL     1     -14.927  -8.036   3.641  1.00  0.00     0.207 C 
BRANCH  17  18
ATOM     18  C   UNL     1     -15.773  -8.479   4.839  1.00  0.00     0.077 C 
BRANCH  18  19
ATOM     19  C   UNL     1     -15.117  -8.119   6.153  1.00  0.00    -0.043 A 
ATOM     20  C   UNL     1     -14.235  -6.448   7.675  1.00  0.00     0.083 A 
ATOM     21  C   UNL     1     -14.885  -6.775   6.484  1.00  0.00     0.028 A 
ATOM     22  C   UNL     1     -13.813  -7.459   8.540  1.00  0.00     0.134 A 
ATOM     23  C   UNL     1     -14.036  -8.794   8.224  1.00  0.00     0.048 A 
ATOM     24  C   UNL     1     -14.685  -9.124   7.032  1.00  0.00     0.008 A 
ATOM     25  Cl  UNL     1     -13.958  -4.791   8.064  1.00  0.00    -0.080 Cl
BRANCH  22  26
ATOM     26  O   UNL     1     -13.162  -7.188   9.713  1.00  0.00    -0.506 OA
ATOM     27  H   UNL     1     -13.028  -6.223   9.743  1.00  0.00     0.293 HD
ENDBRANCH  22  26
ENDBRANCH  18  19
ENDBRANCH  17  18
BRANCH  17  28
ATOM     28  O   UNL     1     -15.632  -7.021   2.908  1.00  0.00    -0.383 OA
ATOM     29  H   UNL     1     -15.800  -6.292   3.547  1.00  0.00     0.211 HD
ENDBRANCH  17  28
ENDBRANCH  14  17
ENDBRANCH  12  13
BRANCH  12  30
ATOM     30  C   UNL     1     -15.263 -12.888   3.477  1.00  0.00     0.018 C 
ATOM     31  C   UNL     1     -15.015 -14.233   2.776  1.00  0.00     0.010 C 
BRANCH  30  32
ATOM     32  C   UNL     1     -16.781 -12.593   3.539  1.00  0.00     0.002 C 
ATOM     33  C   UNL     1     -17.525 -12.723   2.216  1.00  0.00     0.004 C 
ENDBRANCH  30  32
ENDBRANCH  12  30
ENDBRANCH  10  12
ENDBRANCH   1  10
BRANCH   5  34
ATOM     34  C   UNL     1     -10.017 -10.831   3.799  1.00  0.00     0.242 C 
ATOM     35  O   UNL     1      -9.027 -10.986   4.514  1.00  0.00    -0.273 OA
ATOM     36  N   UNL     1      -9.924 -10.640   2.439  1.00  0.00    -0.354 N 
ATOM     37  H   UNL     1     -10.768 -10.398   1.917  1.00  0.00     0.163 HD
BRANCH  36  38
ATOM     38  C   UNL     1      -8.696 -10.872   1.708  1.00  0.00     0.116 C 
BRANCH  38  39
ATOM     39  C   UNL     1      -9.014 -11.415   0.317  1.00  0.00     0.023 C 
BRANCH  39  40
ATOM     40  C   UNL     1      -8.553 -12.857   0.134  1.00  0.00     0.026 C 
BRANCH  40  41
ATOM     41  C   UNL     1      -9.075 -13.740   1.268  1.00  0.00     0.146 C 
BRANCH  41  42
ATOM     42  N   UNL     1      -8.011 -14.619   1.736  1.00  0.00    -0.254 NA
ATOM     43  C   UNL     1      -7.596 -14.522   2.943  1.00  0.00     0.185 C 
ATOM     44  N   UNL     1      -7.991 -13.699   3.931  1.00  0.00    -0.370 N 
ATOM     45  N   UNL     1      -6.612 -15.339   3.354  1.00  0.00    -0.370 N 
ATOM     46  H   UNL     1      -7.418 -13.564   4.746  1.00  0.00     0.159 HD
ATOM     47  H   UNL     1      -8.737 -13.024   3.796  1.00  0.00     0.159 HD
ATOM     48  H   UNL     1      -6.262 -15.998   2.672  1.00  0.00     0.159 HD
ATOM     49  H   UNL     1      -6.399 -15.489   4.324  1.00  0.00     0.159 HD
ENDBRANCH  41  42
ENDBRANCH  40  41
ENDBRANCH  39  40
ENDBRANCH  38  39
ENDBRANCH  36  38
ENDBRANCH   5  34
BRANCH   8  50
ATOM     50  O   UNL     1      -9.841 -14.960   6.138  1.00  0.00    -0.245 OA
BRANCH  50  51
ATOM     51  S   UNL     1      -8.962 -16.329   6.152  1.00  0.00     0.397 S 
ATOM     52  O   UNL     1      -9.078 -16.947   4.851  1.00  0.00    -0.169 OA
ATOM     53  O   UNL     1      -9.230 -17.065   7.370  1.00  0.00    -0.169 OA
BRANCH  51  54
ATOM     54  O   UNL     1      -7.460 -15.762   6.235  1.00  0.00    -0.264 OA
ATOM     55  H   UNL     1      -6.857 -16.528   6.329  1.00  0.00     0.236 HD
ENDBRANCH  51  54
ENDBRANCH  50  51
ENDBRANCH   8  50
TORSDOF 19
ENDMDL
MODEL 9
REMARK VINA RESULT:    -8.069      3.084      7.904
REMARK INTER + INTRA:         -19.350
REMARK INTER:                 -15.709
REMARK INTRA:                  -3.641
REMARK UNBOUND:                -3.026
REMARK SMILES CC[C@@H](C)[C@@H](NC(=O)[C@@H](O)Cc1ccc(O)c(Cl)c1)C(=O)N1[C@H](C(=O)NCCCCN=C(N)N)C[C@H]2CC[C@H](OS(=O)(=O)O)C[C@@H]21
REMARK SMILES IDX 22 1 36 2 46 3 35 4 23 5 45 6 37 7 39 8 38 9 20 10 21 11
REMARK SMILES IDX 5 12 6 13 7 14 8 15 9 17 11 18 12 19 17 20 19 21 15 22 14 23
REMARK SMILES IDX 13 24 18 25 16 26 10 28 3 30 4 31 2 32 1 33 24 34 25 35
REMARK SMILES IDX 26 36 27 38 28 39 29 40 30 41 31 42 32 43 33 44 34 45 40 50
REMARK SMILES IDX 41 51 42 52 43 53 44 54
REMARK H PARENT 6 16 16 27 10 29 26 37 33 46 33 47 34 48 34 49 44 55
ROOT
ATOM      1  N   UNL     1     -14.584  -9.716   4.695  1.00  0.00    -0.326 N 
ATOM      2  C   UNL     1     -14.104 -11.923   5.359  1.00  0.00     0.014 C 
ATOM      3  C   UNL     1     -13.970 -10.947   4.187  1.00  0.00     0.091 C 
ATOM      4  C   UNL     1     -15.432 -11.520   5.980  1.00  0.00     0.041 C 
ATOM      5  C   UNL     1     -15.281  -9.988   5.976  1.00  0.00     0.175 C 
ATOM      6  C   UNL     1     -12.504 -10.903   3.760  1.00  0.00     0.059 C 
ATOM      7  C   UNL     1     -13.903 -13.354   4.898  1.00  0.00     0.008 C 
ATOM      8  C   UNL     1     -11.756 -12.238   3.967  1.00  0.00     0.143 C 
ATOM      9  C   UNL     1     -12.710 -13.448   3.924  1.00  0.00     0.034 C 
ENDROOT
BRANCH   1  10
ATOM     10  C   UNL     1     -14.769  -8.494   4.071  1.00  0.00     0.246 C 
ATOM     11  O   UNL     1     -14.100  -7.523   4.439  1.00  0.00    -0.272 OA
BRANCH  10  12
ATOM     12  C   UNL     1     -15.782  -8.379   2.895  1.00  0.00     0.174 C 
BRANCH  12  13
ATOM     13  N   UNL     1     -15.532  -9.438   1.917  1.00  0.00    -0.342 N 
ATOM     14  C   UNL     1     -16.205 -10.638   1.862  1.00  0.00     0.249 C 
ATOM     15  O   UNL     1     -17.118 -10.943   2.619  1.00  0.00    -0.272 OA
ATOM     16  H   UNL     1     -14.705  -9.394   1.327  1.00  0.00     0.164 HD
BRANCH  14  17
ATOM     17  C   UNL     1     -15.700 -11.553   0.726  1.00  0.00     0.207 C 
BRANCH  17  18
ATOM     18  C   UNL     1     -14.614 -10.844  -0.090  1.00  0.00     0.077 C 
BRANCH  18  19
ATOM     19  C   UNL     1     -13.257 -11.481   0.107  1.00  0.00    -0.043 A 
ATOM     20  C   UNL     1     -10.841 -11.293   0.211  1.00  0.00     0.083 A 
ATOM     21  C   UNL     1     -12.095 -10.695   0.079  1.00  0.00     0.028 A 
ATOM     22  C   UNL     1     -10.740 -12.676   0.370  1.00  0.00     0.134 A 
ATOM     23  C   UNL     1     -11.883 -13.466   0.399  1.00  0.00     0.048 A 
ATOM     24  C   UNL     1     -13.139 -12.871   0.265  1.00  0.00     0.008 A 
ATOM     25  Cl  UNL     1      -9.424 -10.311   0.175  1.00  0.00    -0.080 Cl
BRANCH  22  26
ATOM     26  O   UNL     1      -9.533 -13.308   0.493  1.00  0.00    -0.506 OA
ATOM     27  H   UNL     1      -8.856 -12.687   0.165  1.00  0.00     0.293 HD
ENDBRANCH  22  26
ENDBRANCH  18  19
ENDBRANCH  17  18
BRANCH  17  28
ATOM     28  O   UNL     1     -16.775 -11.939  -0.145  1.00  0.00    -0.383 OA
ATOM     29  H   UNL     1     -17.573 -11.465   0.182  1.00  0.00     0.211 HD
ENDBRANCH  17  28
ENDBRANCH  14  17
ENDBRANCH  12  13
BRANCH  12  30
ATOM     30  C   UNL     1     -15.794  -6.967   2.249  1.00  0.00     0.018 C 
ATOM     31  C   UNL     1     -16.732  -6.023   3.018  1.00  0.00     0.010 C 
BRANCH  30  32
ATOM     32  C   UNL     1     -16.162  -6.975   0.745  1.00  0.00     0.002 C 
ATOM     33  C   UNL     1     -17.394  -6.160   0.373  1.00  0.00     0.004 C 
ENDBRANCH  30  32
ENDBRANCH  12  30
ENDBRANCH  10  12
ENDBRANCH   1  10
BRANCH   5  34
ATOM     34  C   UNL     1     -14.435  -9.492   7.179  1.00  0.00     0.242 C 
ATOM     35  O   UNL     1     -13.210  -9.391   7.124  1.00  0.00    -0.273 OA
ATOM     36  N   UNL     1     -15.148  -9.227   8.326  1.00  0.00    -0.354 N 
ATOM     37  H   UNL     1     -16.145  -9.445   8.347  1.00  0.00     0.163 HD
BRANCH  36  38
ATOM     38  C   UNL     1     -14.557  -8.558   9.467  1.00  0.00     0.116 C 
BRANCH  38  39
ATOM     39  C   UNL     1     -15.143  -7.154   9.604  1.00  0.00     0.023 C 
BRANCH  39  40
ATOM     40  C   UNL     1     -14.092  -6.064   9.420  1.00  0.00     0.026 C 
BRANCH  40  41
ATOM     41  C   UNL     1     -13.561  -6.060   7.987  1.00  0.00     0.146 C 
BRANCH  41  42
ATOM     42  N   UNL     1     -14.089  -4.908   7.269  1.00  0.00    -0.254 NA
ATOM     43  C   UNL     1     -15.173  -5.022   6.598  1.00  0.00     0.185 C 
ATOM     44  N   UNL     1     -15.974  -6.089   6.423  1.00  0.00    -0.370 N 
ATOM     45  N   UNL     1     -15.641  -3.949   5.940  1.00  0.00    -0.370 N 
ATOM     46  H   UNL     1     -16.652  -6.105   5.681  1.00  0.00     0.159 HD
ATOM     47  H   UNL     1     -15.775  -6.983   6.863  1.00  0.00     0.159 HD
ATOM     48  H   UNL     1     -15.100  -3.099   6.026  1.00  0.00     0.159 HD
ATOM     49  H   UNL     1     -16.583  -3.889   5.597  1.00  0.00     0.159 HD
ENDBRANCH  41  42
ENDBRANCH  40  41
ENDBRANCH  39  40
ENDBRANCH  38  39
ENDBRANCH  36  38
ENDBRANCH   5  34
BRANCH   8  50
ATOM     50  O   UNL     1     -11.085 -12.234   5.227  1.00  0.00    -0.245 OA
BRANCH  50  51
ATOM     51  S   UNL     1      -9.498 -11.882   5.291  1.00  0.00     0.397 S 
ATOM     52  O   UNL     1      -9.194 -11.435   6.632  1.00  0.00    -0.169 OA
ATOM     53  O   UNL     1      -9.125 -11.105   4.128  1.00  0.00    -0.169 OA
BRANCH  51  54
ATOM     54  O   UNL     1      -8.827 -13.337   5.152  1.00  0.00    -0.264 OA
ATOM     55  H   UNL     1      -9.447 -13.990   5.536  1.00  0.00     0.236 HD
ENDBRANCH  51  54
ENDBRANCH  50  51
ENDBRANCH   8  50
TORSDOF 19
ENDMDL
MODEL 10
REMARK VINA RESULT:    -8.047      7.051     11.096
REMARK INTER + INTRA:         -19.304
REMARK INTER:                 -16.481
REMARK INTRA:                  -2.823
REMARK UNBOUND:                -3.026
REMARK SMILES CC[C@@H](C)[C@@H](NC(=O)[C@@H](O)Cc1ccc(O)c(Cl)c1)C(=O)N1[C@H](C(=O)NCCCCN=C(N)N)C[C@H]2CC[C@H](OS(=O)(=O)O)C[C@@H]21
REMARK SMILES IDX 22 1 36 2 46 3 35 4 23 5 45 6 37 7 39 8 38 9 20 10 21 11
REMARK SMILES IDX 5 12 6 13 7 14 8 15 9 17 11 18 12 19 17 20 19 21 15 22 14 23
REMARK SMILES IDX 13 24 18 25 16 26 10 28 3 30 4 31 2 32 1 33 24 34 25 35
REMARK SMILES IDX 26 36 27 38 28 39 29 40 30 41 31 42 32 43 33 44 34 45 40 50
REMARK SMILES IDX 41 51 42 52 43 53 44 54
REMARK H PARENT 6 16 16 27 10 29 26 37 33 46 33 47 34 48 34 49 44 55
ROOT
ATOM      1  N   UNL     1      -9.484 -12.040  -2.016  1.00  0.00    -0.326 N 
ATOM      2  C   UNL     1      -9.760 -13.654  -3.706  1.00  0.00     0.014 C 
ATOM      3  C   UNL     1     -10.024 -12.184  -3.371  1.00  0.00     0.091 C 
ATOM      4  C   UNL     1      -9.939 -14.342  -2.362  1.00  0.00     0.041 C 
ATOM      5  C   UNL     1      -9.157 -13.374  -1.455  1.00  0.00     0.175 C 
ATOM      6  C   UNL     1      -9.430 -11.321  -4.483  1.00  0.00     0.059 C 
ATOM      7  C   UNL     1     -10.601 -14.100  -4.887  1.00  0.00     0.008 C 
ATOM      8  C   UNL     1      -9.460 -11.992  -5.873  1.00  0.00     0.143 C 
ATOM      9  C   UNL     1     -10.598 -13.025  -5.993  1.00  0.00     0.034 C 
ENDROOT
BRANCH   1  10
ATOM     10  C   UNL     1      -9.456 -10.933  -1.185  1.00  0.00     0.246 C 
ATOM     11  O   UNL     1      -8.802  -9.941  -1.526  1.00  0.00    -0.272 OA
BRANCH  10  12
ATOM     12  C   UNL     1     -10.279 -10.944   0.136  1.00  0.00     0.174 C 
BRANCH  12  13
ATOM     13  N   UNL     1      -9.592 -11.750   1.145  1.00  0.00    -0.342 N 
ATOM     14  C   UNL     1      -8.448 -11.374   1.812  1.00  0.00     0.249 C 
ATOM     15  O   UNL     1      -7.888 -10.297   1.652  1.00  0.00    -0.272 OA
ATOM     16  H   UNL     1      -9.848 -12.726   1.269  1.00  0.00     0.164 HD
BRANCH  14  17
ATOM     17  C   UNL     1      -7.956 -12.450   2.803  1.00  0.00     0.207 C 
BRANCH  17  18
ATOM     18  C   UNL     1      -9.145 -13.146   3.473  1.00  0.00     0.077 C 
BRANCH  18  19
ATOM     19  C   UNL     1      -9.168 -14.629   3.177  1.00  0.00    -0.043 A 
ATOM     20  C   UNL     1      -8.027 -16.765   3.051  1.00  0.00     0.083 A 
ATOM     21  C   UNL     1      -8.016 -15.408   3.371  1.00  0.00     0.028 A 
ATOM     22  C   UNL     1      -9.182 -17.353   2.535  1.00  0.00     0.134 A 
ATOM     23  C   UNL     1     -10.330 -16.593   2.338  1.00  0.00     0.048 A 
ATOM     24  C   UNL     1     -10.322 -15.233   2.656  1.00  0.00     0.008 A 
ATOM     25  Cl  UNL     1      -6.602 -17.706   3.296  1.00  0.00    -0.080 Cl
BRANCH  22  26
ATOM     26  O   UNL     1      -9.237 -18.678   2.196  1.00  0.00    -0.506 OA
ATOM     27  H   UNL     1     -10.181 -18.924   2.179  1.00  0.00     0.293 HD
ENDBRANCH  22  26
ENDBRANCH  18  19
ENDBRANCH  17  18
BRANCH  17  28
ATOM     28  O   UNL     1      -7.109 -11.876   3.812  1.00  0.00    -0.383 OA
ATOM     29  H   UNL     1      -6.491 -11.274   3.339  1.00  0.00     0.211 HD
ENDBRANCH  17  28
ENDBRANCH  14  17
ENDBRANCH  12  13
BRANCH  12  30
ATOM     30  C   UNL     1     -11.750 -11.391  -0.078  1.00  0.00     0.018 C 
ATOM     31  C   UNL     1     -12.713 -10.209   0.115  1.00  0.00     0.010 C 
BRANCH  30  32
ATOM     32  C   UNL     1     -12.177 -12.576   0.821  1.00  0.00     0.002 C 
ATOM     33  C   UNL     1     -12.602 -13.837   0.079  1.00  0.00     0.004 C 
ENDBRANCH  30  32
ENDBRANCH  12  30
ENDBRANCH  10  12
ENDBRANCH   1  10
BRANCH   5  34
ATOM     34  C   UNL     1      -7.629 -13.638  -1.518  1.00  0.00     0.242 C 
ATOM     35  O   UNL     1      -6.905 -13.558  -0.526  1.00  0.00    -0.273 OA
ATOM     36  N   UNL     1      -7.134 -13.915  -2.773  1.00  0.00    -0.354 N 
ATOM     37  H   UNL     1      -7.763 -13.849  -3.575  1.00  0.00     0.163 HD
BRANCH  36  38
ATOM     38  C   UNL     1      -5.784 -14.395  -2.983  1.00  0.00     0.116 C 
BRANCH  38  39
ATOM     39  C   UNL     1      -5.699 -15.138  -4.314  1.00  0.00     0.023 C 
BRANCH  39  40
ATOM     40  C   UNL     1      -6.968 -15.925  -4.624  1.00  0.00     0.026 C 
BRANCH  40  41
ATOM     41  C   UNL     1      -6.743 -17.422  -4.409  1.00  0.00     0.146 C 
BRANCH  41  42
ATOM     42  N   UNL     1      -6.810 -18.118  -5.688  1.00  0.00    -0.254 NA
ATOM     43  C   UNL     1      -6.831 -19.398  -5.711  1.00  0.00     0.185 C 
ATOM     44  N   UNL     1      -6.803 -20.282  -4.697  1.00  0.00    -0.370 N 
ATOM     45  N   UNL     1      -6.889 -20.021  -6.899  1.00  0.00    -0.370 N 
ATOM     46  H   UNL     1      -6.579 -21.248  -4.866  1.00  0.00     0.159 HD
ATOM     47  H   UNL     1      -6.773 -19.982  -3.728  1.00  0.00     0.159 HD
ATOM     48  H   UNL     1      -6.922 -19.426  -7.716  1.00  0.00     0.159 HD
ATOM     49  H   UNL     1      -7.145 -20.987  -6.995  1.00  0.00     0.159 HD
ENDBRANCH  41  42
ENDBRANCH  40  41
ENDBRANCH  39  40
ENDBRANCH  38  39
ENDBRANCH  36  38
ENDBRANCH   5  34
BRANCH   8  50
ATOM     50  O   UNL     1      -8.220 -12.652  -6.125  1.00  0.00    -0.245 OA
BRANCH  50  51
ATOM     51  S   UNL     1      -7.232 -12.090  -7.289  1.00  0.00     0.397 S 
ATOM     52  O   UNL     1      -7.311 -10.646  -7.282  1.00  0.00    -0.169 OA
ATOM     53  O   UNL     1      -7.425 -12.855  -8.502  1.00  0.00    -0.169 OA
BRANCH  51  54
ATOM     54  O   UNL     1      -5.780 -12.451  -6.700  1.00  0.00    -0.264 OA
ATOM     55  H   UNL     1      -5.389 -13.141  -7.274  1.00  0.00     0.236 HD
ENDBRANCH  51  54
ENDBRANCH  50  51
ENDBRANCH   8  50
TORSDOF 19
ENDMDL
MODEL 11
REMARK VINA RESULT:    -8.032      3.110      6.898
REMARK INTER + INTRA:         -19.275
REMARK INTER:                 -14.908
REMARK INTRA:                  -4.367
REMARK UNBOUND:                -3.026
REMARK SMILES CC[C@@H](C)[C@@H](NC(=O)[C@@H](O)Cc1ccc(O)c(Cl)c1)C(=O)N1[C@H](C(=O)NCCCCN=C(N)N)C[C@H]2CC[C@H](OS(=O)(=O)O)C[C@@H]21
REMARK SMILES IDX 22 1 36 2 46 3 35 4 23 5 45 6 37 7 39 8 38 9 20 10 21 11
REMARK SMILES IDX 5 12 6 13 7 14 8 15 9 17 11 18 12 19 17 20 19 21 15 22 14 23
REMARK SMILES IDX 13 24 18 25 16 26 10 28 3 30 4 31 2 32 1 33 24 34 25 35
REMARK SMILES IDX 26 36 27 38 28 39 29 40 30 41 31 42 32 43 33 44 34 45 40 50
REMARK SMILES IDX 41 51 42 52 43 53 44 54
REMARK H PARENT 6 16 16 27 10 29 26 37 33 46 33 47 34 48 34 49 44 55
ROOT
ATOM      1  N   UNL     1     -15.054 -11.352   4.040  1.00  0.00    -0.326 N 
ATOM      2  C   UNL     1     -13.783  -9.715   2.924  1.00  0.00     0.014 C 
ATOM      3  C   UNL     1     -14.809 -10.827   2.693  1.00  0.00     0.091 C 
ATOM      4  C   UNL     1     -12.947 -10.263   4.070  1.00  0.00     0.041 C 
ATOM      5  C   UNL     1     -14.061 -10.794   4.990  1.00  0.00     0.175 C 
ATOM      6  C   UNL     1     -15.989 -10.243   1.918  1.00  0.00     0.059 C 
ATOM      7  C   UNL     1     -13.102  -9.327   1.626  1.00  0.00     0.008 C 
ATOM      8  C   UNL     1     -15.595  -9.107   0.950  1.00  0.00     0.143 C 
ATOM      9  C   UNL     1     -14.131  -9.228   0.480  1.00  0.00     0.034 C 
ENDROOT
BRANCH   1  10
ATOM     10  C   UNL     1     -15.878 -12.385   4.454  1.00  0.00     0.246 C 
ATOM     11  O   UNL     1     -17.041 -12.130   4.784  1.00  0.00    -0.272 OA
BRANCH  10  12
ATOM     12  C   UNL     1     -15.338 -13.844   4.453  1.00  0.00     0.174 C 
BRANCH  12  13
ATOM     13  N   UNL     1     -13.878 -13.836   4.362  1.00  0.00    -0.342 N 
ATOM     14  C   UNL     1     -13.020 -14.136   5.395  1.00  0.00     0.249 C 
ATOM     15  O   UNL     1     -13.390 -14.475   6.513  1.00  0.00    -0.272 OA
ATOM     16  H   UNL     1     -13.427 -13.425   3.548  1.00  0.00     0.164 HD
BRANCH  14  17
ATOM     17  C   UNL     1     -11.535 -14.021   4.989  1.00  0.00     0.207 C 
BRANCH  17  18
ATOM     18  C   UNL     1     -11.357 -14.366   3.507  1.00  0.00     0.077 C 
BRANCH  18  19
ATOM     19  C   UNL     1     -10.873 -13.177   2.708  1.00  0.00    -0.043 A 
ATOM     20  C   UNL     1     -10.871 -11.883   0.656  1.00  0.00     0.083 A 
ATOM     21  C   UNL     1     -11.356 -12.952   1.410  1.00  0.00     0.028 A 
ATOM     22  C   UNL     1      -9.902 -11.034   1.192  1.00  0.00     0.134 A 
ATOM     23  C   UNL     1      -9.415 -11.244   2.477  1.00  0.00     0.048 A 
ATOM     24  C   UNL     1      -9.897 -12.315   3.233  1.00  0.00     0.008 A 
ATOM     25  Cl  UNL     1     -11.477 -11.623  -0.937  1.00  0.00    -0.080 Cl
BRANCH  22  26
ATOM     26  O   UNL     1      -9.389  -9.978   0.488  1.00  0.00    -0.506 OA
ATOM     27  H   UNL     1      -9.513 -10.185  -0.457  1.00  0.00     0.293 HD
ENDBRANCH  22  26
ENDBRANCH  18  19
ENDBRANCH  17  18
BRANCH  17  28
ATOM     28  O   UNL     1     -10.712 -14.891   5.784  1.00  0.00    -0.383 OA
ATOM     29  H   UNL     1     -11.119 -14.907   6.680  1.00  0.00     0.211 HD
ENDBRANCH  17  28
ENDBRANCH  14  17
ENDBRANCH  12  13
BRANCH  12  30
ATOM     30  C   UNL     1     -15.995 -14.727   3.358  1.00  0.00     0.018 C 
ATOM     31  C   UNL     1     -15.206 -16.031   3.162  1.00  0.00     0.010 C 
BRANCH  30  32
ATOM     32  C   UNL     1     -16.173 -14.004   2.001  1.00  0.00     0.002 C 
ATOM     33  C   UNL     1     -15.040 -14.205   1.002  1.00  0.00     0.004 C 
ENDBRANCH  30  32
ENDBRANCH  12  30
ENDBRANCH  10  12
ENDBRANCH   1  10
BRANCH   5  34
ATOM     34  C   UNL     1     -14.692  -9.657   5.839  1.00  0.00     0.242 C 
ATOM     35  O   UNL     1     -15.782  -9.157   5.563  1.00  0.00    -0.273 OA
ATOM     36  N   UNL     1     -13.919  -9.214   6.890  1.00  0.00    -0.354 N 
ATOM     37  H   UNL     1     -12.974  -9.584   6.995  1.00  0.00     0.163 HD
BRANCH  36  38
ATOM     38  C   UNL     1     -14.436  -8.320   7.905  1.00  0.00     0.116 C 
BRANCH  38  39
ATOM     39  C   UNL     1     -13.406  -7.235   8.213  1.00  0.00     0.023 C 
BRANCH  39  40
ATOM     40  C   UNL     1     -14.054  -5.909   8.597  1.00  0.00     0.026 C 
BRANCH  40  41
ATOM     41  C   UNL     1     -14.282  -5.038   7.362  1.00  0.00     0.146 C 
BRANCH  41  42
ATOM     42  N   UNL     1     -14.632  -5.878   6.224  1.00  0.00    -0.254 NA
ATOM     43  C   UNL     1     -15.681  -5.613   5.541  1.00  0.00     0.185 C 
ATOM     44  N   UNL     1     -16.585  -4.628   5.690  1.00  0.00    -0.370 N 
ATOM     45  N   UNL     1     -15.989  -6.403   4.499  1.00  0.00    -0.370 N 
ATOM     46  H   UNL     1     -17.483  -4.683   5.240  1.00  0.00     0.159 HD
ATOM     47  H   UNL     1     -16.498  -3.931   6.423  1.00  0.00     0.159 HD
ATOM     48  H   UNL     1     -15.353  -7.166   4.311  1.00  0.00     0.159 HD
ATOM     49  H   UNL     1     -16.642  -6.132   3.785  1.00  0.00     0.159 HD
ENDBRANCH  41  42
ENDBRANCH  40  41
ENDBRANCH  39  40
ENDBRANCH  38  39
ENDBRANCH  36  38
ENDBRANCH   5  34
BRANCH   8  50
ATOM     50  O   UNL     1     -15.764  -7.840   1.586  1.00  0.00    -0.245 OA
BRANCH  50  51
ATOM     51  S   UNL     1     -16.543  -6.645   0.804  1.00  0.00     0.397 S 
ATOM     52  O   UNL     1     -16.383  -5.431   1.571  1.00  0.00    -0.169 OA
ATOM     53  O   UNL     1     -17.847  -7.111   0.381  1.00  0.00    -0.169 OA
BRANCH  51  54
ATOM     54  O   UNL     1     -15.634  -6.456  -0.510  1.00  0.00    -0.264 OA
ATOM     55  H   UNL     1     -16.087  -5.816  -1.096  1.00  0.00     0.236 HD
ENDBRANCH  51  54
ENDBRANCH  50  51
ENDBRANCH   8  50
TORSDOF 19
ENDMDL
MODEL 12
REMARK VINA RESULT:    -7.997      3.140      6.067
REMARK INTER + INTRA:         -19.203
REMARK INTER:                 -15.074
REMARK INTRA:                  -4.129
REMARK UNBOUND:                -3.026
REMARK SMILES CC[C@@H](C)[C@@H](NC(=O)[C@@H](O)Cc1ccc(O)c(Cl)c1)C(=O)N1[C@H](C(=O)NCCCCN=C(N)N)C[C@H]2CC[C@H](OS(=O)(=O)O)C[C@@H]21
REMARK SMILES IDX 22 1 36 2 46 3 35 4 23 5 45 6 37 7 39 8 38 9 20 10 21 11
REMARK SMILES IDX 5 12 6 13 7 14 8 15 9 17 11 18 12 19 17 20 19 21 15 22 14 23
REMARK SMILES IDX 13 24 18 25 16 26 10 28 3 30 4 31 2 32 1 33 24 34 25 35
REMARK SMILES IDX 26 36 27 38 28 39 29 40 30 41 31 42 32 43 33 44 34 45 40 50
REMARK SMILES IDX 41 51 42 52 43 53 44 54
REMARK H PARENT 6 16 16 27 10 29 26 37 33 46 33 47 34 48 34 49 44 55
ROOT
ATOM      1  N   UNL     1     -12.855 -11.497   3.579  1.00  0.00    -0.326 N 
ATOM      2  C   UNL     1     -12.779 -11.965   5.885  1.00  0.00     0.014 C 
ATOM      3  C   UNL     1     -13.674 -12.079   4.647  1.00  0.00     0.091 C 
ATOM      4  C   UNL     1     -12.036 -10.661   5.642  1.00  0.00     0.041 C 
ATOM      5  C   UNL     1     -11.662 -10.832   4.158  1.00  0.00     0.175 C 
ATOM      6  C   UNL     1     -14.121 -13.533   4.506  1.00  0.00     0.059 C 
ATOM      7  C   UNL     1     -13.589 -12.134   7.155  1.00  0.00     0.008 C 
ATOM      8  C   UNL     1     -14.278 -14.268   5.854  1.00  0.00     0.143 C 
ATOM      9  C   UNL     1     -14.593 -13.297   7.010  1.00  0.00     0.034 C 
ENDROOT
BRANCH   1  10
ATOM     10  C   UNL     1     -13.148 -11.310   2.238  1.00  0.00     0.246 C 
ATOM     11  O   UNL     1     -12.412 -11.819   1.386  1.00  0.00    -0.272 OA
BRANCH  10  12
ATOM     12  C   UNL     1     -14.415 -10.502   1.835  1.00  0.00     0.174 C 
BRANCH  12  13
ATOM     13  N   UNL     1     -14.731  -9.519   2.871  1.00  0.00    -0.342 N 
ATOM     14  C   UNL     1     -15.218  -8.253   2.637  1.00  0.00     0.249 C 
ATOM     15  O   UNL     1     -15.470  -7.815   1.521  1.00  0.00    -0.272 OA
ATOM     16  H   UNL     1     -14.429  -9.682   3.828  1.00  0.00     0.164 HD
BRANCH  14  17
ATOM     17  C   UNL     1     -15.434  -7.448   3.936  1.00  0.00     0.207 C 
BRANCH  17  18
ATOM     18  C   UNL     1     -15.857  -8.378   5.078  1.00  0.00     0.077 C 
BRANCH  18  19
ATOM     19  C   UNL     1     -15.172  -8.019   6.378  1.00  0.00    -0.043 A 
ATOM     20  C   UNL     1     -14.095  -6.379   7.804  1.00  0.00     0.083 A 
ATOM     21  C   UNL     1     -14.771  -6.697   6.625  1.00  0.00     0.028 A 
ATOM     22  C   UNL     1     -13.815  -7.376   8.739  1.00  0.00     0.134 A 
ATOM     23  C   UNL     1     -14.207  -8.689   8.507  1.00  0.00     0.048 A 
ATOM     24  C   UNL     1     -14.882  -9.011   7.327  1.00  0.00     0.008 A 
ATOM     25  Cl  UNL     1     -13.610  -4.749   8.090  1.00  0.00    -0.080 Cl
BRANCH  22  26
ATOM     26  O   UNL     1     -13.146  -7.114   9.904  1.00  0.00    -0.506 OA
ATOM     27  H   UNL     1     -12.460  -7.800   9.994  1.00  0.00     0.293 HD
ENDBRANCH  22  26
ENDBRANCH  18  19
ENDBRANCH  17  18
BRANCH  17  28
ATOM     28  O   UNL     1     -16.433  -6.431   3.755  1.00  0.00    -0.383 OA
ATOM     29  H   UNL     1     -15.957  -5.571   3.805  1.00  0.00     0.211 HD
ENDBRANCH  17  28
ENDBRANCH  14  17
ENDBRANCH  12  13
BRANCH  12  30
ATOM     30  C   UNL     1     -15.625 -11.414   1.496  1.00  0.00     0.018 C 
ATOM     31  C   UNL     1     -16.290 -10.973   0.183  1.00  0.00     0.010 C 
BRANCH  30  32
ATOM     32  C   UNL     1     -16.680 -11.494   2.626  1.00  0.00     0.002 C 
ATOM     33  C   UNL     1     -17.336 -12.856   2.810  1.00  0.00     0.004 C 
ENDBRANCH  30  32
ENDBRANCH  12  30
ENDBRANCH  10  12
ENDBRANCH   1  10
BRANCH   5  34
ATOM     34  C   UNL     1     -10.400 -11.719   3.985  1.00  0.00     0.242 C 
ATOM     35  O   UNL     1     -10.470 -12.914   3.699  1.00  0.00    -0.273 OA
ATOM     36  N   UNL     1      -9.202 -11.086   4.227  1.00  0.00    -0.354 N 
ATOM     37  H   UNL     1      -9.214 -10.127   4.577  1.00  0.00     0.163 HD
BRANCH  36  38
ATOM     38  C   UNL     1      -7.927 -11.694   3.907  1.00  0.00     0.116 C 
BRANCH  38  39
ATOM     39  C   UNL     1      -6.888 -10.609   3.636  1.00  0.00     0.023 C 
BRANCH  39  40
ATOM     40  C   UNL     1      -6.659 -10.380   2.146  1.00  0.00     0.026 C 
BRANCH  40  41
ATOM     41  C   UNL     1      -7.179 -11.563   1.329  1.00  0.00     0.146 C 
BRANCH  41  42
ATOM     42  N   UNL     1      -8.210 -11.108   0.406  1.00  0.00    -0.254 NA
ATOM     43  C   UNL     1      -9.257 -11.822   0.224  1.00  0.00     0.185 C 
ATOM     44  N   UNL     1      -9.606 -13.001   0.770  1.00  0.00    -0.370 N 
ATOM     45  N   UNL     1     -10.193 -11.387  -0.635  1.00  0.00    -0.370 N 
ATOM     46  H   UNL     1     -10.331 -13.562   0.357  1.00  0.00     0.159 HD
ATOM     47  H   UNL     1      -9.016 -13.467   1.453  1.00  0.00     0.159 HD
ATOM     48  H   UNL     1     -10.012 -10.499  -1.085  1.00  0.00     0.159 HD
ATOM     49  H   UNL     1     -11.127 -11.756  -0.654  1.00  0.00     0.159 HD
ENDBRANCH  41  42
ENDBRANCH  40  41
ENDBRANCH  39  40
ENDBRANCH  38  39
ENDBRANCH  36  38
ENDBRANCH   5  34
BRANCH   8  50
ATOM     50  O   UNL     1     -13.078 -14.975   6.170  1.00  0.00    -0.245 OA
BRANCH  50  51
ATOM     51  S   UNL     1     -13.169 -16.486   6.763  1.00  0.00     0.397 S 
ATOM     52  O   UNL     1     -12.015 -17.220   6.294  1.00  0.00    -0.169 OA
ATOM     53  O   UNL     1     -14.514 -16.995   6.593  1.00  0.00    -0.169 OA
BRANCH  51  54
ATOM     54  O   UNL     1     -12.925 -16.245   8.334  1.00  0.00    -0.264 OA
ATOM     55  H   UNL     1     -12.882 -17.122   8.767  1.00  0.00     0.236 HD
ENDBRANCH  51  54
ENDBRANCH  50  51
ENDBRANCH   8  50
TORSDOF 19
ENDMDL
MODEL 13
REMARK VINA RESULT:    -7.946      3.788      7.745
REMARK INTER + INTRA:         -19.101
REMARK INTER:                 -13.603
REMARK INTRA:                  -5.498
REMARK UNBOUND:                -3.026
REMARK SMILES CC[C@@H](C)[C@@H](NC(=O)[C@@H](O)Cc1ccc(O)c(Cl)c1)C(=O)N1[C@H](C(=O)NCCCCN=C(N)N)C[C@H]2CC[C@H](OS(=O)(=O)O)C[C@@H]21
REMARK SMILES IDX 22 1 36 2 46 3 35 4 23 5 45 6 37 7 39 8 38 9 20 10 21 11
REMARK SMILES IDX 5 12 6 13 7 14 8 15 9 17 11 18 12 19 17 20 19 21 15 22 14 23
REMARK SMILES IDX 13 24 18 25 16 26 10 28 3 30 4 31 2 32 1 33 24 34 25 35
REMARK SMILES IDX 26 36 27 38 28 39 29 40 30 41 31 42 32 43 33 44 34 45 40 50
REMARK SMILES IDX 41 51 42 52 43 53 44 54
REMARK H PARENT 6 16 16 27 10 29 26 37 33 46 33 47 34 48 34 49 44 55
ROOT
ATOM      1  N   UNL     1     -16.186 -11.220   2.871  1.00  0.00    -0.326 N 
ATOM      2  C   UNL     1     -14.923  -9.313   3.427  1.00  0.00     0.014 C 
ATOM      3  C   UNL     1     -16.116 -10.159   3.879  1.00  0.00     0.091 C 
ATOM      4  C   UNL     1     -15.007  -9.399   1.911  1.00  0.00     0.041 C 
ATOM      5  C   UNL     1     -15.281 -10.904   1.738  1.00  0.00     0.175 C 
ATOM      6  C   UNL     1     -15.899 -10.559   5.338  1.00  0.00     0.059 C 
ATOM      7  C   UNL     1     -14.937  -7.953   4.096  1.00  0.00     0.008 C 
ATOM      8  C   UNL     1     -15.119  -9.511   6.160  1.00  0.00     0.143 C 
ATOM      9  C   UNL     1     -15.288  -8.087   5.593  1.00  0.00     0.034 C 
ENDROOT
BRANCH   1  10
ATOM     10  C   UNL     1     -17.079 -12.271   2.748  1.00  0.00     0.246 C 
ATOM     11  O   UNL     1     -18.142 -12.089   2.145  1.00  0.00    -0.272 OA
BRANCH  10  12
ATOM     12  C   UNL     1     -16.709 -13.664   3.333  1.00  0.00     0.174 C 
BRANCH  12  13
ATOM     13  N   UNL     1     -15.583 -13.534   4.257  1.00  0.00    -0.342 N 
ATOM     14  C   UNL     1     -15.452 -14.219   5.444  1.00  0.00     0.249 C 
ATOM     15  O   UNL     1     -16.262 -15.044   5.849  1.00  0.00    -0.272 OA
ATOM     16  H   UNL     1     -14.915 -12.777   4.134  1.00  0.00     0.164 HD
BRANCH  14  17
ATOM     17  C   UNL     1     -14.160 -13.851   6.205  1.00  0.00     0.207 C 
BRANCH  17  18
ATOM     18  C   UNL     1     -13.254 -15.078   6.348  1.00  0.00     0.077 C 
BRANCH  18  19
ATOM     19  C   UNL     1     -12.476 -15.353   5.081  1.00  0.00    -0.043 A 
ATOM     20  C   UNL     1     -11.811 -16.869   3.308  1.00  0.00     0.083 A 
ATOM     21  C   UNL     1     -12.569 -16.603   4.449  1.00  0.00     0.028 A 
ATOM     22  C   UNL     1     -10.957 -15.893   2.793  1.00  0.00     0.134 A 
ATOM     23  C   UNL     1     -10.856 -14.651   3.408  1.00  0.00     0.048 A 
ATOM     24  C   UNL     1     -11.612 -14.382   4.551  1.00  0.00     0.008 A 
ATOM     25  Cl  UNL     1     -11.938 -18.411   2.547  1.00  0.00    -0.080 Cl
BRANCH  22  26
ATOM     26  O   UNL     1     -10.187 -16.112   1.683  1.00  0.00    -0.506 OA
ATOM     27  H   UNL     1     -10.698 -15.787   0.919  1.00  0.00     0.293 HD
ENDBRANCH  22  26
ENDBRANCH  18  19
ENDBRANCH  17  18
BRANCH  17  28
ATOM     28  O   UNL     1     -14.459 -13.325   7.508  1.00  0.00    -0.383 OA
ATOM     29  H   UNL     1     -15.440 -13.333   7.586  1.00  0.00     0.211 HD
ENDBRANCH  17  28
ENDBRANCH  14  17
ENDBRANCH  12  13
BRANCH  12  30
ATOM     30  C   UNL     1     -16.452 -14.728   2.231  1.00  0.00     0.018 C 
ATOM     31  C   UNL     1     -14.955 -15.063   2.134  1.00  0.00     0.010 C 
BRANCH  30  32
ATOM     32  C   UNL     1     -16.998 -14.326   0.840  1.00  0.00     0.002 C 
ATOM     33  C   UNL     1     -15.970 -14.308  -0.283  1.00  0.00     0.004 C 
ENDBRANCH  30  32
ENDBRANCH  12  30
ENDBRANCH  10  12
ENDBRANCH   1  10
BRANCH   5  34
ATOM     34  C   UNL     1     -13.975 -11.738   1.829  1.00  0.00     0.242 C 
ATOM     35  O   UNL     1     -13.465 -12.047   2.906  1.00  0.00    -0.273 OA
ATOM     36  N   UNL     1     -13.399 -12.059   0.620  1.00  0.00    -0.354 N 
ATOM     37  H   UNL     1     -13.803 -11.673  -0.234  1.00  0.00     0.163 HD
BRANCH  36  38
ATOM     38  C   UNL     1     -12.308 -13.005   0.510  1.00  0.00     0.116 C 
BRANCH  38  39
ATOM     39  C   UNL     1     -11.121 -12.347  -0.189  1.00  0.00     0.023 C 
BRANCH  39  40
ATOM     40  C   UNL     1      -9.916 -12.190   0.733  1.00  0.00     0.026 C 
BRANCH  40  41
ATOM     41  C   UNL     1     -10.040 -10.919   1.574  1.00  0.00     0.146 C 
BRANCH  41  42
ATOM     42  N   UNL     1      -9.755 -11.224   2.970  1.00  0.00    -0.254 NA
ATOM     43  C   UNL     1     -10.465 -10.690   3.892  1.00  0.00     0.185 C 
ATOM     44  N   UNL     1     -11.502  -9.838   3.801  1.00  0.00    -0.370 N 
ATOM     45  N   UNL     1     -10.183 -10.979   5.173  1.00  0.00    -0.370 N 
ATOM     46  H   UNL     1     -11.805  -9.312   4.603  1.00  0.00     0.159 HD
ATOM     47  H   UNL     1     -11.857  -9.523   2.903  1.00  0.00     0.159 HD
ATOM     48  H   UNL     1      -9.419 -11.622   5.329  1.00  0.00     0.159 HD
ATOM     49  H   UNL     1     -10.824 -10.799   5.925  1.00  0.00     0.159 HD
ENDBRANCH  41  42
ENDBRANCH  40  41
ENDBRANCH  39  40
ENDBRANCH  38  39
ENDBRANCH  36  38
ENDBRANCH   5  34
BRANCH   8  50
ATOM     50  O   UNL     1     -13.728  -9.832   6.171  1.00  0.00    -0.245 OA
BRANCH  50  51
ATOM     51  S   UNL     1     -12.991 -10.159   7.583  1.00  0.00     0.397 S 
ATOM     52  O   UNL     1     -12.529  -8.910   8.146  1.00  0.00    -0.169 OA
ATOM     53  O   UNL     1     -12.103 -11.292   7.418  1.00  0.00    -0.169 OA
BRANCH  51  54
ATOM     54  O   UNL     1     -14.223 -10.625   8.505  1.00  0.00    -0.264 OA
ATOM     55  H   UNL     1     -14.101 -11.575   8.709  1.00  0.00     0.236 HD
ENDBRANCH  51  54
ENDBRANCH  50  51
ENDBRANCH   8  50
TORSDOF 19
ENDMDL
MODEL 14
REMARK VINA RESULT:    -7.938      3.325      6.095
REMARK INTER + INTRA:         -19.084
REMARK INTER:                 -14.368
REMARK INTRA:                  -4.715
REMARK UNBOUND:                -3.026
REMARK SMILES CC[C@@H](C)[C@@H](NC(=O)[C@@H](O)Cc1ccc(O)c(Cl)c1)C(=O)N1[C@H](C(=O)NCCCCN=C(N)N)C[C@H]2CC[C@H](OS(=O)(=O)O)C[C@@H]21
REMARK SMILES IDX 22 1 36 2 46 3 35 4 23 5 45 6 37 7 39 8 38 9 20 10 21 11
REMARK SMILES IDX 5 12 6 13 7 14 8 15 9 17 11 18 12 19 17 20 19 21 15 22 14 23
REMARK SMILES IDX 13 24 18 25 16 26 10 28 3 30 4 31 2 32 1 33 24 34 25 35
REMARK SMILES IDX 26 36 27 38 28 39 29 40 30 41 31 42 32 43 33 44 34 45 40 50
REMARK SMILES IDX 41 51 42 52 43 53 44 54
REMARK H PARENT 6 16 16 27 10 29 26 37 33 46 33 47 34 48 34 49 44 55
ROOT
ATOM      1  N   UNL     1     -12.218 -13.850   1.817  1.00  0.00    -0.326 N 
ATOM      2  C   UNL     1     -12.286 -14.735   3.998  1.00  0.00     0.014 C 
ATOM      3  C   UNL     1     -11.337 -14.141   2.952  1.00  0.00     0.091 C 
ATOM      4  C   UNL     1     -13.288 -15.499   3.146  1.00  0.00     0.041 C 
ATOM      5  C   UNL     1     -13.552 -14.461   2.039  1.00  0.00     0.175 C 
ATOM      6  C   UNL     1     -10.575 -12.983   3.593  1.00  0.00     0.059 C 
ATOM      7  C   UNL     1     -11.513 -15.470   5.075  1.00  0.00     0.008 C 
ATOM      8  C   UNL     1     -10.317 -13.170   5.104  1.00  0.00     0.143 C 
ATOM      9  C   UNL     1     -10.272 -14.659   5.504  1.00  0.00     0.034 C 
ENDROOT
BRANCH   1  10
ATOM     10  C   UNL     1     -11.918 -13.318   0.575  1.00  0.00     0.246 C 
ATOM     11  O   UNL     1     -12.159 -13.983  -0.438  1.00  0.00    -0.272 OA
BRANCH  10  12
ATOM     12  C   UNL     1     -11.326 -11.882   0.478  1.00  0.00     0.174 C 
BRANCH  12  13
ATOM     13  N   UNL     1     -12.387 -10.924   0.168  1.00  0.00    -0.342 N 
ATOM     14  C   UNL     1     -12.794  -9.901   0.994  1.00  0.00     0.249 C 
ATOM     15  O   UNL     1     -12.286  -9.660   2.082  1.00  0.00    -0.272 OA
ATOM     16  H   UNL     1     -13.001 -11.093  -0.625  1.00  0.00     0.164 HD
BRANCH  14  17
ATOM     17  C   UNL     1     -13.949  -9.073   0.392  1.00  0.00     0.207 C 
BRANCH  17  18
ATOM     18  C   UNL     1     -15.242  -9.306   1.179  1.00  0.00     0.077 C 
BRANCH  18  19
ATOM     19  C   UNL     1     -15.647  -8.083   1.971  1.00  0.00    -0.043 A 
ATOM     20  C   UNL     1     -15.673  -6.840   4.054  1.00  0.00     0.083 A 
ATOM     21  C   UNL     1     -15.257  -7.946   3.312  1.00  0.00     0.028 A 
ATOM     22  C   UNL     1     -16.481  -5.868   3.464  1.00  0.00     0.134 A 
ATOM     23  C   UNL     1     -16.875  -5.991   2.136  1.00  0.00     0.048 A 
ATOM     24  C   UNL     1     -16.461  -7.097   1.392  1.00  0.00     0.008 A 
ATOM     25  Cl  UNL     1     -15.183  -6.690   5.701  1.00  0.00    -0.080 Cl
BRANCH  22  26
ATOM     26  O   UNL     1     -16.923  -4.771   4.154  1.00  0.00    -0.506 OA
ATOM     27  H   UNL     1     -16.404  -4.011   3.833  1.00  0.00     0.293 HD
ENDBRANCH  22  26
ENDBRANCH  18  19
ENDBRANCH  17  18
BRANCH  17  28
ATOM     28  O   UNL     1     -14.163  -9.411  -0.988  1.00  0.00    -0.383 OA
ATOM     29  H   UNL     1     -13.273  -9.594  -1.364  1.00  0.00     0.211 HD
ENDBRANCH  17  28
ENDBRANCH  14  17
ENDBRANCH  12  13
BRANCH  12  30
ATOM     30  C   UNL     1     -10.136 -11.789  -0.516  1.00  0.00     0.018 C 
ATOM     31  C   UNL     1      -9.123 -12.917  -0.261  1.00  0.00     0.010 C 
BRANCH  30  32
ATOM     32  C   UNL     1      -9.419 -10.417  -0.501  1.00  0.00     0.002 C 
ATOM     33  C   UNL     1      -8.506 -10.172   0.693  1.00  0.00     0.004 C 
ENDBRANCH  30  32
ENDBRANCH  12  30
ENDBRANCH  10  12
ENDBRANCH   1  10
BRANCH   5  34
ATOM     34  C   UNL     1     -14.579 -13.389   2.494  1.00  0.00     0.242 C 
ATOM     35  O   UNL     1     -14.279 -12.202   2.621  1.00  0.00    -0.273 OA
ATOM     36  N   UNL     1     -15.833 -13.871   2.795  1.00  0.00    -0.354 N 
ATOM     37  H   UNL     1     -15.987 -14.880   2.786  1.00  0.00     0.163 HD
BRANCH  36  38
ATOM     38  C   UNL     1     -16.963 -12.995   3.025  1.00  0.00     0.116 C 
BRANCH  38  39
ATOM     39  C   UNL     1     -17.017 -12.593   4.497  1.00  0.00     0.023 C 
BRANCH  39  40
ATOM     40  C   UNL     1     -16.944 -11.082   4.691  1.00  0.00     0.026 C 
BRANCH  40  41
ATOM     41  C   UNL     1     -15.743 -10.704   5.559  1.00  0.00     0.146 C 
BRANCH  41  42
ATOM     42  N   UNL     1     -15.005 -11.905   5.928  1.00  0.00    -0.254 NA
ATOM     43  C   UNL     1     -14.596 -12.052   7.131  1.00  0.00     0.185 C 
ATOM     44  N   UNL     1     -14.733 -11.242   8.197  1.00  0.00    -0.370 N 
ATOM     45  N   UNL     1     -13.913 -13.164   7.450  1.00  0.00    -0.370 N 
ATOM     46  H   UNL     1     -14.157 -11.364   9.012  1.00  0.00     0.159 HD
ATOM     47  H   UNL     1     -15.236 -10.362   8.136  1.00  0.00     0.159 HD
ATOM     48  H   UNL     1     -13.773 -13.833   6.705  1.00  0.00     0.159 HD
ATOM     49  H   UNL     1     -13.770 -13.461   8.399  1.00  0.00     0.159 HD
ENDBRANCH  41  42
ENDBRANCH  40  41
ENDBRANCH  39  40
ENDBRANCH  38  39
ENDBRANCH  36  38
ENDBRANCH   5  34
BRANCH   8  50
ATOM     50  O   UNL     1     -11.343 -12.528   5.860  1.00  0.00    -0.245 OA
BRANCH  50  51
ATOM     51  S   UNL     1     -11.201 -10.950   6.231  1.00  0.00     0.397 S 
ATOM     52  O   UNL     1      -9.872 -10.522   5.854  1.00  0.00    -0.169 OA
ATOM     53  O   UNL     1     -11.728 -10.713   7.559  1.00  0.00    -0.169 OA
BRANCH  51  54
ATOM     54  O   UNL     1     -12.198 -10.266   5.172  1.00  0.00    -0.264 OA
ATOM     55  H   UNL     1     -13.064 -10.717   5.243  1.00  0.00     0.236 HD
ENDBRANCH  51  54
ENDBRANCH  50  51
ENDBRANCH   8  50
TORSDOF 19
ENDMDL
MODEL 15
REMARK VINA RESULT:    -7.921      3.198      6.078
REMARK INTER + INTRA:         -19.049
REMARK INTER:                 -15.266
REMARK INTRA:                  -3.784
REMARK UNBOUND:                -3.026
REMARK SMILES CC[C@@H](C)[C@@H](NC(=O)[C@@H](O)Cc1ccc(O)c(Cl)c1)C(=O)N1[C@H](C(=O)NCCCCN=C(N)N)C[C@H]2CC[C@H](OS(=O)(=O)O)C[C@@H]21
REMARK SMILES IDX 22 1 36 2 46 3 35 4 23 5 45 6 37 7 39 8 38 9 20 10 21 11
REMARK SMILES IDX 5 12 6 13 7 14 8 15 9 17 11 18 12 19 17 20 19 21 15 22 14 23
REMARK SMILES IDX 13 24 18 25 16 26 10 28 3 30 4 31 2 32 1 33 24 34 25 35
REMARK SMILES IDX 26 36 27 38 28 39 29 40 30 41 31 42 32 43 33 44 34 45 40 50
REMARK SMILES IDX 41 51 42 52 43 53 44 54
REMARK H PARENT 6 16 16 27 10 29 26 37 33 46 33 47 34 48 34 49 44 55
ROOT
ATOM      1  N   UNL     1     -13.577 -12.799   3.120  1.00  0.00    -0.326 N 
ATOM      2  C   UNL     1     -12.439 -12.954   1.065  1.00  0.00     0.014 C 
ATOM      3  C   UNL     1     -12.987 -11.949   2.081  1.00  0.00     0.091 C 
ATOM      4  C   UNL     1     -13.456 -14.084   1.129  1.00  0.00     0.041 C 
ATOM      5  C   UNL     1     -13.629 -14.207   2.654  1.00  0.00     0.175 C 
ATOM      6  C   UNL     1     -11.858 -10.999   2.477  1.00  0.00     0.059 C 
ATOM      7  C   UNL     1     -12.158 -12.283  -0.265  1.00  0.00     0.008 C 
ATOM      8  C   UNL     1     -10.840 -10.738   1.346  1.00  0.00     0.143 C 
ATOM      9  C   UNL     1     -11.467 -10.920  -0.051  1.00  0.00     0.034 C 
ENDROOT
BRANCH   1  10
ATOM     10  C   UNL     1     -14.238 -12.447   4.284  1.00  0.00     0.246 C 
ATOM     11  O   UNL     1     -13.873 -12.942   5.356  1.00  0.00    -0.272 OA
BRANCH  10  12
ATOM     12  C   UNL     1     -15.395 -11.408   4.225  1.00  0.00     0.174 C 
BRANCH  12  13
ATOM     13  N   UNL     1     -15.478 -10.682   5.492  1.00  0.00    -0.342 N 
ATOM     14  C   UNL     1     -14.648  -9.649   5.866  1.00  0.00     0.249 C 
ATOM     15  O   UNL     1     -13.755  -9.201   5.157  1.00  0.00    -0.272 OA
ATOM     16  H   UNL     1     -16.064 -11.041   6.241  1.00  0.00     0.164 HD
BRANCH  14  17
ATOM     17  C   UNL     1     -14.978  -9.099   7.270  1.00  0.00     0.207 C 
BRANCH  17  18
ATOM     18  C   UNL     1     -13.782  -8.326   7.836  1.00  0.00     0.077 C 
BRANCH  18  19
ATOM     19  C   UNL     1     -13.995  -6.830   7.765  1.00  0.00    -0.043 A 
ATOM     20  C   UNL     1     -15.009  -4.899   6.704  1.00  0.00     0.083 A 
ATOM     21  C   UNL     1     -14.853  -6.282   6.799  1.00  0.00     0.028 A 
ATOM     22  C   UNL     1     -14.310  -4.056   7.569  1.00  0.00     0.134 A 
ATOM     23  C   UNL     1     -13.457  -4.586   8.531  1.00  0.00     0.048 A 
ATOM     24  C   UNL     1     -13.298  -5.970   8.627  1.00  0.00     0.008 A 
ATOM     25  Cl  UNL     1     -16.068  -4.244   5.510  1.00  0.00    -0.080 Cl
BRANCH  22  26
ATOM     26  O   UNL     1     -14.423  -2.694   7.507  1.00  0.00    -0.506 OA
ATOM     27  H   UNL     1     -14.214  -2.437   6.590  1.00  0.00     0.293 HD
ENDBRANCH  22  26
ENDBRANCH  18  19
ENDBRANCH  17  18
BRANCH  17  28
ATOM     28  O   UNL     1     -15.330 -10.160   8.172  1.00  0.00    -0.383 OA
ATOM     29  H   UNL     1     -14.918 -10.976   7.806  1.00  0.00     0.211 HD
ENDBRANCH  17  28
ENDBRANCH  14  17
ENDBRANCH  12  13
BRANCH  12  30
ATOM     30  C   UNL     1     -16.752 -12.044   3.817  1.00  0.00     0.018 C 
ATOM     31  C   UNL     1     -17.030 -13.313   4.638  1.00  0.00     0.010 C 
BRANCH  30  32
ATOM     32  C   UNL     1     -16.863 -12.354   2.304  1.00  0.00     0.002 C 
ATOM     33  C   UNL     1     -16.396 -11.240   1.376  1.00  0.00     0.004 C 
ENDBRANCH  30  32
ENDBRANCH  12  30
ENDBRANCH  10  12
ENDBRANCH   1  10
BRANCH   5  34
ATOM     34  C   UNL     1     -12.488 -15.041   3.295  1.00  0.00     0.242 C 
ATOM     35  O   UNL     1     -12.393 -16.257   3.135  1.00  0.00    -0.273 OA
ATOM     36  N   UNL     1     -11.623 -14.331   4.098  1.00  0.00    -0.354 N 
ATOM     37  H   UNL     1     -11.824 -13.349   4.288  1.00  0.00     0.163 HD
BRANCH  36  38
ATOM     38  C   UNL     1     -10.388 -14.900   4.596  1.00  0.00     0.116 C 
BRANCH  38  39
ATOM     39  C   UNL     1     -10.566 -15.330   6.051  1.00  0.00     0.023 C 
BRANCH  39  40
ATOM     40  C   UNL     1      -9.578 -14.641   6.987  1.00  0.00     0.026 C 
BRANCH  40  41
ATOM     41  C   UNL     1     -10.281 -13.573   7.825  1.00  0.00     0.146 C 
BRANCH  41  42
ATOM     42  N   UNL     1     -10.222 -12.290   7.138  1.00  0.00    -0.254 NA
ATOM     43  C   UNL     1     -11.243 -11.519   7.147  1.00  0.00     0.185 C 
ATOM     44  N   UNL     1     -12.450 -11.688   7.718  1.00  0.00    -0.370 N 
ATOM     45  N   UNL     1     -11.170 -10.342   6.504  1.00  0.00    -0.370 N 
ATOM     46  H   UNL     1     -13.232 -11.119   7.443  1.00  0.00     0.159 HD
ATOM     47  H   UNL     1     -12.673 -12.519   8.257  1.00  0.00     0.159 HD
ATOM     48  H   UNL     1     -10.290 -10.131   6.053  1.00  0.00     0.159 HD
ATOM     49  H   UNL     1     -11.823  -9.595   6.661  1.00  0.00     0.159 HD
ENDBRANCH  41  42
ENDBRANCH  40  41
ENDBRANCH  39  40
ENDBRANCH  38  39
ENDBRANCH  36  38
ENDBRANCH   5  34
BRANCH   8  50
ATOM     50  O   UNL     1      -9.734 -11.633   1.467  1.00  0.00    -0.245 OA
BRANCH  50  51
ATOM     51  S   UNL     1      -8.221 -11.037   1.524  1.00  0.00     0.397 S 
ATOM     52  O   UNL     1      -7.330 -12.026   0.960  1.00  0.00    -0.169 OA
ATOM     53  O   UNL     1      -7.979 -10.450   2.825  1.00  0.00    -0.169 OA
BRANCH  51  54
ATOM     54  O   UNL     1      -8.289  -9.845   0.447  1.00  0.00    -0.264 OA
ATOM     55  H   UNL     1      -8.970  -9.209   0.749  1.00  0.00     0.236 HD
ENDBRANCH  51  54
ENDBRANCH  50  51
ENDBRANCH   8  50
TORSDOF 19
ENDMDL
MODEL 16
REMARK VINA RESULT:    -7.839      2.517      6.386
REMARK INTER + INTRA:         -18.884
REMARK INTER:                 -16.064
REMARK INTRA:                  -2.820
REMARK UNBOUND:                -3.026
REMARK SMILES CC[C@@H](C)[C@@H](NC(=O)[C@@H](O)Cc1ccc(O)c(Cl)c1)C(=O)N1[C@H](C(=O)NCCCCN=C(N)N)C[C@H]2CC[C@H](OS(=O)(=O)O)C[C@@H]21
REMARK SMILES IDX 22 1 36 2 46 3 35 4 23 5 45 6 37 7 39 8 38 9 20 10 21 11
REMARK SMILES IDX 5 12 6 13 7 14 8 15 9 17 11 18 12 19 17 20 19 21 15 22 14 23
REMARK SMILES IDX 13 24 18 25 16 26 10 28 3 30 4 31 2 32 1 33 24 34 25 35
REMARK SMILES IDX 26 36 27 38 28 39 29 40 30 41 31 42 32 43 33 44 34 45 40 50
REMARK SMILES IDX 41 51 42 52 43 53 44 54
REMARK H PARENT 6 16 16 27 10 29 26 37 33 46 33 47 34 48 34 49 44 55
ROOT
ATOM      1  N   UNL     1     -14.753 -11.508   1.907  1.00  0.00    -0.326 N 
ATOM      2  C   UNL     1     -12.980 -12.648   0.858  1.00  0.00     0.014 C 
ATOM      3  C   UNL     1     -13.625 -11.266   1.003  1.00  0.00     0.091 C 
ATOM      4  C   UNL     1     -14.178 -13.584   0.913  1.00  0.00     0.041 C 
ATOM      5  C   UNL     1     -14.952 -12.967   2.092  1.00  0.00     0.175 C 
ATOM      6  C   UNL     1     -12.548 -10.274   1.438  1.00  0.00     0.059 C 
ATOM      7  C   UNL     1     -12.056 -12.692  -0.343  1.00  0.00     0.008 C 
ATOM      8  C   UNL     1     -11.141 -10.607   0.897  1.00  0.00     0.143 C 
ATOM      9  C   UNL     1     -11.201 -11.409  -0.419  1.00  0.00     0.034 C 
ENDROOT
BRANCH   1  10
ATOM     10  C   UNL     1     -15.711 -10.630   2.385  1.00  0.00     0.246 C 
ATOM     11  O   UNL     1     -16.873 -11.026   2.524  1.00  0.00    -0.272 OA
BRANCH  10  12
ATOM     12  C   UNL     1     -15.297  -9.182   2.776  1.00  0.00     0.174 C 
BRANCH  12  13
ATOM     13  N   UNL     1     -15.512  -8.972   4.208  1.00  0.00    -0.342 N 
ATOM     14  C   UNL     1     -14.589  -9.243   5.193  1.00  0.00     0.249 C 
ATOM     15  O   UNL     1     -13.462  -9.669   4.974  1.00  0.00    -0.272 OA
ATOM     16  H   UNL     1     -16.447  -8.772   4.553  1.00  0.00     0.164 HD
BRANCH  14  17
ATOM     17  C   UNL     1     -15.120  -8.930   6.608  1.00  0.00     0.207 C 
BRANCH  17  18
ATOM     18  C   UNL     1     -14.016  -8.311   7.470  1.00  0.00     0.077 C 
BRANCH  18  19
ATOM     19  C   UNL     1     -14.132  -6.804   7.535  1.00  0.00    -0.043 A 
ATOM     20  C   UNL     1     -15.019  -4.724   6.656  1.00  0.00     0.083 A 
ATOM     21  C   UNL     1     -14.953  -6.118   6.626  1.00  0.00     0.028 A 
ATOM     22  C   UNL     1     -14.267  -4.010   7.590  1.00  0.00     0.134 A 
ATOM     23  C   UNL     1     -13.450  -4.677   8.495  1.00  0.00     0.048 A 
ATOM     24  C   UNL     1     -13.380  -6.071   8.466  1.00  0.00     0.008 A 
ATOM     25  Cl  UNL     1     -16.033  -3.899   5.532  1.00  0.00    -0.080 Cl
BRANCH  22  26
ATOM     26  O   UNL     1     -14.291  -2.642   7.650  1.00  0.00    -0.506 OA
ATOM     27  H   UNL     1     -14.513  -2.326   6.755  1.00  0.00     0.293 HD
ENDBRANCH  22  26
ENDBRANCH  18  19
ENDBRANCH  17  18
BRANCH  17  28
ATOM     28  O   UNL     1     -15.615 -10.117   7.249  1.00  0.00    -0.383 OA
ATOM     29  H   UNL     1     -15.491  -9.977   8.215  1.00  0.00     0.211 HD
ENDBRANCH  17  28
ENDBRANCH  14  17
ENDBRANCH  12  13
BRANCH  12  30
ATOM     30  C   UNL     1     -15.997  -8.102   1.908  1.00  0.00     0.018 C 
ATOM     31  C   UNL     1     -15.261  -7.915   0.572  1.00  0.00     0.010 C 
BRANCH  30  32
ATOM     32  C   UNL     1     -16.158  -6.738   2.622  1.00  0.00     0.002 C 
ATOM     33  C   UNL     1     -16.388  -5.545   1.703  1.00  0.00     0.004 C 
ENDBRANCH  30  32
ENDBRANCH  12  30
ENDBRANCH  10  12
ENDBRANCH   1  10
BRANCH   5  34
ATOM     34  C   UNL     1     -14.381 -13.431   3.458  1.00  0.00     0.242 C 
ATOM     35  O   UNL     1     -14.677 -14.515   3.961  1.00  0.00    -0.273 OA
ATOM     36  N   UNL     1     -13.562 -12.522   4.089  1.00  0.00    -0.354 N 
ATOM     37  H   UNL     1     -13.450 -11.594   3.680  1.00  0.00     0.163 HD
BRANCH  36  38
ATOM     38  C   UNL     1     -12.776 -12.869   5.256  1.00  0.00     0.116 C 
BRANCH  38  39
ATOM     39  C   UNL     1     -11.295 -12.918   4.887  1.00  0.00     0.023 C 
BRANCH  39  40
ATOM     40  C   UNL     1     -10.441 -12.030   5.786  1.00  0.00     0.026 C 
BRANCH  40  41
ATOM     41  C   UNL     1     -10.887 -12.147   7.244  1.00  0.00     0.146 C 
BRANCH  41  42
ATOM     42  N   UNL     1      -9.972 -13.018   7.970  1.00  0.00    -0.254 NA
ATOM     43  C   UNL     1      -8.935 -12.519   8.532  1.00  0.00     0.185 C 
ATOM     44  N   UNL     1      -8.505 -11.245   8.579  1.00  0.00    -0.370 N 
ATOM     45  N   UNL     1      -8.102 -13.339   9.193  1.00  0.00    -0.370 N 
ATOM     46  H   UNL     1      -7.557 -11.033   8.842  1.00  0.00     0.159 HD
ATOM     47  H   UNL     1      -9.024 -10.491   8.141  1.00  0.00     0.159 HD
ATOM     48  H   UNL     1      -8.358 -14.317   9.213  1.00  0.00     0.159 HD
ATOM     49  H   UNL     1      -7.415 -13.006   9.846  1.00  0.00     0.159 HD
ENDBRANCH  41  42
ENDBRANCH  40  41
ENDBRANCH  39  40
ENDBRANCH  38  39
ENDBRANCH  36  38
ENDBRANCH   5  34
BRANCH   8  50
ATOM     50  O   UNL     1     -10.413 -11.370   1.860  1.00  0.00    -0.245 OA
BRANCH  50  51
ATOM     51  S   UNL     1      -8.800 -11.193   1.971  1.00  0.00     0.397 S 
ATOM     52  O   UNL     1      -8.358 -10.407   0.841  1.00  0.00    -0.169 OA
ATOM     53  O   UNL     1      -8.193 -12.468   2.294  1.00  0.00    -0.169 OA
BRANCH  51  54
ATOM     54  O   UNL     1      -8.654 -10.236   3.255  1.00  0.00    -0.264 OA
ATOM     55  H   UNL     1      -9.080  -9.381   3.039  1.00  0.00     0.236 HD
ENDBRANCH  51  54
ENDBRANCH  50  51
ENDBRANCH   8  50
TORSDOF 19
ENDMDL
MODEL 17
REMARK VINA RESULT:    -7.784      4.461      8.459
REMARK INTER + INTRA:         -18.773
REMARK INTER:                 -15.600
REMARK INTRA:                  -3.173
REMARK UNBOUND:                -3.026
REMARK SMILES CC[C@@H](C)[C@@H](NC(=O)[C@@H](O)Cc1ccc(O)c(Cl)c1)C(=O)N1[C@H](C(=O)NCCCCN=C(N)N)C[C@H]2CC[C@H](OS(=O)(=O)O)C[C@@H]21
REMARK SMILES IDX 22 1 36 2 46 3 35 4 23 5 45 6 37 7 39 8 38 9 20 10 21 11
REMARK SMILES IDX 5 12 6 13 7 14 8 15 9 17 11 18 12 19 17 20 19 21 15 22 14 23
REMARK SMILES IDX 13 24 18 25 16 26 10 28 3 30 4 31 2 32 1 33 24 34 25 35
REMARK SMILES IDX 26 36 27 38 28 39 29 40 30 41 31 42 32 43 33 44 34 45 40 50
REMARK SMILES IDX 41 51 42 52 43 53 44 54
REMARK H PARENT 6 16 16 27 10 29 26 37 33 46 33 47 34 48 34 49 44 55
ROOT
ATOM      1  N   UNL     1     -13.280 -13.052   2.260  1.00  0.00    -0.326 N 
ATOM      2  C   UNL     1     -15.330 -12.656   3.349  1.00  0.00     0.014 C 
ATOM      3  C   UNL     1     -13.988 -13.379   3.501  1.00  0.00     0.091 C 
ATOM      4  C   UNL     1     -15.600 -12.762   1.856  1.00  0.00     0.041 C 
ATOM      5  C   UNL     1     -14.209 -12.404   1.301  1.00  0.00     0.175 C 
ATOM      6  C   UNL     1     -13.359 -12.955   4.827  1.00  0.00     0.059 C 
ATOM      7  C   UNL     1     -16.351 -13.197   4.330  1.00  0.00     0.008 C 
ATOM      8  C   UNL     1     -14.391 -12.638   5.931  1.00  0.00     0.143 C 
ATOM      9  C   UNL     1     -15.716 -13.398   5.722  1.00  0.00     0.034 C 
ENDROOT
BRANCH   1  10
ATOM     10  C   UNL     1     -12.025 -13.442   1.825  1.00  0.00     0.246 C 
ATOM     11  O   UNL     1     -11.869 -14.587   1.389  1.00  0.00    -0.272 OA
BRANCH  10  12
ATOM     12  C   UNL     1     -10.851 -12.420   1.855  1.00  0.00     0.174 C 
BRANCH  12  13
ATOM     13  N   UNL     1      -9.903 -12.719   0.782  1.00  0.00    -0.342 N 
ATOM     14  C   UNL     1     -10.037 -12.312  -0.527  1.00  0.00     0.249 C 
ATOM     15  O   UNL     1     -10.963 -11.623  -0.936  1.00  0.00    -0.272 OA
ATOM     16  H   UNL     1      -9.172 -13.408   0.934  1.00  0.00     0.164 HD
BRANCH  14  17
ATOM     17  C   UNL     1      -8.880 -12.801  -1.424  1.00  0.00     0.207 C 
BRANCH  17  18
ATOM     18  C   UNL     1      -9.427 -13.428  -2.710  1.00  0.00     0.077 C 
BRANCH  18  19
ATOM     19  C   UNL     1      -8.918 -12.717  -3.943  1.00  0.00    -0.043 A 
ATOM     20  C   UNL     1      -7.195 -12.385  -5.618  1.00  0.00     0.083 A 
ATOM     21  C   UNL     1      -7.685 -13.076  -4.509  1.00  0.00     0.028 A 
ATOM     22  C   UNL     1      -7.930 -11.333  -6.165  1.00  0.00     0.134 A 
ATOM     23  C   UNL     1      -9.153 -10.967  -5.615  1.00  0.00     0.048 A 
ATOM     24  C   UNL     1      -9.645 -11.656  -4.504  1.00  0.00     0.008 A 
ATOM     25  Cl  UNL     1      -5.678 -12.840  -6.299  1.00  0.00    -0.080 Cl
BRANCH  22  26
ATOM     26  O   UNL     1      -7.486 -10.619  -7.245  1.00  0.00    -0.506 OA
ATOM     27  H   UNL     1      -8.263 -10.455  -7.812  1.00  0.00     0.293 HD
ENDBRANCH  22  26
ENDBRANCH  18  19
ENDBRANCH  17  18
BRANCH  17  28
ATOM     28  O   UNL     1      -8.062 -13.761  -0.736  1.00  0.00    -0.383 OA
ATOM     29  H   UNL     1      -8.442 -13.843   0.169  1.00  0.00     0.211 HD
ENDBRANCH  17  28
ENDBRANCH  14  17
ENDBRANCH  12  13
BRANCH  12  30
ATOM     30  C   UNL     1     -10.165 -12.335   3.245  1.00  0.00     0.018 C 
ATOM     31  C   UNL     1      -9.899 -10.872   3.633  1.00  0.00     0.010 C 
BRANCH  30  32
ATOM     32  C   UNL     1      -8.858 -13.158   3.344  1.00  0.00     0.002 C 
ATOM     33  C   UNL     1      -9.020 -14.576   3.874  1.00  0.00     0.004 C 
ENDBRANCH  30  32
ENDBRANCH  12  30
ENDBRANCH  10  12
ENDBRANCH   1  10
BRANCH   5  34
ATOM     34  C   UNL     1     -13.984 -10.869   1.269  1.00  0.00     0.242 C 
ATOM     35  O   UNL     1     -12.911 -10.354   1.586  1.00  0.00    -0.273 OA
ATOM     36  N   UNL     1     -15.085 -10.123   0.914  1.00  0.00    -0.354 N 
ATOM     37  H   UNL     1     -15.978 -10.598   0.779  1.00  0.00     0.163 HD
BRANCH  36  38
ATOM     38  C   UNL     1     -14.999  -8.706   0.625  1.00  0.00     0.116 C 
BRANCH  38  39
ATOM     39  C   UNL     1     -15.807  -7.917   1.653  1.00  0.00     0.023 C 
BRANCH  39  40
ATOM     40  C   UNL     1     -15.191  -7.976   3.047  1.00  0.00     0.026 C 
BRANCH  40  41
ATOM     41  C   UNL     1     -15.985  -7.111   4.026  1.00  0.00     0.146 C 
BRANCH  41  42
ATOM     42  N   UNL     1     -15.503  -7.336   5.383  1.00  0.00    -0.254 NA
ATOM     43  C   UNL     1     -15.760  -6.476   6.296  1.00  0.00     0.185 C 
ATOM     44  N   UNL     1     -16.443  -5.319   6.228  1.00  0.00    -0.370 N 
ATOM     45  N   UNL     1     -15.303  -6.700   7.539  1.00  0.00    -0.370 N 
ATOM     46  H   UNL     1     -16.358  -4.630   6.956  1.00  0.00     0.159 HD
ATOM     47  H   UNL     1     -16.869  -5.002   5.363  1.00  0.00     0.159 HD
ATOM     48  H   UNL     1     -14.784  -7.556   7.679  1.00  0.00     0.159 HD
ATOM     49  H   UNL     1     -15.654  -6.211   8.344  1.00  0.00     0.159 HD
ENDBRANCH  41  42
ENDBRANCH  40  41
ENDBRANCH  39  40
ENDBRANCH  38  39
ENDBRANCH  36  38
ENDBRANCH   5  34
BRANCH   8  50
ATOM     50  O   UNL     1     -14.670 -11.238   5.953  1.00  0.00    -0.245 OA
BRANCH  50  51
ATOM     51  S   UNL     1     -14.237 -10.352   7.247  1.00  0.00     0.397 S 
ATOM     52  O   UNL     1     -13.276 -11.117   8.009  1.00  0.00    -0.169 OA
ATOM     53  O   UNL     1     -15.417  -9.784   7.864  1.00  0.00    -0.169 OA
BRANCH  51  54
ATOM     54  O   UNL     1     -13.405  -9.154   6.570  1.00  0.00    -0.264 OA
ATOM     55  H   UNL     1     -13.899  -8.323   6.725  1.00  0.00     0.236 HD
ENDBRANCH  51  54
ENDBRANCH  50  51
ENDBRANCH   8  50
TORSDOF 19
ENDMDL
MODEL 18
REMARK VINA RESULT:    -7.704      3.723      6.557
REMARK INTER + INTRA:         -18.610
REMARK INTER:                 -16.236
REMARK INTRA:                  -2.374
REMARK UNBOUND:                -3.026
REMARK SMILES CC[C@@H](C)[C@@H](NC(=O)[C@@H](O)Cc1ccc(O)c(Cl)c1)C(=O)N1[C@H](C(=O)NCCCCN=C(N)N)C[C@H]2CC[C@H](OS(=O)(=O)O)C[C@@H]21
REMARK SMILES IDX 22 1 36 2 46 3 35 4 23 5 45 6 37 7 39 8 38 9 20 10 21 11
REMARK SMILES IDX 5 12 6 13 7 14 8 15 9 17 11 18 12 19 17 20 19 21 15 22 14 23
REMARK SMILES IDX 13 24 18 25 16 26 10 28 3 30 4 31 2 32 1 33 24 34 25 35
REMARK SMILES IDX 26 36 27 38 28 39 29 40 30 41 31 42 32 43 33 44 34 45 40 50
REMARK SMILES IDX 41 51 42 52 43 53 44 54
REMARK H PARENT 6 16 16 27 10 29 26 37 33 46 33 47 34 48 34 49 44 55
ROOT
ATOM      1  N   UNL     1     -14.072 -10.110   2.190  1.00  0.00    -0.326 N 
ATOM      2  C   UNL     1     -15.663 -10.459   3.890  1.00  0.00     0.014 C 
ATOM      3  C   UNL     1     -14.192 -10.690   3.531  1.00  0.00     0.091 C 
ATOM      4  C   UNL     1     -16.363 -10.610   2.549  1.00  0.00     0.041 C 
ATOM      5  C   UNL     1     -15.417  -9.788   1.654  1.00  0.00     0.175 C 
ATOM      6  C   UNL     1     -13.325 -10.116   4.650  1.00  0.00     0.059 C 
ATOM      7  C   UNL     1     -16.082 -11.339   5.051  1.00  0.00     0.008 C 
ATOM      8  C   UNL     1     -13.980 -10.195   6.046  1.00  0.00     0.143 C 
ATOM      9  C   UNL     1     -14.994 -11.352   6.145  1.00  0.00     0.034 C 
ENDROOT
BRANCH   1  10
ATOM     10  C   UNL     1     -12.975 -10.041   1.348  1.00  0.00     0.246 C 
ATOM     11  O   UNL     1     -12.813  -9.033   0.653  1.00  0.00    -0.272 OA
BRANCH  10  12
ATOM     12  C   UNL     1     -11.951 -11.212   1.326  1.00  0.00     0.174 C 
BRANCH  12  13
ATOM     13  N   UNL     1     -10.914 -10.987   2.333  1.00  0.00    -0.342 N 
ATOM     14  C   UNL     1     -10.216 -11.979   2.984  1.00  0.00     0.249 C 
ATOM     15  O   UNL     1     -10.369 -13.175   2.768  1.00  0.00    -0.272 OA
ATOM     16  H   UNL     1     -10.789 -10.058   2.727  1.00  0.00     0.164 HD
BRANCH  14  17
ATOM     17  C   UNL     1      -9.201 -11.422   4.004  1.00  0.00     0.207 C 
BRANCH  17  18
ATOM     18  C   UNL     1      -9.915 -10.987   5.288  1.00  0.00     0.077 C 
BRANCH  18  19
ATOM     19  C   UNL     1     -10.313 -12.173   6.138  1.00  0.00    -0.043 A 
ATOM     20  C   UNL     1     -11.932 -13.872   6.750  1.00  0.00     0.083 A 
ATOM     21  C   UNL     1     -11.546 -12.810   5.932  1.00  0.00     0.028 A 
ATOM     22  C   UNL     1     -11.092 -14.302   7.778  1.00  0.00     0.134 A 
ATOM     23  C   UNL     1      -9.868 -13.680   7.994  1.00  0.00     0.048 A 
ATOM     24  C   UNL     1      -9.480 -12.616   7.177  1.00  0.00     0.008 A 
ATOM     25  Cl  UNL     1     -13.451 -14.642   6.481  1.00  0.00    -0.080 Cl
BRANCH  22  26
ATOM     26  O   UNL     1     -11.432 -15.332   8.613  1.00  0.00    -0.506 OA
ATOM     27  H   UNL     1     -10.778 -16.040   8.465  1.00  0.00     0.293 HD
ENDBRANCH  22  26
ENDBRANCH  18  19
ENDBRANCH  17  18
BRANCH  17  28
ATOM     28  O   UNL     1      -8.479 -10.306   3.459  1.00  0.00    -0.383 OA
ATOM     29  H   UNL     1      -7.708 -10.687   2.980  1.00  0.00     0.211 HD
ENDBRANCH  17  28
ENDBRANCH  14  17
ENDBRANCH  12  13
BRANCH  12  30
ATOM     30  C   UNL     1     -11.359 -11.465  -0.087  1.00  0.00     0.018 C 
ATOM     31  C   UNL     1     -11.521 -12.939  -0.491  1.00  0.00     0.010 C 
BRANCH  30  32
ATOM     32  C   UNL     1      -9.878 -11.035  -0.227  1.00  0.00     0.002 C 
ATOM     33  C   UNL     1      -8.921 -12.131  -0.677  1.00  0.00     0.004 C 
ENDBRANCH  30  32
ENDBRANCH  12  30
ENDBRANCH  10  12
ENDBRANCH   1  10
BRANCH   5  34
ATOM     34  C   UNL     1     -15.704  -8.267   1.764  1.00  0.00     0.242 C 
ATOM     35  O   UNL     1     -15.377  -7.605   2.749  1.00  0.00    -0.273 OA
ATOM     36  N   UNL     1     -16.396  -7.723   0.705  1.00  0.00    -0.354 N 
ATOM     37  H   UNL     1     -16.744  -8.345  -0.026  1.00  0.00     0.163 HD
BRANCH  36  38
ATOM     38  C   UNL     1     -16.559  -6.293   0.540  1.00  0.00     0.116 C 
BRANCH  38  39
ATOM     39  C   UNL     1     -17.858  -5.840   1.202  1.00  0.00     0.023 C 
BRANCH  39  40
ATOM     40  C   UNL     1     -18.609  -4.809   0.367  1.00  0.00     0.026 C 
BRANCH  40  41
ATOM     41  C   UNL     1     -18.214  -3.389   0.774  1.00  0.00     0.146 C 
BRANCH  41  42
ATOM     42  N   UNL     1     -17.803  -3.374   2.171  1.00  0.00    -0.254 NA
ATOM     43  C   UNL     1     -16.650  -2.916   2.487  1.00  0.00     0.185 C 
ATOM     44  N   UNL     1     -15.678  -2.408   1.708  1.00  0.00    -0.370 N 
ATOM     45  N   UNL     1     -16.288  -2.915   3.780  1.00  0.00    -0.370 N 
ATOM     46  H   UNL     1     -14.738  -2.315   2.055  1.00  0.00     0.159 HD
ATOM     47  H   UNL     1     -15.791  -2.322   0.702  1.00  0.00     0.159 HD
ATOM     48  H   UNL     1     -16.968  -3.274   4.437  1.00  0.00     0.159 HD
ATOM     49  H   UNL     1     -15.521  -2.368   4.130  1.00  0.00     0.159 HD
ENDBRANCH  41  42
ENDBRANCH  40  41
ENDBRANCH  39  40
ENDBRANCH  38  39
ENDBRANCH  36  38
ENDBRANCH   5  34
BRANCH   8  50
ATOM     50  O   UNL     1     -14.656  -8.972   6.341  1.00  0.00    -0.245 OA
BRANCH  50  51
ATOM     51  S   UNL     1     -14.426  -8.255   7.782  1.00  0.00     0.397 S 
ATOM     52  O   UNL     1     -14.856  -6.879   7.669  1.00  0.00    -0.169 OA
ATOM     53  O   UNL     1     -13.117  -8.602   8.295  1.00  0.00    -0.169 OA
BRANCH  51  54
ATOM     54  O   UNL     1     -15.527  -8.984   8.699  1.00  0.00    -0.264 OA
ATOM     55  H   UNL     1     -16.104  -9.512   8.110  1.00  0.00     0.236 HD
ENDBRANCH  51  54
ENDBRANCH  50  51
ENDBRANCH   8  50
TORSDOF 19
ENDMDL
MODEL 19
REMARK VINA RESULT:    -7.702      3.697      6.852
REMARK INTER + INTRA:         -18.607
REMARK INTER:                 -13.495
REMARK INTRA:                  -5.112
REMARK UNBOUND:                -3.026
REMARK SMILES CC[C@@H](C)[C@@H](NC(=O)[C@@H](O)Cc1ccc(O)c(Cl)c1)C(=O)N1[C@H](C(=O)NCCCCN=C(N)N)C[C@H]2CC[C@H](OS(=O)(=O)O)C[C@@H]21
REMARK SMILES IDX 22 1 36 2 46 3 35 4 23 5 45 6 37 7 39 8 38 9 20 10 21 11
REMARK SMILES IDX 5 12 6 13 7 14 8 15 9 17 11 18 12 19 17 20 19 21 15 22 14 23
REMARK SMILES IDX 13 24 18 25 16 26 10 28 3 30 4 31 2 32 1 33 24 34 25 35
REMARK SMILES IDX 26 36 27 38 28 39 29 40 30 41 31 42 32 43 33 44 34 45 40 50
REMARK SMILES IDX 41 51 42 52 43 53 44 54
REMARK H PARENT 6 16 16 27 10 29 26 37 33 46 33 47 34 48 34 49 44 55
ROOT
ATOM      1  N   UNL     1     -13.503 -12.662   0.978  1.00  0.00    -0.326 N 
ATOM      2  C   UNL     1     -15.242 -14.204   1.355  1.00  0.00     0.014 C 
ATOM      3  C   UNL     1     -13.718 -14.059   1.369  1.00  0.00     0.091 C 
ATOM      4  C   UNL     1     -15.654 -13.297   0.206  1.00  0.00     0.041 C 
ATOM      5  C   UNL     1     -14.776 -12.068   0.500  1.00  0.00     0.175 C 
ATOM      6  C   UNL     1     -13.201 -14.518   2.731  1.00  0.00     0.059 C 
ATOM      7  C   UNL     1     -15.647 -15.665   1.332  1.00  0.00     0.008 C 
ATOM      8  C   UNL     1     -14.048 -15.638   3.372  1.00  0.00     0.143 C 
ATOM      9  C   UNL     1     -14.785 -16.485   2.314  1.00  0.00     0.034 C 
ENDROOT
BRANCH   1  10
ATOM     10  C   UNL     1     -12.322 -11.962   0.801  1.00  0.00     0.246 C 
ATOM     11  O   UNL     1     -12.237 -10.808   1.235  1.00  0.00    -0.272 OA
BRANCH  10  12
ATOM     12  C   UNL     1     -11.117 -12.654   0.102  1.00  0.00     0.174 C 
BRANCH  12  13
ATOM     13  N   UNL     1     -10.106 -13.018   1.094  1.00  0.00    -0.342 N 
ATOM     14  C   UNL     1      -9.725 -14.305   1.399  1.00  0.00     0.249 C 
ATOM     15  O   UNL     1     -10.177 -15.299   0.844  1.00  0.00    -0.272 OA
ATOM     16  H   UNL     1      -9.759 -12.314   1.741  1.00  0.00     0.164 HD
BRANCH  14  17
ATOM     17  C   UNL     1      -8.647 -14.362   2.503  1.00  0.00     0.207 C 
BRANCH  17  18
ATOM     18  C   UNL     1      -8.712 -13.107   3.379  1.00  0.00     0.077 C 
BRANCH  18  19
ATOM     19  C   UNL     1      -9.670 -13.278   4.536  1.00  0.00    -0.043 A 
ATOM     20  C   UNL     1     -10.490 -14.578   6.413  1.00  0.00     0.083 A 
ATOM     21  C   UNL     1      -9.573 -14.398   5.377  1.00  0.00     0.028 A 
ATOM     22  C   UNL     1     -11.508 -13.645   6.615  1.00  0.00     0.134 A 
ATOM     23  C   UNL     1     -11.615 -12.531   5.790  1.00  0.00     0.048 A 
ATOM     24  C   UNL     1     -10.700 -12.349   4.751  1.00  0.00     0.008 A 
ATOM     25  Cl  UNL     1     -10.355 -15.961   7.435  1.00  0.00    -0.080 Cl
BRANCH  22  26
ATOM     26  O   UNL     1     -12.436 -13.784   7.611  1.00  0.00    -0.506 OA
ATOM     27  H   UNL     1     -12.974 -12.971   7.608  1.00  0.00     0.293 HD
ENDBRANCH  22  26
ENDBRANCH  18  19
ENDBRANCH  17  18
BRANCH  17  28
ATOM     28  O   UNL     1      -7.332 -14.481   1.936  1.00  0.00    -0.383 OA
ATOM     29  H   UNL     1      -6.919 -13.592   2.020  1.00  0.00     0.211 HD
ENDBRANCH  17  28
ENDBRANCH  14  17
ENDBRANCH  12  13
BRANCH  12  30
ATOM     30  C   UNL     1     -10.529 -11.807  -1.059  1.00  0.00     0.018 C 
ATOM     31  C   UNL     1     -10.460 -12.630  -2.355  1.00  0.00     0.010 C 
BRANCH  30  32
ATOM     32  C   UNL     1      -9.142 -11.196  -0.742  1.00  0.00     0.002 C 
ATOM     33  C   UNL     1      -9.170  -9.810  -0.109  1.00  0.00     0.004 C 
ENDBRANCH  30  32
ENDBRANCH  12  30
ENDBRANCH  10  12
ENDBRANCH   1  10
BRANCH   5  34
ATOM     34  C   UNL     1     -15.405 -11.163   1.593  1.00  0.00     0.242 C 
ATOM     35  O   UNL     1     -16.227 -11.587   2.406  1.00  0.00    -0.273 OA
ATOM     36  N   UNL     1     -15.019  -9.842   1.554  1.00  0.00    -0.354 N 
ATOM     37  H   UNL     1     -14.428  -9.525   0.784  1.00  0.00     0.163 HD
BRANCH  36  38
ATOM     38  C   UNL     1     -15.335  -8.912   2.618  1.00  0.00     0.116 C 
BRANCH  38  39
ATOM     39  C   UNL     1     -14.201  -8.889   3.641  1.00  0.00     0.023 C 
BRANCH  39  40
ATOM     40  C   UNL     1     -14.707  -8.712   5.068  1.00  0.00     0.026 C 
BRANCH  40  41
ATOM     41  C   UNL     1     -15.716  -9.804   5.425  1.00  0.00     0.146 C 
BRANCH  41  42
ATOM     42  N   UNL     1     -15.067 -10.832   6.227  1.00  0.00    -0.254 NA
ATOM     43  C   UNL     1     -15.016 -10.704   7.499  1.00  0.00     0.185 C 
ATOM     44  N   UNL     1     -15.488  -9.723   8.290  1.00  0.00    -0.370 N 
ATOM     45  N   UNL     1     -14.409 -11.661   8.221  1.00  0.00    -0.370 N 
ATOM     46  H   UNL     1     -15.166  -9.629   9.238  1.00  0.00     0.159 HD
ATOM     47  H   UNL     1     -15.987  -8.925   7.909  1.00  0.00     0.159 HD
ATOM     48  H   UNL     1     -14.033 -12.443   7.702  1.00  0.00     0.159 HD
ATOM     49  H   UNL     1     -14.533 -11.755   9.213  1.00  0.00     0.159 HD
ENDBRANCH  41  42
ENDBRANCH  40  41
ENDBRANCH  39  40
ENDBRANCH  38  39
ENDBRANCH  36  38
ENDBRANCH   5  34
BRANCH   8  50
ATOM     50  O   UNL     1     -15.017 -15.075   4.257  1.00  0.00    -0.245 OA
BRANCH  50  51
ATOM     51  S   UNL     1     -15.051 -15.543   5.814  1.00  0.00     0.397 S 
ATOM     52  O   UNL     1     -13.788 -16.178   6.116  1.00  0.00    -0.169 OA
ATOM     53  O   UNL     1     -16.315 -16.189   6.100  1.00  0.00    -0.169 OA
BRANCH  51  54
ATOM     54  O   UNL     1     -15.028 -14.133   6.588  1.00  0.00    -0.264 OA
ATOM     55  H   UNL     1     -14.396 -14.212   7.332  1.00  0.00     0.236 HD
ENDBRANCH  51  54
ENDBRANCH  50  51
ENDBRANCH   8  50
TORSDOF 19
ENDMDL
MODEL 20
REMARK VINA RESULT:    -7.697      3.340      6.627
REMARK INTER + INTRA:         -18.597
REMARK INTER:                 -14.401
REMARK INTRA:                  -4.195
REMARK UNBOUND:                -3.026
REMARK SMILES CC[C@@H](C)[C@@H](NC(=O)[C@@H](O)Cc1ccc(O)c(Cl)c1)C(=O)N1[C@H](C(=O)NCCCCN=C(N)N)C[C@H]2CC[C@H](OS(=O)(=O)O)C[C@@H]21
REMARK SMILES IDX 22 1 36 2 46 3 35 4 23 5 45 6 37 7 39 8 38 9 20 10 21 11
REMARK SMILES IDX 5 12 6 13 7 14 8 15 9 17 11 18 12 19 17 20 19 21 15 22 14 23
REMARK SMILES IDX 13 24 18 25 16 26 10 28 3 30 4 31 2 32 1 33 24 34 25 35
REMARK SMILES IDX 26 36 27 38 28 39 29 40 30 41 31 42 32 43 33 44 34 45 40 50
REMARK SMILES IDX 41 51 42 52 43 53 44 54
REMARK H PARENT 6 16 16 27 10 29 26 37 33 46 33 47 34 48 34 49 44 55
ROOT
ATOM      1  N   UNL     1     -13.319 -12.762   0.463  1.00  0.00    -0.326 N 
ATOM      2  C   UNL     1     -14.894 -14.250   1.384  1.00  0.00     0.014 C 
ATOM      3  C   UNL     1     -13.390 -14.032   1.192  1.00  0.00     0.091 C 
ATOM      4  C   UNL     1     -15.482 -13.669   0.108  1.00  0.00     0.041 C 
ATOM      5  C   UNL     1     -14.672 -12.363   0.005  1.00  0.00     0.175 C 
ATOM      6  C   UNL     1     -12.711 -14.123   2.558  1.00  0.00     0.059 C 
ATOM      7  C   UNL     1     -15.190 -15.691   1.750  1.00  0.00     0.008 C 
ATOM      8  C   UNL     1     -13.407 -15.095   3.535  1.00  0.00     0.143 C 
ATOM      9  C   UNL     1     -14.178 -16.207   2.794  1.00  0.00     0.034 C 
ENDROOT
BRANCH   1  10
ATOM     10  C   UNL     1     -12.216 -12.068  -0.004  1.00  0.00     0.246 C 
ATOM     11  O   UNL     1     -12.280 -10.839  -0.113  1.00  0.00    -0.272 OA
BRANCH  10  12
ATOM     12  C   UNL     1     -10.908 -12.843  -0.341  1.00  0.00     0.174 C 
BRANCH  12  13
ATOM     13  N   UNL     1      -9.802 -12.328   0.465  1.00  0.00    -0.342 N 
ATOM     14  C   UNL     1      -8.981 -13.095   1.261  1.00  0.00     0.249 C 
ATOM     15  O   UNL     1      -9.070 -14.313   1.360  1.00  0.00    -0.272 OA
ATOM     16  H   UNL     1      -9.705 -11.326   0.606  1.00  0.00     0.164 HD
BRANCH  14  17
ATOM     17  C   UNL     1      -7.917 -12.257   2.001  1.00  0.00     0.207 C 
BRANCH  17  18
ATOM     18  C   UNL     1      -8.464 -10.864   2.326  1.00  0.00     0.077 C 
BRANCH  18  19
ATOM     19  C   UNL     1      -9.364 -10.883   3.541  1.00  0.00    -0.043 A 
ATOM     20  C   UNL     1      -9.693 -11.304   5.907  1.00  0.00     0.083 A 
ATOM     21  C   UNL     1      -8.850 -11.239   4.798  1.00  0.00     0.028 A 
ATOM     22  C   UNL     1     -11.051 -11.015   5.770  1.00  0.00     0.134 A 
ATOM     23  C   UNL     1     -11.574 -10.660   4.531  1.00  0.00     0.048 A 
ATOM     24  C   UNL     1     -10.732 -10.597   3.418  1.00  0.00     0.008 A 
ATOM     25  Cl  UNL     1      -9.043 -11.744   7.443  1.00  0.00    -0.080 Cl
BRANCH  22  26
ATOM     26  O   UNL     1     -11.919 -11.075   6.826  1.00  0.00    -0.506 OA
ATOM     27  H   UNL     1     -11.410 -10.830   7.621  1.00  0.00     0.293 HD
ENDBRANCH  22  26
ENDBRANCH  18  19
ENDBRANCH  17  18
BRANCH  17  28
ATOM     28  O   UNL     1      -6.721 -12.128   1.215  1.00  0.00    -0.383 OA
ATOM     29  H   UNL     1      -7.018 -11.925   0.299  1.00  0.00     0.211 HD
ENDBRANCH  17  28
ENDBRANCH  14  17
ENDBRANCH  12  13
BRANCH  12  30
ATOM     30  C   UNL     1     -10.585 -12.842  -1.860  1.00  0.00     0.018 C 
ATOM     31  C   UNL     1     -10.147 -14.239  -2.326  1.00  0.00     0.010 C 
BRANCH  30  32
ATOM     32  C   UNL     1      -9.527 -11.788  -2.269  1.00  0.00     0.002 C 
ATOM     33  C   UNL     1      -8.983 -11.928  -3.685  1.00  0.00     0.004 C 
ENDBRANCH  30  32
ENDBRANCH  12  30
ENDBRANCH  10  12
ENDBRANCH   1  10
BRANCH   5  34
ATOM     34  C   UNL     1     -15.257 -11.253   0.919  1.00  0.00     0.242 C 
ATOM     35  O   UNL     1     -16.393 -10.804   0.764  1.00  0.00    -0.273 OA
ATOM     36  N   UNL     1     -14.396 -10.770   1.878  1.00  0.00    -0.354 N 
ATOM     37  H   UNL     1     -13.429 -11.097   1.880  1.00  0.00     0.163 HD
BRANCH  36  38
ATOM     38  C   UNL     1     -14.839  -9.897   2.945  1.00  0.00     0.116 C 
BRANCH  38  39
ATOM     39  C   UNL     1     -15.103 -10.713   4.208  1.00  0.00     0.023 C 
BRANCH  39  40
ATOM     40  C   UNL     1     -16.091 -10.030   5.148  1.00  0.00     0.026 C 
BRANCH  40  41
ATOM     41  C   UNL     1     -15.610 -10.115   6.596  1.00  0.00     0.146 C 
BRANCH  41  42
ATOM     42  N   UNL     1     -14.436  -9.271   6.775  1.00  0.00    -0.254 NA
ATOM     43  C   UNL     1     -14.270  -8.641   7.877  1.00  0.00     0.185 C 
ATOM     44  N   UNL     1     -15.037  -8.615   8.982  1.00  0.00    -0.370 N 
ATOM     45  N   UNL     1     -13.184  -7.865   8.020  1.00  0.00    -0.370 N 
ATOM     46  H   UNL     1     -14.917  -7.894   9.673  1.00  0.00     0.159 HD
ATOM     47  H   UNL     1     -15.893  -9.158   9.050  1.00  0.00     0.159 HD
ATOM     48  H   UNL     1     -12.547  -7.835   7.235  1.00  0.00     0.159 HD
ATOM     49  H   UNL     1     -12.864  -7.537   8.914  1.00  0.00     0.159 HD
ENDBRANCH  41  42
ENDBRANCH  40  41
ENDBRANCH  39  40
ENDBRANCH  38  39
ENDBRANCH  36  38
ENDBRANCH   5  34
BRANCH   8  50
ATOM     50  O   UNL     1     -14.324 -14.383   4.365  1.00  0.00    -0.245 OA
BRANCH  50  51
ATOM     51  S   UNL     1     -14.239 -14.548   5.981  1.00  0.00     0.397 S 
ATOM     52  O   UNL     1     -14.055 -13.234   6.555  1.00  0.00    -0.169 OA
ATOM     53  O   UNL     1     -13.361 -15.651   6.311  1.00  0.00    -0.169 OA
BRANCH  51  54
ATOM     54  O   UNL     1     -15.742 -14.982   6.353  1.00  0.00    -0.264 OA
ATOM     55  H   UNL     1     -16.235 -15.100   5.516  1.00  0.00     0.236 HD
ENDBRANCH  51  54
ENDBRANCH  50  51
ENDBRANCH   8  50
TORSDOF 19
ENDMDL
MODEL 21
REMARK VINA RESULT:    -7.638      4.464      7.126
REMARK INTER + INTRA:         -18.477
REMARK INTER:                 -16.541
REMARK INTRA:                  -1.936
REMARK UNBOUND:                -3.026
REMARK SMILES CC[C@@H](C)[C@@H](NC(=O)[C@@H](O)Cc1ccc(O)c(Cl)c1)C(=O)N1[C@H](C(=O)NCCCCN=C(N)N)C[C@H]2CC[C@H](OS(=O)(=O)O)C[C@@H]21
REMARK SMILES IDX 22 1 36 2 46 3 35 4 23 5 45 6 37 7 39 8 38 9 20 10 21 11
REMARK SMILES IDX 5 12 6 13 7 14 8 15 9 17 11 18 12 19 17 20 19 21 15 22 14 23
REMARK SMILES IDX 13 24 18 25 16 26 10 28 3 30 4 31 2 32 1 33 24 34 25 35
REMARK SMILES IDX 26 36 27 38 28 39 29 40 30 41 31 42 32 43 33 44 34 45 40 50
REMARK SMILES IDX 41 51 42 52 43 53 44 54
REMARK H PARENT 6 16 16 27 10 29 26 37 33 46 33 47 34 48 34 49 44 55
ROOT
ATOM      1  N   UNL     1     -11.055 -11.338   1.400  1.00  0.00    -0.326 N 
ATOM      2  C   UNL     1      -8.714 -11.092   1.368  1.00  0.00     0.014 C 
ATOM      3  C   UNL     1      -9.922 -11.138   2.308  1.00  0.00     0.091 C 
ATOM      4  C   UNL     1      -9.279 -10.411   0.131  1.00  0.00     0.041 C 
ATOM      5  C   UNL     1     -10.617 -11.160  -0.006  1.00  0.00     0.175 C 
ATOM      6  C   UNL     1      -9.659 -12.193   3.381  1.00  0.00     0.059 C 
ATOM      7  C   UNL     1      -7.509 -10.490   2.064  1.00  0.00     0.008 C 
ATOM      8  C   UNL     1      -8.168 -12.343   3.753  1.00  0.00     0.143 C 
ATOM      9  C   UNL     1      -7.374 -11.046   3.497  1.00  0.00     0.034 C 
ENDROOT
BRANCH   1  10
ATOM     10  C   UNL     1     -12.408 -11.439   1.677  1.00  0.00     0.246 C 
ATOM     11  O   UNL     1     -13.042 -12.404   1.236  1.00  0.00    -0.272 OA
BRANCH  10  12
ATOM     12  C   UNL     1     -13.090 -10.363   2.571  1.00  0.00     0.174 C 
BRANCH  12  13
ATOM     13  N   UNL     1     -13.717 -11.000   3.728  1.00  0.00    -0.342 N 
ATOM     14  C   UNL     1     -13.183 -11.036   4.997  1.00  0.00     0.249 C 
ATOM     15  O   UNL     1     -12.122 -10.507   5.305  1.00  0.00    -0.272 OA
ATOM     16  H   UNL     1     -14.520 -11.611   3.594  1.00  0.00     0.164 HD
BRANCH  14  17
ATOM     17  C   UNL     1     -14.077 -11.799   5.998  1.00  0.00     0.207 C 
BRANCH  17  18
ATOM     18  C   UNL     1     -15.402 -11.059   6.204  1.00  0.00     0.077 C 
BRANCH  18  19
ATOM     19  C   UNL     1     -15.186  -9.596   6.521  1.00  0.00    -0.043 A 
ATOM     20  C   UNL     1     -14.567  -7.855   8.092  1.00  0.00     0.083 A 
ATOM     21  C   UNL     1     -14.718  -9.208   7.786  1.00  0.00     0.028 A 
ATOM     22  C   UNL     1     -14.882  -6.884   7.140  1.00  0.00     0.134 A 
ATOM     23  C   UNL     1     -15.345  -7.255   5.883  1.00  0.00     0.048 A 
ATOM     24  C   UNL     1     -15.499  -8.609   5.575  1.00  0.00     0.008 A 
ATOM     25  Cl  UNL     1     -13.992  -7.396   9.652  1.00  0.00    -0.080 Cl
BRANCH  22  26
ATOM     26  O   UNL     1     -14.759  -5.545   7.397  1.00  0.00    -0.506 OA
ATOM     27  H   UNL     1     -15.508  -5.301   7.973  1.00  0.00     0.293 HD
ENDBRANCH  22  26
ENDBRANCH  18  19
ENDBRANCH  17  18
BRANCH  17  28
ATOM     28  O   UNL     1     -13.417 -11.957   7.264  1.00  0.00    -0.383 OA
ATOM     29  H   UNL     1     -12.820 -11.180   7.358  1.00  0.00     0.211 HD
ENDBRANCH  17  28
ENDBRANCH  14  17
ENDBRANCH  12  13
BRANCH  12  30
ATOM     30  C   UNL     1     -14.080  -9.466   1.780  1.00  0.00     0.018 C 
ATOM     31  C   UNL     1     -15.462 -10.131   1.683  1.00  0.00     0.010 C 
BRANCH  30  32
ATOM     32  C   UNL     1     -13.576  -9.079   0.368  1.00  0.00     0.002 C 
ATOM     33  C   UNL     1     -14.202  -9.856  -0.783  1.00  0.00     0.004 C 
ENDBRANCH  30  32
ENDBRANCH  12  30
ENDBRANCH  10  12
ENDBRANCH   1  10
BRANCH   5  34
ATOM     34  C   UNL     1     -10.434 -12.535  -0.704  1.00  0.00     0.242 C 
ATOM     35  O   UNL     1     -10.657 -13.599  -0.128  1.00  0.00    -0.273 OA
ATOM     36  N   UNL     1      -9.952 -12.478  -1.992  1.00  0.00    -0.354 N 
ATOM     37  H   UNL     1      -9.672 -11.573  -2.373  1.00  0.00     0.163 HD
BRANCH  36  38
ATOM     38  C   UNL     1      -9.925 -13.637  -2.860  1.00  0.00     0.116 C 
BRANCH  38  39
ATOM     39  C   UNL     1      -9.528 -13.218  -4.273  1.00  0.00     0.023 C 
BRANCH  39  40
ATOM     40  C   UNL     1      -9.405 -11.705  -4.420  1.00  0.00     0.026 C 
BRANCH  40  41
ATOM     41  C   UNL     1      -7.979 -11.312  -4.807  1.00  0.00     0.146 C 
BRANCH  41  42
ATOM     42  N   UNL     1      -7.895 -11.123  -6.249  1.00  0.00    -0.254 NA
ATOM     43  C   UNL     1      -7.174 -11.914  -6.950  1.00  0.00     0.185 C 
ATOM     44  N   UNL     1      -6.425 -12.967  -6.573  1.00  0.00    -0.370 N 
ATOM     45  N   UNL     1      -7.106 -11.720  -8.278  1.00  0.00    -0.370 N 
ATOM     46  H   UNL     1      -5.723 -13.343  -7.187  1.00  0.00     0.159 HD
ATOM     47  H   UNL     1      -6.373 -13.263  -5.603  1.00  0.00     0.159 HD
ATOM     48  H   UNL     1      -7.649 -10.951  -8.646  1.00  0.00     0.159 HD
ATOM     49  H   UNL     1      -6.766 -12.419  -8.913  1.00  0.00     0.159 HD
ENDBRANCH  41  42
ENDBRANCH  40  41
ENDBRANCH  39  40
ENDBRANCH  38  39
ENDBRANCH  36  38
ENDBRANCH   5  34
BRANCH   8  50
ATOM     50  O   UNL     1      -7.576 -13.395   2.989  1.00  0.00    -0.245 OA
BRANCH  50  51
ATOM     51  S   UNL     1      -7.760 -14.938   3.471  1.00  0.00     0.397 S 
ATOM     52  O   UNL     1      -8.106 -15.729   2.312  1.00  0.00    -0.169 OA
ATOM     53  O   UNL     1      -8.552 -14.978   4.682  1.00  0.00    -0.169 OA
BRANCH  51  54
ATOM     54  O   UNL     1      -6.253 -15.353   3.850  1.00  0.00    -0.264 OA
ATOM     55  H   UNL     1      -6.071 -15.024   4.754  1.00  0.00     0.236 HD
ENDBRANCH  51  54
ENDBRANCH  50  51
ENDBRANCH   8  50
TORSDOF 19
ENDMDL
MODEL 22
REMARK VINA RESULT:    -7.636      2.509      4.032
REMARK INTER + INTRA:         -18.474
REMARK INTER:                 -15.397
REMARK INTRA:                  -3.077
REMARK UNBOUND:                -3.026
REMARK SMILES CC[C@@H](C)[C@@H](NC(=O)[C@@H](O)Cc1ccc(O)c(Cl)c1)C(=O)N1[C@H](C(=O)NCCCCN=C(N)N)C[C@H]2CC[C@H](OS(=O)(=O)O)C[C@@H]21
REMARK SMILES IDX 22 1 36 2 46 3 35 4 23 5 45 6 37 7 39 8 38 9 20 10 21 11
REMARK SMILES IDX 5 12 6 13 7 14 8 15 9 17 11 18 12 19 17 20 19 21 15 22 14 23
REMARK SMILES IDX 13 24 18 25 16 26 10 28 3 30 4 31 2 32 1 33 24 34 25 35
REMARK SMILES IDX 26 36 27 38 28 39 29 40 30 41 31 42 32 43 33 44 34 45 40 50
REMARK SMILES IDX 41 51 42 52 43 53 44 54
REMARK H PARENT 6 16 16 27 10 29 26 37 33 46 33 47 34 48 34 49 44 55
ROOT
ATOM      1  N   UNL     1     -13.114 -12.534   3.589  1.00  0.00    -0.326 N 
ATOM      2  C   UNL     1     -15.215 -12.942   2.608  1.00  0.00     0.014 C 
ATOM      3  C   UNL     1     -14.530 -12.195   3.757  1.00  0.00     0.091 C 
ATOM      4  C   UNL     1     -14.383 -14.210   2.491  1.00  0.00     0.041 C 
ATOM      5  C   UNL     1     -12.966 -13.616   2.585  1.00  0.00     0.175 C 
ATOM      6  C   UNL     1     -14.937 -10.724   3.687  1.00  0.00     0.059 C 
ATOM      7  C   UNL     1     -16.708 -13.052   2.847  1.00  0.00     0.008 C 
ATOM      8  C   UNL     1     -16.358 -10.498   3.129  1.00  0.00     0.143 C 
ATOM      9  C   UNL     1     -17.275 -11.715   3.369  1.00  0.00     0.034 C 
ENDROOT
BRANCH   1  10
ATOM     10  C   UNL     1     -12.017 -12.162   4.347  1.00  0.00     0.246 C 
ATOM     11  O   UNL     1     -10.991 -11.780   3.774  1.00  0.00    -0.272 OA
BRANCH  10  12
ATOM     12  C   UNL     1     -12.112 -12.192   5.900  1.00  0.00     0.174 C 
BRANCH  12  13
ATOM     13  N   UNL     1     -12.878 -11.040   6.375  1.00  0.00    -0.342 N 
ATOM     14  C   UNL     1     -13.962 -11.108   7.222  1.00  0.00     0.249 C 
ATOM     15  O   UNL     1     -14.392 -12.151   7.698  1.00  0.00    -0.272 OA
ATOM     16  H   UNL     1     -12.739 -10.130   5.945  1.00  0.00     0.164 HD
BRANCH  14  17
ATOM     17  C   UNL     1     -14.568  -9.721   7.525  1.00  0.00     0.207 C 
BRANCH  17  18
ATOM     18  C   UNL     1     -13.478  -8.751   7.993  1.00  0.00     0.077 C 
BRANCH  18  19
ATOM     19  C   UNL     1     -13.870  -7.309   7.759  1.00  0.00    -0.043 A 
ATOM     20  C   UNL     1     -15.045  -5.635   6.456  1.00  0.00     0.083 A 
ATOM     21  C   UNL     1     -14.725  -6.971   6.699  1.00  0.00     0.028 A 
ATOM     22  C   UNL     1     -14.515  -4.631   7.266  1.00  0.00     0.134 A 
ATOM     23  C   UNL     1     -13.667  -4.952   8.320  1.00  0.00     0.048 A 
ATOM     24  C   UNL     1     -13.343  -6.288   8.565  1.00  0.00     0.008 A 
ATOM     25  Cl  UNL     1     -16.097  -5.239   5.147  1.00  0.00    -0.080 Cl
BRANCH  22  26
ATOM     26  O   UNL     1     -14.791  -3.306   7.060  1.00  0.00    -0.506 OA
ATOM     27  H   UNL     1     -15.483  -3.268   6.374  1.00  0.00     0.293 HD
ENDBRANCH  22  26
ENDBRANCH  18  19
ENDBRANCH  17  18
BRANCH  17  28
ATOM     28  O   UNL     1     -15.590  -9.811   8.530  1.00  0.00    -0.383 OA
ATOM     29  H   UNL     1     -16.189 -10.538   8.245  1.00  0.00     0.211 HD
ENDBRANCH  17  28
ENDBRANCH  14  17
ENDBRANCH  12  13
BRANCH  12  30
ATOM     30  C   UNL     1     -10.723 -12.302   6.585  1.00  0.00     0.018 C 
ATOM     31  C   UNL     1     -10.848 -12.943   7.975  1.00  0.00     0.010 C 
BRANCH  30  32
ATOM     32  C   UNL     1      -9.972 -10.952   6.687  1.00  0.00     0.002 C 
ATOM     33  C   UNL     1      -9.529 -10.558   8.090  1.00  0.00     0.004 C 
ENDBRANCH  30  32
ENDBRANCH  12  30
ENDBRANCH  10  12
ENDBRANCH   1  10
BRANCH   5  34
ATOM     34  C   UNL     1     -12.495 -13.041   1.222  1.00  0.00     0.242 C 
ATOM     35  O   UNL     1     -12.364 -13.745   0.221  1.00  0.00    -0.273 OA
ATOM     36  N   UNL     1     -12.182 -11.700   1.229  1.00  0.00    -0.354 N 
ATOM     37  H   UNL     1     -12.195 -11.197   2.117  1.00  0.00     0.163 HD
BRANCH  36  38
ATOM     38  C   UNL     1     -11.936 -10.958   0.010  1.00  0.00     0.116 C 
BRANCH  38  39
ATOM     39  C   UNL     1     -10.468 -10.541  -0.056  1.00  0.00     0.023 C 
BRANCH  39  40
ATOM     40  C   UNL     1      -9.630 -11.493  -0.902  1.00  0.00     0.026 C 
BRANCH  40  41
ATOM     41  C   UNL     1      -8.815 -12.433  -0.013  1.00  0.00     0.146 C 
BRANCH  41  42
ATOM     42  N   UNL     1      -8.924 -12.014   1.378  1.00  0.00    -0.254 NA
ATOM     43  C   UNL     1      -7.875 -11.650   2.013  1.00  0.00     0.185 C 
ATOM     44  N   UNL     1      -6.596 -11.575   1.602  1.00  0.00    -0.370 N 
ATOM     45  N   UNL     1      -7.996 -11.271   3.296  1.00  0.00    -0.370 N 
ATOM     46  H   UNL     1      -5.846 -11.509   2.268  1.00  0.00     0.159 HD
ATOM     47  H   UNL     1      -6.327 -11.813   0.652  1.00  0.00     0.159 HD
ATOM     48  H   UNL     1      -8.930 -11.290   3.683  1.00  0.00     0.159 HD
ATOM     49  H   UNL     1      -7.283 -10.756   3.781  1.00  0.00     0.159 HD
ENDBRANCH  41  42
ENDBRANCH  40  41
ENDBRANCH  39  40
ENDBRANCH  38  39
ENDBRANCH  36  38
ENDBRANCH   5  34
BRANCH   8  50
ATOM     50  O   UNL     1     -16.300 -10.246   1.724  1.00  0.00    -0.245 OA
BRANCH  50  51
ATOM     51  S   UNL     1     -15.933  -8.753   1.192  1.00  0.00     0.397 S 
ATOM     52  O   UNL     1     -14.744  -8.850   0.375  1.00  0.00    -0.169 OA
ATOM     53  O   UNL     1     -16.028  -7.810   2.286  1.00  0.00    -0.169 OA
BRANCH  51  54
ATOM     54  O   UNL     1     -17.141  -8.454   0.173  1.00  0.00    -0.264 OA
ATOM     55  H   UNL     1     -17.367  -9.294  -0.276  1.00  0.00     0.236 HD
ENDBRANCH  51  54
ENDBRANCH  50  51
ENDBRANCH   8  50
TORSDOF 19
ENDMDL
MODEL 23
REMARK VINA RESULT:    -7.630      3.333      6.613
REMARK INTER + INTRA:         -18.462
REMARK INTER:                 -15.649
REMARK INTRA:                  -2.813
REMARK UNBOUND:                -3.026
REMARK SMILES CC[C@@H](C)[C@@H](NC(=O)[C@@H](O)Cc1ccc(O)c(Cl)c1)C(=O)N1[C@H](C(=O)NCCCCN=C(N)N)C[C@H]2CC[C@H](OS(=O)(=O)O)C[C@@H]21
REMARK SMILES IDX 22 1 36 2 46 3 35 4 23 5 45 6 37 7 39 8 38 9 20 10 21 11
REMARK SMILES IDX 5 12 6 13 7 14 8 15 9 17 11 18 12 19 17 20 19 21 15 22 14 23
REMARK SMILES IDX 13 24 18 25 16 26 10 28 3 30 4 31 2 32 1 33 24 34 25 35
REMARK SMILES IDX 26 36 27 38 28 39 29 40 30 41 31 42 32 43 33 44 34 45 40 50
REMARK SMILES IDX 41 51 42 52 43 53 44 54
REMARK H PARENT 6 16 16 27 10 29 26 37 33 46 33 47 34 48 34 49 44 55
ROOT
ATOM      1  N   UNL     1     -11.511 -13.824   5.209  1.00  0.00    -0.326 N 
ATOM      2  C   UNL     1      -9.271 -14.292   4.656  1.00  0.00     0.014 C 
ATOM      3  C   UNL     1     -10.649 -14.028   4.041  1.00  0.00     0.091 C 
ATOM      4  C   UNL     1      -9.612 -15.050   5.930  1.00  0.00     0.041 C 
ATOM      5  C   UNL     1     -10.785 -14.197   6.448  1.00  0.00     0.175 C 
ATOM      6  C   UNL     1     -10.517 -12.890   3.031  1.00  0.00     0.059 C 
ATOM      7  C   UNL     1      -8.337 -14.923   3.642  1.00  0.00     0.008 C 
ATOM      8  C   UNL     1      -9.144 -12.841   2.326  1.00  0.00     0.143 C 
ATOM      9  C   UNL     1      -8.471 -14.227   2.271  1.00  0.00     0.034 C 
ENDROOT
BRANCH   1  10
ATOM     10  C   UNL     1     -12.870 -13.566   5.275  1.00  0.00     0.246 C 
ATOM     11  O   UNL     1     -13.447 -13.657   6.364  1.00  0.00    -0.272 OA
BRANCH  10  12
ATOM     12  C   UNL     1     -13.630 -13.127   3.990  1.00  0.00     0.174 C 
BRANCH  12  13
ATOM     13  N   UNL     1     -13.798 -11.674   3.982  1.00  0.00    -0.342 N 
ATOM     14  C   UNL     1     -13.657 -10.869   2.874  1.00  0.00     0.249 C 
ATOM     15  O   UNL     1     -13.398 -11.290   1.753  1.00  0.00    -0.272 OA
ATOM     16  H   UNL     1     -13.858 -11.169   4.862  1.00  0.00     0.164 HD
BRANCH  14  17
ATOM     17  C   UNL     1     -13.880  -9.375   3.191  1.00  0.00     0.207 C 
BRANCH  17  18
ATOM     18  C   UNL     1     -14.935  -8.780   2.254  1.00  0.00     0.077 C 
BRANCH  18  19
ATOM     19  C   UNL     1     -15.534  -7.510   2.816  1.00  0.00    -0.043 A 
ATOM     20  C   UNL     1     -15.988  -6.055   4.703  1.00  0.00     0.083 A 
ATOM     21  C   UNL     1     -15.392  -7.202   4.178  1.00  0.00     0.028 A 
ATOM     22  C   UNL     1     -16.728  -5.210   3.874  1.00  0.00     0.134 A 
ATOM     23  C   UNL     1     -16.876  -5.503   2.523  1.00  0.00     0.048 A 
ATOM     24  C   UNL     1     -16.282  -6.652   1.995  1.00  0.00     0.008 A 
ATOM     25  Cl  UNL     1     -15.803  -5.694   6.379  1.00  0.00    -0.080 Cl
BRANCH  22  26
ATOM     26  O   UNL     1     -17.339  -4.080   4.345  1.00  0.00    -0.506 OA
ATOM     27  H   UNL     1     -18.274  -4.133   4.075  1.00  0.00     0.293 HD
ENDBRANCH  22  26
ENDBRANCH  18  19
ENDBRANCH  17  18
BRANCH  17  28
ATOM     28  O   UNL     1     -12.657  -8.631   3.066  1.00  0.00    -0.383 OA
ATOM     29  H   UNL     1     -12.922  -7.707   2.855  1.00  0.00     0.211 HD
ENDBRANCH  17  28
ENDBRANCH  14  17
ENDBRANCH  12  13
BRANCH  12  30
ATOM     30  C   UNL     1     -14.975 -13.880   3.802  1.00  0.00     0.018 C 
ATOM     31  C   UNL     1     -15.102 -14.422   2.370  1.00  0.00     0.010 C 
BRANCH  30  32
ATOM     32  C   UNL     1     -16.218 -13.030   4.161  1.00  0.00     0.002 C 
ATOM     33  C   UNL     1     -17.104 -12.643   2.985  1.00  0.00     0.004 C 
ENDBRANCH  30  32
ENDBRANCH  12  30
ENDBRANCH  10  12
ENDBRANCH   1  10
BRANCH   5  34
ATOM     34  C   UNL     1     -10.286 -12.932   7.196  1.00  0.00     0.242 C 
ATOM     35  O   UNL     1      -9.374 -12.973   8.021  1.00  0.00    -0.273 OA
ATOM     36  N   UNL     1     -10.973 -11.774   6.909  1.00  0.00    -0.354 N 
ATOM     37  H   UNL     1     -11.796 -11.826   6.308  1.00  0.00     0.163 HD
BRANCH  36  38
ATOM     38  C   UNL     1     -10.510 -10.473   7.346  1.00  0.00     0.116 C 
BRANCH  38  39
ATOM     39  C   UNL     1     -11.704  -9.552   7.587  1.00  0.00     0.023 C 
BRANCH  39  40
ATOM     40  C   UNL     1     -13.029 -10.204   7.205  1.00  0.00     0.026 C 
BRANCH  40  41
ATOM     41  C   UNL     1     -14.167  -9.667   8.073  1.00  0.00     0.146 C 
BRANCH  41  42
ATOM     42  N   UNL     1     -13.861  -8.309   8.502  1.00  0.00    -0.254 NA
ATOM     43  C   UNL     1     -14.710  -7.662   9.209  1.00  0.00     0.185 C 
ATOM     44  N   UNL     1     -15.921  -8.034   9.663  1.00  0.00    -0.370 N 
ATOM     45  N   UNL     1     -14.411  -6.409   9.590  1.00  0.00    -0.370 N 
ATOM     46  H   UNL     1     -16.577  -7.348   9.994  1.00  0.00     0.159 HD
ATOM     47  H   UNL     1     -16.298  -8.958   9.478  1.00  0.00     0.159 HD
ATOM     48  H   UNL     1     -13.511  -6.054   9.297  1.00  0.00     0.159 HD
ATOM     49  H   UNL     1     -14.902  -5.933  10.326  1.00  0.00     0.159 HD
ENDBRANCH  41  42
ENDBRANCH  40  41
ENDBRANCH  39  40
ENDBRANCH  38  39
ENDBRANCH  36  38
ENDBRANCH   5  34
BRANCH   8  50
ATOM     50  O   UNL     1      -8.273 -11.940   3.012  1.00  0.00    -0.245 OA
BRANCH  50  51
ATOM     51  S   UNL     1      -7.472 -10.801   2.171  1.00  0.00     0.397 S 
ATOM     52  O   UNL     1      -6.603 -11.470   1.229  1.00  0.00    -0.169 OA
ATOM     53  O   UNL     1      -6.973  -9.789   3.078  1.00  0.00    -0.169 OA
BRANCH  51  54
ATOM     54  O   UNL     1      -8.648 -10.144   1.293  1.00  0.00    -0.264 OA
ATOM     55  H   UNL     1      -9.244 -10.865   1.005  1.00  0.00     0.236 HD
ENDBRANCH  51  54
ENDBRANCH  50  51
ENDBRANCH   8  50
TORSDOF 19
ENDMDL
MODEL 24
REMARK VINA RESULT:    -7.606      3.336      6.321
REMARK INTER + INTRA:         -18.413
REMARK INTER:                 -13.864
REMARK INTRA:                  -4.548
REMARK UNBOUND:                -3.026
REMARK SMILES CC[C@@H](C)[C@@H](NC(=O)[C@@H](O)Cc1ccc(O)c(Cl)c1)C(=O)N1[C@H](C(=O)NCCCCN=C(N)N)C[C@H]2CC[C@H](OS(=O)(=O)O)C[C@@H]21
REMARK SMILES IDX 22 1 36 2 46 3 35 4 23 5 45 6 37 7 39 8 38 9 20 10 21 11
REMARK SMILES IDX 5 12 6 13 7 14 8 15 9 17 11 18 12 19 17 20 19 21 15 22 14 23
REMARK SMILES IDX 13 24 18 25 16 26 10 28 3 30 4 31 2 32 1 33 24 34 25 35
REMARK SMILES IDX 26 36 27 38 28 39 29 40 30 41 31 42 32 43 33 44 34 45 40 50
REMARK SMILES IDX 41 51 42 52 43 53 44 54
REMARK H PARENT 6 16 16 27 10 29 26 37 33 46 33 47 34 48 34 49 44 55
ROOT
ATOM      1  N   UNL     1     -13.647 -11.704   2.801  1.00  0.00    -0.326 N 
ATOM      2  C   UNL     1     -12.191 -12.191   4.586  1.00  0.00     0.014 C 
ATOM      3  C   UNL     1     -13.468 -12.669   3.889  1.00  0.00     0.091 C 
ATOM      4  C   UNL     1     -12.281 -10.679   4.447  1.00  0.00     0.041 C 
ATOM      5  C   UNL     1     -12.711 -10.566   2.973  1.00  0.00     0.175 C 
ATOM      6  C   UNL     1     -13.298 -14.144   3.529  1.00  0.00     0.059 C 
ATOM      7  C   UNL     1     -12.064 -12.804   5.966  1.00  0.00     0.008 C 
ATOM      8  C   UNL     1     -12.414 -14.929   4.522  1.00  0.00     0.143 C 
ATOM      9  C   UNL     1     -12.431 -14.303   5.932  1.00  0.00     0.034 C 
ENDROOT
BRANCH   1  10
ATOM     10  C   UNL     1     -14.646 -11.618   1.846  1.00  0.00     0.246 C 
ATOM     11  O   UNL     1     -14.463 -12.131   0.737  1.00  0.00    -0.272 OA
BRANCH  10  12
ATOM     12  C   UNL     1     -15.990 -10.918   2.202  1.00  0.00     0.174 C 
BRANCH  12  13
ATOM     13  N   UNL     1     -15.727  -9.664   2.908  1.00  0.00    -0.342 N 
ATOM     14  C   UNL     1     -15.708  -8.418   2.324  1.00  0.00     0.249 C 
ATOM     15  O   UNL     1     -15.940  -8.216   1.138  1.00  0.00    -0.272 OA
ATOM     16  H   UNL     1     -15.366  -9.688   3.858  1.00  0.00     0.164 HD
BRANCH  14  17
ATOM     17  C   UNL     1     -15.384  -7.293   3.331  1.00  0.00     0.207 C 
BRANCH  17  18
ATOM     18  C   UNL     1     -16.196  -7.475   4.617  1.00  0.00     0.077 C 
BRANCH  18  19
ATOM     19  C   UNL     1     -15.308  -7.522   5.840  1.00  0.00    -0.043 A 
ATOM     20  C   UNL     1     -14.114  -8.796   7.524  1.00  0.00     0.083 A 
ATOM     21  C   UNL     1     -14.892  -8.755   6.367  1.00  0.00     0.028 A 
ATOM     22  C   UNL     1     -13.748  -7.611   8.162  1.00  0.00     0.134 A 
ATOM     23  C   UNL     1     -14.152  -6.383   7.651  1.00  0.00     0.048 A 
ATOM     24  C   UNL     1     -14.932  -6.338   6.494  1.00  0.00     0.008 A 
ATOM     25  Cl  UNL     1     -13.614 -10.321   8.157  1.00  0.00    -0.080 Cl
BRANCH  22  26
ATOM     26  O   UNL     1     -12.994  -7.601   9.305  1.00  0.00    -0.506 OA
ATOM     27  H   UNL     1     -13.138  -6.734   9.727  1.00  0.00     0.293 HD
ENDBRANCH  22  26
ENDBRANCH  18  19
ENDBRANCH  17  18
BRANCH  17  28
ATOM     28  O   UNL     1     -15.663  -6.000   2.770  1.00  0.00    -0.383 OA
ATOM     29  H   UNL     1     -14.821  -5.693   2.364  1.00  0.00     0.211 HD
ENDBRANCH  17  28
ENDBRANCH  14  17
ENDBRANCH  12  13
BRANCH  12  30
ATOM     30  C   UNL     1     -16.961 -11.845   2.982  1.00  0.00     0.018 C 
ATOM     31  C   UNL     1     -16.763 -11.692   4.498  1.00  0.00     0.010 C 
BRANCH  30  32
ATOM     32  C   UNL     1     -16.855 -13.336   2.579  1.00  0.00     0.002 C 
ATOM     33  C   UNL     1     -17.697 -13.748   1.379  1.00  0.00     0.004 C 
ENDBRANCH  30  32
ENDBRANCH  12  30
ENDBRANCH  10  12
ENDBRANCH   1  10
BRANCH   5  34
ATOM     34  C   UNL     1     -11.500 -10.699   2.012  1.00  0.00     0.242 C 
ATOM     35  O   UNL     1     -10.338 -10.579   2.397  1.00  0.00    -0.273 OA
ATOM     36  N   UNL     1     -11.823 -10.906   0.689  1.00  0.00    -0.354 N 
ATOM     37  H   UNL     1     -12.805 -10.876   0.412  1.00  0.00     0.163 HD
BRANCH  36  38
ATOM     38  C   UNL     1     -10.829 -11.266  -0.302  1.00  0.00     0.116 C 
BRANCH  38  39
ATOM     39  C   UNL     1     -11.080 -12.689  -0.794  1.00  0.00     0.023 C 
BRANCH  39  40
ATOM     40  C   UNL     1     -10.067 -13.685  -0.239  1.00  0.00     0.026 C 
BRANCH  40  41
ATOM     41  C   UNL     1      -8.752 -12.985   0.105  1.00  0.00     0.146 C 
BRANCH  41  42
ATOM     42  N   UNL     1      -7.918 -13.872   0.907  1.00  0.00    -0.254 NA
ATOM     43  C   UNL     1      -7.983 -13.818   2.184  1.00  0.00     0.185 C 
ATOM     44  N   UNL     1      -8.735 -13.037   2.981  1.00  0.00    -0.370 N 
ATOM     45  N   UNL     1      -7.203 -14.640   2.904  1.00  0.00    -0.370 N 
ATOM     46  H   UNL     1      -8.509 -12.929   3.954  1.00  0.00     0.159 HD
ATOM     47  H   UNL     1      -9.394 -12.365   2.600  1.00  0.00     0.159 HD
ATOM     48  H   UNL     1      -6.610 -15.269   2.380  1.00  0.00     0.159 HD
ATOM     49  H   UNL     1      -7.362 -14.827   3.879  1.00  0.00     0.159 HD
ENDBRANCH  41  42
ENDBRANCH  40  41
ENDBRANCH  39  40
ENDBRANCH  38  39
ENDBRANCH  36  38
ENDBRANCH   5  34
BRANCH   8  50
ATOM     50  O   UNL     1     -11.065 -14.962   4.057  1.00  0.00    -0.245 OA
BRANCH  50  51
ATOM     51  S   UNL     1     -10.437 -16.360   3.513  1.00  0.00     0.397 S 
ATOM     52  O   UNL     1      -9.232 -16.631   4.266  1.00  0.00    -0.169 OA
ATOM     53  O   UNL     1     -10.446 -16.367   2.065  1.00  0.00    -0.169 OA
BRANCH  51  54
ATOM     54  O   UNL     1     -11.520 -17.434   4.021  1.00  0.00    -0.264 OA
ATOM     55  H   UNL     1     -11.723 -18.031   3.272  1.00  0.00     0.236 HD
ENDBRANCH  51  54
ENDBRANCH  50  51
ENDBRANCH   8  50
TORSDOF 19
ENDMDL
MODEL 25
REMARK VINA RESULT:    -7.603      3.858      8.541
REMARK INTER + INTRA:         -18.406
REMARK INTER:                 -16.172
REMARK INTRA:                  -2.235
REMARK UNBOUND:                -3.026
REMARK SMILES CC[C@@H](C)[C@@H](NC(=O)[C@@H](O)Cc1ccc(O)c(Cl)c1)C(=O)N1[C@H](C(=O)NCCCCN=C(N)N)C[C@H]2CC[C@H](OS(=O)(=O)O)C[C@@H]21
REMARK SMILES IDX 22 1 36 2 46 3 35 4 23 5 45 6 37 7 39 8 38 9 20 10 21 11
REMARK SMILES IDX 5 12 6 13 7 14 8 15 9 17 11 18 12 19 17 20 19 21 15 22 14 23
REMARK SMILES IDX 13 24 18 25 16 26 10 28 3 30 4 31 2 32 1 33 24 34 25 35
REMARK SMILES IDX 26 36 27 38 28 39 29 40 30 41 31 42 32 43 33 44 34 45 40 50
REMARK SMILES IDX 41 51 42 52 43 53 44 54
REMARK H PARENT 6 16 16 27 10 29 26 37 33 46 33 47 34 48 34 49 44 55
ROOT
ATOM      1  N   UNL     1     -13.498 -11.678   3.498  1.00  0.00    -0.326 N 
ATOM      2  C   UNL     1     -14.826 -11.736   5.441  1.00  0.00     0.014 C 
ATOM      3  C   UNL     1     -13.374 -11.688   4.959  1.00  0.00     0.091 C 
ATOM      4  C   UNL     1     -15.503 -12.589   4.380  1.00  0.00     0.041 C 
ATOM      5  C   UNL     1     -14.899 -11.969   3.106  1.00  0.00     0.175 C 
ATOM      6  C   UNL     1     -12.679 -10.507   5.634  1.00  0.00     0.059 C 
ATOM      7  C   UNL     1     -14.901 -12.161   6.895  1.00  0.00     0.008 C 
ATOM      8  C   UNL     1     -13.215 -10.197   7.049  1.00  0.00     0.143 C 
ATOM      9  C   UNL     1     -13.815 -11.446   7.727  1.00  0.00     0.034 C 
ENDROOT
BRANCH   1  10
ATOM     10  C   UNL     1     -12.515 -11.658   2.524  1.00  0.00     0.246 C 
ATOM     11  O   UNL     1     -12.525 -10.758   1.678  1.00  0.00    -0.272 OA
BRANCH  10  12
ATOM     12  C   UNL     1     -11.397 -12.741   2.540  1.00  0.00     0.174 C 
BRANCH  12  13
ATOM     13  N   UNL     1     -10.784 -12.845   1.217  1.00  0.00    -0.342 N 
ATOM     14  C   UNL     1      -9.429 -12.860   0.972  1.00  0.00     0.249 C 
ATOM     15  O   UNL     1      -8.577 -12.816   1.851  1.00  0.00    -0.272 OA
ATOM     16  H   UNL     1     -11.358 -12.732   0.385  1.00  0.00     0.164 HD
BRANCH  14  17
ATOM     17  C   UNL     1      -9.096 -12.961  -0.531  1.00  0.00     0.207 C 
BRANCH  17  18
ATOM     18  C   UNL     1     -10.125 -13.838  -1.250  1.00  0.00     0.077 C 
BRANCH  18  19
ATOM     19  C   UNL     1      -9.940 -13.808  -2.751  1.00  0.00    -0.043 A 
ATOM     20  C   UNL     1      -9.708 -12.556  -4.816  1.00  0.00     0.083 A 
ATOM     21  C   UNL     1      -9.830 -12.582  -3.426  1.00  0.00     0.028 A 
ATOM     22  C   UNL     1      -9.699 -13.749  -5.538  1.00  0.00     0.134 A 
ATOM     23  C   UNL     1      -9.807 -14.970  -4.883  1.00  0.00     0.048 A 
ATOM     24  C   UNL     1      -9.930 -14.999  -3.492  1.00  0.00     0.008 A 
ATOM     25  Cl  UNL     1      -9.574 -11.040  -5.627  1.00  0.00    -0.080 Cl
BRANCH  22  26
ATOM     26  O   UNL     1      -9.593 -13.773  -6.903  1.00  0.00    -0.506 OA
ATOM     27  H   UNL     1     -10.500 -13.845  -7.253  1.00  0.00     0.293 HD
ENDBRANCH  22  26
ENDBRANCH  18  19
ENDBRANCH  17  18
BRANCH  17  28
ATOM     28  O   UNL     1      -7.781 -13.504  -0.735  1.00  0.00    -0.383 OA
ATOM     29  H   UNL     1      -7.193 -12.735  -0.911  1.00  0.00     0.211 HD
ENDBRANCH  17  28
ENDBRANCH  14  17
ENDBRANCH  12  13
BRANCH  12  30
ATOM     30  C   UNL     1     -11.896 -14.112   3.071  1.00  0.00     0.018 C 
ATOM     31  C   UNL     1     -10.749 -14.894   3.730  1.00  0.00     0.010 C 
BRANCH  30  32
ATOM     32  C   UNL     1     -12.583 -14.983   1.991  1.00  0.00     0.002 C 
ATOM     33  C   UNL     1     -13.956 -15.524   2.367  1.00  0.00     0.004 C 
ENDBRANCH  30  32
ENDBRANCH  12  30
ENDBRANCH  10  12
ENDBRANCH   1  10
BRANCH   5  34
ATOM     34  C   UNL     1     -15.638 -10.667   2.698  1.00  0.00     0.242 C 
ATOM     35  O   UNL     1     -16.775 -10.676   2.227  1.00  0.00    -0.273 OA
ATOM     36  N   UNL     1     -14.909  -9.508   2.849  1.00  0.00    -0.354 N 
ATOM     37  H   UNL     1     -13.931  -9.576   3.130  1.00  0.00     0.163 HD
BRANCH  36  38
ATOM     38  C   UNL     1     -15.509  -8.196   2.723  1.00  0.00     0.116 C 
BRANCH  38  39
ATOM     39  C   UNL     1     -15.529  -7.774   1.256  1.00  0.00     0.023 C 
BRANCH  39  40
ATOM     40  C   UNL     1     -16.546  -6.671   0.981  1.00  0.00     0.026 C 
BRANCH  40  41
ATOM     41  C   UNL     1     -16.300  -5.468   1.890  1.00  0.00     0.146 C 
BRANCH  41  42
ATOM     42  N   UNL     1     -16.614  -4.238   1.175  1.00  0.00    -0.254 NA
ATOM     43  C   UNL     1     -16.544  -3.115   1.785  1.00  0.00     0.185 C 
ATOM     44  N   UNL     1     -16.209  -2.842   3.060  1.00  0.00    -0.370 N 
ATOM     45  N   UNL     1     -16.841  -1.993   1.109  1.00  0.00    -0.370 N 
ATOM     46  H   UNL     1     -16.432  -1.951   3.469  1.00  0.00     0.159 HD
ATOM     47  H   UNL     1     -15.942  -3.575   3.709  1.00  0.00     0.159 HD
ATOM     48  H   UNL     1     -17.096  -2.109   0.138  1.00  0.00     0.159 HD
ATOM     49  H   UNL     1     -16.586  -1.078   1.435  1.00  0.00     0.159 HD
ENDBRANCH  41  42
ENDBRANCH  40  41
ENDBRANCH  39  40
ENDBRANCH  38  39
ENDBRANCH  36  38
ENDBRANCH   5  34
BRANCH   8  50
ATOM     50  O   UNL     1     -14.223  -9.189   6.982  1.00  0.00    -0.245 OA
BRANCH  50  51
ATOM     51  S   UNL     1     -14.356  -8.104   8.187  1.00  0.00     0.397 S 
ATOM     52  O   UNL     1     -14.858  -6.871   7.625  1.00  0.00    -0.169 OA
ATOM     53  O   UNL     1     -13.159  -8.135   9.003  1.00  0.00    -0.169 OA
BRANCH  51  54
ATOM     54  O   UNL     1     -15.564  -8.714   9.056  1.00  0.00    -0.264 OA
ATOM     55  H   UNL     1     -16.222  -8.002   9.193  1.00  0.00     0.236 HD
ENDBRANCH  51  54
ENDBRANCH  50  51
ENDBRANCH   8  50
TORSDOF 19
ENDMDL
MODEL 26
REMARK VINA RESULT:    -7.479      3.433      6.882
REMARK INTER + INTRA:         -18.156
REMARK INTER:                 -14.301
REMARK INTRA:                  -3.855
REMARK UNBOUND:                -3.026
REMARK SMILES CC[C@@H](C)[C@@H](NC(=O)[C@@H](O)Cc1ccc(O)c(Cl)c1)C(=O)N1[C@H](C(=O)NCCCCN=C(N)N)C[C@H]2CC[C@H](OS(=O)(=O)O)C[C@@H]21
REMARK SMILES IDX 22 1 36 2 46 3 35 4 23 5 45 6 37 7 39 8 38 9 20 10 21 11
REMARK SMILES IDX 5 12 6 13 7 14 8 15 9 17 11 18 12 19 17 20 19 21 15 22 14 23
REMARK SMILES IDX 13 24 18 25 16 26 10 28 3 30 4 31 2 32 1 33 24 34 25 35
REMARK SMILES IDX 26 36 27 38 28 39 29 40 30 41 31 42 32 43 33 44 34 45 40 50
REMARK SMILES IDX 41 51 42 52 43 53 44 54
REMARK H PARENT 6 16 16 27 10 29 26 37 33 46 33 47 34 48 34 49 44 55
ROOT
ATOM      1  N   UNL     1     -12.618 -11.743   2.807  1.00  0.00    -0.326 N 
ATOM      2  C   UNL     1     -13.502 -12.486   4.858  1.00  0.00     0.014 C 
ATOM      3  C   UNL     1     -12.306 -11.758   4.239  1.00  0.00     0.091 C 
ATOM      4  C   UNL     1     -13.863 -13.507   3.791  1.00  0.00     0.041 C 
ATOM      5  C   UNL     1     -13.779 -12.625   2.531  1.00  0.00     0.175 C 
ATOM      6  C   UNL     1     -12.130 -10.421   4.956  1.00  0.00     0.059 C 
ATOM      7  C   UNL     1     -13.181 -12.960   6.262  1.00  0.00     0.008 C 
ATOM      8  C   UNL     1     -12.550 -10.452   6.441  1.00  0.00     0.143 C 
ATOM      9  C   UNL     1     -12.429 -11.864   7.048  1.00  0.00     0.034 C 
ENDROOT
BRANCH   1  10
ATOM     10  C   UNL     1     -11.890 -11.234   1.745  1.00  0.00     0.246 C 
ATOM     11  O   UNL     1     -12.074 -10.063   1.397  1.00  0.00    -0.272 OA
BRANCH  10  12
ATOM     12  C   UNL     1     -10.829 -12.130   1.043  1.00  0.00     0.174 C 
BRANCH  12  13
ATOM     13  N   UNL     1     -10.322 -13.132   1.980  1.00  0.00    -0.342 N 
ATOM     14  C   UNL     1     -10.213 -14.479   1.715  1.00  0.00     0.249 C 
ATOM     15  O   UNL     1     -10.506 -14.988   0.641  1.00  0.00    -0.272 OA
ATOM     16  H   UNL     1     -10.189 -12.885   2.958  1.00  0.00     0.164 HD
BRANCH  14  17
ATOM     17  C   UNL     1      -9.659 -15.278   2.914  1.00  0.00     0.207 C 
BRANCH  17  18
ATOM     18  C   UNL     1      -9.358 -14.342   4.089  1.00  0.00     0.077 C 
BRANCH  18  19
ATOM     19  C   UNL     1      -9.975 -14.840   5.377  1.00  0.00    -0.043 A 
ATOM     20  C   UNL     1     -11.568 -16.256   6.535  1.00  0.00     0.083 A 
ATOM     21  C   UNL     1     -10.965 -15.834   5.349  1.00  0.00     0.028 A 
ATOM     22  C   UNL     1     -11.188 -15.688   7.752  1.00  0.00     0.134 A 
ATOM     23  C   UNL     1     -10.209 -14.702   7.793  1.00  0.00     0.048 A 
ATOM     24  C   UNL     1      -9.605 -14.277   6.608  1.00  0.00     0.008 A 
ATOM     25  Cl  UNL     1     -12.783 -17.478   6.482  1.00  0.00    -0.080 Cl
BRANCH  22  26
ATOM     26  O   UNL     1     -11.758 -16.061   8.939  1.00  0.00    -0.506 OA
ATOM     27  H   UNL     1     -12.355 -15.336   9.203  1.00  0.00     0.293 HD
ENDBRANCH  22  26
ENDBRANCH  18  19
ENDBRANCH  17  18
BRANCH  17  28
ATOM     28  O   UNL     1      -8.465 -15.991   2.554  1.00  0.00    -0.383 OA
ATOM     29  H   UNL     1      -8.077 -16.316   3.398  1.00  0.00     0.211 HD
ENDBRANCH  17  28
ENDBRANCH  14  17
ENDBRANCH  12  13
BRANCH  12  30
ATOM     30  C   UNL     1      -9.690 -11.307   0.383  1.00  0.00     0.018 C 
ATOM     31  C   UNL     1      -9.675 -11.518  -1.139  1.00  0.00     0.010 C 
BRANCH  30  32
ATOM     32  C   UNL     1      -8.289 -11.598   0.975  1.00  0.00     0.002 C 
ATOM     33  C   UNL     1      -7.759 -10.547   1.941  1.00  0.00     0.004 C 
ENDBRANCH  30  32
ENDBRANCH  12  30
ENDBRANCH  10  12
ENDBRANCH   1  10
BRANCH   5  34
ATOM     34  C   UNL     1     -15.070 -11.788   2.332  1.00  0.00     0.242 C 
ATOM     35  O   UNL     1     -16.185 -12.306   2.256  1.00  0.00    -0.273 OA
ATOM     36  N   UNL     1     -14.874 -10.432   2.192  1.00  0.00    -0.354 N 
ATOM     37  H   UNL     1     -13.918 -10.077   2.144  1.00  0.00     0.163 HD
BRANCH  36  38
ATOM     38  C   UNL     1     -15.970  -9.486   2.214  1.00  0.00     0.116 C 
BRANCH  38  39
ATOM     39  C   UNL     1     -15.503  -8.139   1.669  1.00  0.00     0.023 C 
BRANCH  39  40
ATOM     40  C   UNL     1     -16.566  -7.455   0.816  1.00  0.00     0.026 C 
BRANCH  40  41
ATOM     41  C   UNL     1     -16.641  -5.962   1.138  1.00  0.00     0.146 C 
BRANCH  41  42
ATOM     42  N   UNL     1     -16.299  -5.742   2.537  1.00  0.00    -0.254 NA
ATOM     43  C   UNL     1     -17.064  -5.024   3.270  1.00  0.00     0.185 C 
ATOM     44  N   UNL     1     -18.211  -4.390   2.964  1.00  0.00    -0.370 N 
ATOM     45  N   UNL     1     -16.728  -4.830   4.556  1.00  0.00    -0.370 N 
ATOM     46  H   UNL     1     -18.573  -3.669   3.564  1.00  0.00     0.159 HD
ATOM     47  H   UNL     1     -18.617  -4.443   2.036  1.00  0.00     0.159 HD
ATOM     48  H   UNL     1     -15.880  -5.281   4.872  1.00  0.00     0.159 HD
ATOM     49  H   UNL     1     -17.378  -4.490   5.243  1.00  0.00     0.159 HD
ENDBRANCH  41  42
ENDBRANCH  40  41
ENDBRANCH  39  40
ENDBRANCH  38  39
ENDBRANCH  36  38
ENDBRANCH   5  34
BRANCH   8  50
ATOM     50  O   UNL     1     -13.902 -10.013   6.578  1.00  0.00    -0.245 OA
BRANCH  50  51
ATOM     51  S   UNL     1     -14.275  -8.898   7.701  1.00  0.00     0.397 S 
ATOM     52  O   UNL     1     -14.845  -7.755   7.023  1.00  0.00    -0.169 OA
ATOM     53  O   UNL     1     -13.173  -8.757   8.631  1.00  0.00    -0.169 OA
BRANCH  51  54
ATOM     54  O   UNL     1     -15.494  -9.600   8.479  1.00  0.00    -0.264 OA
ATOM     55  H   UNL     1     -15.122 -10.313   9.036  1.00  0.00     0.236 HD
ENDBRANCH  51  54
ENDBRANCH  50  51
ENDBRANCH   8  50
TORSDOF 19
ENDMDL
MODEL 27
REMARK VINA RESULT:    -7.475      4.483      7.253
REMARK INTER + INTRA:         -18.148
REMARK INTER:                 -15.831
REMARK INTRA:                  -2.318
REMARK UNBOUND:                -3.026
REMARK SMILES CC[C@@H](C)[C@@H](NC(=O)[C@@H](O)Cc1ccc(O)c(Cl)c1)C(=O)N1[C@H](C(=O)NCCCCN=C(N)N)C[C@H]2CC[C@H](OS(=O)(=O)O)C[C@@H]21
REMARK SMILES IDX 22 1 36 2 46 3 35 4 23 5 45 6 37 7 39 8 38 9 20 10 21 11
REMARK SMILES IDX 5 12 6 13 7 14 8 15 9 17 11 18 12 19 17 20 19 21 15 22 14 23
REMARK SMILES IDX 13 24 18 25 16 26 10 28 3 30 4 31 2 32 1 33 24 34 25 35
REMARK SMILES IDX 26 36 27 38 28 39 29 40 30 41 31 42 32 43 33 44 34 45 40 50
REMARK SMILES IDX 41 51 42 52 43 53 44 54
REMARK H PARENT 6 16 16 27 10 29 26 37 33 46 33 47 34 48 34 49 44 55
ROOT
ATOM      1  N   UNL     1     -11.650 -11.597   1.814  1.00  0.00    -0.326 N 
ATOM      2  C   UNL     1      -9.406 -11.056   1.352  1.00  0.00     0.014 C 
ATOM      3  C   UNL     1     -10.406 -11.234   2.498  1.00  0.00     0.091 C 
ATOM      4  C   UNL     1     -10.270 -10.480   0.241  1.00  0.00     0.041 C 
ATOM      5  C   UNL     1     -11.503 -11.396   0.351  1.00  0.00     0.175 C 
ATOM      6  C   UNL     1      -9.817 -12.223   3.503  1.00  0.00     0.059 C 
ATOM      7  C   UNL     1      -8.182 -10.291   1.814  1.00  0.00     0.008 C 
ATOM      8  C   UNL     1      -8.277 -12.174   3.593  1.00  0.00     0.143 C 
ATOM      9  C   UNL     1      -7.717 -10.793   3.197  1.00  0.00     0.034 C 
ENDROOT
BRANCH   1  10
ATOM     10  C   UNL     1     -12.905 -11.862   2.335  1.00  0.00     0.246 C 
ATOM     11  O   UNL     1     -13.018 -12.707   3.229  1.00  0.00    -0.272 OA
BRANCH  10  12
ATOM     12  C   UNL     1     -14.136 -11.063   1.817  1.00  0.00     0.174 C 
BRANCH  12  13
ATOM     13  N   UNL     1     -14.390  -9.918   2.690  1.00  0.00    -0.342 N 
ATOM     14  C   UNL     1     -14.853  -8.691   2.269  1.00  0.00     0.249 C 
ATOM     15  O   UNL     1     -15.131  -8.429   1.105  1.00  0.00    -0.272 OA
ATOM     16  H   UNL     1     -14.059  -9.934   3.651  1.00  0.00     0.164 HD
BRANCH  14  17
ATOM     17  C   UNL     1     -15.003  -7.682   3.427  1.00  0.00     0.207 C 
BRANCH  17  18
ATOM     18  C   UNL     1     -15.900  -8.259   4.527  1.00  0.00     0.077 C 
BRANCH  18  19
ATOM     19  C   UNL     1     -15.195  -8.297   5.864  1.00  0.00    -0.043 A 
ATOM     20  C   UNL     1     -14.205  -9.559   7.684  1.00  0.00     0.083 A 
ATOM     21  C   UNL     1     -14.810  -9.524   6.427  1.00  0.00     0.028 A 
ATOM     22  C   UNL     1     -13.981  -8.374   8.385  1.00  0.00     0.134 A 
ATOM     23  C   UNL     1     -14.357  -7.152   7.839  1.00  0.00     0.048 A 
ATOM     24  C   UNL     1     -14.965  -7.113   6.582  1.00  0.00     0.008 A 
ATOM     25  Cl  UNL     1     -13.739 -11.076   8.359  1.00  0.00    -0.080 Cl
BRANCH  22  26
ATOM     26  O   UNL     1     -13.401  -8.359   9.624  1.00  0.00    -0.506 OA
ATOM     27  H   UNL     1     -12.510  -8.742   9.521  1.00  0.00     0.293 HD
ENDBRANCH  22  26
ENDBRANCH  18  19
ENDBRANCH  17  18
BRANCH  17  28
ATOM     28  O   UNL     1     -15.557  -6.440   2.963  1.00  0.00    -0.383 OA
ATOM     29  H   UNL     1     -14.812  -5.948   2.549  1.00  0.00     0.211 HD
ENDBRANCH  17  28
ENDBRANCH  14  17
ENDBRANCH  12  13
BRANCH  12  30
ATOM     30  C   UNL     1     -15.393 -11.954   1.627  1.00  0.00     0.018 C 
ATOM     31  C   UNL     1     -15.959 -11.805   0.206  1.00  0.00     0.010 C 
BRANCH  30  32
ATOM     32  C   UNL     1     -16.504 -11.692   2.672  1.00  0.00     0.002 C 
ATOM     33  C   UNL     1     -16.551 -12.675   3.834  1.00  0.00     0.004 C 
ENDBRANCH  30  32
ENDBRANCH  12  30
ENDBRANCH  10  12
ENDBRANCH   1  10
BRANCH   5  34
ATOM     34  C   UNL     1     -11.275 -12.751  -0.370  1.00  0.00     0.242 C 
ATOM     35  O   UNL     1     -11.836 -13.788  -0.015  1.00  0.00    -0.273 OA
ATOM     36  N   UNL     1     -10.360 -12.721  -1.399  1.00  0.00    -0.354 N 
ATOM     37  H   UNL     1      -9.838 -11.859  -1.567  1.00  0.00     0.163 HD
BRANCH  36  38
ATOM     38  C   UNL     1     -10.185 -13.831  -2.311  1.00  0.00     0.116 C 
BRANCH  38  39
ATOM     39  C   UNL     1      -9.277 -13.416  -3.466  1.00  0.00     0.023 C 
BRANCH  39  40
ATOM     40  C   UNL     1      -9.185 -11.901  -3.619  1.00  0.00     0.026 C 
BRANCH  40  41
ATOM     41  C   UNL     1      -8.609 -11.528  -4.985  1.00  0.00     0.146 C 
BRANCH  41  42
ATOM     42  N   UNL     1      -7.362 -12.249  -5.207  1.00  0.00    -0.254 NA
ATOM     43  C   UNL     1      -6.790 -12.186  -6.351  1.00  0.00     0.185 C 
ATOM     44  N   UNL     1      -7.154 -11.527  -7.466  1.00  0.00    -0.370 N 
ATOM     45  N   UNL     1      -5.644 -12.862  -6.537  1.00  0.00    -0.370 N 
ATOM     46  H   UNL     1      -6.748 -11.760  -8.355  1.00  0.00     0.159 HD
ATOM     47  H   UNL     1      -7.991 -10.953  -7.496  1.00  0.00     0.159 HD
ATOM     48  H   UNL     1      -5.295 -13.379  -5.742  1.00  0.00     0.159 HD
ATOM     49  H   UNL     1      -5.023 -12.678  -7.304  1.00  0.00     0.159 HD
ENDBRANCH  41  42
ENDBRANCH  40  41
ENDBRANCH  39  40
ENDBRANCH  38  39
ENDBRANCH  36  38
ENDBRANCH   5  34
BRANCH   8  50
ATOM     50  O   UNL     1      -7.704 -13.159   2.733  1.00  0.00    -0.245 OA
BRANCH  50  51
ATOM     51  S   UNL     1      -8.019 -14.734   2.993  1.00  0.00     0.397 S 
ATOM     52  O   UNL     1      -8.893 -15.194   1.937  1.00  0.00    -0.169 OA
ATOM     53  O   UNL     1      -8.340 -14.941   4.390  1.00  0.00    -0.169 OA
BRANCH  51  54
ATOM     54  O   UNL     1      -6.590 -15.413   2.706  1.00  0.00    -0.264 OA
ATOM     55  H   UNL     1      -6.746 -16.228   2.187  1.00  0.00     0.236 HD
ENDBRANCH  51  54
ENDBRANCH  50  51
ENDBRANCH   8  50
TORSDOF 19
ENDMDL
MODEL 28
REMARK VINA RESULT:    -7.457      3.480      6.333
REMARK INTER + INTRA:         -18.112
REMARK INTER:                 -14.492
REMARK INTRA:                  -3.621
REMARK UNBOUND:                -3.026
REMARK SMILES CC[C@@H](C)[C@@H](NC(=O)[C@@H](O)Cc1ccc(O)c(Cl)c1)C(=O)N1[C@H](C(=O)NCCCCN=C(N)N)C[C@H]2CC[C@H](OS(=O)(=O)O)C[C@@H]21
REMARK SMILES IDX 22 1 36 2 46 3 35 4 23 5 45 6 37 7 39 8 38 9 20 10 21 11
REMARK SMILES IDX 5 12 6 13 7 14 8 15 9 17 11 18 12 19 17 20 19 21 15 22 14 23
REMARK SMILES IDX 13 24 18 25 16 26 10 28 3 30 4 31 2 32 1 33 24 34 25 35
REMARK SMILES IDX 26 36 27 38 28 39 29 40 30 41 31 42 32 43 33 44 34 45 40 50
REMARK SMILES IDX 41 51 42 52 43 53 44 54
REMARK H PARENT 6 16 16 27 10 29 26 37 33 46 33 47 34 48 34 49 44 55
ROOT
ATOM      1  N   UNL     1     -12.183 -13.450   6.236  1.00  0.00    -0.326 N 
ATOM      2  C   UNL     1     -10.035 -14.224   6.815  1.00  0.00     0.014 C 
ATOM      3  C   UNL     1     -11.373 -14.672   6.220  1.00  0.00     0.091 C 
ATOM      4  C   UNL     1     -10.458 -13.186   7.843  1.00  0.00     0.041 C 
ATOM      5  C   UNL     1     -11.496 -12.397   7.024  1.00  0.00     0.175 C 
ATOM      6  C   UNL     1     -11.103 -15.344   4.875  1.00  0.00     0.059 C 
ATOM      7  C   UNL     1      -9.211 -15.417   7.258  1.00  0.00     0.008 C 
ATOM      8  C   UNL     1      -9.746 -16.079   4.809  1.00  0.00     0.143 C 
ATOM      9  C   UNL     1      -9.269 -16.540   6.201  1.00  0.00     0.034 C 
ENDROOT
BRANCH   1  10
ATOM     10  C   UNL     1     -13.492 -13.248   5.836  1.00  0.00     0.246 C 
ATOM     11  O   UNL     1     -14.405 -13.440   6.646  1.00  0.00    -0.272 OA
BRANCH  10  12
ATOM     12  C   UNL     1     -13.784 -12.744   4.393  1.00  0.00     0.174 C 
BRANCH  12  13
ATOM     13  N   UNL     1     -14.239 -11.354   4.432  1.00  0.00    -0.342 N 
ATOM     14  C   UNL     1     -13.690 -10.322   3.704  1.00  0.00     0.249 C 
ATOM     15  O   UNL     1     -12.767 -10.462   2.912  1.00  0.00    -0.272 OA
ATOM     16  H   UNL     1     -14.889 -11.057   5.156  1.00  0.00     0.164 HD
BRANCH  14  17
ATOM     17  C   UNL     1     -14.379  -8.968   3.978  1.00  0.00     0.207 C 
BRANCH  17  18
ATOM     18  C   UNL     1     -15.397  -9.105   5.115  1.00  0.00     0.077 C 
BRANCH  18  19
ATOM     19  C   UNL     1     -14.853  -8.577   6.423  1.00  0.00    -0.043 A 
ATOM     20  C   UNL     1     -14.140  -6.716   7.805  1.00  0.00     0.083 A 
ATOM     21  C   UNL     1     -14.688  -7.197   6.616  1.00  0.00     0.028 A 
ATOM     22  C   UNL     1     -13.751  -7.608   8.806  1.00  0.00     0.134 A 
ATOM     23  C   UNL     1     -13.909  -8.977   8.628  1.00  0.00     0.048 A 
ATOM     24  C   UNL     1     -14.456  -9.462   7.438  1.00  0.00     0.008 A 
ATOM     25  Cl  UNL     1     -13.945  -5.017   8.024  1.00  0.00    -0.080 Cl
BRANCH  22  26
ATOM     26  O   UNL     1     -13.199  -7.184   9.984  1.00  0.00    -0.506 OA
ATOM     27  H   UNL     1     -12.631  -6.421   9.769  1.00  0.00     0.293 HD
ENDBRANCH  22  26
ENDBRANCH  18  19
ENDBRANCH  17  18
BRANCH  17  28
ATOM     28  O   UNL     1     -15.042  -8.478   2.801  1.00  0.00    -0.383 OA
ATOM     29  H   UNL     1     -15.802  -9.084   2.645  1.00  0.00     0.211 HD
ENDBRANCH  17  28
ENDBRANCH  14  17
ENDBRANCH  12  13
BRANCH  12  30
ATOM     30  C   UNL     1     -14.766 -13.666   3.622  1.00  0.00     0.018 C 
ATOM     31  C   UNL     1     -14.182 -14.069   2.259  1.00  0.00     0.010 C 
BRANCH  30  32
ATOM     32  C   UNL     1     -16.177 -13.056   3.437  1.00  0.00     0.002 C 
ATOM     33  C   UNL     1     -17.131 -13.253   4.608  1.00  0.00     0.004 C 
ENDBRANCH  30  32
ENDBRANCH  12  30
ENDBRANCH  10  12
ENDBRANCH   1  10
BRANCH   5  34
ATOM     34  C   UNL     1     -10.818 -11.362   6.086  1.00  0.00     0.242 C 
ATOM     35  O   UNL     1     -10.638 -10.191   6.420  1.00  0.00    -0.273 OA
ATOM     36  N   UNL     1     -10.484 -11.835   4.837  1.00  0.00    -0.354 N 
ATOM     37  H   UNL     1     -10.768 -12.781   4.577  1.00  0.00     0.163 HD
BRANCH  36  38
ATOM     38  C   UNL     1      -9.658 -11.078   3.919  1.00  0.00     0.116 C 
BRANCH  38  39
ATOM     39  C   UNL     1      -8.185 -11.398   4.162  1.00  0.00     0.023 C 
BRANCH  39  40
ATOM     40  C   UNL     1      -7.395 -11.524   2.864  1.00  0.00     0.026 C 
BRANCH  40  41
ATOM     41  C   UNL     1      -7.822 -10.451   1.863  1.00  0.00     0.146 C 
BRANCH  41  42
ATOM     42  N   UNL     1      -8.243 -11.079   0.617  1.00  0.00    -0.254 NA
ATOM     43  C   UNL     1      -9.408 -10.834   0.147  1.00  0.00     0.185 C 
ATOM     44  N   UNL     1     -10.387 -10.045   0.626  1.00  0.00    -0.370 N 
ATOM     45  N   UNL     1      -9.778 -11.427  -1.000  1.00  0.00    -0.370 N 
ATOM     46  H   UNL     1     -11.330 -10.136   0.289  1.00  0.00     0.159 HD
ATOM     47  H   UNL     1     -10.269  -9.510   1.481  1.00  0.00     0.159 HD
ATOM     48  H   UNL     1      -9.094 -12.033  -1.433  1.00  0.00     0.159 HD
ATOM     49  H   UNL     1     -10.559 -11.112  -1.548  1.00  0.00     0.159 HD
ENDBRANCH  41  42
ENDBRANCH  40  41
ENDBRANCH  39  40
ENDBRANCH  38  39
ENDBRANCH  36  38
ENDBRANCH   5  34
BRANCH   8  50
ATOM     50  O   UNL     1      -8.751 -15.222   4.249  1.00  0.00    -0.245 OA
BRANCH  50  51
ATOM     51  S   UNL     1      -8.168 -15.532   2.763  1.00  0.00     0.397 S 
ATOM     52  O   UNL     1      -8.784 -14.607   1.839  1.00  0.00    -0.169 OA
ATOM     53  O   UNL     1      -8.176 -16.961   2.526  1.00  0.00    -0.169 OA
BRANCH  51  54
ATOM     54  O   UNL     1      -6.636 -15.061   2.899  1.00  0.00    -0.264 OA
ATOM     55  H   UNL     1      -6.482 -14.355   2.238  1.00  0.00     0.236 HD
ENDBRANCH  51  54
ENDBRANCH  50  51
ENDBRANCH   8  50
TORSDOF 19
ENDMDL
MODEL 29
REMARK VINA RESULT:    -7.431      2.753      4.623
REMARK INTER + INTRA:         -18.058
REMARK INTER:                 -15.749
REMARK INTRA:                  -2.309
REMARK UNBOUND:                -3.026
REMARK SMILES CC[C@@H](C)[C@@H](NC(=O)[C@@H](O)Cc1ccc(O)c(Cl)c1)C(=O)N1[C@H](C(=O)NCCCCN=C(N)N)C[C@H]2CC[C@H](OS(=O)(=O)O)C[C@@H]21
REMARK SMILES IDX 22 1 36 2 46 3 35 4 23 5 45 6 37 7 39 8 38 9 20 10 21 11
REMARK SMILES IDX 5 12 6 13 7 14 8 15 9 17 11 18 12 19 17 20 19 21 15 22 14 23
REMARK SMILES IDX 13 24 18 25 16 26 10 28 3 30 4 31 2 32 1 33 24 34 25 35
REMARK SMILES IDX 26 36 27 38 28 39 29 40 30 41 31 42 32 43 33 44 34 45 40 50
REMARK SMILES IDX 41 51 42 52 43 53 44 54
REMARK H PARENT 6 16 16 27 10 29 26 37 33 46 33 47 34 48 34 49 44 55
ROOT
ATOM      1  N   UNL     1     -10.893 -12.880   3.491  1.00  0.00    -0.326 N 
ATOM      2  C   UNL     1      -9.637 -11.199   2.424  1.00  0.00     0.014 C 
ATOM      3  C   UNL     1      -9.531 -12.604   3.023  1.00  0.00     0.091 C 
ATOM      4  C   UNL     1     -10.657 -10.525   3.329  1.00  0.00     0.041 C 
ATOM      5  C   UNL     1     -11.710 -11.643   3.432  1.00  0.00     0.175 C 
ATOM      6  C   UNL     1      -8.925 -13.533   1.973  1.00  0.00     0.059 C 
ATOM      7  C   UNL     1      -8.264 -10.577   2.258  1.00  0.00     0.008 C 
ATOM      8  C   UNL     1      -7.925 -12.833   1.027  1.00  0.00     0.143 C 
ATOM      9  C   UNL     1      -7.265 -11.606   1.687  1.00  0.00     0.034 C 
ENDROOT
BRANCH   1  10
ATOM     10  C   UNL     1     -11.401 -13.994   4.138  1.00  0.00     0.246 C 
ATOM     11  O   UNL     1     -11.788 -14.955   3.464  1.00  0.00    -0.272 OA
BRANCH  10  12
ATOM     12  C   UNL     1     -11.434 -14.030   5.693  1.00  0.00     0.174 C 
BRANCH  12  13
ATOM     13  N   UNL     1     -12.288 -12.956   6.199  1.00  0.00    -0.342 N 
ATOM     14  C   UNL     1     -13.550 -13.131   6.722  1.00  0.00     0.249 C 
ATOM     15  O   UNL     1     -14.091 -14.222   6.848  1.00  0.00    -0.272 OA
ATOM     16  H   UNL     1     -12.040 -11.987   6.017  1.00  0.00     0.164 HD
BRANCH  14  17
ATOM     17  C   UNL     1     -14.205 -11.801   7.154  1.00  0.00     0.207 C 
BRANCH  17  18
ATOM     18  C   UNL     1     -13.152 -10.692   7.249  1.00  0.00     0.077 C 
BRANCH  18  19
ATOM     19  C   UNL     1     -13.767  -9.319   7.097  1.00  0.00    -0.043 A 
ATOM     20  C   UNL     1     -14.218  -7.107   7.984  1.00  0.00     0.083 A 
ATOM     21  C   UNL     1     -13.607  -8.356   8.105  1.00  0.00     0.028 A 
ATOM     22  C   UNL     1     -14.990  -6.813   6.859  1.00  0.00     0.134 A 
ATOM     23  C   UNL     1     -15.156  -7.758   5.853  1.00  0.00     0.048 A 
ATOM     24  C   UNL     1     -14.548  -9.010   5.973  1.00  0.00     0.008 A 
ATOM     25  Cl  UNL     1     -14.010  -5.936   9.233  1.00  0.00    -0.080 Cl
BRANCH  22  26
ATOM     26  O   UNL     1     -15.616  -5.606   6.701  1.00  0.00    -0.506 OA
ATOM     27  H   UNL     1     -16.177  -5.684   5.907  1.00  0.00     0.293 HD
ENDBRANCH  22  26
ENDBRANCH  18  19
ENDBRANCH  17  18
BRANCH  17  28
ATOM     28  O   UNL     1     -14.868 -11.939   8.421  1.00  0.00    -0.383 OA
ATOM     29  H   UNL     1     -14.439 -12.702   8.871  1.00  0.00     0.211 HD
ENDBRANCH  17  28
ENDBRANCH  14  17
ENDBRANCH  12  13
BRANCH  12  30
ATOM     30  C   UNL     1     -10.015 -14.005   6.324  1.00  0.00     0.018 C 
ATOM     31  C   UNL     1      -9.401 -15.413   6.343  1.00  0.00     0.010 C 
BRANCH  30  32
ATOM     32  C   UNL     1      -9.977 -13.388   7.743  1.00  0.00     0.002 C 
ATOM     33  C   UNL     1      -8.681 -13.606   8.513  1.00  0.00     0.004 C 
ENDBRANCH  30  32
ENDBRANCH  12  30
ENDBRANCH  10  12
ENDBRANCH   1  10
BRANCH   5  34
ATOM     34  C   UNL     1     -12.647 -11.662   2.194  1.00  0.00     0.242 C 
ATOM     35  O   UNL     1     -13.574 -12.464   2.083  1.00  0.00    -0.273 OA
ATOM     36  N   UNL     1     -12.333 -10.754   1.208  1.00  0.00    -0.354 N 
ATOM     37  H   UNL     1     -11.482 -10.198   1.304  1.00  0.00     0.163 HD
BRANCH  36  38
ATOM     38  C   UNL     1     -13.218 -10.487   0.093  1.00  0.00     0.116 C 
BRANCH  38  39
ATOM     39  C   UNL     1     -13.850  -9.106   0.252  1.00  0.00     0.023 C 
BRANCH  39  40
ATOM     40  C   UNL     1     -14.568  -8.944   1.587  1.00  0.00     0.026 C 
BRANCH  40  41
ATOM     41  C   UNL     1     -16.022  -8.525   1.373  1.00  0.00     0.146 C 
BRANCH  41  42
ATOM     42  N   UNL     1     -16.193  -7.127   1.747  1.00  0.00    -0.254 NA
ATOM     43  C   UNL     1     -16.220  -6.227   0.837  1.00  0.00     0.185 C 
ATOM     44  N   UNL     1     -16.113  -6.344  -0.499  1.00  0.00    -0.370 N 
ATOM     45  N   UNL     1     -16.373  -4.944   1.203  1.00  0.00    -0.370 N 
ATOM     46  H   UNL     1     -15.906  -5.541  -1.069  1.00  0.00     0.159 HD
ATOM     47  H   UNL     1     -16.005  -7.248  -0.948  1.00  0.00     0.159 HD
ATOM     48  H   UNL     1     -16.470  -4.769   2.194  1.00  0.00     0.159 HD
ATOM     49  H   UNL     1     -16.639  -4.222   0.557  1.00  0.00     0.159 HD
ENDBRANCH  41  42
ENDBRANCH  40  41
ENDBRANCH  39  40
ENDBRANCH  38  39
ENDBRANCH  36  38
ENDBRANCH   5  34
BRANCH   8  50
ATOM     50  O   UNL     1      -8.592 -12.405  -0.161  1.00  0.00    -0.245 OA
BRANCH  50  51
ATOM     51  S   UNL     1      -8.293 -13.164  -1.568  1.00  0.00     0.397 S 
ATOM     52  O   UNL     1      -7.000 -13.802  -1.465  1.00  0.00    -0.169 OA
ATOM     53  O   UNL     1      -8.622 -12.288  -2.673  1.00  0.00    -0.169 OA
BRANCH  51  54
ATOM     54  O   UNL     1      -9.372 -14.356  -1.542  1.00  0.00    -0.264 OA
ATOM     55  H   UNL     1      -8.985 -15.099  -1.036  1.00  0.00     0.236 HD
ENDBRANCH  51  54
ENDBRANCH  50  51
ENDBRANCH   8  50
TORSDOF 19
ENDMDL
MODEL 30
REMARK VINA RESULT:    -7.428     11.758     14.671
REMARK INTER + INTRA:         -18.052
REMARK INTER:                 -13.021
REMARK INTRA:                  -5.031
REMARK UNBOUND:                -3.026
REMARK SMILES CC[C@@H](C)[C@@H](NC(=O)[C@@H](O)Cc1ccc(O)c(Cl)c1)C(=O)N1[C@H](C(=O)NCCCCN=C(N)N)C[C@H]2CC[C@H](OS(=O)(=O)O)C[C@@H]21
REMARK SMILES IDX 22 1 36 2 46 3 35 4 23 5 45 6 37 7 39 8 38 9 20 10 21 11
REMARK SMILES IDX 5 12 6 13 7 14 8 15 9 17 11 18 12 19 17 20 19 21 15 22 14 23
REMARK SMILES IDX 13 24 18 25 16 26 10 28 3 30 4 31 2 32 1 33 24 34 25 35
REMARK SMILES IDX 26 36 27 38 28 39 29 40 30 41 31 42 32 43 33 44 34 45 40 50
REMARK SMILES IDX 41 51 42 52 43 53 44 54
REMARK H PARENT 6 16 16 27 10 29 26 37 33 46 33 47 34 48 34 49 44 55
ROOT
ATOM      1  N   UNL     1      -4.646  -9.543  13.349  1.00  0.00    -0.326 N 
ATOM      2  C   UNL     1      -4.317  -8.270  11.396  1.00  0.00     0.014 C 
ATOM      3  C   UNL     1      -3.607  -8.776  12.655  1.00  0.00     0.091 C 
ATOM      4  C   UNL     1      -5.736  -8.025  11.887  1.00  0.00     0.041 C 
ATOM      5  C   UNL     1      -5.964  -9.307  12.709  1.00  0.00     0.175 C 
ATOM      6  C   UNL     1      -2.332  -9.503  12.230  1.00  0.00     0.059 C 
ATOM      7  C   UNL     1      -3.545  -7.132  10.758  1.00  0.00     0.008 C 
ATOM      8  C   UNL     1      -1.688  -8.931  10.949  1.00  0.00     0.143 C 
ATOM      9  C   UNL     1      -2.033  -7.442  10.742  1.00  0.00     0.034 C 
ENDROOT
BRANCH   1  10
ATOM     10  C   UNL     1      -4.592 -10.220  14.555  1.00  0.00     0.246 C 
ATOM     11  O   UNL     1      -4.668 -11.453  14.557  1.00  0.00    -0.272 OA
BRANCH  10  12
ATOM     12  C   UNL     1      -4.397  -9.419  15.875  1.00  0.00     0.174 C 
BRANCH  12  13
ATOM     13  N   UNL     1      -4.328  -7.988  15.585  1.00  0.00    -0.342 N 
ATOM     14  C   UNL     1      -5.416  -7.151  15.474  1.00  0.00     0.249 C 
ATOM     15  O   UNL     1      -6.574  -7.513  15.636  1.00  0.00    -0.272 OA
ATOM     16  H   UNL     1      -3.451  -7.578  15.273  1.00  0.00     0.164 HD
BRANCH  14  17
ATOM     17  C   UNL     1      -5.017  -5.697  15.144  1.00  0.00     0.207 C 
BRANCH  17  18
ATOM     18  C   UNL     1      -3.566  -5.432  15.558  1.00  0.00     0.077 C 
BRANCH  18  19
ATOM     19  C   UNL     1      -2.707  -5.041  14.377  1.00  0.00    -0.043 A 
ATOM     20  C   UNL     1      -0.701  -5.338  13.046  1.00  0.00     0.083 A 
ATOM     21  C   UNL     1      -1.516  -5.733  14.107  1.00  0.00     0.028 A 
ATOM     22  C   UNL     1      -1.066  -4.251  12.251  1.00  0.00     0.134 A 
ATOM     23  C   UNL     1      -2.243  -3.556  12.508  1.00  0.00     0.048 A 
ATOM     24  C   UNL     1      -3.060  -3.948  13.570  1.00  0.00     0.008 A 
ATOM     25  Cl  UNL     1       0.758  -6.202  12.731  1.00  0.00    -0.080 Cl
BRANCH  22  26
ATOM     26  O   UNL     1      -0.294  -3.821  11.207  1.00  0.00    -0.506 OA
ATOM     27  H   UNL     1      -0.359  -4.501  10.511  1.00  0.00     0.293 HD
ENDBRANCH  22  26
ENDBRANCH  18  19
ENDBRANCH  17  18
BRANCH  17  28
ATOM     28  O   UNL     1      -5.881  -4.760  15.807  1.00  0.00    -0.383 OA
ATOM     29  H   UNL     1      -6.351  -4.271  15.093  1.00  0.00     0.211 HD
ENDBRANCH  17  28
ENDBRANCH  14  17
ENDBRANCH  12  13
BRANCH  12  30
ATOM     30  C   UNL     1      -3.180  -9.915  16.703  1.00  0.00     0.018 C 
ATOM     31  C   UNL     1      -2.916  -8.985  17.897  1.00  0.00     0.010 C 
BRANCH  30  32
ATOM     32  C   UNL     1      -1.888 -10.087  15.866  1.00  0.00     0.002 C 
ATOM     33  C   UNL     1      -0.890  -8.941  15.967  1.00  0.00     0.004 C 
ENDBRANCH  30  32
ENDBRANCH  12  30
ENDBRANCH  10  12
ENDBRANCH   1  10
BRANCH   5  34
ATOM     34  C   UNL     1      -6.359 -10.504  11.805  1.00  0.00     0.242 C 
ATOM     35  O   UNL     1      -6.112 -10.528  10.599  1.00  0.00    -0.273 OA
ATOM     36  N   UNL     1      -7.052 -11.512  12.437  1.00  0.00    -0.354 N 
ATOM     37  H   UNL     1      -7.332 -11.381  13.410  1.00  0.00     0.163 HD
BRANCH  36  38
ATOM     38  C   UNL     1      -7.309 -12.789  11.804  1.00  0.00     0.116 C 
BRANCH  38  39
ATOM     39  C   UNL     1      -6.890 -13.924  12.737  1.00  0.00     0.023 C 
BRANCH  39  40
ATOM     40  C   UNL     1      -6.420 -15.159  11.977  1.00  0.00     0.026 C 
BRANCH  40  41
ATOM     41  C   UNL     1      -4.920 -15.083  11.694  1.00  0.00     0.146 C 
BRANCH  41  42
ATOM     42  N   UNL     1      -4.678 -14.213  10.551  1.00  0.00    -0.254 NA
ATOM     43  C   UNL     1      -3.981 -13.150  10.701  1.00  0.00     0.185 C 
ATOM     44  N   UNL     1      -3.387 -12.652  11.801  1.00  0.00    -0.370 N 
ATOM     45  N   UNL     1      -3.773 -12.359   9.635  1.00  0.00    -0.370 N 
ATOM     46  H   UNL     1      -3.083 -11.694  11.830  1.00  0.00     0.159 HD
ATOM     47  H   UNL     1      -3.432 -13.132  12.694  1.00  0.00     0.159 HD
ATOM     48  H   UNL     1      -4.180 -12.666   8.762  1.00  0.00     0.159 HD
ATOM     49  H   UNL     1      -3.058 -11.653   9.613  1.00  0.00     0.159 HD
ENDBRANCH  41  42
ENDBRANCH  40  41
ENDBRANCH  39  40
ENDBRANCH  38  39
ENDBRANCH  36  38
ENDBRANCH   5  34
BRANCH   8  50
ATOM     50  O   UNL     1      -2.135  -9.663   9.807  1.00  0.00    -0.245 OA
BRANCH  50  51
ATOM     51  S   UNL     1      -1.070 -10.547   8.953  1.00  0.00     0.397 S 
ATOM     52  O   UNL     1       0.205  -9.866   8.987  1.00  0.00    -0.169 OA
ATOM     53  O   UNL     1      -1.675 -10.966   7.706  1.00  0.00    -0.169 OA
BRANCH  51  54
ATOM     54  O   UNL     1      -0.895 -11.849   9.880  1.00  0.00    -0.264 OA
ATOM     55  H   UNL     1      -1.773 -12.073  10.250  1.00  0.00     0.236 HD
ENDBRANCH  51  54
ENDBRANCH  50  51
ENDBRANCH   8  50
TORSDOF 19
ENDMDL
MODEL 31
REMARK VINA RESULT:    -7.400      4.259      8.819
REMARK INTER + INTRA:         -17.997
REMARK INTER:                 -15.972
REMARK INTRA:                  -2.025
REMARK UNBOUND:                -3.026
REMARK SMILES CC[C@@H](C)[C@@H](NC(=O)[C@@H](O)Cc1ccc(O)c(Cl)c1)C(=O)N1[C@H](C(=O)NCCCCN=C(N)N)C[C@H]2CC[C@H](OS(=O)(=O)O)C[C@@H]21
REMARK SMILES IDX 22 1 36 2 46 3 35 4 23 5 45 6 37 7 39 8 38 9 20 10 21 11
REMARK SMILES IDX 5 12 6 13 7 14 8 15 9 17 11 18 12 19 17 20 19 21 15 22 14 23
REMARK SMILES IDX 13 24 18 25 16 26 10 28 3 30 4 31 2 32 1 33 24 34 25 35
REMARK SMILES IDX 26 36 27 38 28 39 29 40 30 41 31 42 32 43 33 44 34 45 40 50
REMARK SMILES IDX 41 51 42 52 43 53 44 54
REMARK H PARENT 6 16 16 27 10 29 26 37 33 46 33 47 34 48 34 49 44 55
ROOT
ATOM      1  N   UNL     1     -12.058 -11.235   2.568  1.00  0.00    -0.326 N 
ATOM      2  C   UNL     1     -13.959  -9.865   2.335  1.00  0.00     0.014 C 
ATOM      3  C   UNL     1     -13.147 -10.953   1.628  1.00  0.00     0.091 C 
ATOM      4  C   UNL     1     -12.887  -9.068   3.063  1.00  0.00     0.041 C 
ATOM      5  C   UNL     1     -12.043 -10.216   3.647  1.00  0.00     0.175 C 
ATOM      6  C   UNL     1     -14.092 -12.093   1.252  1.00  0.00     0.059 C 
ATOM      7  C   UNL     1     -14.880  -9.156   1.362  1.00  0.00     0.008 C 
ATOM      8  C   UNL     1     -15.529 -11.629   0.931  1.00  0.00     0.143 C 
ATOM      9  C   UNL     1     -15.568 -10.172   0.426  1.00  0.00     0.034 C 
ENDROOT
BRANCH   1  10
ATOM     10  C   UNL     1     -10.999 -12.119   2.461  1.00  0.00     0.246 C 
ATOM     11  O   UNL     1     -11.115 -13.256   2.931  1.00  0.00    -0.272 OA
BRANCH  10  12
ATOM     12  C   UNL     1      -9.705 -11.680   1.717  1.00  0.00     0.174 C 
BRANCH  12  13
ATOM     13  N   UNL     1      -9.663 -12.288   0.387  1.00  0.00    -0.342 N 
ATOM     14  C   UNL     1      -9.398 -11.613  -0.783  1.00  0.00     0.249 C 
ATOM     15  O   UNL     1      -9.137 -10.418  -0.836  1.00  0.00    -0.272 OA
ATOM     16  H   UNL     1     -10.011 -13.235   0.256  1.00  0.00     0.164 HD
BRANCH  14  17
ATOM     17  C   UNL     1      -9.444 -12.531  -2.023  1.00  0.00     0.207 C 
BRANCH  17  18
ATOM     18  C   UNL     1      -9.198 -11.719  -3.299  1.00  0.00     0.077 C 
BRANCH  18  19
ATOM     19  C   UNL     1      -9.463 -12.535  -4.544  1.00  0.00    -0.043 A 
ATOM     20  C   UNL     1     -10.842 -13.039  -6.475  1.00  0.00     0.083 A 
ATOM     21  C   UNL     1     -10.573 -12.252  -5.354  1.00  0.00     0.028 A 
ATOM     22  C   UNL     1     -10.007 -14.111  -6.792  1.00  0.00     0.134 A 
ATOM     23  C   UNL     1      -8.904 -14.402  -5.999  1.00  0.00     0.048 A 
ATOM     24  C   UNL     1      -8.633 -13.618  -4.875  1.00  0.00     0.008 A 
ATOM     25  Cl  UNL     1     -12.211 -12.675  -7.458  1.00  0.00    -0.080 Cl
BRANCH  22  26
ATOM     26  O   UNL     1     -10.236 -14.916  -7.875  1.00  0.00    -0.506 OA
ATOM     27  H   UNL     1     -10.746 -14.387  -8.515  1.00  0.00     0.293 HD
ENDBRANCH  22  26
ENDBRANCH  18  19
ENDBRANCH  17  18
BRANCH  17  28
ATOM     28  O   UNL     1     -10.709 -13.204  -2.123  1.00  0.00    -0.383 OA
ATOM     29  H   UNL     1     -10.544 -14.016  -2.654  1.00  0.00     0.211 HD
ENDBRANCH  17  28
ENDBRANCH  14  17
ENDBRANCH  12  13
BRANCH  12  30
ATOM     30  C   UNL     1      -8.417 -11.959   2.537  1.00  0.00     0.018 C 
ATOM     31  C   UNL     1      -8.480 -11.267   3.907  1.00  0.00     0.010 C 
BRANCH  30  32
ATOM     32  C   UNL     1      -7.113 -11.564   1.801  1.00  0.00     0.002 C 
ATOM     33  C   UNL     1      -6.576 -10.177   2.129  1.00  0.00     0.004 C 
ENDBRANCH  30  32
ENDBRANCH  12  30
ENDBRANCH  10  12
ENDBRANCH   1  10
BRANCH   5  34
ATOM     34  C   UNL     1     -12.670 -10.783   4.948  1.00  0.00     0.242 C 
ATOM     35  O   UNL     1     -13.264 -11.861   4.977  1.00  0.00    -0.273 OA
ATOM     36  N   UNL     1     -12.562  -9.969   6.054  1.00  0.00    -0.354 N 
ATOM     37  H   UNL     1     -12.165  -9.035   5.940  1.00  0.00     0.163 HD
BRANCH  36  38
ATOM     38  C   UNL     1     -12.895 -10.426   7.387  1.00  0.00     0.116 C 
BRANCH  38  39
ATOM     39  C   UNL     1     -13.900  -9.471   8.027  1.00  0.00     0.023 C 
BRANCH  39  40
ATOM     40  C   UNL     1     -13.376  -8.041   8.105  1.00  0.00     0.026 C 
BRANCH  40  41
ATOM     41  C   UNL     1     -14.530  -7.040   8.096  1.00  0.00     0.146 C 
BRANCH  41  42
ATOM     42  N   UNL     1     -14.966  -6.803   6.725  1.00  0.00    -0.254 NA
ATOM     43  C   UNL     1     -15.143  -5.603   6.315  1.00  0.00     0.185 C 
ATOM     44  N   UNL     1     -14.988  -4.435   6.965  1.00  0.00    -0.370 N 
ATOM     45  N   UNL     1     -15.548  -5.407   5.050  1.00  0.00    -0.370 N 
ATOM     46  H   UNL     1     -15.394  -3.589   6.602  1.00  0.00     0.159 HD
ATOM     47  H   UNL     1     -14.672  -4.399   7.929  1.00  0.00     0.159 HD
ATOM     48  H   UNL     1     -15.681  -6.236   4.488  1.00  0.00     0.159 HD
ATOM     49  H   UNL     1     -15.481  -4.517   4.589  1.00  0.00     0.159 HD
ENDBRANCH  41  42
ENDBRANCH  40  41
ENDBRANCH  39  40
ENDBRANCH  38  39
ENDBRANCH  36  38
ENDBRANCH   5  34
BRANCH   8  50
ATOM     50  O   UNL     1     -16.347 -11.726   2.096  1.00  0.00    -0.245 OA
BRANCH  50  51
ATOM     51  S   UNL     1     -17.286 -13.038   2.311  1.00  0.00     0.397 S 
ATOM     52  O   UNL     1     -16.491 -14.209   2.017  1.00  0.00    -0.169 OA
ATOM     53  O   UNL     1     -18.575 -12.819   1.690  1.00  0.00    -0.169 OA
BRANCH  51  54
ATOM     54  O   UNL     1     -17.498 -13.041   3.905  1.00  0.00    -0.264 OA
ATOM     55  H   UNL     1     -18.275 -12.480   4.104  1.00  0.00     0.236 HD
ENDBRANCH  51  54
ENDBRANCH  50  51
ENDBRANCH   8  50
TORSDOF 19
ENDMDL
MODEL 32
REMARK VINA RESULT:    -7.394      3.529      6.378
REMARK INTER + INTRA:         -17.984
REMARK INTER:                 -14.297
REMARK INTRA:                  -3.687
REMARK UNBOUND:                -3.026
REMARK SMILES CC[C@@H](C)[C@@H](NC(=O)[C@@H](O)Cc1ccc(O)c(Cl)c1)C(=O)N1[C@H](C(=O)NCCCCN=C(N)N)C[C@H]2CC[C@H](OS(=O)(=O)O)C[C@@H]21
REMARK SMILES IDX 22 1 36 2 46 3 35 4 23 5 45 6 37 7 39 8 38 9 20 10 21 11
REMARK SMILES IDX 5 12 6 13 7 14 8 15 9 17 11 18 12 19 17 20 19 21 15 22 14 23
REMARK SMILES IDX 13 24 18 25 16 26 10 28 3 30 4 31 2 32 1 33 24 34 25 35
REMARK SMILES IDX 26 36 27 38 28 39 29 40 30 41 31 42 32 43 33 44 34 45 40 50
REMARK SMILES IDX 41 51 42 52 43 53 44 54
REMARK H PARENT 6 16 16 27 10 29 26 37 33 46 33 47 34 48 34 49 44 55
ROOT
ATOM      1  N   UNL     1     -12.814 -12.862   5.974  1.00  0.00    -0.326 N 
ATOM      2  C   UNL     1     -11.048 -14.310   6.544  1.00  0.00     0.014 C 
ATOM      3  C   UNL     1     -12.406 -14.263   5.838  1.00  0.00     0.091 C 
ATOM      4  C   UNL     1     -11.225 -13.310   7.677  1.00  0.00     0.041 C 
ATOM      5  C   UNL     1     -11.912 -12.159   6.920  1.00  0.00     0.175 C 
ATOM      6  C   UNL     1     -12.239 -14.835   4.432  1.00  0.00     0.059 C 
ATOM      7  C   UNL     1     -10.654 -15.737   6.868  1.00  0.00     0.008 C 
ATOM      8  C   UNL     1     -11.161 -15.937   4.333  1.00  0.00     0.143 C 
ATOM      9  C   UNL     1     -10.957 -16.669   5.675  1.00  0.00     0.034 C 
ENDROOT
BRANCH   1  10
ATOM     10  C   UNL     1     -13.968 -12.228   5.545  1.00  0.00     0.246 C 
ATOM     11  O   UNL     1     -14.567 -11.478   6.323  1.00  0.00    -0.272 OA
BRANCH  10  12
ATOM     12  C   UNL     1     -14.461 -12.439   4.084  1.00  0.00     0.174 C 
BRANCH  12  13
ATOM     13  N   UNL     1     -14.461 -11.163   3.369  1.00  0.00    -0.342 N 
ATOM     14  C   UNL     1     -13.561 -10.806   2.390  1.00  0.00     0.249 C 
ATOM     15  O   UNL     1     -12.666 -11.539   1.986  1.00  0.00    -0.272 OA
ATOM     16  H   UNL     1     -15.042 -10.398   3.702  1.00  0.00     0.164 HD
BRANCH  14  17
ATOM     17  C   UNL     1     -13.813  -9.387   1.838  1.00  0.00     0.207 C 
BRANCH  17  18
ATOM     18  C   UNL     1     -15.303  -9.180   1.553  1.00  0.00     0.077 C 
BRANCH  18  19
ATOM     19  C   UNL     1     -15.832  -7.923   2.208  1.00  0.00    -0.043 A 
ATOM     20  C   UNL     1     -16.956  -5.780   2.045  1.00  0.00     0.083 A 
ATOM     21  C   UNL     1     -16.513  -6.960   1.447  1.00  0.00     0.028 A 
ATOM     22  C   UNL     1     -16.721  -5.553   3.402  1.00  0.00     0.134 A 
ATOM     23  C   UNL     1     -16.048  -6.499   4.167  1.00  0.00     0.048 A 
ATOM     24  C   UNL     1     -15.602  -7.680   3.571  1.00  0.00     0.008 A 
ATOM     25  Cl  UNL     1     -17.790  -4.608   1.094  1.00  0.00    -0.080 Cl
BRANCH  22  26
ATOM     26  O   UNL     1     -17.127  -4.407   4.029  1.00  0.00    -0.506 OA
ATOM     27  H   UNL     1     -17.502  -3.828   3.340  1.00  0.00     0.293 HD
ENDBRANCH  22  26
ENDBRANCH  18  19
ENDBRANCH  17  18
BRANCH  17  28
ATOM     28  O   UNL     1     -13.061  -9.158   0.635  1.00  0.00    -0.383 OA
ATOM     29  H   UNL     1     -12.250  -9.711   0.712  1.00  0.00     0.211 HD
ENDBRANCH  17  28
ENDBRANCH  14  17
ENDBRANCH  12  13
BRANCH  12  30
ATOM     30  C   UNL     1     -15.835 -13.158   4.012  1.00  0.00     0.018 C 
ATOM     31  C   UNL     1     -16.973 -12.143   3.817  1.00  0.00     0.010 C 
BRANCH  30  32
ATOM     32  C   UNL     1     -16.130 -14.059   5.237  1.00  0.00     0.002 C 
ATOM     33  C   UNL     1     -15.901 -15.549   5.018  1.00  0.00     0.004 C 
ENDBRANCH  30  32
ENDBRANCH  12  30
ENDBRANCH  10  12
ENDBRANCH   1  10
BRANCH   5  34
ATOM     34  C   UNL     1     -10.885 -11.285   6.153  1.00  0.00     0.242 C 
ATOM     35  O   UNL     1     -10.146 -10.483   6.725  1.00  0.00    -0.273 OA
ATOM     36  N   UNL     1     -10.897 -11.432   4.784  1.00  0.00    -0.354 N 
ATOM     37  H   UNL     1     -11.613 -12.022   4.359  1.00  0.00     0.163 HD
BRANCH  36  38
ATOM     38  C   UNL     1      -9.870 -10.862   3.936  1.00  0.00     0.116 C 
BRANCH  38  39
ATOM     39  C   UNL     1      -8.523 -11.512   4.244  1.00  0.00     0.023 C 
BRANCH  39  40
ATOM     40  C   UNL     1      -7.636 -11.628   3.010  1.00  0.00     0.026 C 
BRANCH  40  41
ATOM     41  C   UNL     1      -7.881 -10.461   2.054  1.00  0.00     0.146 C 
BRANCH  41  42
ATOM     42  N   UNL     1      -8.149 -10.968   0.715  1.00  0.00    -0.254 NA
ATOM     43  C   UNL     1      -9.276 -10.723   0.158  1.00  0.00     0.185 C 
ATOM     44  N   UNL     1     -10.335 -10.031   0.616  1.00  0.00    -0.370 N 
ATOM     45  N   UNL     1      -9.505 -11.204  -1.075  1.00  0.00    -0.370 N 
ATOM     46  H   UNL     1     -11.236 -10.124   0.180  1.00  0.00     0.159 HD
ATOM     47  H   UNL     1     -10.327  -9.586   1.529  1.00  0.00     0.159 HD
ATOM     48  H   UNL     1      -8.752 -11.731  -1.498  1.00  0.00     0.159 HD
ATOM     49  H   UNL     1     -10.245 -10.865  -1.662  1.00  0.00     0.159 HD
ENDBRANCH  41  42
ENDBRANCH  40  41
ENDBRANCH  39  40
ENDBRANCH  38  39
ENDBRANCH  36  38
ENDBRANCH   5  34
BRANCH   8  50
ATOM     50  O   UNL     1      -9.914 -15.368   3.932  1.00  0.00    -0.245 OA
BRANCH  50  51
ATOM     51  S   UNL     1      -9.559 -15.246   2.350  1.00  0.00     0.397 S 
ATOM     52  O   UNL     1      -9.895 -13.907   1.919  1.00  0.00    -0.169 OA
ATOM     53  O   UNL     1     -10.051 -16.414   1.650  1.00  0.00    -0.169 OA
BRANCH  51  54
ATOM     54  O   UNL     1      -7.953 -15.313   2.360  1.00  0.00    -0.264 OA
ATOM     55  H   UNL     1      -7.642 -15.168   1.443  1.00  0.00     0.236 HD
ENDBRANCH  51  54
ENDBRANCH  50  51
ENDBRANCH   8  50
TORSDOF 19
ENDMDL
MODEL 33
REMARK VINA RESULT:    -7.377      3.267      6.771
REMARK INTER + INTRA:         -17.950
REMARK INTER:                 -14.369
REMARK INTRA:                  -3.581
REMARK UNBOUND:                -3.026
REMARK SMILES CC[C@@H](C)[C@@H](NC(=O)[C@@H](O)Cc1ccc(O)c(Cl)c1)C(=O)N1[C@H](C(=O)NCCCCN=C(N)N)C[C@H]2CC[C@H](OS(=O)(=O)O)C[C@@H]21
REMARK SMILES IDX 22 1 36 2 46 3 35 4 23 5 45 6 37 7 39 8 38 9 20 10 21 11
REMARK SMILES IDX 5 12 6 13 7 14 8 15 9 17 11 18 12 19 17 20 19 21 15 22 14 23
REMARK SMILES IDX 13 24 18 25 16 26 10 28 3 30 4 31 2 32 1 33 24 34 25 35
REMARK SMILES IDX 26 36 27 38 28 39 29 40 30 41 31 42 32 43 33 44 34 45 40 50
REMARK SMILES IDX 41 51 42 52 43 53 44 54
REMARK H PARENT 6 16 16 27 10 29 26 37 33 46 33 47 34 48 34 49 44 55
ROOT
ATOM      1  N   UNL     1     -13.010 -12.453   4.002  1.00  0.00    -0.326 N 
ATOM      2  C   UNL     1     -12.395 -10.546   2.765  1.00  0.00     0.014 C 
ATOM      3  C   UNL     1     -12.786 -12.020   2.620  1.00  0.00     0.091 C 
ATOM      4  C   UNL     1     -11.618 -10.533   4.072  1.00  0.00     0.041 C 
ATOM      5  C   UNL     1     -12.536 -11.409   4.944  1.00  0.00     0.175 C 
ATOM      6  C   UNL     1     -13.947 -12.117   1.633  1.00  0.00     0.059 C 
ATOM      7  C   UNL     1     -11.733 -10.034   1.501  1.00  0.00     0.008 C 
ATOM      8  C   UNL     1     -13.919 -11.035   0.532  1.00  0.00     0.143 C 
ATOM      9  C   UNL     1     -12.489 -10.531   0.251  1.00  0.00     0.034 C 
ENDROOT
BRANCH   1  10
ATOM     10  C   UNL     1     -13.367 -13.696   4.496  1.00  0.00     0.246 C 
ATOM     11  O   UNL     1     -14.513 -14.114   4.301  1.00  0.00    -0.272 OA
BRANCH  10  12
ATOM     12  C   UNL     1     -12.309 -14.556   5.247  1.00  0.00     0.174 C 
BRANCH  12  13
ATOM     13  N   UNL     1     -11.020 -14.469   4.563  1.00  0.00    -0.342 N 
ATOM     14  C   UNL     1      -9.840 -14.067   5.148  1.00  0.00     0.249 C 
ATOM     15  O   UNL     1      -9.734 -13.760   6.329  1.00  0.00    -0.272 OA
ATOM     16  H   UNL     1     -10.981 -14.541   3.549  1.00  0.00     0.164 HD
BRANCH  14  17
ATOM     17  C   UNL     1      -8.655 -14.064   4.159  1.00  0.00     0.207 C 
BRANCH  17  18
ATOM     18  C   UNL     1      -9.152 -14.293   2.728  1.00  0.00     0.077 C 
BRANCH  18  19
ATOM     19  C   UNL     1      -9.026 -13.045   1.883  1.00  0.00    -0.043 A 
ATOM     20  C   UNL     1      -9.289 -11.911  -0.245  1.00  0.00     0.083 A 
ATOM     21  C   UNL     1      -9.452 -13.049   0.546  1.00  0.00     0.028 A 
ATOM     22  C   UNL     1      -8.699 -10.766   0.292  1.00  0.00     0.134 A 
ATOM     23  C   UNL     1      -8.273 -10.748   1.615  1.00  0.00     0.048 A 
ATOM     24  C   UNL     1      -8.433 -11.886   2.409  1.00  0.00     0.008 A 
ATOM     25  Cl  UNL     1      -9.818 -11.935  -1.886  1.00  0.00    -0.080 Cl
BRANCH  22  26
ATOM     26  O   UNL     1      -8.509  -9.630  -0.447  1.00  0.00    -0.506 OA
ATOM     27  H   UNL     1      -7.902  -9.867  -1.173  1.00  0.00     0.293 HD
ENDBRANCH  22  26
ENDBRANCH  18  19
ENDBRANCH  17  18
BRANCH  17  28
ATOM     28  O   UNL     1      -7.695 -15.078   4.498  1.00  0.00    -0.383 OA
ATOM     29  H   UNL     1      -6.822 -14.626   4.530  1.00  0.00     0.211 HD
ENDBRANCH  17  28
ENDBRANCH  14  17
ENDBRANCH  12  13
BRANCH  12  30
ATOM     30  C   UNL     1     -12.770 -16.023   5.459  1.00  0.00     0.018 C 
ATOM     31  C   UNL     1     -12.911 -16.340   6.956  1.00  0.00     0.010 C 
BRANCH  30  32
ATOM     32  C   UNL     1     -11.852 -17.067   4.778  1.00  0.00     0.002 C 
ATOM     33  C   UNL     1     -10.940 -17.844   5.718  1.00  0.00     0.004 C 
ENDBRANCH  30  32
ENDBRANCH  12  30
ENDBRANCH  10  12
ENDBRANCH   1  10
BRANCH   5  34
ATOM     34  C   UNL     1     -13.731 -10.597   5.512  1.00  0.00     0.242 C 
ATOM     35  O   UNL     1     -14.638 -10.174   4.795  1.00  0.00    -0.273 OA
ATOM     36  N   UNL     1     -13.675 -10.338   6.863  1.00  0.00    -0.354 N 
ATOM     37  H   UNL     1     -12.838 -10.611   7.381  1.00  0.00     0.163 HD
BRANCH  36  38
ATOM     38  C   UNL     1     -14.798  -9.787   7.592  1.00  0.00     0.116 C 
BRANCH  38  39
ATOM     39  C   UNL     1     -14.305  -8.744   8.592  1.00  0.00     0.023 C 
BRANCH  39  40
ATOM     40  C   UNL     1     -13.689  -7.527   7.909  1.00  0.00     0.026 C 
BRANCH  40  41
ATOM     41  C   UNL     1     -14.766  -6.503   7.551  1.00  0.00     0.146 C 
BRANCH  41  42
ATOM     42  N   UNL     1     -14.922  -6.438   6.104  1.00  0.00    -0.254 NA
ATOM     43  C   UNL     1     -15.792  -5.648   5.596  1.00  0.00     0.185 C 
ATOM     44  N   UNL     1     -16.651  -4.805   6.197  1.00  0.00    -0.370 N 
ATOM     45  N   UNL     1     -15.923  -5.606   4.260  1.00  0.00    -0.370 N 
ATOM     46  H   UNL     1     -17.438  -4.431   5.696  1.00  0.00     0.159 HD
ATOM     47  H   UNL     1     -16.677  -4.701   7.207  1.00  0.00     0.159 HD
ATOM     48  H   UNL     1     -15.305  -6.205   3.730  1.00  0.00     0.159 HD
ATOM     49  H   UNL     1     -16.399  -4.860   3.783  1.00  0.00     0.159 HD
ENDBRANCH  41  42
ENDBRANCH  40  41
ENDBRANCH  39  40
ENDBRANCH  38  39
ENDBRANCH  36  38
ENDBRANCH   5  34
BRANCH   8  50
ATOM     50  O   UNL     1     -14.725  -9.921   0.918  1.00  0.00    -0.245 OA
BRANCH  50  51
ATOM     51  S   UNL     1     -16.345 -10.065   0.923  1.00  0.00     0.397 S 
ATOM     52  O   UNL     1     -16.772 -10.255   2.291  1.00  0.00    -0.169 OA
ATOM     53  O   UNL     1     -16.756 -10.966  -0.134  1.00  0.00    -0.169 OA
BRANCH  51  54
ATOM     54  O   UNL     1     -16.815  -8.581   0.520  1.00  0.00    -0.264 OA
ATOM     55  H   UNL     1     -17.145  -8.142   1.330  1.00  0.00     0.236 HD
ENDBRANCH  51  54
ENDBRANCH  50  51
ENDBRANCH   8  50
TORSDOF 19
ENDMDL
MODEL 34
REMARK VINA RESULT:    -7.371      3.273      6.933
REMARK INTER + INTRA:         -17.938
REMARK INTER:                 -13.746
REMARK INTRA:                  -4.191
REMARK UNBOUND:                -3.026
REMARK SMILES CC[C@@H](C)[C@@H](NC(=O)[C@@H](O)Cc1ccc(O)c(Cl)c1)C(=O)N1[C@H](C(=O)NCCCCN=C(N)N)C[C@H]2CC[C@H](OS(=O)(=O)O)C[C@@H]21
REMARK SMILES IDX 22 1 36 2 46 3 35 4 23 5 45 6 37 7 39 8 38 9 20 10 21 11
REMARK SMILES IDX 5 12 6 13 7 14 8 15 9 17 11 18 12 19 17 20 19 21 15 22 14 23
REMARK SMILES IDX 13 24 18 25 16 26 10 28 3 30 4 31 2 32 1 33 24 34 25 35
REMARK SMILES IDX 26 36 27 38 28 39 29 40 30 41 31 42 32 43 33 44 34 45 40 50
REMARK SMILES IDX 41 51 42 52 43 53 44 54
REMARK H PARENT 6 16 16 27 10 29 26 37 33 46 33 47 34 48 34 49 44 55
ROOT
ATOM      1  N   UNL     1     -12.971 -12.479   6.115  1.00  0.00    -0.326 N 
ATOM      2  C   UNL     1     -12.180 -10.660   4.847  1.00  0.00     0.014 C 
ATOM      3  C   UNL     1     -12.687 -12.101   4.728  1.00  0.00     0.091 C 
ATOM      4  C   UNL     1     -11.428 -10.677   6.169  1.00  0.00     0.041 C 
ATOM      5  C   UNL     1     -12.431 -11.454   7.042  1.00  0.00     0.175 C 
ATOM      6  C   UNL     1     -13.834 -12.128   3.720  1.00  0.00     0.059 C 
ATOM      7  C   UNL     1     -11.456 -10.234   3.585  1.00  0.00     0.008 C 
ATOM      8  C   UNL     1     -13.698 -11.079   2.595  1.00  0.00     0.143 C 
ATOM      9  C   UNL     1     -12.227 -10.700   2.332  1.00  0.00     0.034 C 
ENDROOT
BRANCH   1  10
ATOM     10  C   UNL     1     -13.437 -13.677   6.631  1.00  0.00     0.246 C 
ATOM     11  O   UNL     1     -14.640 -13.793   6.888  1.00  0.00    -0.272 OA
BRANCH  10  12
ATOM     12  C   UNL     1     -12.448 -14.861   6.835  1.00  0.00     0.174 C 
BRANCH  12  13
ATOM     13  N   UNL     1     -11.305 -14.717   5.933  1.00  0.00    -0.342 N 
ATOM     14  C   UNL     1      -9.988 -14.653   6.329  1.00  0.00     0.249 C 
ATOM     15  O   UNL     1      -9.622 -14.738   7.495  1.00  0.00    -0.272 OA
ATOM     16  H   UNL     1     -11.461 -14.478   4.956  1.00  0.00     0.164 HD
BRANCH  14  17
ATOM     17  C   UNL     1      -9.017 -14.483   5.142  1.00  0.00     0.207 C 
BRANCH  17  18
ATOM     18  C   UNL     1      -9.781 -14.520   3.815  1.00  0.00     0.077 C 
BRANCH  18  19
ATOM     19  C   UNL     1      -9.329 -13.425   2.875  1.00  0.00    -0.043 A 
ATOM     20  C   UNL     1      -8.081 -11.385   2.470  1.00  0.00     0.083 A 
ATOM     21  C   UNL     1      -8.456 -12.422   3.325  1.00  0.00     0.028 A 
ATOM     22  C   UNL     1      -8.575 -11.342   1.166  1.00  0.00     0.134 A 
ATOM     23  C   UNL     1      -9.440 -12.328   0.708  1.00  0.00     0.048 A 
ATOM     24  C   UNL     1      -9.819 -13.367   1.561  1.00  0.00     0.008 A 
ATOM     25  Cl  UNL     1      -7.008 -10.161   3.041  1.00  0.00    -0.080 Cl
BRANCH  22  26
ATOM     26  O   UNL     1      -8.243 -10.339   0.295  1.00  0.00    -0.506 OA
ATOM     27  H   UNL     1      -8.631  -9.519   0.652  1.00  0.00     0.293 HD
ENDBRANCH  22  26
ENDBRANCH  18  19
ENDBRANCH  17  18
BRANCH  17  28
ATOM     28  O   UNL     1      -8.013 -15.512   5.144  1.00  0.00    -0.383 OA
ATOM     29  H   UNL     1      -8.398 -16.267   4.644  1.00  0.00     0.211 HD
ENDBRANCH  17  28
ENDBRANCH  14  17
ENDBRANCH  12  13
BRANCH  12  30
ATOM     30  C   UNL     1     -13.135 -16.246   6.704  1.00  0.00     0.018 C 
ATOM     31  C   UNL     1     -12.682 -17.190   7.828  1.00  0.00     0.010 C 
BRANCH  30  32
ATOM     32  C   UNL     1     -12.921 -16.919   5.326  1.00  0.00     0.002 C 
ATOM     33  C   UNL     1     -13.966 -16.587   4.269  1.00  0.00     0.004 C 
ENDBRANCH  30  32
ENDBRANCH  12  30
ENDBRANCH  10  12
ENDBRANCH   1  10
BRANCH   5  34
ATOM     34  C   UNL     1     -13.566 -10.534   7.566  1.00  0.00     0.242 C 
ATOM     35  O   UNL     1     -14.753 -10.854   7.505  1.00  0.00    -0.273 OA
ATOM     36  N   UNL     1     -13.153  -9.314   8.054  1.00  0.00    -0.354 N 
ATOM     37  H   UNL     1     -12.168  -9.058   7.967  1.00  0.00     0.163 HD
BRANCH  36  38
ATOM     38  C   UNL     1     -14.043  -8.428   8.774  1.00  0.00     0.116 C 
BRANCH  38  39
ATOM     39  C   UNL     1     -14.134  -7.086   8.052  1.00  0.00     0.023 C 
BRANCH  39  40
ATOM     40  C   UNL     1     -14.727  -7.216   6.653  1.00  0.00     0.026 C 
BRANCH  40  41
ATOM     41  C   UNL     1     -15.706  -6.076   6.371  1.00  0.00     0.146 C 
BRANCH  41  42
ATOM     42  N   UNL     1     -15.947  -5.977   4.937  1.00  0.00    -0.254 NA
ATOM     43  C   UNL     1     -16.446  -4.903   4.451  1.00  0.00     0.185 C 
ATOM     44  N   UNL     1     -16.814  -3.765   5.066  1.00  0.00    -0.370 N 
ATOM     45  N   UNL     1     -16.664  -4.834   3.128  1.00  0.00    -0.370 N 
ATOM     46  H   UNL     1     -17.412  -3.102   4.604  1.00  0.00     0.159 HD
ATOM     47  H   UNL     1     -16.704  -3.641   6.068  1.00  0.00     0.159 HD
ATOM     48  H   UNL     1     -16.406  -5.649   2.588  1.00  0.00     0.159 HD
ATOM     49  H   UNL     1     -16.823  -3.967   2.647  1.00  0.00     0.159 HD
ENDBRANCH  41  42
ENDBRANCH  40  41
ENDBRANCH  39  40
ENDBRANCH  38  39
ENDBRANCH  36  38
ENDBRANCH   5  34
BRANCH   8  50
ATOM     50  O   UNL     1     -14.417  -9.895   2.939  1.00  0.00    -0.245 OA
BRANCH  50  51
ATOM     51  S   UNL     1     -15.375  -9.186   1.832  1.00  0.00     0.397 S 
ATOM     52  O   UNL     1     -16.574  -9.982   1.704  1.00  0.00    -0.169 OA
ATOM     53  O   UNL     1     -14.586  -8.810   0.677  1.00  0.00    -0.169 OA
BRANCH  51  54
ATOM     54  O   UNL     1     -15.821  -7.839   2.587  1.00  0.00    -0.264 OA
ATOM     55  H   UNL     1     -16.318  -8.097   3.390  1.00  0.00     0.236 HD
ENDBRANCH  51  54
ENDBRANCH  50  51
ENDBRANCH   8  50
TORSDOF 19
ENDMDL
MODEL 35
REMARK VINA RESULT:    -7.291      3.442      6.928
REMARK INTER + INTRA:         -17.776
REMARK INTER:                 -14.860
REMARK INTRA:                  -2.916
REMARK UNBOUND:                -3.026
REMARK SMILES CC[C@@H](C)[C@@H](NC(=O)[C@@H](O)Cc1ccc(O)c(Cl)c1)C(=O)N1[C@H](C(=O)NCCCCN=C(N)N)C[C@H]2CC[C@H](OS(=O)(=O)O)C[C@@H]21
REMARK SMILES IDX 22 1 36 2 46 3 35 4 23 5 45 6 37 7 39 8 38 9 20 10 21 11
REMARK SMILES IDX 5 12 6 13 7 14 8 15 9 17 11 18 12 19 17 20 19 21 15 22 14 23
REMARK SMILES IDX 13 24 18 25 16 26 10 28 3 30 4 31 2 32 1 33 24 34 25 35
REMARK SMILES IDX 26 36 27 38 28 39 29 40 30 41 31 42 32 43 33 44 34 45 40 50
REMARK SMILES IDX 41 51 42 52 43 53 44 54
REMARK H PARENT 6 16 16 27 10 29 26 37 33 46 33 47 34 48 34 49 44 55
ROOT
ATOM      1  N   UNL     1     -13.991  -9.882   3.148  1.00  0.00    -0.326 N 
ATOM      2  C   UNL     1     -15.702 -10.054   4.756  1.00  0.00     0.014 C 
ATOM      3  C   UNL     1     -14.217 -10.346   4.520  1.00  0.00     0.091 C 
ATOM      4  C   UNL     1     -16.314 -10.302   3.386  1.00  0.00     0.041 C 
ATOM      5  C   UNL     1     -15.288  -9.578   2.494  1.00  0.00     0.175 C 
ATOM      6  C   UNL     1     -13.412  -9.698   5.645  1.00  0.00     0.059 C 
ATOM      7  C   UNL     1     -16.222 -10.825   5.953  1.00  0.00     0.008 C 
ATOM      8  C   UNL     1     -14.161  -9.646   6.995  1.00  0.00     0.143 C 
ATOM      9  C   UNL     1     -15.211 -10.769   7.118  1.00  0.00     0.034 C 
ENDROOT
BRANCH   1  10
ATOM     10  C   UNL     1     -12.838  -9.908   2.381  1.00  0.00     0.246 C 
ATOM     11  O   UNL     1     -12.027  -8.981   2.484  1.00  0.00    -0.272 OA
BRANCH  10  12
ATOM     12  C   UNL     1     -12.569 -11.119   1.442  1.00  0.00     0.174 C 
BRANCH  12  13
ATOM     13  N   UNL     1     -11.432 -11.893   1.939  1.00  0.00    -0.342 N 
ATOM     14  C   UNL     1     -11.383 -13.267   2.013  1.00  0.00     0.249 C 
ATOM     15  O   UNL     1     -12.288 -14.002   1.640  1.00  0.00    -0.272 OA
ATOM     16  H   UNL     1     -10.675 -11.420   2.427  1.00  0.00     0.164 HD
BRANCH  14  17
ATOM     17  C   UNL     1     -10.053 -13.785   2.600  1.00  0.00     0.207 C 
BRANCH  17  18
ATOM     18  C   UNL     1     -10.319 -14.779   3.735  1.00  0.00     0.077 C 
BRANCH  18  19
ATOM     19  C   UNL     1     -10.875 -14.094   4.963  1.00  0.00    -0.043 A 
ATOM     20  C   UNL     1     -10.530 -13.034   7.117  1.00  0.00     0.083 A 
ATOM     21  C   UNL     1     -10.011 -13.621   5.962  1.00  0.00     0.028 A 
ATOM     22  C   UNL     1     -11.911 -12.918   7.281  1.00  0.00     0.134 A 
ATOM     23  C   UNL     1     -12.778 -13.383   6.299  1.00  0.00     0.048 A 
ATOM     24  C   UNL     1     -12.262 -13.972   5.143  1.00  0.00     0.008 A 
ATOM     25  Cl  UNL     1      -9.452 -12.459   8.334  1.00  0.00    -0.080 Cl
BRANCH  22  26
ATOM     26  O   UNL     1     -12.466 -12.360   8.401  1.00  0.00    -0.506 OA
ATOM     27  H   UNL     1     -12.942 -11.560   8.108  1.00  0.00     0.293 HD
ENDBRANCH  22  26
ENDBRANCH  18  19
ENDBRANCH  17  18
BRANCH  17  28
ATOM     28  O   UNL     1      -9.249 -12.702   3.094  1.00  0.00    -0.383 OA
ATOM     29  H   UNL     1      -8.666 -12.433   2.348  1.00  0.00     0.211 HD
ENDBRANCH  17  28
ENDBRANCH  14  17
ENDBRANCH  12  13
BRANCH  12  30
ATOM     30  C   UNL     1     -12.396 -10.699  -0.043  1.00  0.00     0.018 C 
ATOM     31  C   UNL     1     -13.733 -10.233  -0.639  1.00  0.00     0.010 C 
BRANCH  30  32
ATOM     32  C   UNL     1     -11.774 -11.804  -0.932  1.00  0.00     0.002 C 
ATOM     33  C   UNL     1     -10.304 -11.609  -1.280  1.00  0.00     0.004 C 
ENDBRANCH  30  32
ENDBRANCH  12  30
ENDBRANCH  10  12
ENDBRANCH   1  10
BRANCH   5  34
ATOM     34  C   UNL     1     -15.540  -8.047   2.459  1.00  0.00     0.242 C 
ATOM     35  O   UNL     1     -15.199  -7.303   3.378  1.00  0.00    -0.273 OA
ATOM     36  N   UNL     1     -16.219  -7.591   1.351  1.00  0.00    -0.354 N 
ATOM     37  H   UNL     1     -16.580  -8.271   0.682  1.00  0.00     0.163 HD
BRANCH  36  38
ATOM     38  C   UNL     1     -16.349  -6.180   1.051  1.00  0.00     0.116 C 
BRANCH  38  39
ATOM     39  C   UNL     1     -17.780  -5.722   1.325  1.00  0.00     0.023 C 
BRANCH  39  40
ATOM     40  C   UNL     1     -17.954  -4.217   1.148  1.00  0.00     0.026 C 
BRANCH  40  41
ATOM     41  C   UNL     1     -16.788  -3.458   1.782  1.00  0.00     0.146 C 
BRANCH  41  42
ATOM     42  N   UNL     1     -17.235  -2.800   3.003  1.00  0.00    -0.254 NA
ATOM     43  C   UNL     1     -17.029  -3.360   4.136  1.00  0.00     0.185 C 
ATOM     44  N   UNL     1     -16.431  -4.529   4.427  1.00  0.00    -0.370 N 
ATOM     45  N   UNL     1     -17.453  -2.739   5.249  1.00  0.00    -0.370 N 
ATOM     46  H   UNL     1     -16.555  -4.958   5.329  1.00  0.00     0.159 HD
ATOM     47  H   UNL     1     -16.039  -5.122   3.703  1.00  0.00     0.159 HD
ATOM     48  H   UNL     1     -17.908  -1.846   5.118  1.00  0.00     0.159 HD
ATOM     49  H   UNL     1     -17.128  -2.986   6.167  1.00  0.00     0.159 HD
ENDBRANCH  41  42
ENDBRANCH  40  41
ENDBRANCH  39  40
ENDBRANCH  38  39
ENDBRANCH  36  38
ENDBRANCH   5  34
BRANCH   8  50
ATOM     50  O   UNL     1     -14.823  -8.389   7.140  1.00  0.00    -0.245 OA
BRANCH  50  51
ATOM     51  S   UNL     1     -14.333  -7.353   8.294  1.00  0.00     0.397 S 
ATOM     52  O   UNL     1     -14.186  -6.048   7.690  1.00  0.00    -0.169 OA
ATOM     53  O   UNL     1     -13.268  -7.955   9.069  1.00  0.00    -0.169 OA
BRANCH  51  54
ATOM     54  O   UNL     1     -15.635  -7.256   9.233  1.00  0.00    -0.264 OA
ATOM     55  H   UNL     1     -16.125  -8.100   9.152  1.00  0.00     0.236 HD
ENDBRANCH  51  54
ENDBRANCH  50  51
ENDBRANCH   8  50
TORSDOF 19
ENDMDL
MODEL 36
REMARK VINA RESULT:    -7.274      3.319      4.937
REMARK INTER + INTRA:         -17.742
REMARK INTER:                 -14.991
REMARK INTRA:                  -2.751
REMARK UNBOUND:                -3.026
REMARK SMILES CC[C@@H](C)[C@@H](NC(=O)[C@@H](O)Cc1ccc(O)c(Cl)c1)C(=O)N1[C@H](C(=O)NCCCCN=C(N)N)C[C@H]2CC[C@H](OS(=O)(=O)O)C[C@@H]21
REMARK SMILES IDX 22 1 36 2 46 3 35 4 23 5 45 6 37 7 39 8 38 9 20 10 21 11
REMARK SMILES IDX 5 12 6 13 7 14 8 15 9 17 11 18 12 19 17 20 19 21 15 22 14 23
REMARK SMILES IDX 13 24 18 25 16 26 10 28 3 30 4 31 2 32 1 33 24 34 25 35
REMARK SMILES IDX 26 36 27 38 28 39 29 40 30 41 31 42 32 43 33 44 34 45 40 50
REMARK SMILES IDX 41 51 42 52 43 53 44 54
REMARK H PARENT 6 16 16 27 10 29 26 37 33 46 33 47 34 48 34 49 44 55
ROOT
ATOM      1  N   UNL     1     -10.420 -12.686   3.539  1.00  0.00    -0.326 N 
ATOM      2  C   UNL     1      -8.735 -11.556   2.344  1.00  0.00     0.014 C 
ATOM      3  C   UNL     1      -9.222 -12.954   2.737  1.00  0.00     0.091 C 
ATOM      4  C   UNL     1      -9.090 -10.722   3.565  1.00  0.00     0.041 C 
ATOM      5  C   UNL     1     -10.514 -11.236   3.843  1.00  0.00     0.175 C 
ATOM      6  C   UNL     1      -9.373 -13.788   1.467  1.00  0.00     0.059 C 
ATOM      7  C   UNL     1      -7.298 -11.598   1.863  1.00  0.00     0.008 C 
ATOM      8  C   UNL     1      -8.366 -13.417   0.357  1.00  0.00     0.143 C 
ATOM      9  C   UNL     1      -7.071 -12.806   0.930  1.00  0.00     0.034 C 
ENDROOT
BRANCH   1  10
ATOM     10  C   UNL     1     -11.273 -13.567   4.181  1.00  0.00     0.246 C 
ATOM     11  O   UNL     1     -12.055 -14.246   3.507  1.00  0.00    -0.272 OA
BRANCH  10  12
ATOM     12  C   UNL     1     -11.201 -13.714   5.729  1.00  0.00     0.174 C 
BRANCH  12  13
ATOM     13  N   UNL     1     -11.515 -12.435   6.366  1.00  0.00    -0.342 N 
ATOM     14  C   UNL     1     -12.736 -12.100   6.907  1.00  0.00     0.249 C 
ATOM     15  O   UNL     1     -13.699 -12.857   6.938  1.00  0.00    -0.272 OA
ATOM     16  H   UNL     1     -10.869 -11.655   6.276  1.00  0.00     0.164 HD
BRANCH  14  17
ATOM     17  C   UNL     1     -12.758 -10.672   7.490  1.00  0.00     0.207 C 
BRANCH  17  18
ATOM     18  C   UNL     1     -14.195 -10.148   7.572  1.00  0.00     0.077 C 
BRANCH  18  19
ATOM     19  C   UNL     1     -14.239  -8.680   7.931  1.00  0.00    -0.043 A 
ATOM     20  C   UNL     1     -14.650  -6.373   7.303  1.00  0.00     0.083 A 
ATOM     21  C   UNL     1     -14.658  -7.732   6.985  1.00  0.00     0.028 A 
ATOM     22  C   UNL     1     -14.223  -5.953   8.563  1.00  0.00     0.134 A 
ATOM     23  C   UNL     1     -13.806  -6.882   9.510  1.00  0.00     0.048 A 
ATOM     24  C   UNL     1     -13.811  -8.242   9.194  1.00  0.00     0.008 A 
ATOM     25  Cl  UNL     1     -15.169  -5.223   6.127  1.00  0.00    -0.080 Cl
BRANCH  22  26
ATOM     26  O   UNL     1     -14.188  -4.632   8.917  1.00  0.00    -0.506 OA
ATOM     27  H   UNL     1     -15.097  -4.384   9.167  1.00  0.00     0.293 HD
ENDBRANCH  22  26
ENDBRANCH  18  19
ENDBRANCH  17  18
BRANCH  17  28
ATOM     28  O   UNL     1     -11.969  -9.775   6.692  1.00  0.00    -0.383 OA
ATOM     29  H   UNL     1     -12.530  -9.532   5.921  1.00  0.00     0.211 HD
ENDBRANCH  17  28
ENDBRANCH  14  17
ENDBRANCH  12  13
BRANCH  12  30
ATOM     30  C   UNL     1      -9.848 -14.301   6.213  1.00  0.00     0.018 C 
ATOM     31  C   UNL     1      -9.571 -15.657   5.546  1.00  0.00     0.010 C 
BRANCH  30  32
ATOM     32  C   UNL     1      -9.745 -14.434   7.752  1.00  0.00     0.002 C 
ATOM     33  C   UNL     1      -8.942 -13.343   8.448  1.00  0.00     0.004 C 
ENDBRANCH  30  32
ENDBRANCH  12  30
ENDBRANCH  10  12
ENDBRANCH   1  10
BRANCH   5  34
ATOM     34  C   UNL     1     -11.560 -10.549   2.925  1.00  0.00     0.242 C 
ATOM     35  O   UNL     1     -11.785 -10.936   1.779  1.00  0.00    -0.273 OA
ATOM     36  N   UNL     1     -12.176  -9.443   3.466  1.00  0.00    -0.354 N 
ATOM     37  H   UNL     1     -11.861  -9.099   4.374  1.00  0.00     0.163 HD
BRANCH  36  38
ATOM     38  C   UNL     1     -13.322  -8.813   2.842  1.00  0.00     0.116 C 
BRANCH  38  39
ATOM     39  C   UNL     1     -14.548  -8.963   3.739  1.00  0.00     0.023 C 
BRANCH  39  40
ATOM     40  C   UNL     1     -15.206 -10.333   3.603  1.00  0.00     0.026 C 
BRANCH  40  41
ATOM     41  C   UNL     1     -15.833 -10.498   2.218  1.00  0.00     0.146 C 
BRANCH  41  42
ATOM     42  N   UNL     1     -15.777 -11.897   1.816  1.00  0.00    -0.254 NA
ATOM     43  C   UNL     1     -16.724 -12.690   2.153  1.00  0.00     0.185 C 
ATOM     44  N   UNL     1     -17.844 -12.451   2.860  1.00  0.00    -0.370 N 
ATOM     45  N   UNL     1     -16.652 -13.977   1.776  1.00  0.00    -0.370 N 
ATOM     46  H   UNL     1     -18.372 -13.209   3.256  1.00  0.00     0.159 HD
ATOM     47  H   UNL     1     -18.064 -11.524   3.212  1.00  0.00     0.159 HD
ATOM     48  H   UNL     1     -15.843 -14.240   1.231  1.00  0.00     0.159 HD
ATOM     49  H   UNL     1     -17.445 -14.594   1.791  1.00  0.00     0.159 HD
ENDBRANCH  41  42
ENDBRANCH  40  41
ENDBRANCH  39  40
ENDBRANCH  38  39
ENDBRANCH  36  38
ENDBRANCH   5  34
BRANCH   8  50
ATOM     50  O   UNL     1      -8.952 -12.476  -0.543  1.00  0.00    -0.245 OA
BRANCH  50  51
ATOM     51  S   UNL     1      -9.115 -12.862  -2.115  1.00  0.00     0.397 S 
ATOM     52  O   UNL     1      -8.460 -14.132  -2.333  1.00  0.00    -0.169 OA
ATOM     53  O   UNL     1      -8.818 -11.704  -2.933  1.00  0.00    -0.169 OA
BRANCH  51  54
ATOM     54  O   UNL     1     -10.691 -13.157  -2.227  1.00  0.00    -0.264 OA
ATOM     55  H   UNL     1     -10.881 -13.967  -1.711  1.00  0.00     0.236 HD
ENDBRANCH  51  54
ENDBRANCH  50  51
ENDBRANCH   8  50
TORSDOF 19
ENDMDL
MODEL 37
REMARK VINA RESULT:    -7.273      3.781      6.984
REMARK INTER + INTRA:         -17.739
REMARK INTER:                 -14.955
REMARK INTRA:                  -2.784
REMARK UNBOUND:                -3.026
REMARK SMILES CC[C@@H](C)[C@@H](NC(=O)[C@@H](O)Cc1ccc(O)c(Cl)c1)C(=O)N1[C@H](C(=O)NCCCCN=C(N)N)C[C@H]2CC[C@H](OS(=O)(=O)O)C[C@@H]21
REMARK SMILES IDX 22 1 36 2 46 3 35 4 23 5 45 6 37 7 39 8 38 9 20 10 21 11
REMARK SMILES IDX 5 12 6 13 7 14 8 15 9 17 11 18 12 19 17 20 19 21 15 22 14 23
REMARK SMILES IDX 13 24 18 25 16 26 10 28 3 30 4 31 2 32 1 33 24 34 25 35
REMARK SMILES IDX 26 36 27 38 28 39 29 40 30 41 31 42 32 43 33 44 34 45 40 50
REMARK SMILES IDX 41 51 42 52 43 53 44 54
REMARK H PARENT 6 16 16 27 10 29 26 37 33 46 33 47 34 48 34 49 44 55
ROOT
ATOM      1  N   UNL     1     -14.054 -12.205   4.745  1.00  0.00    -0.326 N 
ATOM      2  C   UNL     1     -12.846 -10.344   3.958  1.00  0.00     0.014 C 
ATOM      3  C   UNL     1     -13.513 -11.644   3.503  1.00  0.00     0.091 C 
ATOM      4  C   UNL     1     -12.314 -10.705   5.337  1.00  0.00     0.041 C 
ATOM      5  C   UNL     1     -13.532 -11.451   5.912  1.00  0.00     0.175 C 
ATOM      6  C   UNL     1     -14.486 -11.318   2.372  1.00  0.00     0.059 C 
ATOM      7  C   UNL     1     -11.886  -9.829   2.903  1.00  0.00     0.008 C 
ATOM      8  C   UNL     1     -14.042 -10.127   1.494  1.00  0.00     0.143 C 
ATOM      9  C   UNL     1     -12.511  -9.946   1.497  1.00  0.00     0.034 C 
ENDROOT
BRANCH   1  10
ATOM     10  C   UNL     1     -14.748 -13.384   4.959  1.00  0.00     0.246 C 
ATOM     11  O   UNL     1     -15.976 -13.343   5.092  1.00  0.00    -0.272 OA
BRANCH  10  12
ATOM     12  C   UNL     1     -13.975 -14.734   4.983  1.00  0.00     0.174 C 
BRANCH  12  13
ATOM     13  N   UNL     1     -12.896 -14.674   5.968  1.00  0.00    -0.342 N 
ATOM     14  C   UNL     1     -12.774 -15.504   7.059  1.00  0.00     0.249 C 
ATOM     15  O   UNL     1     -13.552 -16.416   7.313  1.00  0.00    -0.272 OA
ATOM     16  H   UNL     1     -12.267 -13.875   5.977  1.00  0.00     0.164 HD
BRANCH  14  17
ATOM     17  C   UNL     1     -11.536 -15.178   7.921  1.00  0.00     0.207 C 
BRANCH  17  18
ATOM     18  C   UNL     1     -10.386 -14.681   7.040  1.00  0.00     0.077 C 
BRANCH  18  19
ATOM     19  C   UNL     1      -9.581 -13.598   7.723  1.00  0.00    -0.043 A 
ATOM     20  C   UNL     1      -7.893 -12.932   9.333  1.00  0.00     0.083 A 
ATOM     21  C   UNL     1      -8.599 -13.935   8.668  1.00  0.00     0.028 A 
ATOM     22  C   UNL     1      -8.164 -11.590   9.061  1.00  0.00     0.134 A 
ATOM     23  C   UNL     1      -9.133 -11.242   8.128  1.00  0.00     0.048 A 
ATOM     24  C   UNL     1      -9.843 -12.244   7.462  1.00  0.00     0.008 A 
ATOM     25  Cl  UNL     1      -6.690 -13.365  10.490  1.00  0.00    -0.080 Cl
BRANCH  22  26
ATOM     26  O   UNL     1      -7.505 -10.572   9.695  1.00  0.00    -0.506 OA
ATOM     27  H   UNL     1      -7.776 -10.603  10.632  1.00  0.00     0.293 HD
ENDBRANCH  22  26
ENDBRANCH  18  19
ENDBRANCH  17  18
BRANCH  17  28
ATOM     28  O   UNL     1     -11.104 -16.329   8.664  1.00  0.00    -0.383 OA
ATOM     29  H   UNL     1     -11.441 -16.203   9.581  1.00  0.00     0.211 HD
ENDBRANCH  17  28
ENDBRANCH  14  17
ENDBRANCH  12  13
BRANCH  12  30
ATOM     30  C   UNL     1     -13.472 -15.164   3.579  1.00  0.00     0.018 C 
ATOM     31  C   UNL     1     -14.653 -15.387   2.620  1.00  0.00     0.010 C 
BRANCH  30  32
ATOM     32  C   UNL     1     -12.560 -16.415   3.601  1.00  0.00     0.002 C 
ATOM     33  C   UNL     1     -11.122 -16.180   3.158  1.00  0.00     0.004 C 
ENDBRANCH  30  32
ENDBRANCH  12  30
ENDBRANCH  10  12
ENDBRANCH   1  10
BRANCH   5  34
ATOM     34  C   UNL     1     -14.602 -10.467   6.454  1.00  0.00     0.242 C 
ATOM     35  O   UNL     1     -15.622 -10.190   5.823  1.00  0.00    -0.273 OA
ATOM     36  N   UNL     1     -14.302  -9.885   7.666  1.00  0.00    -0.354 N 
ATOM     37  H   UNL     1     -13.388 -10.062   8.083  1.00  0.00     0.163 HD
BRANCH  36  38
ATOM     38  C   UNL     1     -15.274  -9.116   8.416  1.00  0.00     0.116 C 
BRANCH  38  39
ATOM     39  C   UNL     1     -14.557  -8.122   9.326  1.00  0.00     0.023 C 
BRANCH  39  40
ATOM     40  C   UNL     1     -13.365  -7.460   8.642  1.00  0.00     0.026 C 
BRANCH  40  41
ATOM     41  C   UNL     1     -13.751  -6.090   8.087  1.00  0.00     0.146 C 
BRANCH  41  42
ATOM     42  N   UNL     1     -12.726  -5.113   8.430  1.00  0.00    -0.254 NA
ATOM     43  C   UNL     1     -12.988  -3.863   8.341  1.00  0.00     0.185 C 
ATOM     44  N   UNL     1     -14.119  -3.240   7.961  1.00  0.00    -0.370 N 
ATOM     45  N   UNL     1     -12.028  -2.978   8.658  1.00  0.00    -0.370 N 
ATOM     46  H   UNL     1     -14.107  -2.268   7.704  1.00  0.00     0.159 HD
ATOM     47  H   UNL     1     -14.951  -3.760   7.699  1.00  0.00     0.159 HD
ATOM     48  H   UNL     1     -11.145  -3.365   8.963  1.00  0.00     0.159 HD
ATOM     49  H   UNL     1     -12.220  -2.009   8.841  1.00  0.00     0.159 HD
ENDBRANCH  41  42
ENDBRANCH  40  41
ENDBRANCH  39  40
ENDBRANCH  38  39
ENDBRANCH  36  38
ENDBRANCH   5  34
BRANCH   8  50
ATOM     50  O   UNL     1     -14.642  -8.920   1.965  1.00  0.00    -0.245 OA
BRANCH  50  51
ATOM     51  S   UNL     1     -15.839  -8.231   1.107  1.00  0.00     0.397 S 
ATOM     52  O   UNL     1     -16.350  -7.114   1.869  1.00  0.00    -0.169 OA
ATOM     53  O   UNL     1     -16.716  -9.258   0.584  1.00  0.00    -0.169 OA
BRANCH  51  54
ATOM     54  O   UNL     1     -15.038  -7.587  -0.130  1.00  0.00    -0.264 OA
ATOM     55  H   UNL     1     -14.532  -6.820   0.209  1.00  0.00     0.236 HD
ENDBRANCH  51  54
ENDBRANCH  50  51
ENDBRANCH   8  50
TORSDOF 19
ENDMDL
MODEL 38
REMARK VINA RESULT:    -7.244      5.222      8.131
REMARK INTER + INTRA:         -17.680
REMARK INTER:                 -14.628
REMARK INTRA:                  -3.052
REMARK UNBOUND:                -3.026
REMARK SMILES CC[C@@H](C)[C@@H](NC(=O)[C@@H](O)Cc1ccc(O)c(Cl)c1)C(=O)N1[C@H](C(=O)NCCCCN=C(N)N)C[C@H]2CC[C@H](OS(=O)(=O)O)C[C@@H]21
REMARK SMILES IDX 22 1 36 2 46 3 35 4 23 5 45 6 37 7 39 8 38 9 20 10 21 11
REMARK SMILES IDX 5 12 6 13 7 14 8 15 9 17 11 18 12 19 17 20 19 21 15 22 14 23
REMARK SMILES IDX 13 24 18 25 16 26 10 28 3 30 4 31 2 32 1 33 24 34 25 35
REMARK SMILES IDX 26 36 27 38 28 39 29 40 30 41 31 42 32 43 33 44 34 45 40 50
REMARK SMILES IDX 41 51 42 52 43 53 44 54
REMARK H PARENT 6 16 16 27 10 29 26 37 33 46 33 47 34 48 34 49 44 55
ROOT
ATOM      1  N   UNL     1     -10.911 -12.604   0.829  1.00  0.00    -0.326 N 
ATOM      2  C   UNL     1      -8.824 -13.167   1.763  1.00  0.00     0.014 C 
ATOM      3  C   UNL     1     -10.325 -13.129   2.066  1.00  0.00     0.091 C 
ATOM      4  C   UNL     1      -8.632 -11.949   0.873  1.00  0.00     0.041 C 
ATOM      5  C   UNL     1      -9.840 -12.105  -0.068  1.00  0.00     0.175 C 
ATOM      6  C   UNL     1     -10.757 -14.514   2.542  1.00  0.00     0.059 C 
ATOM      7  C   UNL     1      -8.016 -13.290   3.040  1.00  0.00     0.008 C 
ATOM      8  C   UNL     1      -9.658 -15.278   3.311  1.00  0.00     0.143 C 
ATOM      9  C   UNL     1      -8.657 -14.322   3.992  1.00  0.00     0.034 C 
ENDROOT
BRANCH   1  10
ATOM     10  C   UNL     1     -12.233 -12.333   0.518  1.00  0.00     0.246 C 
ATOM     11  O   UNL     1     -12.897 -13.187  -0.079  1.00  0.00    -0.272 OA
BRANCH  10  12
ATOM     12  C   UNL     1     -12.864 -10.982   0.963  1.00  0.00     0.174 C 
BRANCH  12  13
ATOM     13  N   UNL     1     -13.098 -10.993   2.407  1.00  0.00    -0.342 N 
ATOM     14  C   UNL     1     -12.926  -9.913   3.243  1.00  0.00     0.249 C 
ATOM     15  O   UNL     1     -12.581  -8.802   2.860  1.00  0.00    -0.272 OA
ATOM     16  H   UNL     1     -13.236 -11.878   2.888  1.00  0.00     0.164 HD
BRANCH  14  17
ATOM     17  C   UNL     1     -13.238 -10.246   4.718  1.00  0.00     0.207 C 
BRANCH  17  18
ATOM     18  C   UNL     1     -12.955 -11.724   5.004  1.00  0.00     0.077 C 
BRANCH  18  19
ATOM     19  C   UNL     1     -11.730 -11.904   5.873  1.00  0.00    -0.043 A 
ATOM     20  C   UNL     1     -10.291 -13.327   7.208  1.00  0.00     0.083 A 
ATOM     21  C   UNL     1     -11.393 -13.173   6.367  1.00  0.00     0.028 A 
ATOM     22  C   UNL     1      -9.521 -12.218   7.562  1.00  0.00     0.134 A 
ATOM     23  C   UNL     1      -9.844 -10.955   7.079  1.00  0.00     0.048 A 
ATOM     24  C   UNL     1     -10.948 -10.797   6.238  1.00  0.00     0.008 A 
ATOM     25  Cl  UNL     1      -9.892 -14.895   7.806  1.00  0.00    -0.080 Cl
BRANCH  22  26
ATOM     26  O   UNL     1      -8.438 -12.318   8.392  1.00  0.00    -0.506 OA
ATOM     27  H   UNL     1      -8.408 -13.242   8.704  1.00  0.00     0.293 HD
ENDBRANCH  22  26
ENDBRANCH  18  19
ENDBRANCH  17  18
BRANCH  17  28
ATOM     28  O   UNL     1     -14.608  -9.952   5.036  1.00  0.00    -0.383 OA
ATOM     29  H   UNL     1     -14.864  -9.194   4.463  1.00  0.00     0.211 HD
ENDBRANCH  17  28
ENDBRANCH  14  17
ENDBRANCH  12  13
BRANCH  12  30
ATOM     30  C   UNL     1     -14.142 -10.623   0.158  1.00  0.00     0.018 C 
ATOM     31  C   UNL     1     -14.137  -9.140  -0.242  1.00  0.00     0.010 C 
BRANCH  30  32
ATOM     32  C   UNL     1     -15.458 -10.971   0.895  1.00  0.00     0.002 C 
ATOM     33  C   UNL     1     -16.248 -12.132   0.304  1.00  0.00     0.004 C 
ENDBRANCH  30  32
ENDBRANCH  12  30
ENDBRANCH  10  12
ENDBRANCH   1  10
BRANCH   5  34
ATOM     34  C   UNL     1      -9.553 -13.125  -1.203  1.00  0.00     0.242 C 
ATOM     35  O   UNL     1      -9.865 -14.312  -1.115  1.00  0.00    -0.273 OA
ATOM     36  N   UNL     1      -8.878 -12.616  -2.290  1.00  0.00    -0.354 N 
ATOM     37  H   UNL     1      -8.541 -11.653  -2.253  1.00  0.00     0.163 HD
BRANCH  36  38
ATOM     38  C   UNL     1      -8.719 -13.364  -3.520  1.00  0.00     0.116 C 
BRANCH  38  39
ATOM     39  C   UNL     1      -7.235 -13.557  -3.822  1.00  0.00     0.023 C 
BRANCH  39  40
ATOM     40  C   UNL     1      -6.992 -14.119  -5.218  1.00  0.00     0.026 C 
BRANCH  40  41
ATOM     41  C   UNL     1      -6.376 -13.059  -6.130  1.00  0.00     0.146 C 
BRANCH  41  42
ATOM     42  N   UNL     1      -7.037 -13.080  -7.428  1.00  0.00    -0.254 NA
ATOM     43  C   UNL     1      -7.673 -12.045  -7.832  1.00  0.00     0.185 C 
ATOM     44  N   UNL     1      -7.855 -10.853  -7.235  1.00  0.00    -0.370 N 
ATOM     45  N   UNL     1      -8.280 -12.087  -9.030  1.00  0.00    -0.370 N 
ATOM     46  H   UNL     1      -8.573 -10.225  -7.552  1.00  0.00     0.159 HD
ATOM     47  H   UNL     1      -7.451 -10.645  -6.327  1.00  0.00     0.159 HD
ATOM     48  H   UNL     1      -8.185 -12.948  -9.551  1.00  0.00     0.159 HD
ATOM     49  H   UNL     1      -8.587 -11.262  -9.513  1.00  0.00     0.159 HD
ENDBRANCH  41  42
ENDBRANCH  40  41
ENDBRANCH  39  40
ENDBRANCH  38  39
ENDBRANCH  36  38
ENDBRANCH   5  34
BRANCH   8  50
ATOM     50  O   UNL     1      -8.937 -16.130   2.421  1.00  0.00    -0.245 OA
BRANCH  50  51
ATOM     51  S   UNL     1      -8.830 -17.721   2.742  1.00  0.00     0.397 S 
ATOM     52  O   UNL     1      -9.743 -18.021   3.822  1.00  0.00    -0.169 OA
ATOM     53  O   UNL     1      -7.437 -18.113   2.795  1.00  0.00    -0.169 OA
BRANCH  51  54
ATOM     54  O   UNL     1      -9.479 -18.375   1.425  1.00  0.00    -0.264 OA
ATOM     55  H   UNL     1     -10.436 -18.167   1.430  1.00  0.00     0.236 HD
ENDBRANCH  51  54
ENDBRANCH  50  51
ENDBRANCH   8  50
TORSDOF 19
ENDMDL
MODEL 39
REMARK VINA RESULT:    -7.235      3.709      7.352
REMARK INTER + INTRA:         -17.662
REMARK INTER:                 -13.920
REMARK INTRA:                  -3.742
REMARK UNBOUND:                -3.026
REMARK SMILES CC[C@@H](C)[C@@H](NC(=O)[C@@H](O)Cc1ccc(O)c(Cl)c1)C(=O)N1[C@H](C(=O)NCCCCN=C(N)N)C[C@H]2CC[C@H](OS(=O)(=O)O)C[C@@H]21
REMARK SMILES IDX 22 1 36 2 46 3 35 4 23 5 45 6 37 7 39 8 38 9 20 10 21 11
REMARK SMILES IDX 5 12 6 13 7 14 8 15 9 17 11 18 12 19 17 20 19 21 15 22 14 23
REMARK SMILES IDX 13 24 18 25 16 26 10 28 3 30 4 31 2 32 1 33 24 34 25 35
REMARK SMILES IDX 26 36 27 38 28 39 29 40 30 41 31 42 32 43 33 44 34 45 40 50
REMARK SMILES IDX 41 51 42 52 43 53 44 54
REMARK H PARENT 6 16 16 27 10 29 26 37 33 46 33 47 34 48 34 49 44 55
ROOT
ATOM      1  N   UNL     1     -14.014 -13.218   2.077  1.00  0.00    -0.326 N 
ATOM      2  C   UNL     1     -14.271 -15.488   2.648  1.00  0.00     0.014 C 
ATOM      3  C   UNL     1     -13.217 -14.404   2.405  1.00  0.00     0.091 C 
ATOM      4  C   UNL     1     -15.361 -15.124   1.651  1.00  0.00     0.041 C 
ATOM      5  C   UNL     1     -15.432 -13.601   1.869  1.00  0.00     0.175 C 
ATOM      6  C   UNL     1     -12.297 -14.344   3.623  1.00  0.00     0.059 C 
ATOM      7  C   UNL     1     -13.650 -16.869   2.598  1.00  0.00     0.008 C 
ATOM      8  C   UNL     1     -12.106 -15.706   4.326  1.00  0.00     0.143 C 
ATOM      9  C   UNL     1     -12.307 -16.890   3.358  1.00  0.00     0.034 C 
ENDROOT
BRANCH   1  10
ATOM     10  C   UNL     1     -13.605 -11.938   1.745  1.00  0.00     0.246 C 
ATOM     11  O   UNL     1     -13.435 -11.108   2.644  1.00  0.00    -0.272 OA
BRANCH  10  12
ATOM     12  C   UNL     1     -13.328 -11.584   0.255  1.00  0.00     0.174 C 
BRANCH  12  13
ATOM     13  N   UNL     1     -11.897 -11.359   0.053  1.00  0.00    -0.342 N 
ATOM     14  C   UNL     1     -10.995 -12.318  -0.351  1.00  0.00     0.249 C 
ATOM     15  O   UNL     1     -11.302 -13.474  -0.616  1.00  0.00    -0.272 OA
ATOM     16  H   UNL     1     -11.472 -10.496   0.383  1.00  0.00     0.164 HD
BRANCH  14  17
ATOM     17  C   UNL     1      -9.554 -11.775  -0.454  1.00  0.00     0.207 C 
BRANCH  17  18
ATOM     18  C   UNL     1      -9.288 -10.750   0.652  1.00  0.00     0.077 C 
BRANCH  18  19
ATOM     19  C   UNL     1      -9.214 -11.401   2.015  1.00  0.00    -0.043 A 
ATOM     20  C   UNL     1      -8.510 -13.240   3.432  1.00  0.00     0.083 A 
ATOM     21  C   UNL     1      -8.534 -12.617   2.183  1.00  0.00     0.028 A 
ATOM     22  C   UNL     1      -9.164 -12.655   4.517  1.00  0.00     0.134 A 
ATOM     23  C   UNL     1      -9.841 -11.451   4.364  1.00  0.00     0.048 A 
ATOM     24  C   UNL     1      -9.868 -10.826   3.116  1.00  0.00     0.008 A 
ATOM     25  Cl  UNL     1      -7.670 -14.735   3.618  1.00  0.00    -0.080 Cl
BRANCH  22  26
ATOM     26  O   UNL     1      -9.177 -13.233   5.757  1.00  0.00    -0.506 OA
ATOM     27  H   UNL     1     -10.112 -13.405   5.976  1.00  0.00     0.293 HD
ENDBRANCH  22  26
ENDBRANCH  18  19
ENDBRANCH  17  18
BRANCH  17  28
ATOM     28  O   UNL     1      -9.322 -11.165  -1.735  1.00  0.00    -0.383 OA
ATOM     29  H   UNL     1     -10.127 -10.634  -1.933  1.00  0.00     0.211 HD
ENDBRANCH  17  28
ENDBRANCH  14  17
ENDBRANCH  12  13
BRANCH  12  30
ATOM     30  C   UNL     1     -14.191 -10.397  -0.251  1.00  0.00     0.018 C 
ATOM     31  C   UNL     1     -13.563  -9.054   0.153  1.00  0.00     0.010 C 
BRANCH  30  32
ATOM     32  C   UNL     1     -15.665 -10.457   0.218  1.00  0.00     0.002 C 
ATOM     33  C   UNL     1     -16.153  -9.238   0.990  1.00  0.00     0.004 C 
ENDBRANCH  30  32
ENDBRANCH  12  30
ENDBRANCH  10  12
ENDBRANCH   1  10
BRANCH   5  34
ATOM     34  C   UNL     1     -16.288 -13.241   3.113  1.00  0.00     0.242 C 
ATOM     35  O   UNL     1     -16.773 -14.100   3.849  1.00  0.00    -0.273 OA
ATOM     36  N   UNL     1     -16.509 -11.895   3.302  1.00  0.00    -0.354 N 
ATOM     37  H   UNL     1     -16.182 -11.239   2.592  1.00  0.00     0.163 HD
BRANCH  36  38
ATOM     38  C   UNL     1     -17.096 -11.371   4.518  1.00  0.00     0.116 C 
BRANCH  38  39
ATOM     39  C   UNL     1     -16.167 -10.328   5.134  1.00  0.00     0.023 C 
BRANCH  39  40
ATOM     40  C   UNL     1     -15.165 -10.943   6.105  1.00  0.00     0.026 C 
BRANCH  40  41
ATOM     41  C   UNL     1     -14.156  -9.895   6.578  1.00  0.00     0.146 C 
BRANCH  41  42
ATOM     42  N   UNL     1     -14.765  -9.050   7.597  1.00  0.00    -0.254 NA
ATOM     43  C   UNL     1     -14.724  -7.777   7.471  1.00  0.00     0.185 C 
ATOM     44  N   UNL     1     -14.182  -7.021   6.499  1.00  0.00    -0.370 N 
ATOM     45  N   UNL     1     -15.287  -7.016   8.424  1.00  0.00    -0.370 N 
ATOM     46  H   UNL     1     -14.007  -6.042   6.649  1.00  0.00     0.159 HD
ATOM     47  H   UNL     1     -13.726  -7.436   5.693  1.00  0.00     0.159 HD
ATOM     48  H   UNL     1     -15.726  -7.508   9.190  1.00  0.00     0.159 HD
ATOM     49  H   UNL     1     -15.504  -6.045   8.286  1.00  0.00     0.159 HD
ENDBRANCH  41  42
ENDBRANCH  40  41
ENDBRANCH  39  40
ENDBRANCH  38  39
ENDBRANCH  36  38
ENDBRANCH   5  34
BRANCH   8  50
ATOM     50  O   UNL     1     -13.036 -15.837   5.401  1.00  0.00    -0.245 OA
BRANCH  50  51
ATOM     51  S   UNL     1     -12.555 -15.518   6.922  1.00  0.00     0.397 S 
ATOM     52  O   UNL     1     -11.317 -14.776   6.852  1.00  0.00    -0.169 OA
ATOM     53  O   UNL     1     -12.680 -16.713   7.731  1.00  0.00    -0.169 OA
BRANCH  51  54
ATOM     54  O   UNL     1     -13.669 -14.468   7.414  1.00  0.00    -0.264 OA
ATOM     55  H   UNL     1     -13.995 -13.988   6.625  1.00  0.00     0.236 HD
ENDBRANCH  51  54
ENDBRANCH  50  51
ENDBRANCH   8  50
TORSDOF 19
ENDMDL
MODEL 40
REMARK VINA RESULT:    -7.198      3.157      7.137
REMARK INTER + INTRA:         -17.589
REMARK INTER:                 -13.463
REMARK INTRA:                  -4.126
REMARK UNBOUND:                -3.026
REMARK SMILES CC[C@@H](C)[C@@H](NC(=O)[C@@H](O)Cc1ccc(O)c(Cl)c1)C(=O)N1[C@H](C(=O)NCCCCN=C(N)N)C[C@H]2CC[C@H](OS(=O)(=O)O)C[C@@H]21
REMARK SMILES IDX 22 1 36 2 46 3 35 4 23 5 45 6 37 7 39 8 38 9 20 10 21 11
REMARK SMILES IDX 5 12 6 13 7 14 8 15 9 17 11 18 12 19 17 20 19 21 15 22 14 23
REMARK SMILES IDX 13 24 18 25 16 26 10 28 3 30 4 31 2 32 1 33 24 34 25 35
REMARK SMILES IDX 26 36 27 38 28 39 29 40 30 41 31 42 32 43 33 44 34 45 40 50
REMARK SMILES IDX 41 51 42 52 43 53 44 54
REMARK H PARENT 6 16 16 27 10 29 26 37 33 46 33 47 34 48 34 49 44 55
ROOT
ATOM      1  N   UNL     1     -14.454 -12.757   2.619  1.00  0.00    -0.326 N 
ATOM      2  C   UNL     1     -14.983 -14.934   3.343  1.00  0.00     0.014 C 
ATOM      3  C   UNL     1     -13.932 -14.126   2.576  1.00  0.00     0.091 C 
ATOM      4  C   UNL     1     -16.280 -14.229   2.977  1.00  0.00     0.041 C 
ATOM      5  C   UNL     1     -15.846 -12.760   3.135  1.00  0.00     0.175 C 
ATOM      6  C   UNL     1     -12.564 -14.399   3.199  1.00  0.00     0.059 C 
ATOM      7  C   UNL     1     -14.837 -16.417   3.061  1.00  0.00     0.008 C 
ATOM      8  C   UNL     1     -12.419 -15.821   3.783  1.00  0.00     0.143 C 
ATOM      9  C   UNL     1     -13.351 -16.831   3.083  1.00  0.00     0.034 C 
ENDROOT
BRANCH   1  10
ATOM     10  C   UNL     1     -13.939 -11.593   2.075  1.00  0.00     0.246 C 
ATOM     11  O   UNL     1     -13.660 -10.651   2.825  1.00  0.00    -0.272 OA
BRANCH  10  12
ATOM     12  C   UNL     1     -13.685 -11.510   0.542  1.00  0.00     0.174 C 
BRANCH  12  13
ATOM     13  N   UNL     1     -12.253 -11.365   0.282  1.00  0.00    -0.342 N 
ATOM     14  C   UNL     1     -11.417 -12.381  -0.126  1.00  0.00     0.249 C 
ATOM     15  O   UNL     1     -11.792 -13.526  -0.344  1.00  0.00    -0.272 OA
ATOM     16  H   UNL     1     -11.772 -10.517   0.569  1.00  0.00     0.164 HD
BRANCH  14  17
ATOM     17  C   UNL     1      -9.956 -11.917  -0.299  1.00  0.00     0.207 C 
BRANCH  17  18
ATOM     18  C   UNL     1      -9.585 -10.898   0.784  1.00  0.00     0.077 C 
BRANCH  18  19
ATOM     19  C   UNL     1      -9.540 -11.530   2.158  1.00  0.00    -0.043 A 
ATOM     20  C   UNL     1     -10.055 -11.451   4.526  1.00  0.00     0.083 A 
ATOM     21  C   UNL     1     -10.142 -10.890   3.252  1.00  0.00     0.028 A 
ATOM     22  C   UNL     1      -9.367 -12.650   4.716  1.00  0.00     0.134 A 
ATOM     23  C   UNL     1      -8.766 -13.295   3.641  1.00  0.00     0.048 A 
ATOM     24  C   UNL     1      -8.850 -12.735   2.364  1.00  0.00     0.008 A 
ATOM     25  Cl  UNL     1     -10.802 -10.650   5.859  1.00  0.00    -0.080 Cl
BRANCH  22  26
ATOM     26  O   UNL     1      -9.246 -13.233   5.949  1.00  0.00    -0.506 OA
ATOM     27  H   UNL     1      -9.086 -12.512   6.585  1.00  0.00     0.293 HD
ENDBRANCH  22  26
ENDBRANCH  18  19
ENDBRANCH  17  18
BRANCH  17  28
ATOM     28  O   UNL     1      -9.749 -11.331  -1.594  1.00  0.00    -0.383 OA
ATOM     29  H   UNL     1      -8.850 -10.930  -1.571  1.00  0.00     0.211 HD
ENDBRANCH  17  28
ENDBRANCH  14  17
ENDBRANCH  12  13
BRANCH  12  30
ATOM     30  C   UNL     1     -14.527 -10.402  -0.147  1.00  0.00     0.018 C 
ATOM     31  C   UNL     1     -13.793  -9.053  -0.105  1.00  0.00     0.010 C 
BRANCH  30  32
ATOM     32  C   UNL     1     -15.952 -10.251   0.437  1.00  0.00     0.002 C 
ATOM     33  C   UNL     1     -16.270  -8.887   1.036  1.00  0.00     0.004 C 
ENDBRANCH  30  32
ENDBRANCH  12  30
ENDBRANCH  10  12
ENDBRANCH   1  10
BRANCH   5  34
ATOM     34  C   UNL     1     -15.884 -12.310   4.620  1.00  0.00     0.242 C 
ATOM     35  O   UNL     1     -16.105 -13.096   5.540  1.00  0.00    -0.273 OA
ATOM     36  N   UNL     1     -15.705 -10.960   4.827  1.00  0.00    -0.354 N 
ATOM     37  H   UNL     1     -15.646 -10.342   4.016  1.00  0.00     0.163 HD
BRANCH  36  38
ATOM     38  C   UNL     1     -15.497 -10.401   6.146  1.00  0.00     0.116 C 
BRANCH  38  39
ATOM     39  C   UNL     1     -14.356  -9.388   6.106  1.00  0.00     0.023 C 
BRANCH  39  40
ATOM     40  C   UNL     1     -14.110  -8.732   7.460  1.00  0.00     0.026 C 
BRANCH  40  41
ATOM     41  C   UNL     1     -14.536  -7.264   7.437  1.00  0.00     0.146 C 
BRANCH  41  42
ATOM     42  N   UNL     1     -14.672  -6.812   6.058  1.00  0.00    -0.254 NA
ATOM     43  C   UNL     1     -15.646  -6.047   5.736  1.00  0.00     0.185 C 
ATOM     44  N   UNL     1     -16.640  -5.545   6.492  1.00  0.00    -0.370 N 
ATOM     45  N   UNL     1     -15.756  -5.646   4.459  1.00  0.00    -0.370 N 
ATOM     46  H   UNL     1     -17.467  -5.164   6.065  1.00  0.00     0.159 HD
ATOM     47  H   UNL     1     -16.702  -5.738   7.487  1.00  0.00     0.159 HD
ATOM     48  H   UNL     1     -15.041  -5.972   3.823  1.00  0.00     0.159 HD
ATOM     49  H   UNL     1     -16.335  -4.873   4.179  1.00  0.00     0.159 HD
ENDBRANCH  41  42
ENDBRANCH  40  41
ENDBRANCH  39  40
ENDBRANCH  38  39
ENDBRANCH  36  38
ENDBRANCH   5  34
BRANCH   8  50
ATOM     50  O   UNL     1     -12.726 -15.811   5.177  1.00  0.00    -0.245 OA
BRANCH  50  51
ATOM     51  S   UNL     1     -11.531 -16.010   6.263  1.00  0.00     0.397 S 
ATOM     52  O   UNL     1     -11.658 -17.334   6.829  1.00  0.00    -0.169 OA
ATOM     53  O   UNL     1     -11.435 -14.832   7.100  1.00  0.00    -0.169 OA
BRANCH  51  54
ATOM     54  O   UNL     1     -10.228 -16.058   5.323  1.00  0.00    -0.264 OA
ATOM     55  H   UNL     1      -9.440 -16.015   5.903  1.00  0.00     0.236 HD
ENDBRANCH  51  54
ENDBRANCH  50  51
ENDBRANCH   8  50
TORSDOF 19
ENDMDL
MODEL 41
REMARK VINA RESULT:    -7.170      4.795      9.190
REMARK INTER + INTRA:         -17.531
REMARK INTER:                 -14.190
REMARK INTRA:                  -3.340
REMARK UNBOUND:                -3.026
REMARK SMILES CC[C@@H](C)[C@@H](NC(=O)[C@@H](O)Cc1ccc(O)c(Cl)c1)C(=O)N1[C@H](C(=O)NCCCCN=C(N)N)C[C@H]2CC[C@H](OS(=O)(=O)O)C[C@@H]21
REMARK SMILES IDX 22 1 36 2 46 3 35 4 23 5 45 6 37 7 39 8 38 9 20 10 21 11
REMARK SMILES IDX 5 12 6 13 7 14 8 15 9 17 11 18 12 19 17 20 19 21 15 22 14 23
REMARK SMILES IDX 13 24 18 25 16 26 10 28 3 30 4 31 2 32 1 33 24 34 25 35
REMARK SMILES IDX 26 36 27 38 28 39 29 40 30 41 31 42 32 43 33 44 34 45 40 50
REMARK SMILES IDX 41 51 42 52 43 53 44 54
REMARK H PARENT 6 16 16 27 10 29 26 37 33 46 33 47 34 48 34 49 44 55
ROOT
ATOM      1  N   UNL     1     -11.199 -11.877   2.513  1.00  0.00    -0.326 N 
ATOM      2  C   UNL     1     -11.727 -12.985   4.522  1.00  0.00     0.014 C 
ATOM      3  C   UNL     1     -11.055 -11.727   3.964  1.00  0.00     0.091 C 
ATOM      4  C   UNL     1     -11.389 -14.036   3.477  1.00  0.00     0.041 C 
ATOM      5  C   UNL     1     -11.678 -13.243   2.189  1.00  0.00     0.175 C 
ATOM      6  C   UNL     1     -11.686 -10.506   4.632  1.00  0.00     0.059 C 
ATOM      7  C   UNL     1     -11.328 -13.217   5.966  1.00  0.00     0.008 C 
ATOM      8  C   UNL     1     -12.154 -10.762   6.081  1.00  0.00     0.143 C 
ATOM      9  C   UNL     1     -11.351 -11.892   6.757  1.00  0.00     0.034 C 
ENDROOT
BRANCH   1  10
ATOM     10  C   UNL     1     -10.765 -11.053   1.488  1.00  0.00     0.246 C 
ATOM     11  O   UNL     1     -11.488 -10.122   1.119  1.00  0.00    -0.272 OA
BRANCH  10  12
ATOM     12  C   UNL     1      -9.363 -11.290   0.855  1.00  0.00     0.174 C 
BRANCH  12  13
ATOM     13  N   UNL     1      -9.494 -12.090  -0.362  1.00  0.00    -0.342 N 
ATOM     14  C   UNL     1      -9.267 -11.630  -1.639  1.00  0.00     0.249 C 
ATOM     15  O   UNL     1      -8.897 -10.491  -1.898  1.00  0.00    -0.272 OA
ATOM     16  H   UNL     1      -9.942 -13.002  -0.319  1.00  0.00     0.164 HD
BRANCH  14  17
ATOM     17  C   UNL     1      -9.507 -12.711  -2.714  1.00  0.00     0.207 C 
BRANCH  17  18
ATOM     18  C   UNL     1      -8.339 -12.750  -3.705  1.00  0.00     0.077 C 
BRANCH  18  19
ATOM     19  C   UNL     1      -8.067 -14.154  -4.198  1.00  0.00    -0.043 A 
ATOM     20  C   UNL     1      -6.648 -16.120  -4.267  1.00  0.00     0.083 A 
ATOM     21  C   UNL     1      -6.921 -14.844  -3.772  1.00  0.00     0.028 A 
ATOM     22  C   UNL     1      -7.512 -16.711  -5.189  1.00  0.00     0.134 A 
ATOM     23  C   UNL     1      -8.650 -16.039  -5.619  1.00  0.00     0.048 A 
ATOM     24  C   UNL     1      -8.926 -14.761  -5.126  1.00  0.00     0.008 A 
ATOM     25  Cl  UNL     1      -5.236 -16.953  -3.732  1.00  0.00    -0.080 Cl
BRANCH  22  26
ATOM     26  O   UNL     1      -7.280 -17.955  -5.710  1.00  0.00    -0.506 OA
ATOM     27  H   UNL     1      -7.105 -17.832  -6.661  1.00  0.00     0.293 HD
ENDBRANCH  22  26
ENDBRANCH  18  19
ENDBRANCH  17  18
BRANCH  17  28
ATOM     28  O   UNL     1     -10.729 -12.468  -3.428  1.00  0.00    -0.383 OA
ATOM     29  H   UNL     1     -10.471 -12.021  -4.266  1.00  0.00     0.211 HD
ENDBRANCH  17  28
ENDBRANCH  14  17
ENDBRANCH  12  13
BRANCH  12  30
ATOM     30  C   UNL     1      -8.347 -11.899   1.858  1.00  0.00     0.018 C 
ATOM     31  C   UNL     1      -7.171 -10.939   2.095  1.00  0.00     0.010 C 
BRANCH  30  32
ATOM     32  C   UNL     1      -7.819 -13.293   1.439  1.00  0.00     0.002 C 
ATOM     33  C   UNL     1      -7.770 -14.332   2.552  1.00  0.00     0.004 C 
ENDBRANCH  30  32
ENDBRANCH  12  30
ENDBRANCH  10  12
ENDBRANCH   1  10
BRANCH   5  34
ATOM     34  C   UNL     1     -13.194 -13.229   1.854  1.00  0.00     0.242 C 
ATOM     35  O   UNL     1     -13.957 -14.121   2.223  1.00  0.00    -0.273 OA
ATOM     36  N   UNL     1     -13.611 -12.177   1.070  1.00  0.00    -0.354 N 
ATOM     37  H   UNL     1     -12.910 -11.535   0.695  1.00  0.00     0.163 HD
BRANCH  36  38
ATOM     38  C   UNL     1     -15.012 -11.889   0.843  1.00  0.00     0.116 C 
BRANCH  38  39
ATOM     39  C   UNL     1     -15.413 -10.630   1.606  1.00  0.00     0.023 C 
BRANCH  39  40
ATOM     40  C   UNL     1     -15.435  -9.391   0.717  1.00  0.00     0.026 C 
BRANCH  40  41
ATOM     41  C   UNL     1     -16.116  -8.224   1.430  1.00  0.00     0.146 C 
BRANCH  41  42
ATOM     42  N   UNL     1     -15.631  -8.133   2.801  1.00  0.00    -0.254 NA
ATOM     43  C   UNL     1     -15.610  -6.997   3.391  1.00  0.00     0.185 C 
ATOM     44  N   UNL     1     -15.982  -5.783   2.946  1.00  0.00    -0.370 N 
ATOM     45  N   UNL     1     -15.154  -6.934   4.653  1.00  0.00    -0.370 N 
ATOM     46  H   UNL     1     -15.685  -4.949   3.422  1.00  0.00     0.159 HD
ATOM     47  H   UNL     1     -16.363  -5.651   2.014  1.00  0.00     0.159 HD
ATOM     48  H   UNL     1     -14.861  -7.808   5.068  1.00  0.00     0.159 HD
ATOM     49  H   UNL     1     -15.324  -6.147   5.254  1.00  0.00     0.159 HD
ENDBRANCH  41  42
ENDBRANCH  40  41
ENDBRANCH  39  40
ENDBRANCH  38  39
ENDBRANCH  36  38
ENDBRANCH   5  34
BRANCH   8  50
ATOM     50  O   UNL     1     -13.537 -11.118   6.093  1.00  0.00    -0.245 OA
BRANCH  50  51
ATOM     51  S   UNL     1     -14.636 -10.051   6.640  1.00  0.00     0.397 S 
ATOM     52  O   UNL     1     -13.987  -8.765   6.762  1.00  0.00    -0.169 OA
ATOM     53  O   UNL     1     -15.377 -10.635   7.738  1.00  0.00    -0.169 OA
BRANCH  51  54
ATOM     54  O   UNL     1     -15.631  -9.922   5.383  1.00  0.00    -0.264 OA
ATOM     55  H   UNL     1     -15.606 -10.769   4.894  1.00  0.00     0.236 HD
ENDBRANCH  51  54
ENDBRANCH  50  51
ENDBRANCH   8  50
TORSDOF 19
ENDMDL
MODEL 42
REMARK VINA RESULT:    -7.137      3.213      6.094
REMARK INTER + INTRA:         -17.464
REMARK INTER:                 -13.620
REMARK INTRA:                  -3.844
REMARK UNBOUND:                -3.026
REMARK SMILES CC[C@@H](C)[C@@H](NC(=O)[C@@H](O)Cc1ccc(O)c(Cl)c1)C(=O)N1[C@H](C(=O)NCCCCN=C(N)N)C[C@H]2CC[C@H](OS(=O)(=O)O)C[C@@H]21
REMARK SMILES IDX 22 1 36 2 46 3 35 4 23 5 45 6 37 7 39 8 38 9 20 10 21 11
REMARK SMILES IDX 5 12 6 13 7 14 8 15 9 17 11 18 12 19 17 20 19 21 15 22 14 23
REMARK SMILES IDX 13 24 18 25 16 26 10 28 3 30 4 31 2 32 1 33 24 34 25 35
REMARK SMILES IDX 26 36 27 38 28 39 29 40 30 41 31 42 32 43 33 44 34 45 40 50
REMARK SMILES IDX 41 51 42 52 43 53 44 54
REMARK H PARENT 6 16 16 27 10 29 26 37 33 46 33 47 34 48 34 49 44 55
ROOT
ATOM      1  N   UNL     1     -12.376 -13.722   6.389  1.00  0.00    -0.326 N 
ATOM      2  C   UNL     1     -10.076 -14.072   6.749  1.00  0.00     0.014 C 
ATOM      3  C   UNL     1     -11.337 -14.737   6.191  1.00  0.00     0.091 C 
ATOM      4  C   UNL     1     -10.617 -13.249   7.909  1.00  0.00     0.041 C 
ATOM      5  C   UNL     1     -11.859 -12.626   7.245  1.00  0.00     0.175 C 
ATOM      6  C   UNL     1     -11.046 -15.206   4.766  1.00  0.00     0.059 C 
ATOM      7  C   UNL     1      -8.991 -15.098   7.008  1.00  0.00     0.008 C 
ATOM      8  C   UNL     1      -9.577 -15.625   4.539  1.00  0.00     0.143 C 
ATOM      9  C   UNL     1      -8.903 -16.103   5.841  1.00  0.00     0.034 C 
ENDROOT
BRANCH   1  10
ATOM     10  C   UNL     1     -13.728 -13.766   6.093  1.00  0.00     0.246 C 
ATOM     11  O   UNL     1     -14.548 -13.668   7.012  1.00  0.00    -0.272 OA
BRANCH  10  12
ATOM     12  C   UNL     1     -14.185 -13.895   4.611  1.00  0.00     0.174 C 
BRANCH  12  13
ATOM     13  N   UNL     1     -15.249 -12.931   4.332  1.00  0.00    -0.342 N 
ATOM     14  C   UNL     1     -15.153 -11.882   3.446  1.00  0.00     0.249 C 
ATOM     15  O   UNL     1     -14.161 -11.653   2.765  1.00  0.00    -0.272 OA
ATOM     16  H   UNL     1     -16.070 -12.899   4.932  1.00  0.00     0.164 HD
BRANCH  14  17
ATOM     17  C   UNL     1     -16.440 -11.032   3.387  1.00  0.00     0.207 C 
BRANCH  17  18
ATOM     18  C   UNL     1     -16.919 -10.686   4.800  1.00  0.00     0.077 C 
BRANCH  18  19
ATOM     19  C   UNL     1     -16.050  -9.630   5.445  1.00  0.00    -0.043 A 
ATOM     20  C   UNL     1     -14.559  -8.935   7.228  1.00  0.00     0.083 A 
ATOM     21  C   UNL     1     -15.321  -9.926   6.608  1.00  0.00     0.028 A 
ATOM     22  C   UNL     1     -14.521  -7.646   6.694  1.00  0.00     0.134 A 
ATOM     23  C   UNL     1     -15.238  -7.340   5.543  1.00  0.00     0.048 A 
ATOM     24  C   UNL     1     -16.003  -8.329   4.921  1.00  0.00     0.008 A 
ATOM     25  Cl  UNL     1     -13.670  -9.318   8.656  1.00  0.00    -0.080 Cl
BRANCH  22  26
ATOM     26  O   UNL     1     -13.796  -6.640   7.273  1.00  0.00    -0.506 OA
ATOM     27  H   UNL     1     -14.437  -6.052   7.714  1.00  0.00     0.293 HD
ENDBRANCH  22  26
ENDBRANCH  18  19
ENDBRANCH  17  18
BRANCH  17  28
ATOM     28  O   UNL     1     -17.485 -11.725   2.686  1.00  0.00    -0.383 OA
ATOM     29  H   UNL     1     -17.125 -11.930   1.793  1.00  0.00     0.211 HD
ENDBRANCH  17  28
ENDBRANCH  14  17
ENDBRANCH  12  13
BRANCH  12  30
ATOM     30  C   UNL     1     -14.585 -15.346   4.230  1.00  0.00     0.018 C 
ATOM     31  C   UNL     1     -15.901 -15.360   3.437  1.00  0.00     0.010 C 
BRANCH  30  32
ATOM     32  C   UNL     1     -14.684 -16.302   5.443  1.00  0.00     0.002 C 
ATOM     33  C   UNL     1     -16.088 -16.796   5.770  1.00  0.00     0.004 C 
ENDBRANCH  30  32
ENDBRANCH  12  30
ENDBRANCH  10  12
ENDBRANCH   1  10
BRANCH   5  34
ATOM     34  C   UNL     1     -11.488 -11.387   6.387  1.00  0.00     0.242 C 
ATOM     35  O   UNL     1     -11.015 -10.363   6.880  1.00  0.00    -0.273 OA
ATOM     36  N   UNL     1     -11.775 -11.496   5.045  1.00  0.00    -0.354 N 
ATOM     37  H   UNL     1     -12.276 -12.322   4.716  1.00  0.00     0.163 HD
BRANCH  36  38
ATOM     38  C   UNL     1     -11.303 -10.533   4.072  1.00  0.00     0.116 C 
BRANCH  38  39
ATOM     39  C   UNL     1     -10.160 -11.135   3.259  1.00  0.00     0.023 C 
BRANCH  39  40
ATOM     40  C   UNL     1     -10.645 -11.794   1.971  1.00  0.00     0.026 C 
BRANCH  40  41
ATOM     41  C   UNL     1     -10.577 -10.813   0.801  1.00  0.00     0.146 C 
BRANCH  41  42
ATOM     42  N   UNL     1     -11.765 -10.953  -0.030  1.00  0.00    -0.254 NA
ATOM     43  C   UNL     1     -12.786 -10.215   0.196  1.00  0.00     0.185 C 
ATOM     44  N   UNL     1     -12.976  -9.262   1.127  1.00  0.00    -0.370 N 
ATOM     45  N   UNL     1     -13.874 -10.363  -0.578  1.00  0.00    -0.370 N 
ATOM     46  H   UNL     1     -13.902  -8.937   1.346  1.00  0.00     0.159 HD
ATOM     47  H   UNL     1     -12.249  -9.011   1.789  1.00  0.00     0.159 HD
ATOM     48  H   UNL     1     -13.811 -11.055  -1.312  1.00  0.00     0.159 HD
ATOM     49  H   UNL     1     -14.607  -9.678  -0.623  1.00  0.00     0.159 HD
ENDBRANCH  41  42
ENDBRANCH  40  41
ENDBRANCH  39  40
ENDBRANCH  38  39
ENDBRANCH  36  38
ENDBRANCH   5  34
BRANCH   8  50
ATOM     50  O   UNL     1      -8.829 -14.527   4.017  1.00  0.00    -0.245 OA
BRANCH  50  51
ATOM     51  S   UNL     1      -8.069 -14.679   2.587  1.00  0.00     0.397 S 
ATOM     52  O   UNL     1      -7.240 -15.862   2.646  1.00  0.00    -0.169 OA
ATOM     53  O   UNL     1      -7.534 -13.396   2.182  1.00  0.00    -0.169 OA
BRANCH  51  54
ATOM     54  O   UNL     1      -9.283 -15.045   1.599  1.00  0.00    -0.264 OA
ATOM     55  H   UNL     1      -9.409 -16.015   1.627  1.00  0.00     0.236 HD
ENDBRANCH  51  54
ENDBRANCH  50  51
ENDBRANCH   8  50
TORSDOF 19
ENDMDL
MODEL 43
REMARK VINA RESULT:    -7.066      3.313      5.811
REMARK INTER + INTRA:         -17.320
REMARK INTER:                 -14.149
REMARK INTRA:                  -3.171
REMARK UNBOUND:                -3.026
REMARK SMILES CC[C@@H](C)[C@@H](NC(=O)[C@@H](O)Cc1ccc(O)c(Cl)c1)C(=O)N1[C@H](C(=O)NCCCCN=C(N)N)C[C@H]2CC[C@H](OS(=O)(=O)O)C[C@@H]21
REMARK SMILES IDX 22 1 36 2 46 3 35 4 23 5 45 6 37 7 39 8 38 9 20 10 21 11
REMARK SMILES IDX 5 12 6 13 7 14 8 15 9 17 11 18 12 19 17 20 19 21 15 22 14 23
REMARK SMILES IDX 13 24 18 25 16 26 10 28 3 30 4 31 2 32 1 33 24 34 25 35
REMARK SMILES IDX 26 36 27 38 28 39 29 40 30 41 31 42 32 43 33 44 34 45 40 50
REMARK SMILES IDX 41 51 42 52 43 53 44 54
REMARK H PARENT 6 16 16 27 10 29 26 37 33 46 33 47 34 48 34 49 44 55
ROOT
ATOM      1  N   UNL     1     -12.695 -13.932   6.256  1.00  0.00    -0.326 N 
ATOM      2  C   UNL     1     -10.446 -14.579   6.507  1.00  0.00     0.014 C 
ATOM      3  C   UNL     1     -11.784 -15.027   5.912  1.00  0.00     0.091 C 
ATOM      4  C   UNL     1     -10.870 -13.843   7.769  1.00  0.00     0.041 C 
ATOM      5  C   UNL     1     -12.041 -13.010   7.217  1.00  0.00     0.175 C 
ATOM      6  C   UNL     1     -11.570 -15.355   4.435  1.00  0.00     0.059 C 
ATOM      7  C   UNL     1      -9.483 -15.746   6.615  1.00  0.00     0.008 C 
ATOM      8  C   UNL     1     -10.163 -15.908   4.119  1.00  0.00     0.143 C 
ATOM      9  C   UNL     1      -9.529 -16.609   5.337  1.00  0.00     0.034 C 
ENDROOT
BRANCH   1  10
ATOM     10  C   UNL     1     -14.047 -13.787   5.996  1.00  0.00     0.246 C 
ATOM     11  O   UNL     1     -14.862 -14.407   6.687  1.00  0.00    -0.272 OA
BRANCH  10  12
ATOM     12  C   UNL     1     -14.512 -12.818   4.871  1.00  0.00     0.174 C 
BRANCH  12  13
ATOM     13  N   UNL     1     -15.083 -11.607   5.460  1.00  0.00    -0.342 N 
ATOM     14  C   UNL     1     -14.653 -10.325   5.202  1.00  0.00     0.249 C 
ATOM     15  O   UNL     1     -13.752 -10.052   4.420  1.00  0.00    -0.272 OA
ATOM     16  H   UNL     1     -15.729 -11.684   6.242  1.00  0.00     0.164 HD
BRANCH  14  17
ATOM     17  C   UNL     1     -15.446  -9.261   5.992  1.00  0.00     0.207 C 
BRANCH  17  18
ATOM     18  C   UNL     1     -14.725  -7.910   5.942  1.00  0.00     0.077 C 
BRANCH  18  19
ATOM     19  C   UNL     1     -15.478  -6.903   5.103  1.00  0.00    -0.043 A 
ATOM     20  C   UNL     1     -16.402  -6.216   2.968  1.00  0.00     0.083 A 
ATOM     21  C   UNL     1     -15.751  -7.169   3.752  1.00  0.00     0.028 A 
ATOM     22  C   UNL     1     -16.783  -4.995   3.525  1.00  0.00     0.134 A 
ATOM     23  C   UNL     1     -16.519  -4.718   4.861  1.00  0.00     0.048 A 
ATOM     24  C   UNL     1     -15.866  -5.669   5.648  1.00  0.00     0.008 A 
ATOM     25  Cl  UNL     1     -16.728  -6.562   1.310  1.00  0.00    -0.080 Cl
BRANCH  22  26
ATOM     26  O   UNL     1     -17.414  -4.026   2.792  1.00  0.00    -0.506 OA
ATOM     27  H   UNL     1     -17.386  -4.315   1.862  1.00  0.00     0.293 HD
ENDBRANCH  22  26
ENDBRANCH  18  19
ENDBRANCH  17  18
BRANCH  17  28
ATOM     28  O   UNL     1     -15.620  -9.658   7.362  1.00  0.00    -0.383 OA
ATOM     29  H   UNL     1     -14.924 -10.330   7.541  1.00  0.00     0.211 HD
ENDBRANCH  17  28
ENDBRANCH  14  17
ENDBRANCH  12  13
BRANCH  12  30
ATOM     30  C   UNL     1     -15.474 -13.493   3.857  1.00  0.00     0.018 C 
ATOM     31  C   UNL     1     -14.697 -14.053   2.655  1.00  0.00     0.010 C 
BRANCH  30  32
ATOM     32  C   UNL     1     -16.614 -12.566   3.368  1.00  0.00     0.002 C 
ATOM     33  C   UNL     1     -17.476 -13.129   2.246  1.00  0.00     0.004 C 
ENDBRANCH  30  32
ENDBRANCH  12  30
ENDBRANCH  10  12
ENDBRANCH   1  10
BRANCH   5  34
ATOM     34  C   UNL     1     -11.542 -11.728   6.498  1.00  0.00     0.242 C 
ATOM     35  O   UNL     1     -11.548 -10.624   7.041  1.00  0.00    -0.273 OA
ATOM     36  N   UNL     1     -11.144 -11.907   5.192  1.00  0.00    -0.354 N 
ATOM     37  H   UNL     1     -11.275 -12.822   4.759  1.00  0.00     0.163 HD
BRANCH  36  38
ATOM     38  C   UNL     1     -10.454 -10.876   4.445  1.00  0.00     0.116 C 
BRANCH  38  39
ATOM     39  C   UNL     1     -10.259 -11.325   2.999  1.00  0.00     0.023 C 
BRANCH  39  40
ATOM     40  C   UNL     1     -11.121 -10.534   2.021  1.00  0.00     0.026 C 
BRANCH  40  41
ATOM     41  C   UNL     1     -12.233 -11.412   1.447  1.00  0.00     0.146 C 
BRANCH  41  42
ATOM     42  N   UNL     1     -12.818 -10.765   0.279  1.00  0.00    -0.254 NA
ATOM     43  C   UNL     1     -13.883 -10.068   0.409  1.00  0.00     0.185 C 
ATOM     44  N   UNL     1     -14.616  -9.802   1.506  1.00  0.00    -0.370 N 
ATOM     45  N   UNL     1     -14.409  -9.484  -0.681  1.00  0.00    -0.370 N 
ATOM     46  H   UNL     1     -15.554  -9.449   1.423  1.00  0.00     0.159 HD
ATOM     47  H   UNL     1     -14.353 -10.155   2.421  1.00  0.00     0.159 HD
ATOM     48  H   UNL     1     -13.912  -9.627  -1.550  1.00  0.00     0.159 HD
ATOM     49  H   UNL     1     -15.086  -8.744  -0.628  1.00  0.00     0.159 HD
ENDBRANCH  41  42
ENDBRANCH  40  41
ENDBRANCH  39  40
ENDBRANCH  38  39
ENDBRANCH  36  38
ENDBRANCH   5  34
BRANCH   8  50
ATOM     50  O   UNL     1      -9.301 -14.848   3.707  1.00  0.00    -0.245 OA
BRANCH  50  51
ATOM     51  S   UNL     1      -8.016 -15.178   2.765  1.00  0.00     0.397 S 
ATOM     52  O   UNL     1      -8.060 -14.291   1.624  1.00  0.00    -0.169 OA
ATOM     53  O   UNL     1      -7.884 -16.611   2.609  1.00  0.00    -0.169 OA
BRANCH  51  54
ATOM     54  O   UNL     1      -6.793 -14.663   3.673  1.00  0.00    -0.264 OA
ATOM     55  H   UNL     1      -6.023 -14.524   3.085  1.00  0.00     0.236 HD
ENDBRANCH  51  54
ENDBRANCH  50  51
ENDBRANCH   8  50
TORSDOF 19
ENDMDL
MODEL 44
REMARK VINA RESULT:    -7.034     21.498     24.569
REMARK INTER + INTRA:         -17.255
REMARK INTER:                 -13.388
REMARK INTRA:                  -3.867
REMARK UNBOUND:                -3.026
REMARK SMILES CC[C@@H](C)[C@@H](NC(=O)[C@@H](O)Cc1ccc(O)c(Cl)c1)C(=O)N1[C@H](C(=O)NCCCCN=C(N)N)C[C@H]2CC[C@H](OS(=O)(=O)O)C[C@@H]21
REMARK SMILES IDX 22 1 36 2 46 3 35 4 23 5 45 6 37 7 39 8 38 9 20 10 21 11
REMARK SMILES IDX 5 12 6 13 7 14 8 15 9 17 11 18 12 19 17 20 19 21 15 22 14 23
REMARK SMILES IDX 13 24 18 25 16 26 10 28 3 30 4 31 2 32 1 33 24 34 25 35
REMARK SMILES IDX 26 36 27 38 28 39 29 40 30 41 31 42 32 43 33 44 34 45 40 50
REMARK SMILES IDX 41 51 42 52 43 53 44 54
REMARK H PARENT 6 16 16 27 10 29 26 37 33 46 33 47 34 48 34 49 44 55
ROOT
ATOM      1  N   UNL     1       7.420   2.040   6.672  1.00  0.00    -0.326 N 
ATOM      2  C   UNL     1       6.712   1.902   8.913  1.00  0.00     0.014 C 
ATOM      3  C   UNL     1       7.238   2.880   7.859  1.00  0.00     0.091 C 
ATOM      4  C   UNL     1       7.442   0.613   8.567  1.00  0.00     0.041 C 
ATOM      5  C   UNL     1       7.276   0.609   7.036  1.00  0.00     0.175 C 
ATOM      6  C   UNL     1       6.272   4.060   7.770  1.00  0.00     0.059 C 
ATOM      7  C   UNL     1       6.848   2.482  10.307  1.00  0.00     0.008 C 
ATOM      8  C   UNL     1       5.578   4.397   9.107  1.00  0.00     0.143 C 
ATOM      9  C   UNL     1       6.422   3.965  10.323  1.00  0.00     0.034 C 
ENDROOT
BRANCH   1  10
ATOM     10  C   UNL     1       7.892   2.371   5.413  1.00  0.00     0.246 C 
ATOM     11  O   UNL     1       8.630   1.578   4.820  1.00  0.00    -0.272 OA
BRANCH  10  12
ATOM     12  C   UNL     1       7.448   3.711   4.756  1.00  0.00     0.174 C 
BRANCH  12  13
ATOM     13  N   UNL     1       6.512   3.445   3.665  1.00  0.00    -0.342 N 
ATOM     14  C   UNL     1       5.158   3.249   3.815  1.00  0.00     0.249 C 
ATOM     15  O   UNL     1       4.576   3.303   4.892  1.00  0.00    -0.272 OA
ATOM     16  H   UNL     1       6.869   3.217   2.740  1.00  0.00     0.164 HD
BRANCH  14  17
ATOM     17  C   UNL     1       4.444   2.973   2.475  1.00  0.00     0.207 C 
BRANCH  17  18
ATOM     18  C   UNL     1       4.123   4.288   1.758  1.00  0.00     0.077 C 
BRANCH  18  19
ATOM     19  C   UNL     1       4.887   4.421   0.459  1.00  0.00    -0.043 A 
ATOM     20  C   UNL     1       6.358   5.688  -0.994  1.00  0.00     0.083 A 
ATOM     21  C   UNL     1       5.694   5.545   0.225  1.00  0.00     0.028 A 
ATOM     22  C   UNL     1       6.220   4.714  -1.984  1.00  0.00     0.134 A 
ATOM     23  C   UNL     1       5.424   3.596  -1.764  1.00  0.00     0.048 A 
ATOM     24  C   UNL     1       4.757   3.450  -0.546  1.00  0.00     0.008 A 
ATOM     25  Cl  UNL     1       7.345   7.076  -1.264  1.00  0.00    -0.080 Cl
BRANCH  22  26
ATOM     26  O   UNL     1       6.843   4.816  -3.198  1.00  0.00    -0.506 OA
ATOM     27  H   UNL     1       6.300   5.415  -3.742  1.00  0.00     0.293 HD
ENDBRANCH  22  26
ENDBRANCH  18  19
ENDBRANCH  17  18
BRANCH  17  28
ATOM     28  O   UNL     1       3.229   2.233   2.679  1.00  0.00    -0.383 OA
ATOM     29  H   UNL     1       2.721   2.308   1.839  1.00  0.00     0.211 HD
ENDBRANCH  17  28
ENDBRANCH  14  17
ENDBRANCH  12  13
BRANCH  12  30
ATOM     30  C   UNL     1       8.650   4.585   4.307  1.00  0.00     0.018 C 
ATOM     31  C   UNL     1       9.041   5.584   5.408  1.00  0.00     0.010 C 
BRANCH  30  32
ATOM     32  C   UNL     1       8.410   5.332   2.972  1.00  0.00     0.002 C 
ATOM     33  C   UNL     1       9.669   5.719   2.208  1.00  0.00     0.004 C 
ENDBRANCH  30  32
ENDBRANCH  12  30
ENDBRANCH  10  12
ENDBRANCH   1  10
BRANCH   5  34
ATOM     34  C   UNL     1       5.883   0.071   6.613  1.00  0.00     0.242 C 
ATOM     35  O   UNL     1       5.721  -1.071   6.184  1.00  0.00    -0.273 OA
ATOM     36  N   UNL     1       4.852   0.980   6.702  1.00  0.00    -0.354 N 
ATOM     37  H   UNL     1       5.069   1.946   6.950  1.00  0.00     0.163 HD
BRANCH  36  38
ATOM     38  C   UNL     1       3.465   0.593   6.556  1.00  0.00     0.116 C 
BRANCH  38  39
ATOM     39  C   UNL     1       2.767   0.641   7.913  1.00  0.00     0.023 C 
BRANCH  39  40
ATOM     40  C   UNL     1       3.203  -0.494   8.833  1.00  0.00     0.026 C 
BRANCH  40  41
ATOM     41  C   UNL     1       3.469   0.025  10.246  1.00  0.00     0.146 C 
BRANCH  41  42
ATOM     42  N   UNL     1       2.307   0.761  10.728  1.00  0.00    -0.254 NA
ATOM     43  C   UNL     1       2.473   1.792  11.468  1.00  0.00     0.185 C 
ATOM     44  N   UNL     1       3.606   2.363  11.915  1.00  0.00    -0.370 N 
ATOM     45  N   UNL     1       1.389   2.454  11.905  1.00  0.00    -0.370 N 
ATOM     46  H   UNL     1       3.584   3.015  12.681  1.00  0.00     0.159 HD
ATOM     47  H   UNL     1       4.521   1.998  11.668  1.00  0.00     0.159 HD
ATOM     48  H   UNL     1       0.493   2.093  11.606  1.00  0.00     0.159 HD
ATOM     49  H   UNL     1       1.434   3.385  12.279  1.00  0.00     0.159 HD
ENDBRANCH  41  42
ENDBRANCH  40  41
ENDBRANCH  39  40
ENDBRANCH  38  39
ENDBRANCH  36  38
ENDBRANCH   5  34
BRANCH   8  50
ATOM     50  O   UNL     1       4.311   3.743   9.180  1.00  0.00    -0.245 OA
BRANCH  50  51
ATOM     51  S   UNL     1       2.986   4.493   8.609  1.00  0.00     0.397 S 
ATOM     52  O   UNL     1       3.133   5.910   8.856  1.00  0.00    -0.169 OA
ATOM     53  O   UNL     1       1.801   3.770   9.021  1.00  0.00    -0.169 OA
BRANCH  51  54
ATOM     54  O   UNL     1       3.152   4.306   7.020  1.00  0.00    -0.264 OA
ATOM     55  H   UNL     1       4.103   4.162   6.835  1.00  0.00     0.236 HD
ENDBRANCH  51  54
ENDBRANCH  50  51
ENDBRANCH   8  50
TORSDOF 19
ENDMDL
MODEL 45
REMARK VINA RESULT:    -7.023      4.150      8.652
REMARK INTER + INTRA:         -17.233
REMARK INTER:                 -14.042
REMARK INTRA:                  -3.190
REMARK UNBOUND:                -3.026
REMARK SMILES CC[C@@H](C)[C@@H](NC(=O)[C@@H](O)Cc1ccc(O)c(Cl)c1)C(=O)N1[C@H](C(=O)NCCCCN=C(N)N)C[C@H]2CC[C@H](OS(=O)(=O)O)C[C@@H]21
REMARK SMILES IDX 22 1 36 2 46 3 35 4 23 5 45 6 37 7 39 8 38 9 20 10 21 11
REMARK SMILES IDX 5 12 6 13 7 14 8 15 9 17 11 18 12 19 17 20 19 21 15 22 14 23
REMARK SMILES IDX 13 24 18 25 16 26 10 28 3 30 4 31 2 32 1 33 24 34 25 35
REMARK SMILES IDX 26 36 27 38 28 39 29 40 30 41 31 42 32 43 33 44 34 45 40 50
REMARK SMILES IDX 41 51 42 52 43 53 44 54
REMARK H PARENT 6 16 16 27 10 29 26 37 33 46 33 47 34 48 34 49 44 55
ROOT
ATOM      1  N   UNL     1     -13.144 -11.958   5.028  1.00  0.00    -0.326 N 
ATOM      2  C   UNL     1     -15.192 -10.885   5.471  1.00  0.00     0.014 C 
ATOM      3  C   UNL     1     -13.922 -10.785   4.621  1.00  0.00     0.091 C 
ATOM      4  C   UNL     1     -14.677 -11.479   6.774  1.00  0.00     0.041 C 
ATOM      5  C   UNL     1     -13.758 -12.585   6.224  1.00  0.00     0.175 C 
ATOM      6  C   UNL     1     -14.331 -10.659   3.155  1.00  0.00     0.059 C 
ATOM      7  C   UNL     1     -15.933  -9.563   5.498  1.00  0.00     0.008 C 
ATOM      8  C   UNL     1     -15.669  -9.919   2.944  1.00  0.00     0.143 C 
ATOM      9  C   UNL     1     -15.972  -8.933   4.090  1.00  0.00     0.034 C 
ENDROOT
BRANCH   1  10
ATOM     10  C   UNL     1     -11.894 -12.382   4.611  1.00  0.00     0.246 C 
ATOM     11  O   UNL     1     -11.591 -13.574   4.733  1.00  0.00    -0.272 OA
BRANCH  10  12
ATOM     12  C   UNL     1     -10.915 -11.362   3.960  1.00  0.00     0.174 C 
BRANCH  12  13
ATOM     13  N   UNL     1     -10.353 -11.924   2.732  1.00  0.00    -0.342 N 
ATOM     14  C   UNL     1     -10.599 -11.453   1.462  1.00  0.00     0.249 C 
ATOM     15  O   UNL     1     -11.303 -10.481   1.220  1.00  0.00    -0.272 OA
ATOM     16  H   UNL     1      -9.879 -12.823   2.761  1.00  0.00     0.164 HD
BRANCH  14  17
ATOM     17  C   UNL     1      -9.872 -12.270   0.373  1.00  0.00     0.207 C 
BRANCH  17  18
ATOM     18  C   UNL     1     -10.879 -13.088  -0.443  1.00  0.00     0.077 C 
BRANCH  18  19
ATOM     19  C   UNL     1     -10.374 -13.366  -1.841  1.00  0.00    -0.043 A 
ATOM     20  C   UNL     1      -9.613 -12.566  -4.001  1.00  0.00     0.083 A 
ATOM     21  C   UNL     1     -10.031 -12.306  -2.695  1.00  0.00     0.028 A 
ATOM     22  C   UNL     1      -9.535 -13.880  -4.461  1.00  0.00     0.134 A 
ATOM     23  C   UNL     1      -9.872 -14.940  -3.626  1.00  0.00     0.048 A 
ATOM     24  C   UNL     1     -10.292 -14.683  -2.319  1.00  0.00     0.008 A 
ATOM     25  Cl  UNL     1      -9.196 -11.250  -5.035  1.00  0.00    -0.080 Cl
BRANCH  22  26
ATOM     26  O   UNL     1      -9.141 -14.183  -5.736  1.00  0.00    -0.506 OA
ATOM     27  H   UNL     1      -8.346 -13.649  -5.918  1.00  0.00     0.293 HD
ENDBRANCH  22  26
ENDBRANCH  18  19
ENDBRANCH  17  18
BRANCH  17  28
ATOM     28  O   UNL     1      -8.898 -13.153   0.952  1.00  0.00    -0.383 OA
ATOM     29  H   UNL     1      -8.319 -12.589   1.512  1.00  0.00     0.211 HD
ENDBRANCH  17  28
ENDBRANCH  14  17
ENDBRANCH  12  13
BRANCH  12  30
ATOM     30  C   UNL     1      -9.819 -10.871   4.943  1.00  0.00     0.018 C 
ATOM     31  C   UNL     1      -8.429 -11.348   4.494  1.00  0.00     0.010 C 
BRANCH  30  32
ATOM     32  C   UNL     1     -10.073 -11.283   6.414  1.00  0.00     0.002 C 
ATOM     33  C   UNL     1     -10.713 -10.212   7.288  1.00  0.00     0.004 C 
ENDBRANCH  30  32
ENDBRANCH  12  30
ENDBRANCH  10  12
ENDBRANCH   1  10
BRANCH   5  34
ATOM     34  C   UNL     1     -14.562 -13.853   5.829  1.00  0.00     0.242 C 
ATOM     35  O   UNL     1     -15.180 -14.524   6.656  1.00  0.00    -0.273 OA
ATOM     36  N   UNL     1     -14.490 -14.201   4.499  1.00  0.00    -0.354 N 
ATOM     37  H   UNL     1     -13.865 -13.675   3.887  1.00  0.00     0.163 HD
BRANCH  36  38
ATOM     38  C   UNL     1     -15.342 -15.218   3.919  1.00  0.00     0.116 C 
BRANCH  38  39
ATOM     39  C   UNL     1     -14.689 -16.590   4.070  1.00  0.00     0.023 C 
BRANCH  39  40
ATOM     40  C   UNL     1     -13.316 -16.658   3.409  1.00  0.00     0.026 C 
BRANCH  40  41
ATOM     41  C   UNL     1     -12.223 -16.889   4.453  1.00  0.00     0.146 C 
BRANCH  41  42
ATOM     42  N   UNL     1     -12.806 -16.876   5.788  1.00  0.00    -0.254 NA
ATOM     43  C   UNL     1     -12.166 -16.332   6.753  1.00  0.00     0.185 C 
ATOM     44  N   UNL     1     -10.966 -15.723   6.762  1.00  0.00    -0.370 N 
ATOM     45  N   UNL     1     -12.719 -16.334   7.978  1.00  0.00    -0.370 N 
ATOM     46  H   UNL     1     -10.479 -15.561   7.627  1.00  0.00     0.159 HD
ATOM     47  H   UNL     1     -10.415 -15.620   5.916  1.00  0.00     0.159 HD
ATOM     48  H   UNL     1     -13.629 -16.767   8.057  1.00  0.00     0.159 HD
ATOM     49  H   UNL     1     -12.403 -15.735   8.719  1.00  0.00     0.159 HD
ENDBRANCH  41  42
ENDBRANCH  40  41
ENDBRANCH  39  40
ENDBRANCH  38  39
ENDBRANCH  36  38
ENDBRANCH   5  34
BRANCH   8  50
ATOM     50  O   UNL     1     -16.741 -10.858   2.858  1.00  0.00    -0.245 OA
BRANCH  50  51
ATOM     51  S   UNL     1     -16.807 -11.889   1.602  1.00  0.00     0.397 S 
ATOM     52  O   UNL     1     -15.836 -12.935   1.832  1.00  0.00    -0.169 OA
ATOM     53  O   UNL     1     -16.840 -11.143   0.362  1.00  0.00    -0.169 OA
BRANCH  51  54
ATOM     54  O   UNL     1     -18.247 -12.575   1.806  1.00  0.00    -0.264 OA
ATOM     55  H   UNL     1     -18.377 -13.218   1.079  1.00  0.00     0.236 HD
ENDBRANCH  51  54
ENDBRANCH  50  51
ENDBRANCH   8  50
TORSDOF 19
ENDMDL
MODEL 46
REMARK VINA RESULT:    -6.976      3.141      6.774
REMARK INTER + INTRA:         -17.138
REMARK INTER:                 -14.327
REMARK INTRA:                  -2.811
REMARK UNBOUND:                -3.026
REMARK SMILES CC[C@@H](C)[C@@H](NC(=O)[C@@H](O)Cc1ccc(O)c(Cl)c1)C(=O)N1[C@H](C(=O)NCCCCN=C(N)N)C[C@H]2CC[C@H](OS(=O)(=O)O)C[C@@H]21
REMARK SMILES IDX 22 1 36 2 46 3 35 4 23 5 45 6 37 7 39 8 38 9 20 10 21 11
REMARK SMILES IDX 5 12 6 13 7 14 8 15 9 17 11 18 12 19 17 20 19 21 15 22 14 23
REMARK SMILES IDX 13 24 18 25 16 26 10 28 3 30 4 31 2 32 1 33 24 34 25 35
REMARK SMILES IDX 26 36 27 38 28 39 29 40 30 41 31 42 32 43 33 44 34 45 40 50
REMARK SMILES IDX 41 51 42 52 43 53 44 54
REMARK H PARENT 6 16 16 27 10 29 26 37 33 46 33 47 34 48 34 49 44 55
ROOT
ATOM      1  N   UNL     1     -13.228 -10.600   4.664  1.00  0.00    -0.326 N 
ATOM      2  C   UNL     1     -14.512 -11.176   6.551  1.00  0.00     0.014 C 
ATOM      3  C   UNL     1     -13.103 -10.766   6.115  1.00  0.00     0.091 C 
ATOM      4  C   UNL     1     -14.996 -12.013   5.376  1.00  0.00     0.041 C 
ATOM      5  C   UNL     1     -14.537 -11.127   4.204  1.00  0.00     0.175 C 
ATOM      6  C   UNL     1     -12.672  -9.559   6.946  1.00  0.00     0.059 C 
ATOM      7  C   UNL     1     -14.494 -11.784   7.939  1.00  0.00     0.008 C 
ATOM      8  C   UNL     1     -13.259  -9.547   8.375  1.00  0.00     0.143 C 
ATOM      9  C   UNL     1     -13.583 -10.968   8.880  1.00  0.00     0.034 C 
ENDROOT
BRANCH   1  10
ATOM     10  C   UNL     1     -12.272 -10.254   3.724  1.00  0.00     0.246 C 
ATOM     11  O   UNL     1     -12.480  -9.288   2.983  1.00  0.00    -0.272 OA
BRANCH  10  12
ATOM     12  C   UNL     1     -10.943 -11.060   3.650  1.00  0.00     0.174 C 
BRANCH  12  13
ATOM     13  N   UNL     1     -10.983 -11.986   2.519  1.00  0.00    -0.342 N 
ATOM     14  C   UNL     1     -10.376 -11.774   1.301  1.00  0.00     0.249 C 
ATOM     15  O   UNL     1      -9.702 -10.786   1.038  1.00  0.00    -0.272 OA
ATOM     16  H   UNL     1     -11.630 -12.771   2.533  1.00  0.00     0.164 HD
BRANCH  14  17
ATOM     17  C   UNL     1     -10.617 -12.929   0.306  1.00  0.00     0.207 C 
BRANCH  17  18
ATOM     18  C   UNL     1     -11.498 -12.460  -0.856  1.00  0.00     0.077 C 
BRANCH  18  19
ATOM     19  C   UNL     1     -12.783 -11.830  -0.368  1.00  0.00    -0.043 A 
ATOM     20  C   UNL     1     -15.006 -12.049   0.578  1.00  0.00     0.083 A 
ATOM     21  C   UNL     1     -13.802 -12.628   0.174  1.00  0.00     0.028 A 
ATOM     22  C   UNL     1     -15.199 -10.674   0.442  1.00  0.00     0.134 A 
ATOM     23  C   UNL     1     -14.198  -9.872  -0.093  1.00  0.00     0.048 A 
ATOM     24  C   UNL     1     -12.993 -10.448  -0.499  1.00  0.00     0.008 A 
ATOM     25  Cl  UNL     1     -16.246 -13.047   1.241  1.00  0.00    -0.080 Cl
BRANCH  22  26
ATOM     26  O   UNL     1     -16.366 -10.063   0.814  1.00  0.00    -0.506 OA
ATOM     27  H   UNL     1     -16.165  -9.114   0.917  1.00  0.00     0.293 HD
ENDBRANCH  22  26
ENDBRANCH  18  19
ENDBRANCH  17  18
BRANCH  17  28
ATOM     28  O   UNL     1     -11.240 -14.050   0.955  1.00  0.00    -0.383 OA
ATOM     29  H   UNL     1     -10.915 -14.851   0.486  1.00  0.00     0.211 HD
ENDBRANCH  17  28
ENDBRANCH  14  17
ENDBRANCH  12  13
BRANCH  12  30
ATOM     30  C   UNL     1     -10.597 -11.771   4.986  1.00  0.00     0.018 C 
ATOM     31  C   UNL     1      -9.228 -11.310   5.512  1.00  0.00     0.010 C 
BRANCH  30  32
ATOM     32  C   UNL     1     -10.640 -13.316   4.897  1.00  0.00     0.002 C 
ATOM     33  C   UNL     1     -11.662 -13.992   5.801  1.00  0.00     0.004 C 
ENDBRANCH  30  32
ENDBRANCH  12  30
ENDBRANCH  10  12
ENDBRANCH   1  10
BRANCH   5  34
ATOM     34  C   UNL     1     -15.534  -9.967   3.938  1.00  0.00     0.242 C 
ATOM     35  O   UNL     1     -16.699 -10.166   3.596  1.00  0.00    -0.273 OA
ATOM     36  N   UNL     1     -15.006  -8.701   4.062  1.00  0.00    -0.354 N 
ATOM     37  H   UNL     1     -14.004  -8.601   4.230  1.00  0.00     0.163 HD
BRANCH  36  38
ATOM     38  C   UNL     1     -15.835  -7.514   4.062  1.00  0.00     0.116 C 
BRANCH  38  39
ATOM     39  C   UNL     1     -15.943  -6.956   2.645  1.00  0.00     0.023 C 
BRANCH  39  40
ATOM     40  C   UNL     1     -16.695  -5.630   2.596  1.00  0.00     0.026 C 
BRANCH  40  41
ATOM     41  C   UNL     1     -16.703  -5.064   1.177  1.00  0.00     0.146 C 
BRANCH  41  42
ATOM     42  N   UNL     1     -16.489  -3.623   1.220  1.00  0.00    -0.254 NA
ATOM     43  C   UNL     1     -17.491  -2.831   1.128  1.00  0.00     0.185 C 
ATOM     44  N   UNL     1     -18.801  -3.105   0.990  1.00  0.00    -0.370 N 
ATOM     45  N   UNL     1     -17.272  -1.506   1.166  1.00  0.00    -0.370 N 
ATOM     46  H   UNL     1     -19.444  -2.394   0.686  1.00  0.00     0.159 HD
ATOM     47  H   UNL     1     -19.145  -4.060   0.957  1.00  0.00     0.159 HD
ATOM     48  H   UNL     1     -16.310  -1.214   1.278  1.00  0.00     0.159 HD
ATOM     49  H   UNL     1     -18.002  -0.839   1.338  1.00  0.00     0.159 HD
ENDBRANCH  41  42
ENDBRANCH  40  41
ENDBRANCH  39  40
ENDBRANCH  38  39
ENDBRANCH  36  38
ENDBRANCH   5  34
BRANCH   8  50
ATOM     50  O   UNL     1     -14.457  -8.771   8.406  1.00  0.00    -0.245 OA
BRANCH  50  51
ATOM     51  S   UNL     1     -14.427  -7.272   9.037  1.00  0.00     0.397 S 
ATOM     52  O   UNL     1     -13.051  -6.829   9.069  1.00  0.00    -0.169 OA
ATOM     53  O   UNL     1     -15.268  -7.223  10.214  1.00  0.00    -0.169 OA
BRANCH  51  54
ATOM     54  O   UNL     1     -15.138  -6.408   7.882  1.00  0.00    -0.264 OA
ATOM     55  H   UNL     1     -14.521  -5.694   7.620  1.00  0.00     0.236 HD
ENDBRANCH  51  54
ENDBRANCH  50  51
ENDBRANCH   8  50
TORSDOF 19
ENDMDL
MODEL 47
REMARK VINA RESULT:    -6.919      2.645      4.510
REMARK INTER + INTRA:         -17.022
REMARK INTER:                 -14.653
REMARK INTRA:                  -2.369
REMARK UNBOUND:                -3.026
REMARK SMILES CC[C@@H](C)[C@@H](NC(=O)[C@@H](O)Cc1ccc(O)c(Cl)c1)C(=O)N1[C@H](C(=O)NCCCCN=C(N)N)C[C@H]2CC[C@H](OS(=O)(=O)O)C[C@@H]21
REMARK SMILES IDX 22 1 36 2 46 3 35 4 23 5 45 6 37 7 39 8 38 9 20 10 21 11
REMARK SMILES IDX 5 12 6 13 7 14 8 15 9 17 11 18 12 19 17 20 19 21 15 22 14 23
REMARK SMILES IDX 13 24 18 25 16 26 10 28 3 30 4 31 2 32 1 33 24 34 25 35
REMARK SMILES IDX 26 36 27 38 28 39 29 40 30 41 31 42 32 43 33 44 34 45 40 50
REMARK SMILES IDX 41 51 42 52 43 53 44 54
REMARK H PARENT 6 16 16 27 10 29 26 37 33 46 33 47 34 48 34 49 44 55
ROOT
ATOM      1  N   UNL     1     -11.343 -12.514   2.573  1.00  0.00    -0.326 N 
ATOM      2  C   UNL     1      -9.355 -11.422   1.943  1.00  0.00     0.014 C 
ATOM      3  C   UNL     1      -9.959 -12.807   2.190  1.00  0.00     0.091 C 
ATOM      4  C   UNL     1     -10.061 -10.560   2.978  1.00  0.00     0.041 C 
ATOM      5  C   UNL     1     -11.508 -11.058   2.807  1.00  0.00     0.175 C 
ATOM      6  C   UNL     1      -9.717 -13.667   0.950  1.00  0.00     0.059 C 
ATOM      7  C   UNL     1      -7.840 -11.484   1.935  1.00  0.00     0.008 C 
ATOM      8  C   UNL     1      -8.410 -13.327   0.203  1.00  0.00     0.143 C 
ATOM      9  C   UNL     1      -7.350 -12.712   1.140  1.00  0.00     0.034 C 
ENDROOT
BRANCH   1  10
ATOM     10  C   UNL     1     -12.365 -13.375   2.933  1.00  0.00     0.246 C 
ATOM     11  O   UNL     1     -13.246 -13.642   2.108  1.00  0.00    -0.272 OA
BRANCH  10  12
ATOM     12  C   UNL     1     -12.362 -14.021   4.349  1.00  0.00     0.174 C 
BRANCH  12  13
ATOM     13  N   UNL     1     -12.337 -12.978   5.373  1.00  0.00    -0.342 N 
ATOM     14  C   UNL     1     -13.419 -12.215   5.751  1.00  0.00     0.249 C 
ATOM     15  O   UNL     1     -14.543 -12.348   5.284  1.00  0.00    -0.272 OA
ATOM     16  H   UNL     1     -11.445 -12.649   5.735  1.00  0.00     0.164 HD
BRANCH  14  17
ATOM     17  C   UNL     1     -13.068 -11.185   6.846  1.00  0.00     0.207 C 
BRANCH  17  18
ATOM     18  C   UNL     1     -14.336 -10.720   7.569  1.00  0.00     0.077 C 
BRANCH  18  19
ATOM     19  C   UNL     1     -14.344  -9.223   7.784  1.00  0.00    -0.043 A 
ATOM     20  C   UNL     1     -14.828  -6.986   6.979  1.00  0.00     0.083 A 
ATOM     21  C   UNL     1     -14.867  -8.369   6.800  1.00  0.00     0.028 A 
ATOM     22  C   UNL     1     -14.267  -6.448   8.138  1.00  0.00     0.134 A 
ATOM     23  C   UNL     1     -13.746  -7.282   9.121  1.00  0.00     0.048 A 
ATOM     24  C   UNL     1     -13.782  -8.667   8.943  1.00  0.00     0.008 A 
ATOM     25  Cl  UNL     1     -15.474  -5.954   5.759  1.00  0.00    -0.080 Cl
BRANCH  22  26
ATOM     26  O   UNL     1     -14.196  -5.098   8.354  1.00  0.00    -0.506 OA
ATOM     27  H   UNL     1     -13.264  -4.895   8.555  1.00  0.00     0.293 HD
ENDBRANCH  22  26
ENDBRANCH  18  19
ENDBRANCH  17  18
BRANCH  17  28
ATOM     28  O   UNL     1     -12.394 -10.046   6.287  1.00  0.00    -0.383 OA
ATOM     29  H   UNL     1     -12.710  -9.971   5.358  1.00  0.00     0.211 HD
ENDBRANCH  17  28
ENDBRANCH  14  17
ENDBRANCH  12  13
BRANCH  12  30
ATOM     30  C   UNL     1     -11.221 -15.059   4.532  1.00  0.00     0.018 C 
ATOM     31  C   UNL     1     -11.310 -16.162   3.466  1.00  0.00     0.010 C 
BRANCH  30  32
ATOM     32  C   UNL     1     -11.174 -15.687   5.946  1.00  0.00     0.002 C 
ATOM     33  C   UNL     1      -9.789 -15.782   6.571  1.00  0.00     0.004 C 
ENDBRANCH  30  32
ENDBRANCH  12  30
ENDBRANCH  10  12
ENDBRANCH   1  10
BRANCH   5  34
ATOM     34  C   UNL     1     -12.207 -10.383   1.597  1.00  0.00     0.242 C 
ATOM     35  O   UNL     1     -11.596  -9.677   0.795  1.00  0.00    -0.273 OA
ATOM     36  N   UNL     1     -13.566 -10.585   1.518  1.00  0.00    -0.354 N 
ATOM     37  H   UNL     1     -14.035 -11.079   2.279  1.00  0.00     0.163 HD
BRANCH  36  38
ATOM     38  C   UNL     1     -14.337 -10.214   0.350  1.00  0.00     0.116 C 
BRANCH  38  39
ATOM     39  C   UNL     1     -15.071  -8.900   0.609  1.00  0.00     0.023 C 
BRANCH  39  40
ATOM     40  C   UNL     1     -15.976  -8.971   1.834  1.00  0.00     0.026 C 
BRANCH  40  41
ATOM     41  C   UNL     1     -16.029  -7.620   2.548  1.00  0.00     0.146 C 
BRANCH  41  42
ATOM     42  N   UNL     1     -15.916  -6.543   1.573  1.00  0.00    -0.254 NA
ATOM     43  C   UNL     1     -16.474  -5.415   1.808  1.00  0.00     0.185 C 
ATOM     44  N   UNL     1     -17.198  -5.012   2.868  1.00  0.00    -0.370 N 
ATOM     45  N   UNL     1     -16.361  -4.437   0.894  1.00  0.00    -0.370 N 
ATOM     46  H   UNL     1     -17.776  -4.192   2.811  1.00  0.00     0.159 HD
ATOM     47  H   UNL     1     -17.370  -5.624   3.660  1.00  0.00     0.159 HD
ATOM     48  H   UNL     1     -15.823  -4.656   0.067  1.00  0.00     0.159 HD
ATOM     49  H   UNL     1     -16.558  -3.474   1.102  1.00  0.00     0.159 HD
ENDBRANCH  41  42
ENDBRANCH  40  41
ENDBRANCH  39  40
ENDBRANCH  38  39
ENDBRANCH  36  38
ENDBRANCH   5  34
BRANCH   8  50
ATOM     50  O   UNL     1      -8.675 -12.401  -0.851  1.00  0.00    -0.245 OA
BRANCH  50  51
ATOM     51  S   UNL     1      -9.168 -12.953  -2.300  1.00  0.00     0.397 S 
ATOM     52  O   UNL     1     -10.583 -12.682  -2.422  1.00  0.00    -0.169 OA
ATOM     53  O   UNL     1      -8.626 -14.276  -2.526  1.00  0.00    -0.169 OA
BRANCH  51  54
ATOM     54  O   UNL     1      -8.438 -11.938  -3.312  1.00  0.00    -0.264 OA
ATOM     55  H   UNL     1      -8.840 -11.054  -3.188  1.00  0.00     0.236 HD
ENDBRANCH  51  54
ENDBRANCH  50  51
ENDBRANCH   8  50
TORSDOF 19
ENDMDL
MODEL 48
REMARK VINA RESULT:    -6.907      9.995     13.845
REMARK INTER + INTRA:         -17.000
REMARK INTER:                 -13.419
REMARK INTRA:                  -3.580
REMARK UNBOUND:                -3.026
REMARK SMILES CC[C@@H](C)[C@@H](NC(=O)[C@@H](O)Cc1ccc(O)c(Cl)c1)C(=O)N1[C@H](C(=O)NCCCCN=C(N)N)C[C@H]2CC[C@H](OS(=O)(=O)O)C[C@@H]21
REMARK SMILES IDX 22 1 36 2 46 3 35 4 23 5 45 6 37 7 39 8 38 9 20 10 21 11
REMARK SMILES IDX 5 12 6 13 7 14 8 15 9 17 11 18 12 19 17 20 19 21 15 22 14 23
REMARK SMILES IDX 13 24 18 25 16 26 10 28 3 30 4 31 2 32 1 33 24 34 25 35
REMARK SMILES IDX 26 36 27 38 28 39 29 40 30 41 31 42 32 43 33 44 34 45 40 50
REMARK SMILES IDX 41 51 42 52 43 53 44 54
REMARK H PARENT 6 16 16 27 10 29 26 37 33 46 33 47 34 48 34 49 44 55
ROOT
ATOM      1  N   UNL     1      -3.668  -9.398  12.767  1.00  0.00    -0.326 N 
ATOM      2  C   UNL     1      -3.986  -8.173  10.782  1.00  0.00     0.014 C 
ATOM      3  C   UNL     1      -2.941  -8.520  11.846  1.00  0.00     0.091 C 
ATOM      4  C   UNL     1      -5.276  -8.115  11.586  1.00  0.00     0.041 C 
ATOM      5  C   UNL     1      -5.117  -9.381  12.448  1.00  0.00     0.175 C 
ATOM      6  C   UNL     1      -1.702  -9.072  11.145  1.00  0.00     0.059 C 
ATOM      7  C   UNL     1      -3.558  -6.964   9.975  1.00  0.00     0.008 C 
ATOM      8  C   UNL     1      -1.459  -8.468   9.745  1.00  0.00     0.143 C 
ATOM      9  C   UNL     1      -2.060  -7.054   9.612  1.00  0.00     0.034 C 
ENDROOT
BRANCH   1  10
ATOM     10  C   UNL     1      -3.242 -10.009  13.934  1.00  0.00     0.246 C 
ATOM     11  O   UNL     1      -2.593 -11.058  13.861  1.00  0.00    -0.272 OA
BRANCH  10  12
ATOM     12  C   UNL     1      -3.550  -9.343  15.306  1.00  0.00     0.174 C 
BRANCH  12  13
ATOM     13  N   UNL     1      -3.674  -7.895  15.140  1.00  0.00    -0.342 N 
ATOM     14  C   UNL     1      -4.833  -7.175  15.324  1.00  0.00     0.249 C 
ATOM     15  O   UNL     1      -5.895  -7.671  15.679  1.00  0.00    -0.272 OA
ATOM     16  H   UNL     1      -2.921  -7.372  14.700  1.00  0.00     0.164 HD
BRANCH  14  17
ATOM     17  C   UNL     1      -4.645  -5.666  15.056  1.00  0.00     0.207 C 
BRANCH  17  18
ATOM     18  C   UNL     1      -3.195  -5.251  15.323  1.00  0.00     0.077 C 
BRANCH  18  19
ATOM     19  C   UNL     1      -2.463  -4.909  14.045  1.00  0.00    -0.043 A 
ATOM     20  C   UNL     1      -0.678  -5.348  12.462  1.00  0.00     0.083 A 
ATOM     21  C   UNL     1      -1.382  -5.695  13.616  1.00  0.00     0.028 A 
ATOM     22  C   UNL     1      -1.048  -4.217  11.732  1.00  0.00     0.134 A 
ATOM     23  C   UNL     1      -2.117  -3.431  12.145  1.00  0.00     0.048 A 
ATOM     24  C   UNL     1      -2.822  -3.774  13.301  1.00  0.00     0.008 A 
ATOM     25  Cl  UNL     1       0.648  -6.325  11.951  1.00  0.00    -0.080 Cl
BRANCH  22  26
ATOM     26  O   UNL     1      -0.381  -3.832  10.601  1.00  0.00    -0.506 OA
ATOM     27  H   UNL     1       0.564  -3.778  10.836  1.00  0.00     0.293 HD
ENDBRANCH  22  26
ENDBRANCH  18  19
ENDBRANCH  17  18
BRANCH  17  28
ATOM     28  O   UNL     1      -5.525  -4.881  15.878  1.00  0.00    -0.383 OA
ATOM     29  H   UNL     1      -6.248  -4.575  15.285  1.00  0.00     0.211 HD
ENDBRANCH  17  28
ENDBRANCH  14  17
ENDBRANCH  12  13
BRANCH  12  30
ATOM     30  C   UNL     1      -2.523  -9.728  16.404  1.00  0.00     0.018 C 
ATOM     31  C   UNL     1      -3.145  -9.598  17.804  1.00  0.00     0.010 C 
BRANCH  30  32
ATOM     32  C   UNL     1      -1.203  -8.922  16.332  1.00  0.00     0.002 C 
ATOM     33  C   UNL     1      -1.004  -7.898  17.442  1.00  0.00     0.004 C 
ENDBRANCH  30  32
ENDBRANCH  12  30
ENDBRANCH  10  12
ENDBRANCH   1  10
BRANCH   5  34
ATOM     34  C   UNL     1      -5.524 -10.659  11.668  1.00  0.00     0.242 C 
ATOM     35  O   UNL     1      -4.693 -11.427  11.184  1.00  0.00    -0.273 OA
ATOM     36  N   UNL     1      -6.880 -10.843  11.511  1.00  0.00    -0.354 N 
ATOM     37  H   UNL     1      -7.515 -10.111  11.830  1.00  0.00     0.163 HD
BRANCH  36  38
ATOM     38  C   UNL     1      -7.439 -12.079  11.004  1.00  0.00     0.116 C 
BRANCH  38  39
ATOM     39  C   UNL     1      -7.410 -12.073   9.477  1.00  0.00     0.023 C 
BRANCH  39  40
ATOM     40  C   UNL     1      -8.425 -11.105   8.879  1.00  0.00     0.026 C 
BRANCH  40  41
ATOM     41  C   UNL     1      -9.205 -11.770   7.744  1.00  0.00     0.146 C 
BRANCH  41  42
ATOM     42  N   UNL     1      -9.679 -13.079   8.173  1.00  0.00    -0.254 NA
ATOM     43  C   UNL     1     -10.852 -13.467   7.840  1.00  0.00     0.185 C 
ATOM     44  N   UNL     1     -11.796 -12.844   7.112  1.00  0.00    -0.370 N 
ATOM     45  N   UNL     1     -11.272 -14.676   8.250  1.00  0.00    -0.370 N 
ATOM     46  H   UNL     1     -12.751 -13.158   7.134  1.00  0.00     0.159 HD
ATOM     47  H   UNL     1     -11.639 -11.924   6.711  1.00  0.00     0.159 HD
ATOM     48  H   UNL     1     -10.617 -15.216   8.798  1.00  0.00     0.159 HD
ATOM     49  H   UNL     1     -12.062 -15.144   7.843  1.00  0.00     0.159 HD
ENDBRANCH  41  42
ENDBRANCH  40  41
ENDBRANCH  39  40
ENDBRANCH  38  39
ENDBRANCH  36  38
ENDBRANCH   5  34
BRANCH   8  50
ATOM     50  O   UNL     1      -2.039  -9.303   8.743  1.00  0.00    -0.245 OA
BRANCH  50  51
ATOM     51  S   UNL     1      -1.373 -10.753   8.422  1.00  0.00     0.397 S 
ATOM     52  O   UNL     1      -2.092 -11.751   9.181  1.00  0.00    -0.169 OA
ATOM     53  O   UNL     1       0.070 -10.648   8.480  1.00  0.00    -0.169 OA
BRANCH  51  54
ATOM     54  O   UNL     1      -1.793 -10.983   6.887  1.00  0.00    -0.264 OA
ATOM     55  H   UNL     1      -2.012 -11.930   6.776  1.00  0.00     0.236 HD
ENDBRANCH  51  54
ENDBRANCH  50  51
ENDBRANCH   8  50
TORSDOF 19
ENDMDL
MODEL 49
REMARK VINA RESULT:    -6.862      3.776      6.501
REMARK INTER + INTRA:         -16.907
REMARK INTER:                 -11.856
REMARK INTRA:                  -5.051
REMARK UNBOUND:                -3.026
REMARK SMILES CC[C@@H](C)[C@@H](NC(=O)[C@@H](O)Cc1ccc(O)c(Cl)c1)C(=O)N1[C@H](C(=O)NCCCCN=C(N)N)C[C@H]2CC[C@H](OS(=O)(=O)O)C[C@@H]21
REMARK SMILES IDX 22 1 36 2 46 3 35 4 23 5 45 6 37 7 39 8 38 9 20 10 21 11
REMARK SMILES IDX 5 12 6 13 7 14 8 15 9 17 11 18 12 19 17 20 19 21 15 22 14 23
REMARK SMILES IDX 13 24 18 25 16 26 10 28 3 30 4 31 2 32 1 33 24 34 25 35
REMARK SMILES IDX 26 36 27 38 28 39 29 40 30 41 31 42 32 43 33 44 34 45 40 50
REMARK SMILES IDX 41 51 42 52 43 53 44 54
REMARK H PARENT 6 16 16 27 10 29 26 37 33 46 33 47 34 48 34 49 44 55
ROOT
ATOM      1  N   UNL     1     -11.035 -12.943   5.360  1.00  0.00    -0.326 N 
ATOM      2  C   UNL     1     -10.228 -15.124   5.723  1.00  0.00     0.014 C 
ATOM      3  C   UNL     1     -10.976 -13.973   6.401  1.00  0.00     0.091 C 
ATOM      4  C   UNL     1      -9.240 -14.398   4.823  1.00  0.00     0.041 C 
ATOM      5  C   UNL     1     -10.161 -13.320   4.222  1.00  0.00     0.175 C 
ATOM      6  C   UNL     1     -12.291 -14.514   6.960  1.00  0.00     0.059 C 
ATOM      7  C   UNL     1      -9.711 -16.114   6.748  1.00  0.00     0.008 C 
ATOM      8  C   UNL     1     -12.213 -15.987   7.415  1.00  0.00     0.143 C 
ATOM      9  C   UNL     1     -10.782 -16.392   7.824  1.00  0.00     0.034 C 
ENDROOT
BRANCH   1  10
ATOM     10  C   UNL     1     -11.577 -11.669   5.401  1.00  0.00     0.246 C 
ATOM     11  O   UNL     1     -10.836 -10.695   5.236  1.00  0.00    -0.272 OA
BRANCH  10  12
ATOM     12  C   UNL     1     -13.110 -11.495   5.609  1.00  0.00     0.174 C 
BRANCH  12  13
ATOM     13  N   UNL     1     -13.841 -12.271   4.608  1.00  0.00    -0.342 N 
ATOM     14  C   UNL     1     -14.999 -12.976   4.846  1.00  0.00     0.249 C 
ATOM     15  O   UNL     1     -15.567 -13.009   5.930  1.00  0.00    -0.272 OA
ATOM     16  H   UNL     1     -13.410 -12.464   3.707  1.00  0.00     0.164 HD
BRANCH  14  17
ATOM     17  C   UNL     1     -15.520 -13.706   3.590  1.00  0.00     0.207 C 
BRANCH  17  18
ATOM     18  C   UNL     1     -16.569 -12.853   2.869  1.00  0.00     0.077 C 
BRANCH  18  19
ATOM     19  C   UNL     1     -15.930 -11.832   1.954  1.00  0.00    -0.043 A 
ATOM     20  C   UNL     1     -15.859  -9.591   1.028  1.00  0.00     0.083 A 
ATOM     21  C   UNL     1     -16.418 -10.517   1.909  1.00  0.00     0.028 A 
ATOM     22  C   UNL     1     -14.812  -9.972   0.187  1.00  0.00     0.134 A 
ATOM     23  C   UNL     1     -14.319 -11.271   0.221  1.00  0.00     0.048 A 
ATOM     24  C   UNL     1     -14.878 -12.200   1.101  1.00  0.00     0.008 A 
ATOM     25  Cl  UNL     1     -16.473  -7.980   0.987  1.00  0.00    -0.080 Cl
BRANCH  22  26
ATOM     26  O   UNL     1     -14.239  -9.103  -0.701  1.00  0.00    -0.506 OA
ATOM     27  H   UNL     1     -14.754  -8.276  -0.655  1.00  0.00     0.293 HD
ENDBRANCH  22  26
ENDBRANCH  18  19
ENDBRANCH  17  18
BRANCH  17  28
ATOM     28  O   UNL     1     -16.094 -14.978   3.932  1.00  0.00    -0.383 OA
ATOM     29  H   UNL     1     -16.291 -15.426   3.078  1.00  0.00     0.211 HD
ENDBRANCH  17  28
ENDBRANCH  14  17
ENDBRANCH  12  13
BRANCH  12  30
ATOM     30  C   UNL     1     -13.545 -10.005   5.639  1.00  0.00     0.018 C 
ATOM     31  C   UNL     1     -14.615  -9.770   6.717  1.00  0.00     0.010 C 
BRANCH  30  32
ATOM     32  C   UNL     1     -14.043  -9.476   4.272  1.00  0.00     0.002 C 
ATOM     33  C   UNL     1     -14.602  -8.059   4.286  1.00  0.00     0.004 C 
ENDBRANCH  30  32
ENDBRANCH  12  30
ENDBRANCH  10  12
ENDBRANCH   1  10
BRANCH   5  34
ATOM     34  C   UNL     1     -11.002 -13.878   3.043  1.00  0.00     0.242 C 
ATOM     35  O   UNL     1     -12.184 -14.196   3.171  1.00  0.00    -0.273 OA
ATOM     36  N   UNL     1     -10.316 -14.043   1.861  1.00  0.00    -0.354 N 
ATOM     37  H   UNL     1      -9.309 -13.876   1.849  1.00  0.00     0.163 HD
BRANCH  36  38
ATOM     38  C   UNL     1     -10.987 -14.345   0.613  1.00  0.00     0.116 C 
BRANCH  38  39
ATOM     39  C   UNL     1     -10.946 -13.127  -0.306  1.00  0.00     0.023 C 
BRANCH  39  40
ATOM     40  C   UNL     1      -9.535 -12.573  -0.477  1.00  0.00     0.026 C 
BRANCH  40  41
ATOM     41  C   UNL     1      -9.495 -11.080  -0.151  1.00  0.00     0.146 C 
BRANCH  41  42
ATOM     42  N   UNL     1      -9.553 -10.889   1.292  1.00  0.00    -0.254 NA
ATOM     43  C   UNL     1      -8.471 -10.694   1.948  1.00  0.00     0.185 C 
ATOM     44  N   UNL     1      -7.198 -10.627   1.518  1.00  0.00    -0.370 N 
ATOM     45  N   UNL     1      -8.544 -10.525   3.279  1.00  0.00    -0.370 N 
ATOM     46  H   UNL     1      -6.432 -10.714   2.165  1.00  0.00     0.159 HD
ATOM     47  H   UNL     1      -6.962 -10.721   0.535  1.00  0.00     0.159 HD
ATOM     48  H   UNL     1      -9.470 -10.552   3.684  1.00  0.00     0.159 HD
ATOM     49  H   UNL     1      -7.792 -10.138   3.820  1.00  0.00     0.159 HD
ENDBRANCH  41  42
ENDBRANCH  40  41
ENDBRANCH  39  40
ENDBRANCH  38  39
ENDBRANCH  36  38
ENDBRANCH   5  34
BRANCH   8  50
ATOM     50  O   UNL     1     -12.645 -16.849   6.362  1.00  0.00    -0.245 OA
BRANCH  50  51
ATOM     51  S   UNL     1     -14.130 -17.511   6.425  1.00  0.00     0.397 S 
ATOM     52  O   UNL     1     -14.111 -18.724   5.640  1.00  0.00    -0.169 OA
ATOM     53  O   UNL     1     -15.129 -16.484   6.213  1.00  0.00    -0.169 OA
BRANCH  51  54
ATOM     54  O   UNL     1     -14.222 -17.983   7.959  1.00  0.00    -0.264 OA
ATOM     55  H   UNL     1     -13.977 -17.220   8.522  1.00  0.00     0.236 HD
ENDBRANCH  51  54
ENDBRANCH  50  51
ENDBRANCH   8  50
TORSDOF 19
ENDMDL
MODEL 50
REMARK VINA RESULT:    -6.858      3.035      5.075
REMARK INTER + INTRA:         -16.900
REMARK INTER:                 -13.954
REMARK INTRA:                  -2.946
REMARK UNBOUND:                -3.026
REMARK SMILES CC[C@@H](C)[C@@H](NC(=O)[C@@H](O)Cc1ccc(O)c(Cl)c1)C(=O)N1[C@H](C(=O)NCCCCN=C(N)N)C[C@H]2CC[C@H](OS(=O)(=O)O)C[C@@H]21
REMARK SMILES IDX 22 1 36 2 46 3 35 4 23 5 45 6 37 7 39 8 38 9 20 10 21 11
REMARK SMILES IDX 5 12 6 13 7 14 8 15 9 17 11 18 12 19 17 20 19 21 15 22 14 23
REMARK SMILES IDX 13 24 18 25 16 26 10 28 3 30 4 31 2 32 1 33 24 34 25 35
REMARK SMILES IDX 26 36 27 38 28 39 29 40 30 41 31 42 32 43 33 44 34 45 40 50
REMARK SMILES IDX 41 51 42 52 43 53 44 54
REMARK H PARENT 6 16 16 27 10 29 26 37 33 46 33 47 34 48 34 49 44 55
ROOT
ATOM      1  N   UNL     1     -11.916 -12.760   2.472  1.00  0.00    -0.326 N 
ATOM      2  C   UNL     1      -9.964 -11.632   1.795  1.00  0.00     0.014 C 
ATOM      3  C   UNL     1     -10.589 -13.025   1.910  1.00  0.00     0.091 C 
ATOM      4  C   UNL     1     -10.532 -10.909   3.007  1.00  0.00     0.041 C 
ATOM      5  C   UNL     1     -12.005 -11.348   2.920  1.00  0.00     0.175 C 
ATOM      6  C   UNL     1     -10.503 -13.707   0.546  1.00  0.00     0.059 C 
ATOM      7  C   UNL     1      -8.460 -11.724   1.622  1.00  0.00     0.008 C 
ATOM      8  C   UNL     1      -9.265 -13.293  -0.279  1.00  0.00     0.143 C 
ATOM      9  C   UNL     1      -8.096 -12.839   0.618  1.00  0.00     0.034 C 
ENDROOT
BRANCH   1  10
ATOM     10  C   UNL     1     -12.928 -13.641   2.814  1.00  0.00     0.246 C 
ATOM     11  O   UNL     1     -13.843 -13.847   2.010  1.00  0.00    -0.272 OA
BRANCH  10  12
ATOM     12  C   UNL     1     -12.868 -14.384   4.180  1.00  0.00     0.174 C 
BRANCH  12  13
ATOM     13  N   UNL     1     -12.525 -13.443   5.245  1.00  0.00    -0.342 N 
ATOM     14  C   UNL     1     -13.065 -13.450   6.511  1.00  0.00     0.249 C 
ATOM     15  O   UNL     1     -13.885 -14.274   6.898  1.00  0.00    -0.272 OA
ATOM     16  H   UNL     1     -11.980 -12.612   5.027  1.00  0.00     0.164 HD
BRANCH  14  17
ATOM     17  C   UNL     1     -12.512 -12.318   7.402  1.00  0.00     0.207 C 
BRANCH  17  18
ATOM     18  C   UNL     1     -13.654 -11.602   8.130  1.00  0.00     0.077 C 
BRANCH  18  19
ATOM     19  C   UNL     1     -14.366 -10.618   7.229  1.00  0.00    -0.043 A 
ATOM     20  C   UNL     1     -15.876 -10.169   5.385  1.00  0.00     0.083 A 
ATOM     21  C   UNL     1     -15.259 -11.075   6.247  1.00  0.00     0.028 A 
ATOM     22  C   UNL     1     -15.606  -8.804   5.497  1.00  0.00     0.134 A 
ATOM     23  C   UNL     1     -14.725  -8.338   6.465  1.00  0.00     0.048 A 
ATOM     24  C   UNL     1     -14.104  -9.243   7.328  1.00  0.00     0.008 A 
ATOM     25  Cl  UNL     1     -16.970 -10.749   4.185  1.00  0.00    -0.080 Cl
BRANCH  22  26
ATOM     26  O   UNL     1     -16.180  -7.878   4.668  1.00  0.00    -0.506 OA
ATOM     27  H   UNL     1     -15.513  -7.181   4.523  1.00  0.00     0.293 HD
ENDBRANCH  22  26
ENDBRANCH  18  19
ENDBRANCH  17  18
BRANCH  17  28
ATOM     28  O   UNL     1     -11.771 -11.363   6.624  1.00  0.00    -0.383 OA
ATOM     29  H   UNL     1     -11.714 -10.549   7.175  1.00  0.00     0.211 HD
ENDBRANCH  17  28
ENDBRANCH  14  17
ENDBRANCH  12  13
BRANCH  12  30
ATOM     30  C   UNL     1     -11.926 -15.617   4.152  1.00  0.00     0.018 C 
ATOM     31  C   UNL     1     -10.500 -15.225   4.570  1.00  0.00     0.010 C 
BRANCH  30  32
ATOM     32  C   UNL     1     -11.898 -16.348   2.787  1.00  0.00     0.002 C 
ATOM     33  C   UNL     1     -11.702 -17.856   2.860  1.00  0.00     0.004 C 
ENDBRANCH  30  32
ENDBRANCH  12  30
ENDBRANCH  10  12
ENDBRANCH   1  10
BRANCH   5  34
ATOM     34  C   UNL     1     -12.797 -10.494   1.894  1.00  0.00     0.242 C 
ATOM     35  O   UNL     1     -12.250  -9.665   1.167  1.00  0.00    -0.273 OA
ATOM     36  N   UNL     1     -14.159 -10.693   1.894  1.00  0.00    -0.354 N 
ATOM     37  H   UNL     1     -14.567 -11.305   2.602  1.00  0.00     0.163 HD
BRANCH  36  38
ATOM     38  C   UNL     1     -15.021 -10.146   0.866  1.00  0.00     0.116 C 
BRANCH  38  39
ATOM     39  C   UNL     1     -15.722  -8.895   1.389  1.00  0.00     0.023 C 
BRANCH  39  40
ATOM     40  C   UNL     1     -15.595  -7.714   0.433  1.00  0.00     0.026 C 
BRANCH  40  41
ATOM     41  C   UNL     1     -16.717  -6.702   0.669  1.00  0.00     0.146 C 
BRANCH  41  42
ATOM     42  N   UNL     1     -16.771  -6.348   2.081  1.00  0.00    -0.254 NA
ATOM     43  C   UNL     1     -16.416  -5.176   2.454  1.00  0.00     0.185 C 
ATOM     44  N   UNL     1     -15.970  -4.135   1.728  1.00  0.00    -0.370 N 
ATOM     45  N   UNL     1     -16.469  -4.871   3.761  1.00  0.00    -0.370 N 
ATOM     46  H   UNL     1     -15.499  -3.365   2.172  1.00  0.00     0.159 HD
ATOM     47  H   UNL     1     -15.881  -4.188   0.718  1.00  0.00     0.159 HD
ATOM     48  H   UNL     1     -16.803  -5.599   4.378  1.00  0.00     0.159 HD
ATOM     49  H   UNL     1     -16.439  -3.926   4.101  1.00  0.00     0.159 HD
ENDBRANCH  41  42
ENDBRANCH  40  41
ENDBRANCH  39  40
ENDBRANCH  38  39
ENDBRANCH  36  38
ENDBRANCH   5  34
BRANCH   8  50
ATOM     50  O   UNL     1      -9.600 -12.222  -1.162  1.00  0.00    -0.245 OA
BRANCH  50  51
ATOM     51  S   UNL     1      -9.196 -12.321  -2.735  1.00  0.00     0.397 S 
ATOM     52  O   UNL     1     -10.396 -12.609  -3.487  1.00  0.00    -0.169 OA
ATOM     53  O   UNL     1      -7.998 -13.123  -2.879  1.00  0.00    -0.169 OA
BRANCH  51  54
ATOM     54  O   UNL     1      -8.817 -10.797  -3.080  1.00  0.00    -0.264 OA
ATOM     55  H   UNL     1      -7.843 -10.745  -3.170  1.00  0.00     0.236 HD
ENDBRANCH  51  54
ENDBRANCH  50  51
ENDBRANCH   8  50
TORSDOF 19
ENDMDL
