MODEL 1
REMARK VINA RESULT:    -7.622      0.000      0.000
REMARK INTER + INTRA:         -24.126
REMARK INTER:                 -18.985
REMARK INTRA:                  -5.141
REMARK UNBOUND:                -5.141
REMARK SMILES CCCCCCC[C@H](N)[C@H](O)C(=O)N[C@H](C)C(=O)N(C)[C@H](CC(C)C)C(=O)N[C@@H](Cc1ccc(O)cc1)C(=O)N[C@@H](Cc1ccc(O)cc1)C(=O)O
REMARK SMILES IDX 18 1 17 2 15 3 16 4 14 5 12 6 13 7 10 9 11 10 8 12 9 13 7 16
REMARK SMILES IDX 6 17 5 18 4 19 3 20 2 21 1 22 19 23 20 24 21 25 22 26 23 27
REMARK SMILES IDX 24 28 25 29 26 30 27 31 28 32 29 34 30 35 31 36 32 37 37 38
REMARK SMILES IDX 33 39 36 40 34 41 35 42 38 44 39 45 40 46 41 48 42 49 43 50
REMARK SMILES IDX 44 51 49 52 45 53 48 54 46 55 47 56 50 58 51 59 52 60
REMARK H PARENT 14 8 11 11 9 14 9 15 28 33 35 43 40 47 47 57 52 61
ROOT
ATOM      1  O   UNL     1      -5.239  -0.593  10.574  1.00  0.00    -0.272 OA
ATOM      2  C   UNL     1      -6.053  -0.663  11.507  1.00  0.00     0.245 C 
ENDROOT
BRANCH   2   3
ATOM      3  C   UNL     1      -5.730   0.080  12.828  1.00  0.00     0.168 C 
ATOM      4  C   UNL     1      -5.363  -0.908  13.929  1.00  0.00     0.041 C 
BRANCH   3   5
ATOM      5  N   UNL     1      -4.747   1.145  12.705  1.00  0.00    -0.342 N 
ATOM      6  C   UNL     1      -5.114   2.445  12.426  1.00  0.00     0.251 C 
ATOM      7  O   UNL     1      -6.272   2.792  12.221  1.00  0.00    -0.272 OA
ATOM      8  H   UNL     1      -3.752   0.972  12.820  1.00  0.00     0.164 HD
BRANCH   6   9
ATOM      9  C   UNL     1      -3.928   3.422  12.486  1.00  0.00     0.219 C 
BRANCH   9  10
ATOM     10  O   UNL     1      -2.860   2.945  13.312  1.00  0.00    -0.382 OA
ATOM     11  H   UNL     1      -2.415   2.274  12.749  1.00  0.00     0.211 HD
ENDBRANCH   9  10
BRANCH   9  12
ATOM     12  C   UNL     1      -3.403   3.828  11.084  1.00  0.00     0.089 C 
BRANCH  12  13
ATOM     13  N   UNL     1      -4.523   4.420  10.318  1.00  0.00    -0.325 NA
ATOM     14  H   UNL     1      -4.219   4.592   9.358  1.00  0.00     0.119 HD
ATOM     15  H   UNL     1      -4.733   5.345  10.701  1.00  0.00     0.119 HD
ENDBRANCH  12  13
BRANCH  12  16
ATOM     16  C   UNL     1      -2.184   4.781  11.067  1.00  0.00     0.022 C 
BRANCH  16  17
ATOM     17  C   UNL     1      -0.798   4.216  10.724  1.00  0.00     0.002 C 
BRANCH  17  18
ATOM     18  C   UNL     1       0.207   5.244  10.208  1.00  0.00     0.000 C 
BRANCH  18  19
ATOM     19  C   UNL     1      -0.351   6.173   9.122  1.00  0.00    -0.000 C 
BRANCH  19  20
ATOM     20  C   UNL     1       0.163   5.899   7.706  1.00  0.00    -0.000 C 
BRANCH  20  21
ATOM     21  C   UNL     1      -0.813   5.073   6.863  1.00  0.00    -0.003 C 
ATOM     22  C   UNL     1      -2.148   5.784   6.706  1.00  0.00     0.004 C 
ENDBRANCH  20  21
ENDBRANCH  19  20
ENDBRANCH  18  19
ENDBRANCH  17  18
ENDBRANCH  16  17
ENDBRANCH  12  16
ENDBRANCH   9  12
ENDBRANCH   6   9
ENDBRANCH   3   5
ENDBRANCH   2   3
BRANCH   2  23
ATOM     23  N   UNL     1      -7.278  -1.292  11.316  1.00  0.00    -0.332 N 
ATOM     24  C   UNL     1      -8.227  -1.592  12.378  1.00  0.00     0.147 C 
BRANCH  23  25
ATOM     25  C   UNL     1      -7.762  -1.593   9.941  1.00  0.00     0.174 C 
BRANCH  25  26
ATOM     26  C   UNL     1      -9.273  -1.920   9.892  1.00  0.00     0.038 C 
BRANCH  26  27
ATOM     27  C   UNL     1     -10.168  -0.970   9.067  1.00  0.00    -0.015 C 
ATOM     28  C   UNL     1     -11.096  -0.131   9.945  1.00  0.00     0.007 C 
ATOM     29  C   UNL     1      -9.385  -0.077   8.107  1.00  0.00     0.007 C 
ENDBRANCH  26  27
ENDBRANCH  25  26
BRANCH  25  30
ATOM     30  C   UNL     1      -6.870  -2.674   9.288  1.00  0.00     0.243 C 
ATOM     31  O   UNL     1      -6.977  -3.866   9.576  1.00  0.00    -0.273 OA
ATOM     32  N   UNL     1      -5.954  -2.217   8.376  1.00  0.00    -0.342 N 
ATOM     33  H   UNL     1      -6.022  -1.238   8.087  1.00  0.00     0.164 HD
BRANCH  32  34
ATOM     34  C   UNL     1      -5.009  -3.094   7.680  1.00  0.00     0.175 C 
BRANCH  34  35
ATOM     35  C   UNL     1      -4.571  -2.490   6.337  1.00  0.00     0.070 C 
BRANCH  35  36
ATOM     36  C   UNL     1      -5.073  -3.280   5.149  1.00  0.00    -0.045 A 
ATOM     37  C   UNL     1      -6.201  -2.840   4.440  1.00  0.00     0.007 A 
ATOM     38  C   UNL     1      -4.439  -4.465   4.754  1.00  0.00     0.007 A 
ATOM     39  C   UNL     1      -6.680  -3.569   3.351  1.00  0.00     0.046 A 
ATOM     40  C   UNL     1      -4.919  -5.197   3.665  1.00  0.00     0.046 A 
ATOM     41  C   UNL     1      -6.035  -4.741   2.972  1.00  0.00     0.115 A 
BRANCH  41  42
ATOM     42  O   UNL     1      -6.536  -5.425   1.905  1.00  0.00    -0.508 OA
ATOM     43  H   UNL     1      -7.467  -5.170   1.789  1.00  0.00     0.293 HD
ENDBRANCH  41  42
ENDBRANCH  35  36
ENDBRANCH  34  35
BRANCH  34  44
ATOM     44  C   UNL     1      -3.808  -3.345   8.619  1.00  0.00     0.243 C 
ATOM     45  O   UNL     1      -3.523  -4.436   9.105  1.00  0.00    -0.273 OA
ATOM     46  N   UNL     1      -3.142  -2.193   8.978  1.00  0.00    -0.341 N 
ATOM     47  H   UNL     1      -3.487  -1.297   8.641  1.00  0.00     0.164 HD
BRANCH  46  48
ATOM     48  C   UNL     1      -2.013  -2.172   9.912  1.00  0.00     0.196 C 
BRANCH  48  49
ATOM     49  C   UNL     1      -0.987  -1.093   9.526  1.00  0.00     0.072 C 
BRANCH  49  50
ATOM     50  C   UNL     1      -1.517  -0.131   8.486  1.00  0.00    -0.045 A 
ATOM     51  C   UNL     1      -1.339  -0.408   7.123  1.00  0.00     0.007 A 
ATOM     52  C   UNL     1      -2.169   1.050   8.862  1.00  0.00     0.007 A 
ATOM     53  C   UNL     1      -1.811   0.478   6.155  1.00  0.00     0.046 A 
ATOM     54  C   UNL     1      -2.641   1.938   7.893  1.00  0.00     0.046 A 
ATOM     55  C   UNL     1      -2.459   1.643   6.546  1.00  0.00     0.115 A 
BRANCH  55  56
ATOM     56  O   UNL     1      -2.904   2.483   5.569  1.00  0.00    -0.508 OA
ATOM     57  H   UNL     1      -2.863   2.014   4.720  1.00  0.00     0.293 HD
ENDBRANCH  55  56
ENDBRANCH  49  50
ENDBRANCH  48  49
BRANCH  48  58
ATOM     58  C   UNL     1      -2.541  -1.897  11.326  1.00  0.00     0.326 C 
ATOM     59  O   UNL     1      -2.352  -0.901  12.006  1.00  0.00    -0.250 OA
BRANCH  58  60
ATOM     60  O   UNL     1      -3.308  -2.901  11.822  1.00  0.00    -0.480 OA
ATOM     61  H   UNL     1      -3.939  -2.434  12.412  1.00  0.00     0.296 HD
ENDBRANCH  58  60
ENDBRANCH  48  58
ENDBRANCH  46  48
ENDBRANCH  34  44
ENDBRANCH  32  34
ENDBRANCH  25  30
ENDBRANCH  23  25
ENDBRANCH   2  23
TORSDOF 28
ENDMDL
MODEL 2
REMARK VINA RESULT:    -7.532      1.738      2.571
REMARK INTER + INTRA:         -23.901
REMARK INTER:                 -17.279
REMARK INTRA:                  -6.622
REMARK UNBOUND:                -5.141
REMARK SMILES CCCCCCC[C@H](N)[C@H](O)C(=O)N[C@H](C)C(=O)N(C)[C@H](CC(C)C)C(=O)N[C@@H](Cc1ccc(O)cc1)C(=O)N[C@@H](Cc1ccc(O)cc1)C(=O)O
REMARK SMILES IDX 18 1 17 2 15 3 16 4 14 5 12 6 13 7 10 9 11 10 8 12 9 13 7 16
REMARK SMILES IDX 6 17 5 18 4 19 3 20 2 21 1 22 19 23 20 24 21 25 22 26 23 27
REMARK SMILES IDX 24 28 25 29 26 30 27 31 28 32 29 34 30 35 31 36 32 37 37 38
REMARK SMILES IDX 33 39 36 40 34 41 35 42 38 44 39 45 40 46 41 48 42 49 43 50
REMARK SMILES IDX 44 51 49 52 45 53 48 54 46 55 47 56 50 58 51 59 52 60
REMARK H PARENT 14 8 11 11 9 14 9 15 28 33 35 43 40 47 47 57 52 61
ROOT
ATOM      1  O   UNL     1      -5.513  -0.285  10.706  1.00  0.00    -0.272 OA
ATOM      2  C   UNL     1      -6.288  -0.733  11.565  1.00  0.00     0.245 C 
ENDROOT
BRANCH   2   3
ATOM      3  C   UNL     1      -6.103  -0.285  13.036  1.00  0.00     0.168 C 
ATOM      4  C   UNL     1      -5.611  -1.443  13.898  1.00  0.00     0.041 C 
BRANCH   3   5
ATOM      5  N   UNL     1      -5.288   0.907  13.214  1.00  0.00    -0.342 N 
ATOM      6  C   UNL     1      -5.837   2.172  13.209  1.00  0.00     0.251 C 
ATOM      7  O   UNL     1      -7.028   2.391  13.016  1.00  0.00    -0.272 OA
ATOM      8  H   UNL     1      -4.281   0.853  13.348  1.00  0.00     0.164 HD
BRANCH   6   9
ATOM      9  C   UNL     1      -4.814   3.266  13.556  1.00  0.00     0.219 C 
BRANCH   9  10
ATOM     10  O   UNL     1      -4.042   2.950  14.721  1.00  0.00    -0.382 OA
ATOM     11  H   UNL     1      -4.427   3.527  15.417  1.00  0.00     0.211 HD
ENDBRANCH   9  10
BRANCH   9  12
ATOM     12  C   UNL     1      -3.890   3.635  12.366  1.00  0.00     0.089 C 
BRANCH  12  13
ATOM     13  N   UNL     1      -3.285   2.390  11.840  1.00  0.00    -0.325 NA
ATOM     14  H   UNL     1      -3.112   2.497  10.839  1.00  0.00     0.119 HD
ATOM     15  H   UNL     1      -3.969   1.633  11.913  1.00  0.00     0.119 HD
ENDBRANCH  12  13
BRANCH  12  16
ATOM     16  C   UNL     1      -4.551   4.432  11.216  1.00  0.00     0.022 C 
BRANCH  16  17
ATOM     17  C   UNL     1      -4.822   3.728   9.879  1.00  0.00     0.002 C 
BRANCH  17  18
ATOM     18  C   UNL     1      -6.244   3.199   9.705  1.00  0.00     0.000 C 
BRANCH  18  19
ATOM     19  C   UNL     1      -6.395   2.177   8.571  1.00  0.00    -0.000 C 
BRANCH  19  20
ATOM     20  C   UNL     1      -6.640   2.777   7.184  1.00  0.00    -0.000 C 
BRANCH  20  21
ATOM     21  C   UNL     1      -6.276   1.822   6.044  1.00  0.00    -0.003 C 
ATOM     22  C   UNL     1      -6.341   0.371   6.495  1.00  0.00     0.004 C 
ENDBRANCH  20  21
ENDBRANCH  19  20
ENDBRANCH  18  19
ENDBRANCH  17  18
ENDBRANCH  16  17
ENDBRANCH  12  16
ENDBRANCH   9  12
ENDBRANCH   6   9
ENDBRANCH   3   5
ENDBRANCH   2   3
BRANCH   2  23
ATOM     23  N   UNL     1      -7.368  -1.521  11.183  1.00  0.00    -0.332 N 
ATOM     24  C   UNL     1      -8.387  -2.022  12.094  1.00  0.00     0.147 C 
BRANCH  23  25
ATOM     25  C   UNL     1      -7.621  -1.803   9.744  1.00  0.00     0.174 C 
BRANCH  25  26
ATOM     26  C   UNL     1      -9.103  -2.132   9.446  1.00  0.00     0.038 C 
BRANCH  26  27
ATOM     27  C   UNL     1      -9.841  -1.201   8.457  1.00  0.00    -0.015 C 
ATOM     28  C   UNL     1      -9.441   0.264   8.624  1.00  0.00     0.007 C 
ATOM     29  C   UNL     1      -9.703  -1.633   6.999  1.00  0.00     0.007 C 
ENDBRANCH  26  27
ENDBRANCH  25  26
BRANCH  25  30
ATOM     30  C   UNL     1      -6.631  -2.874   9.229  1.00  0.00     0.243 C 
ATOM     31  O   UNL     1      -6.682  -4.042   9.611  1.00  0.00    -0.273 OA
ATOM     32  N   UNL     1      -5.696  -2.433   8.329  1.00  0.00    -0.342 N 
ATOM     33  H   UNL     1      -5.806  -1.487   7.956  1.00  0.00     0.164 HD
BRANCH  32  34
ATOM     34  C   UNL     1      -4.663  -3.301   7.757  1.00  0.00     0.175 C 
BRANCH  34  35
ATOM     35  C   UNL     1      -4.185  -2.777   6.394  1.00  0.00     0.070 C 
BRANCH  35  36
ATOM     36  C   UNL     1      -4.855  -3.475   5.232  1.00  0.00    -0.045 A 
ATOM     37  C   UNL     1      -4.289  -4.641   4.693  1.00  0.00     0.007 A 
ATOM     38  C   UNL     1      -6.028  -2.962   4.665  1.00  0.00     0.007 A 
ATOM     39  C   UNL     1      -4.893  -5.284   3.612  1.00  0.00     0.046 A 
ATOM     40  C   UNL     1      -6.632  -3.604   3.581  1.00  0.00     0.046 A 
ATOM     41  C   UNL     1      -6.059  -4.762   3.065  1.00  0.00     0.115 A 
BRANCH  41  42
ATOM     42  O   UNL     1      -6.615  -5.419   2.008  1.00  0.00    -0.508 OA
ATOM     43  H   UNL     1      -6.927  -6.285   2.318  1.00  0.00     0.293 HD
ENDBRANCH  41  42
ENDBRANCH  35  36
ENDBRANCH  34  35
BRANCH  34  44
ATOM     44  C   UNL     1      -3.504  -3.402   8.775  1.00  0.00     0.243 C 
ATOM     45  O   UNL     1      -3.165  -4.438   9.340  1.00  0.00    -0.273 OA
ATOM     46  N   UNL     1      -2.953  -2.181   9.102  1.00  0.00    -0.341 N 
ATOM     47  H   UNL     1      -3.347  -1.336   8.695  1.00  0.00     0.164 HD
BRANCH  46  48
ATOM     48  C   UNL     1      -1.889  -2.017  10.094  1.00  0.00     0.196 C 
BRANCH  48  49
ATOM     49  C   UNL     1      -0.986  -0.819   9.755  1.00  0.00     0.072 C 
BRANCH  49  50
ATOM     50  C   UNL     1      -1.455  -0.066   8.531  1.00  0.00    -0.045 A 
ATOM     51  C   UNL     1      -2.437   0.928   8.655  1.00  0.00     0.007 A 
ATOM     52  C   UNL     1      -0.938  -0.358   7.262  1.00  0.00     0.007 A 
ATOM     53  C   UNL     1      -2.887   1.621   7.531  1.00  0.00     0.046 A 
ATOM     54  C   UNL     1      -1.390   0.334   6.136  1.00  0.00     0.046 A 
ATOM     55  C   UNL     1      -2.361   1.319   6.281  1.00  0.00     0.115 A 
BRANCH  55  56
ATOM     56  O   UNL     1      -2.829   2.017   5.207  1.00  0.00    -0.508 OA
ATOM     57  H   UNL     1      -3.122   1.383   4.534  1.00  0.00     0.293 HD
ENDBRANCH  55  56
ENDBRANCH  49  50
ENDBRANCH  48  49
BRANCH  48  58
ATOM     58  C   UNL     1      -2.522  -1.809  11.477  1.00  0.00     0.326 C 
ATOM     59  O   UNL     1      -2.666  -0.753  12.073  1.00  0.00    -0.250 OA
BRANCH  58  60
ATOM     60  O   UNL     1      -2.967  -2.957  12.047  1.00  0.00    -0.480 OA
ATOM     61  H   UNL     1      -2.621  -2.903  12.964  1.00  0.00     0.296 HD
ENDBRANCH  58  60
ENDBRANCH  48  58
ENDBRANCH  46  48
ENDBRANCH  34  44
ENDBRANCH  32  34
ENDBRANCH  25  30
ENDBRANCH  23  25
ENDBRANCH   2  23
TORSDOF 28
ENDMDL
MODEL 3
REMARK VINA RESULT:    -7.518      2.455      6.491
REMARK INTER + INTRA:         -23.867
REMARK INTER:                 -18.581
REMARK INTRA:                  -5.286
REMARK UNBOUND:                -5.141
REMARK SMILES CCCCCCC[C@H](N)[C@H](O)C(=O)N[C@H](C)C(=O)N(C)[C@H](CC(C)C)C(=O)N[C@@H](Cc1ccc(O)cc1)C(=O)N[C@@H](Cc1ccc(O)cc1)C(=O)O
REMARK SMILES IDX 18 1 17 2 15 3 16 4 14 5 12 6 13 7 10 9 11 10 8 12 9 13 7 16
REMARK SMILES IDX 6 17 5 18 4 19 3 20 2 21 1 22 19 23 20 24 21 25 22 26 23 27
REMARK SMILES IDX 24 28 25 29 26 30 27 31 28 32 29 34 30 35 31 36 32 37 37 38
REMARK SMILES IDX 33 39 36 40 34 41 35 42 38 44 39 45 40 46 41 48 42 49 43 50
REMARK SMILES IDX 44 51 49 52 45 53 48 54 46 55 47 56 50 58 51 59 52 60
REMARK H PARENT 14 8 11 11 9 14 9 15 28 33 35 43 40 47 47 57 52 61
ROOT
ATOM      1  O   UNL     1      -4.540  -3.547   9.110  1.00  0.00    -0.272 OA
ATOM      2  C   UNL     1      -3.573  -3.286   8.379  1.00  0.00     0.245 C 
ENDROOT
BRANCH   2   3
ATOM      3  C   UNL     1      -2.284  -2.723   9.028  1.00  0.00     0.168 C 
ATOM      4  C   UNL     1      -1.496  -3.831   9.717  1.00  0.00     0.041 C 
BRANCH   3   5
ATOM      5  N   UNL     1      -1.447  -1.934   8.138  1.00  0.00    -0.342 N 
ATOM      6  C   UNL     1      -1.593  -0.568   8.021  1.00  0.00     0.251 C 
ATOM      7  O   UNL     1      -2.452   0.073   8.615  1.00  0.00    -0.272 OA
ATOM      8  H   UNL     1      -0.721  -2.361   7.567  1.00  0.00     0.164 HD
BRANCH   6   9
ATOM      9  C   UNL     1      -0.511   0.071   7.136  1.00  0.00     0.219 C 
BRANCH   9  10
ATOM     10  O   UNL     1       0.072  -0.859   6.215  1.00  0.00    -0.382 OA
ATOM     11  H   UNL     1       0.858  -0.381   5.870  1.00  0.00     0.211 HD
ENDBRANCH   9  10
BRANCH   9  12
ATOM     12  C   UNL     1      -1.003   1.343   6.396  1.00  0.00     0.089 C 
BRANCH  12  13
ATOM     13  N   UNL     1      -2.223   0.996   5.632  1.00  0.00    -0.325 NA
ATOM     14  H   UNL     1      -2.707   1.855   5.364  1.00  0.00     0.119 HD
ATOM     15  H   UNL     1      -2.872   0.505   6.250  1.00  0.00     0.119 HD
ENDBRANCH  12  13
BRANCH  12  16
ATOM     16  C   UNL     1      -1.266   2.584   7.282  1.00  0.00     0.022 C 
BRANCH  16  17
ATOM     17  C   UNL     1      -0.145   3.615   7.474  1.00  0.00     0.002 C 
BRANCH  17  18
ATOM     18  C   UNL     1       0.527   4.084   6.186  1.00  0.00     0.000 C 
BRANCH  18  19
ATOM     19  C   UNL     1      -0.242   5.186   5.445  1.00  0.00    -0.000 C 
BRANCH  19  20
ATOM     20  C   UNL     1       0.607   6.061   4.519  1.00  0.00    -0.000 C 
BRANCH  20  21
ATOM     21  C   UNL     1       1.400   5.252   3.489  1.00  0.00    -0.003 C 
ATOM     22  C   UNL     1       1.340   5.895   2.113  1.00  0.00     0.004 C 
ENDBRANCH  20  21
ENDBRANCH  19  20
ENDBRANCH  18  19
ENDBRANCH  17  18
ENDBRANCH  16  17
ENDBRANCH  12  16
ENDBRANCH   9  12
ENDBRANCH   6   9
ENDBRANCH   3   5
ENDBRANCH   2   3
BRANCH   2  23
ATOM     23  N   UNL     1      -3.615  -3.613   7.028  1.00  0.00    -0.332 N 
ATOM     24  C   UNL     1      -2.683  -4.514   6.367  1.00  0.00     0.147 C 
BRANCH  23  25
ATOM     25  C   UNL     1      -4.738  -3.137   6.175  1.00  0.00     0.174 C 
BRANCH  25  26
ATOM     26  C   UNL     1      -4.630  -3.623   4.710  1.00  0.00     0.038 C 
BRANCH  26  27
ATOM     27  C   UNL     1      -5.872  -4.319   4.109  1.00  0.00    -0.015 C 
ATOM     28  C   UNL     1      -6.903  -3.321   3.584  1.00  0.00     0.007 C 
ATOM     29  C   UNL     1      -5.531  -5.352   3.039  1.00  0.00     0.007 C 
ENDBRANCH  26  27
ENDBRANCH  25  26
BRANCH  25  30
ATOM     30  C   UNL     1      -4.899  -1.606   6.311  1.00  0.00     0.243 C 
ATOM     31  O   UNL     1      -4.378  -0.825   5.517  1.00  0.00    -0.273 OA
ATOM     32  N   UNL     1      -5.652  -1.181   7.375  1.00  0.00    -0.342 N 
ATOM     33  H   UNL     1      -6.166  -1.889   7.905  1.00  0.00     0.164 HD
BRANCH  32  34
ATOM     34  C   UNL     1      -5.887   0.234   7.676  1.00  0.00     0.175 C 
BRANCH  34  35
ATOM     35  C   UNL     1      -7.220   0.717   7.083  1.00  0.00     0.070 C 
BRANCH  35  36
ATOM     36  C   UNL     1      -8.420   0.077   7.745  1.00  0.00    -0.045 A 
ATOM     37  C   UNL     1      -8.985  -1.086   7.198  1.00  0.00     0.007 A 
ATOM     38  C   UNL     1      -8.997   0.642   8.890  1.00  0.00     0.007 A 
ATOM     39  C   UNL     1     -10.101  -1.675   7.793  1.00  0.00     0.046 A 
ATOM     40  C   UNL     1     -10.114   0.053   9.485  1.00  0.00     0.046 A 
ATOM     41  C   UNL     1     -10.656  -1.103   8.931  1.00  0.00     0.115 A 
BRANCH  41  42
ATOM     42  O   UNL     1     -11.747  -1.709   9.480  1.00  0.00    -0.508 OA
ATOM     43  H   UNL     1     -12.426  -1.031   9.634  1.00  0.00     0.293 HD
ENDBRANCH  41  42
ENDBRANCH  35  36
ENDBRANCH  34  35
BRANCH  34  44
ATOM     44  C   UNL     1      -5.840   0.412   9.211  1.00  0.00     0.243 C 
ATOM     45  O   UNL     1      -5.776   1.496   9.782  1.00  0.00    -0.273 OA
ATOM     46  N   UNL     1      -5.743  -0.780   9.898  1.00  0.00    -0.341 N 
ATOM     47  H   UNL     1      -5.682  -1.649   9.374  1.00  0.00     0.164 HD
BRANCH  46  48
ATOM     48  C   UNL     1      -5.616  -0.861  11.355  1.00  0.00     0.196 C 
BRANCH  48  49
ATOM     49  C   UNL     1      -6.577  -1.909  11.943  1.00  0.00     0.072 C 
BRANCH  49  50
ATOM     50  C   UNL     1      -7.893  -1.310  12.383  1.00  0.00    -0.045 A 
ATOM     51  C   UNL     1      -9.042  -2.111  12.438  1.00  0.00     0.007 A 
ATOM     52  C   UNL     1      -7.990   0.046  12.721  1.00  0.00     0.007 A 
ATOM     53  C   UNL     1     -10.265  -1.566  12.830  1.00  0.00     0.046 A 
ATOM     54  C   UNL     1      -9.215   0.593  13.112  1.00  0.00     0.046 A 
ATOM     55  C   UNL     1     -10.342  -0.219  13.165  1.00  0.00     0.115 A 
BRANCH  55  56
ATOM     56  O   UNL     1     -11.556   0.275  13.541  1.00  0.00    -0.508 OA
ATOM     57  H   UNL     1     -12.164  -0.471  13.666  1.00  0.00     0.293 HD
ENDBRANCH  55  56
ENDBRANCH  49  50
ENDBRANCH  48  49
BRANCH  48  58
ATOM     58  C   UNL     1      -4.170  -1.232  11.710  1.00  0.00     0.326 C 
ATOM     59  O   UNL     1      -3.768  -2.292  12.164  1.00  0.00    -0.250 OA
BRANCH  58  60
ATOM     60  O   UNL     1      -3.279  -0.240  11.459  1.00  0.00    -0.480 OA
ATOM     61  H   UNL     1      -2.878  -0.069  12.338  1.00  0.00     0.296 HD
ENDBRANCH  58  60
ENDBRANCH  48  58
ENDBRANCH  46  48
ENDBRANCH  34  44
ENDBRANCH  32  34
ENDBRANCH  25  30
ENDBRANCH  23  25
ENDBRANCH   2  23
TORSDOF 28
ENDMDL
MODEL 4
REMARK VINA RESULT:    -7.438      1.849      7.372
REMARK INTER + INTRA:         -23.667
REMARK INTER:                 -19.018
REMARK INTRA:                  -4.649
REMARK UNBOUND:                -5.141
REMARK SMILES CCCCCCC[C@H](N)[C@H](O)C(=O)N[C@H](C)C(=O)N(C)[C@H](CC(C)C)C(=O)N[C@@H](Cc1ccc(O)cc1)C(=O)N[C@@H](Cc1ccc(O)cc1)C(=O)O
REMARK SMILES IDX 18 1 17 2 15 3 16 4 14 5 12 6 13 7 10 9 11 10 8 12 9 13 7 16
REMARK SMILES IDX 6 17 5 18 4 19 3 20 2 21 1 22 19 23 20 24 21 25 22 26 23 27
REMARK SMILES IDX 24 28 25 29 26 30 27 31 28 32 29 34 30 35 31 36 32 37 37 38
REMARK SMILES IDX 33 39 36 40 34 41 35 42 38 44 39 45 40 46 41 48 42 49 43 50
REMARK SMILES IDX 44 51 49 52 45 53 48 54 46 55 47 56 50 58 51 59 52 60
REMARK H PARENT 14 8 11 11 9 14 9 15 28 33 35 43 40 47 47 57 52 61
ROOT
ATOM      1  O   UNL     1      -3.219   3.092  13.939  1.00  0.00    -0.272 OA
ATOM      2  C   UNL     1      -3.617   2.359  13.022  1.00  0.00     0.245 C 
ENDROOT
BRANCH   2   3
ATOM      3  C   UNL     1      -5.110   2.427  12.613  1.00  0.00     0.168 C 
ATOM      4  C   UNL     1      -5.442   3.782  11.998  1.00  0.00     0.041 C 
BRANCH   3   5
ATOM      5  N   UNL     1      -5.566   1.326  11.778  1.00  0.00    -0.342 N 
ATOM      6  C   UNL     1      -6.528   0.437  12.207  1.00  0.00     0.251 C 
ATOM      7  O   UNL     1      -7.037   0.477  13.322  1.00  0.00    -0.272 OA
ATOM      8  H   UNL     1      -5.191   1.171  10.845  1.00  0.00     0.164 HD
BRANCH   6   9
ATOM      9  C   UNL     1      -6.955  -0.552  11.110  1.00  0.00     0.219 C 
BRANCH   9  10
ATOM     10  O   UNL     1      -5.999  -1.600  10.909  1.00  0.00    -0.382 OA
ATOM     11  H   UNL     1      -5.165  -1.224  11.267  1.00  0.00     0.211 HD
ENDBRANCH   9  10
BRANCH   9  12
ATOM     12  C   UNL     1      -8.373  -1.137  11.336  1.00  0.00     0.089 C 
BRANCH  12  13
ATOM     13  N   UNL     1      -8.383  -1.854  12.631  1.00  0.00    -0.325 NA
ATOM     14  H   UNL     1      -8.825  -2.767  12.506  1.00  0.00     0.119 HD
ATOM     15  H   UNL     1      -8.989  -1.351  13.284  1.00  0.00     0.119 HD
ENDBRANCH  12  13
BRANCH  12  16
ATOM     16  C   UNL     1      -9.541  -0.122  11.281  1.00  0.00     0.022 C 
BRANCH  16  17
ATOM     17  C   UNL     1     -10.360   0.005   9.990  1.00  0.00     0.002 C 
BRANCH  17  18
ATOM     18  C   UNL     1     -10.580  -1.304   9.235  1.00  0.00     0.000 C 
BRANCH  18  19
ATOM     19  C   UNL     1      -9.968  -1.325   7.828  1.00  0.00    -0.000 C 
BRANCH  19  20
ATOM     20  C   UNL     1      -9.016  -0.167   7.517  1.00  0.00    -0.000 C 
BRANCH  20  21
ATOM     21  C   UNL     1      -7.630  -0.635   7.063  1.00  0.00    -0.003 C 
ATOM     22  C   UNL     1      -6.731   0.544   6.721  1.00  0.00     0.004 C 
ENDBRANCH  20  21
ENDBRANCH  19  20
ENDBRANCH  18  19
ENDBRANCH  17  18
ENDBRANCH  16  17
ENDBRANCH  12  16
ENDBRANCH   9  12
ENDBRANCH   6   9
ENDBRANCH   3   5
ENDBRANCH   2   3
BRANCH   2  23
ATOM     23  N   UNL     1      -2.709   1.588  12.304  1.00  0.00    -0.332 N 
ATOM     24  C   UNL     1      -2.493   0.163  12.506  1.00  0.00     0.147 C 
BRANCH  23  25
ATOM     25  C   UNL     1      -1.967   2.178  11.155  1.00  0.00     0.174 C 
BRANCH  25  26
ATOM     26  C   UNL     1      -1.679   3.687  11.336  1.00  0.00     0.038 C 
BRANCH  26  27
ATOM     27  C   UNL     1      -1.093   4.438  10.119  1.00  0.00    -0.015 C 
ATOM     28  C   UNL     1      -2.062   5.475   9.551  1.00  0.00     0.007 C 
ATOM     29  C   UNL     1       0.269   5.070  10.394  1.00  0.00     0.007 C 
ENDBRANCH  26  27
ENDBRANCH  25  26
BRANCH  25  30
ATOM     30  C   UNL     1      -2.683   1.836   9.828  1.00  0.00     0.243 C 
ATOM     31  O   UNL     1      -3.734   2.382   9.497  1.00  0.00    -0.273 OA
ATOM     32  N   UNL     1      -2.072   0.885   9.053  1.00  0.00    -0.342 N 
ATOM     33  H   UNL     1      -1.133   0.583   9.326  1.00  0.00     0.164 HD
BRANCH  32  34
ATOM     34  C   UNL     1      -2.620   0.417   7.777  1.00  0.00     0.175 C 
BRANCH  34  35
ATOM     35  C   UNL     1      -1.541   0.382   6.684  1.00  0.00     0.070 C 
BRANCH  35  36
ATOM     36  C   UNL     1      -0.963   1.748   6.388  1.00  0.00    -0.045 A 
ATOM     37  C   UNL     1      -1.816   2.852   6.238  1.00  0.00     0.007 A 
ATOM     38  C   UNL     1       0.418   1.927   6.237  1.00  0.00     0.007 A 
ATOM     39  C   UNL     1      -1.293   4.114   5.951  1.00  0.00     0.046 A 
ATOM     40  C   UNL     1       0.941   3.190   5.948  1.00  0.00     0.046 A 
ATOM     41  C   UNL     1       0.080   4.273   5.809  1.00  0.00     0.115 A 
BRANCH  41  42
ATOM     42  O   UNL     1       0.549   5.521   5.526  1.00  0.00    -0.508 OA
ATOM     43  H   UNL     1       1.010   5.487   4.671  1.00  0.00     0.293 HD
ENDBRANCH  41  42
ENDBRANCH  35  36
ENDBRANCH  34  35
BRANCH  34  44
ATOM     44  C   UNL     1      -3.252  -0.974   8.009  1.00  0.00     0.243 C 
ATOM     45  O   UNL     1      -4.288  -1.169   8.639  1.00  0.00    -0.273 OA
ATOM     46  N   UNL     1      -2.472  -2.015   7.551  1.00  0.00    -0.341 N 
ATOM     47  H   UNL     1      -1.565  -1.808   7.139  1.00  0.00     0.164 HD
BRANCH  46  48
ATOM     48  C   UNL     1      -2.831  -3.425   7.718  1.00  0.00     0.196 C 
BRANCH  48  49
ATOM     49  C   UNL     1      -2.534  -4.233   6.444  1.00  0.00     0.072 C 
BRANCH  49  50
ATOM     50  C   UNL     1      -3.691  -4.230   5.471  1.00  0.00    -0.045 A 
ATOM     51  C   UNL     1      -4.662  -3.220   5.541  1.00  0.00     0.007 A 
ATOM     52  C   UNL     1      -3.824  -5.237   4.506  1.00  0.00     0.007 A 
ATOM     53  C   UNL     1      -5.741  -3.215   4.657  1.00  0.00     0.046 A 
ATOM     54  C   UNL     1      -4.905  -5.232   3.621  1.00  0.00     0.046 A 
ATOM     55  C   UNL     1      -5.855  -4.220   3.704  1.00  0.00     0.115 A 
BRANCH  55  56
ATOM     56  O   UNL     1      -6.925  -4.179   2.861  1.00  0.00    -0.508 OA
ATOM     57  H   UNL     1      -6.773  -3.478   2.207  1.00  0.00     0.293 HD
ENDBRANCH  55  56
ENDBRANCH  49  50
ENDBRANCH  48  49
BRANCH  48  58
ATOM     58  C   UNL     1      -2.034  -4.006   8.894  1.00  0.00     0.326 C 
ATOM     59  O   UNL     1      -1.300  -3.403   9.660  1.00  0.00    -0.250 OA
BRANCH  58  60
ATOM     60  O   UNL     1      -2.212  -5.341   9.061  1.00  0.00    -0.480 OA
ATOM     61  H   UNL     1      -1.387  -5.625   9.510  1.00  0.00     0.296 HD
ENDBRANCH  58  60
ENDBRANCH  48  58
ENDBRANCH  46  48
ENDBRANCH  34  44
ENDBRANCH  32  34
ENDBRANCH  25  30
ENDBRANCH  23  25
ENDBRANCH   2  23
TORSDOF 28
ENDMDL
MODEL 5
REMARK VINA RESULT:    -7.387      2.713      7.149
REMARK INTER + INTRA:         -23.539
REMARK INTER:                 -18.860
REMARK INTRA:                  -4.679
REMARK UNBOUND:                -5.141
REMARK SMILES CCCCCCC[C@H](N)[C@H](O)C(=O)N[C@H](C)C(=O)N(C)[C@H](CC(C)C)C(=O)N[C@@H](Cc1ccc(O)cc1)C(=O)N[C@@H](Cc1ccc(O)cc1)C(=O)O
REMARK SMILES IDX 18 1 17 2 15 3 16 4 14 5 12 6 13 7 10 9 11 10 8 12 9 13 7 16
REMARK SMILES IDX 6 17 5 18 4 19 3 20 2 21 1 22 19 23 20 24 21 25 22 26 23 27
REMARK SMILES IDX 24 28 25 29 26 30 27 31 28 32 29 34 30 35 31 36 32 37 37 38
REMARK SMILES IDX 33 39 36 40 34 41 35 42 38 44 39 45 40 46 41 48 42 49 43 50
REMARK SMILES IDX 44 51 49 52 45 53 48 54 46 55 47 56 50 58 51 59 52 60
REMARK H PARENT 14 8 11 11 9 14 9 15 28 33 35 43 40 47 47 57 52 61
ROOT
ATOM      1  O   UNL     1      -4.197   2.109  14.071  1.00  0.00    -0.272 OA
ATOM      2  C   UNL     1      -4.676   1.469  13.123  1.00  0.00     0.245 C 
ENDROOT
BRANCH   2   3
ATOM      3  C   UNL     1      -5.064  -0.013  13.350  1.00  0.00     0.168 C 
ATOM      4  C   UNL     1      -4.802  -0.426  14.795  1.00  0.00     0.041 C 
BRANCH   3   5
ATOM      5  N   UNL     1      -6.408  -0.366  12.921  1.00  0.00    -0.342 N 
ATOM      6  C   UNL     1      -6.736  -1.647  12.532  1.00  0.00     0.251 C 
ATOM      7  O   UNL     1      -5.925  -2.566  12.477  1.00  0.00    -0.272 OA
ATOM      8  H   UNL     1      -7.159   0.321  12.891  1.00  0.00     0.164 HD
BRANCH   6   9
ATOM      9  C   UNL     1      -8.238  -1.820  12.258  1.00  0.00     0.219 C 
BRANCH   9  10
ATOM     10  O   UNL     1      -9.048  -1.486  13.392  1.00  0.00    -0.382 OA
ATOM     11  H   UNL     1      -9.959  -1.712  13.100  1.00  0.00     0.211 HD
ENDBRANCH   9  10
BRANCH   9  12
ATOM     12  C   UNL     1      -8.719  -1.058  10.995  1.00  0.00     0.089 C 
BRANCH  12  13
ATOM     13  N   UNL     1      -7.560  -0.873  10.092  1.00  0.00    -0.325 NA
ATOM     14  H   UNL     1      -6.862  -1.593  10.289  1.00  0.00     0.119 HD
ATOM     15  H   UNL     1      -7.102   0.012  10.319  1.00  0.00     0.119 HD
ENDBRANCH  12  13
BRANCH  12  16
ATOM     16  C   UNL     1      -9.897  -1.700  10.224  1.00  0.00     0.022 C 
BRANCH  16  17
ATOM     17  C   UNL     1     -11.151  -0.861   9.943  1.00  0.00     0.002 C 
BRANCH  17  18
ATOM     18  C   UNL     1     -10.897   0.631   9.742  1.00  0.00     0.000 C 
BRANCH  18  19
ATOM     19  C   UNL     1     -11.739   1.536  10.652  1.00  0.00    -0.000 C 
BRANCH  19  20
ATOM     20  C   UNL     1     -11.731   1.155  12.135  1.00  0.00    -0.000 C 
BRANCH  20  21
ATOM     21  C   UNL     1     -11.876   2.362  13.065  1.00  0.00    -0.003 C 
ATOM     22  C   UNL     1     -12.714   2.023  14.288  1.00  0.00     0.004 C 
ENDBRANCH  20  21
ENDBRANCH  19  20
ENDBRANCH  18  19
ENDBRANCH  17  18
ENDBRANCH  16  17
ENDBRANCH  12  16
ENDBRANCH   9  12
ENDBRANCH   6   9
ENDBRANCH   3   5
ENDBRANCH   2   3
BRANCH   2  23
ATOM     23  N   UNL     1      -4.967   2.114  11.925  1.00  0.00    -0.332 N 
ATOM     24  C   UNL     1      -6.224   2.787  11.635  1.00  0.00     0.147 C 
BRANCH  23  25
ATOM     25  C   UNL     1      -3.919   2.264  10.879  1.00  0.00     0.174 C 
BRANCH  25  26
ATOM     26  C   UNL     1      -3.645   3.741  10.510  1.00  0.00     0.038 C 
BRANCH  26  27
ATOM     27  C   UNL     1      -2.452   4.428  11.212  1.00  0.00    -0.015 C 
ATOM     28  C   UNL     1      -1.106   3.851  10.776  1.00  0.00     0.007 C 
ATOM     29  C   UNL     1      -2.456   5.948  11.068  1.00  0.00     0.007 C 
ENDBRANCH  26  27
ENDBRANCH  25  26
BRANCH  25  30
ATOM     30  C   UNL     1      -4.250   1.371   9.662  1.00  0.00     0.243 C 
ATOM     31  O   UNL     1      -4.687   0.229   9.794  1.00  0.00    -0.273 OA
ATOM     32  N   UNL     1      -4.018   1.933   8.433  1.00  0.00    -0.342 N 
ATOM     33  H   UNL     1      -3.791   2.930   8.403  1.00  0.00     0.164 HD
BRANCH  32  34
ATOM     34  C   UNL     1      -4.248   1.224   7.171  1.00  0.00     0.175 C 
BRANCH  34  35
ATOM     35  C   UNL     1      -5.592   1.624   6.542  1.00  0.00     0.070 C 
BRANCH  35  36
ATOM     36  C   UNL     1      -6.610   0.507   6.580  1.00  0.00    -0.045 A 
ATOM     37  C   UNL     1      -7.949   0.789   6.890  1.00  0.00     0.007 A 
ATOM     38  C   UNL     1      -6.233  -0.819   6.331  1.00  0.00     0.007 A 
ATOM     39  C   UNL     1      -8.894  -0.236   6.941  1.00  0.00     0.046 A 
ATOM     40  C   UNL     1      -7.178  -1.846   6.383  1.00  0.00     0.046 A 
ATOM     41  C   UNL     1      -8.502  -1.545   6.687  1.00  0.00     0.115 A 
BRANCH  41  42
ATOM     42  O   UNL     1      -9.455  -2.518   6.750  1.00  0.00    -0.508 OA
ATOM     43  H   UNL     1     -10.301  -2.100   6.981  1.00  0.00     0.293 HD
ENDBRANCH  41  42
ENDBRANCH  35  36
ENDBRANCH  34  35
BRANCH  34  44
ATOM     44  C   UNL     1      -3.059   1.523   6.231  1.00  0.00     0.243 C 
ATOM     45  O   UNL     1      -3.025   1.227   5.039  1.00  0.00    -0.273 OA
ATOM     46  N   UNL     1      -1.962   2.045   6.882  1.00  0.00    -0.341 N 
ATOM     47  H   UNL     1      -1.997   2.164   7.892  1.00  0.00     0.164 HD
BRANCH  46  48
ATOM     48  C   UNL     1      -0.694   2.345   6.213  1.00  0.00     0.196 C 
BRANCH  48  49
ATOM     49  C   UNL     1       0.070   3.467   6.937  1.00  0.00     0.072 C 
BRANCH  49  50
ATOM     50  C   UNL     1       0.348   4.653   6.042  1.00  0.00    -0.045 A 
ATOM     51  C   UNL     1       0.942   4.458   4.787  1.00  0.00     0.007 A 
ATOM     52  C   UNL     1       0.041   5.956   6.456  1.00  0.00     0.007 A 
ATOM     53  C   UNL     1       1.215   5.546   3.958  1.00  0.00     0.046 A 
ATOM     54  C   UNL     1       0.316   7.045   5.626  1.00  0.00     0.046 A 
ATOM     55  C   UNL     1       0.900   6.831   4.383  1.00  0.00     0.115 A 
BRANCH  55  56
ATOM     56  O   UNL     1       1.186   7.867   3.544  1.00  0.00    -0.508 OA
ATOM     57  H   UNL     1       1.597   8.576   4.063  1.00  0.00     0.293 HD
ENDBRANCH  55  56
ENDBRANCH  49  50
ENDBRANCH  48  49
BRANCH  48  58
ATOM     58  C   UNL     1       0.166   1.075   6.179  1.00  0.00     0.326 C 
ATOM     59  O   UNL     1       0.858   0.675   5.257  1.00  0.00    -0.250 OA
BRANCH  58  60
ATOM     60  O   UNL     1       0.126   0.363   7.334  1.00  0.00    -0.480 OA
ATOM     61  H   UNL     1      -0.819   0.412   7.596  1.00  0.00     0.296 HD
ENDBRANCH  58  60
ENDBRANCH  48  58
ENDBRANCH  46  48
ENDBRANCH  34  44
ENDBRANCH  32  34
ENDBRANCH  25  30
ENDBRANCH  23  25
ENDBRANCH   2  23
TORSDOF 28
ENDMDL
MODEL 6
REMARK VINA RESULT:    -7.366      2.687      7.468
REMARK INTER + INTRA:         -23.487
REMARK INTER:                 -18.092
REMARK INTRA:                  -5.394
REMARK UNBOUND:                -5.141
REMARK SMILES CCCCCCC[C@H](N)[C@H](O)C(=O)N[C@H](C)C(=O)N(C)[C@H](CC(C)C)C(=O)N[C@@H](Cc1ccc(O)cc1)C(=O)N[C@@H](Cc1ccc(O)cc1)C(=O)O
REMARK SMILES IDX 18 1 17 2 15 3 16 4 14 5 12 6 13 7 10 9 11 10 8 12 9 13 7 16
REMARK SMILES IDX 6 17 5 18 4 19 3 20 2 21 1 22 19 23 20 24 21 25 22 26 23 27
REMARK SMILES IDX 24 28 25 29 26 30 27 31 28 32 29 34 30 35 31 36 32 37 37 38
REMARK SMILES IDX 33 39 36 40 34 41 35 42 38 44 39 45 40 46 41 48 42 49 43 50
REMARK SMILES IDX 44 51 49 52 45 53 48 54 46 55 47 56 50 58 51 59 52 60
REMARK H PARENT 14 8 11 11 9 14 9 15 28 33 35 43 40 47 47 57 52 61
ROOT
ATOM      1  O   UNL     1      -6.211  -3.307  12.126  1.00  0.00    -0.272 OA
ATOM      2  C   UNL     1      -5.875  -2.116  12.209  1.00  0.00     0.245 C 
ENDROOT
BRANCH   2   3
ATOM      3  C   UNL     1      -6.564  -1.225  13.272  1.00  0.00     0.168 C 
ATOM      4  C   UNL     1      -5.534  -0.621  14.221  1.00  0.00     0.041 C 
BRANCH   3   5
ATOM      5  N   UNL     1      -7.463  -0.215  12.734  1.00  0.00    -0.342 N 
ATOM      6  C   UNL     1      -8.833  -0.335  12.830  1.00  0.00     0.251 C 
ATOM      7  O   UNL     1      -9.394  -1.304  13.331  1.00  0.00    -0.272 OA
ATOM      8  H   UNL     1      -7.114   0.618  12.265  1.00  0.00     0.164 HD
BRANCH   6   9
ATOM      9  C   UNL     1      -9.575   0.912  12.323  1.00  0.00     0.219 C 
BRANCH   9  10
ATOM     10  O   UNL     1      -8.689   1.908  11.799  1.00  0.00    -0.382 OA
ATOM     11  H   UNL     1      -8.300   2.317  12.603  1.00  0.00     0.211 HD
ENDBRANCH   9  10
BRANCH   9  12
ATOM     12  C   UNL     1     -10.696   0.580  11.304  1.00  0.00     0.089 C 
BRANCH  12  13
ATOM     13  N   UNL     1     -11.192   1.850  10.725  1.00  0.00    -0.325 NA
ATOM     14  H   UNL     1     -10.479   2.573  10.841  1.00  0.00     0.119 HD
ATOM     15  H   UNL     1     -11.992   2.174  11.273  1.00  0.00     0.119 HD
ENDBRANCH  12  13
BRANCH  12  16
ATOM     16  C   UNL     1     -10.316  -0.406  10.174  1.00  0.00     0.022 C 
BRANCH  16  17
ATOM     17  C   UNL     1      -9.886   0.150   8.810  1.00  0.00     0.002 C 
BRANCH  17  18
ATOM     18  C   UNL     1      -8.387   0.397   8.657  1.00  0.00     0.000 C 
BRANCH  18  19
ATOM     19  C   UNL     1      -7.913   0.484   7.200  1.00  0.00    -0.000 C 
BRANCH  19  20
ATOM     20  C   UNL     1      -6.460   0.930   7.015  1.00  0.00    -0.000 C 
BRANCH  20  21
ATOM     21  C   UNL     1      -6.335   2.325   6.396  1.00  0.00    -0.003 C 
ATOM     22  C   UNL     1      -5.277   2.355   5.305  1.00  0.00     0.004 C 
ENDBRANCH  20  21
ENDBRANCH  19  20
ENDBRANCH  18  19
ENDBRANCH  17  18
ENDBRANCH  16  17
ENDBRANCH  12  16
ENDBRANCH   9  12
ENDBRANCH   6   9
ENDBRANCH   3   5
ENDBRANCH   2   3
BRANCH   2  23
ATOM     23  N   UNL     1      -4.818  -1.637  11.443  1.00  0.00    -0.332 N 
ATOM     24  C   UNL     1      -3.414  -1.910  11.711  1.00  0.00     0.147 C 
BRANCH  23  25
ATOM     25  C   UNL     1      -5.081  -0.891  10.182  1.00  0.00     0.174 C 
BRANCH  25  26
ATOM     26  C   UNL     1      -4.302  -1.459   8.972  1.00  0.00     0.038 C 
BRANCH  26  27
ATOM     27  C   UNL     1      -5.056  -2.449   8.057  1.00  0.00    -0.015 C 
ATOM     28  C   UNL     1      -4.244  -3.711   7.766  1.00  0.00     0.007 C 
ATOM     29  C   UNL     1      -6.447  -2.812   8.570  1.00  0.00     0.007 C 
ENDBRANCH  26  27
ENDBRANCH  25  26
BRANCH  25  30
ATOM     30  C   UNL     1      -4.865   0.624  10.405  1.00  0.00     0.243 C 
ATOM     31  O   UNL     1      -5.615   1.290  11.117  1.00  0.00    -0.273 OA
ATOM     32  N   UNL     1      -3.790   1.172   9.753  1.00  0.00    -0.342 N 
ATOM     33  H   UNL     1      -3.135   0.531   9.298  1.00  0.00     0.164 HD
BRANCH  32  34
ATOM     34  C   UNL     1      -3.448   2.595   9.826  1.00  0.00     0.175 C 
BRANCH  34  35
ATOM     35  C   UNL     1      -2.495   2.881  10.997  1.00  0.00     0.070 C 
BRANCH  35  36
ATOM     36  C   UNL     1      -1.721   4.168  10.820  1.00  0.00    -0.045 A 
ATOM     37  C   UNL     1      -2.375   5.403  10.948  1.00  0.00     0.007 A 
ATOM     38  C   UNL     1      -0.356   4.149  10.505  1.00  0.00     0.007 A 
ATOM     39  C   UNL     1      -1.673   6.596  10.772  1.00  0.00     0.046 A 
ATOM     40  C   UNL     1       0.347   5.343  10.328  1.00  0.00     0.046 A 
ATOM     41  C   UNL     1      -0.318   6.557  10.465  1.00  0.00     0.115 A 
BRANCH  41  42
ATOM     42  O   UNL     1       0.331   7.744  10.298  1.00  0.00    -0.508 OA
ATOM     43  H   UNL     1       0.670   7.781   9.389  1.00  0.00     0.293 HD
ENDBRANCH  41  42
ENDBRANCH  35  36
ENDBRANCH  34  35
BRANCH  34  44
ATOM     44  C   UNL     1      -2.837   3.011   8.469  1.00  0.00     0.243 C 
ATOM     45  O   UNL     1      -3.222   3.964   7.798  1.00  0.00    -0.273 OA
ATOM     46  N   UNL     1      -1.888   2.127   8.001  1.00  0.00    -0.341 N 
ATOM     47  H   UNL     1      -1.687   1.288   8.538  1.00  0.00     0.164 HD
BRANCH  46  48
ATOM     48  C   UNL     1      -1.220   2.275   6.706  1.00  0.00     0.196 C 
BRANCH  48  49
ATOM     49  C   UNL     1       0.182   2.888   6.866  1.00  0.00     0.072 C 
BRANCH  49  50
ATOM     50  C   UNL     1       0.305   4.239   6.198  1.00  0.00    -0.045 A 
ATOM     51  C   UNL     1       0.868   4.337   4.917  1.00  0.00     0.007 A 
ATOM     52  C   UNL     1      -0.116   5.405   6.848  1.00  0.00     0.007 A 
ATOM     53  C   UNL     1       0.999   5.579   4.296  1.00  0.00     0.046 A 
ATOM     54  C   UNL     1       0.016   6.650   6.228  1.00  0.00     0.046 A 
ATOM     55  C   UNL     1       0.572   6.725   4.955  1.00  0.00     0.115 A 
BRANCH  55  56
ATOM     56  O   UNL     1       0.720   7.920   4.315  1.00  0.00    -0.508 OA
ATOM     57  H   UNL     1       1.029   7.747   3.412  1.00  0.00     0.293 HD
ENDBRANCH  55  56
ENDBRANCH  49  50
ENDBRANCH  48  49
BRANCH  48  58
ATOM     58  C   UNL     1      -1.105   0.895   6.043  1.00  0.00     0.326 C 
ATOM     59  O   UNL     1      -0.082   0.303   5.740  1.00  0.00    -0.250 OA
BRANCH  58  60
ATOM     60  O   UNL     1      -2.305   0.309   5.802  1.00  0.00    -0.480 OA
ATOM     61  H   UNL     1      -2.798   0.451   6.639  1.00  0.00     0.296 HD
ENDBRANCH  58  60
ENDBRANCH  48  58
ENDBRANCH  46  48
ENDBRANCH  34  44
ENDBRANCH  32  34
ENDBRANCH  25  30
ENDBRANCH  23  25
ENDBRANCH   2  23
TORSDOF 28
ENDMDL
MODEL 7
REMARK VINA RESULT:    -7.351      2.680      7.796
REMARK INTER + INTRA:         -23.450
REMARK INTER:                 -16.088
REMARK INTRA:                  -7.362
REMARK UNBOUND:                -5.141
REMARK SMILES CCCCCCC[C@H](N)[C@H](O)C(=O)N[C@H](C)C(=O)N(C)[C@H](CC(C)C)C(=O)N[C@@H](Cc1ccc(O)cc1)C(=O)N[C@@H](Cc1ccc(O)cc1)C(=O)O
REMARK SMILES IDX 18 1 17 2 15 3 16 4 14 5 12 6 13 7 10 9 11 10 8 12 9 13 7 16
REMARK SMILES IDX 6 17 5 18 4 19 3 20 2 21 1 22 19 23 20 24 21 25 22 26 23 27
REMARK SMILES IDX 24 28 25 29 26 30 27 31 28 32 29 34 30 35 31 36 32 37 37 38
REMARK SMILES IDX 33 39 36 40 34 41 35 42 38 44 39 45 40 46 41 48 42 49 43 50
REMARK SMILES IDX 44 51 49 52 45 53 48 54 46 55 47 56 50 58 51 59 52 60
REMARK H PARENT 14 8 11 11 9 14 9 15 28 33 35 43 40 47 47 57 52 61
ROOT
ATOM      1  O   UNL     1      -2.604   2.653   5.608  1.00  0.00    -0.272 OA
ATOM      2  C   UNL     1      -1.985   3.426   6.353  1.00  0.00     0.245 C 
ENDROOT
BRANCH   2   3
ATOM      3  C   UNL     1      -0.787   2.873   7.165  1.00  0.00     0.168 C 
ATOM      4  C   UNL     1      -0.610   3.648   8.466  1.00  0.00     0.041 C 
BRANCH   3   5
ATOM      5  N   UNL     1      -0.814   1.436   7.390  1.00  0.00    -0.342 N 
ATOM      6  C   UNL     1      -0.148   0.557   6.562  1.00  0.00     0.251 C 
ATOM      7  O   UNL     1       0.473   0.907   5.563  1.00  0.00    -0.272 OA
ATOM      8  H   UNL     1      -1.325   1.024   8.167  1.00  0.00     0.164 HD
BRANCH   6   9
ATOM      9  C   UNL     1      -0.196  -0.893   7.071  1.00  0.00     0.219 C 
BRANCH   9  10
ATOM     10  O   UNL     1       0.366  -1.037   8.381  1.00  0.00    -0.382 OA
ATOM     11  H   UNL     1       1.002  -1.779   8.279  1.00  0.00     0.211 HD
ENDBRANCH   9  10
BRANCH   9  12
ATOM     12  C   UNL     1      -1.617  -1.513   7.010  1.00  0.00     0.089 C 
BRANCH  12  13
ATOM     13  N   UNL     1      -2.474  -0.636   6.180  1.00  0.00    -0.325 NA
ATOM     14  H   UNL     1      -3.169  -0.184   6.776  1.00  0.00     0.119 HD
ATOM     15  H   UNL     1      -3.014  -1.216   5.534  1.00  0.00     0.119 HD
ENDBRANCH  12  13
BRANCH  12  16
ATOM     16  C   UNL     1      -1.698  -2.972   6.501  1.00  0.00     0.022 C 
BRANCH  16  17
ATOM     17  C   UNL     1      -2.343  -4.040   7.395  1.00  0.00     0.002 C 
BRANCH  17  18
ATOM     18  C   UNL     1      -3.838  -3.853   7.646  1.00  0.00     0.000 C 
BRANCH  18  19
ATOM     19  C   UNL     1      -4.659  -3.606   6.374  1.00  0.00    -0.000 C 
BRANCH  19  20
ATOM     20  C   UNL     1      -5.584  -2.386   6.424  1.00  0.00    -0.000 C 
BRANCH  20  21
ATOM     21  C   UNL     1      -6.124  -1.986   5.048  1.00  0.00    -0.003 C 
ATOM     22  C   UNL     1      -6.071  -3.151   4.072  1.00  0.00     0.004 C 
ENDBRANCH  20  21
ENDBRANCH  19  20
ENDBRANCH  18  19
ENDBRANCH  17  18
ENDBRANCH  16  17
ENDBRANCH  12  16
ENDBRANCH   9  12
ENDBRANCH   6   9
ENDBRANCH   3   5
ENDBRANCH   2   3
BRANCH   2  23
ATOM     23  N   UNL     1      -2.291   4.783   6.357  1.00  0.00    -0.332 N 
ATOM     24  C   UNL     1      -1.428   5.826   5.822  1.00  0.00     0.147 C 
BRANCH  23  25
ATOM     25  C   UNL     1      -3.628   5.250   6.814  1.00  0.00     0.174 C 
BRANCH  25  26
ATOM     26  C   UNL     1      -3.615   6.712   7.320  1.00  0.00     0.038 C 
BRANCH  26  27
ATOM     27  C   UNL     1      -4.974   7.445   7.376  1.00  0.00    -0.015 C 
ATOM     28  C   UNL     1      -5.485   7.621   8.805  1.00  0.00     0.007 C 
ATOM     29  C   UNL     1      -4.973   8.782   6.638  1.00  0.00     0.007 C 
ENDBRANCH  26  27
ENDBRANCH  25  26
BRANCH  25  30
ATOM     30  C   UNL     1      -4.225   4.247   7.827  1.00  0.00     0.243 C 
ATOM     31  O   UNL     1      -4.015   4.341   9.036  1.00  0.00    -0.273 OA
ATOM     32  N   UNL     1      -4.993   3.246   7.290  1.00  0.00    -0.342 N 
ATOM     33  H   UNL     1      -5.237   3.317   6.298  1.00  0.00     0.164 HD
BRANCH  32  34
ATOM     34  C   UNL     1      -5.616   2.192   8.096  1.00  0.00     0.175 C 
BRANCH  34  35
ATOM     35  C   UNL     1      -6.449   1.241   7.223  1.00  0.00     0.070 C 
BRANCH  35  36
ATOM     36  C   UNL     1      -7.687   0.734   7.928  1.00  0.00    -0.045 A 
ATOM     37  C   UNL     1      -7.997   1.193   9.218  1.00  0.00     0.007 A 
ATOM     38  C   UNL     1      -8.525  -0.210   7.321  1.00  0.00     0.007 A 
ATOM     39  C   UNL     1      -9.130   0.721   9.881  1.00  0.00     0.046 A 
ATOM     40  C   UNL     1      -9.658  -0.684   7.985  1.00  0.00     0.046 A 
ATOM     41  C   UNL     1      -9.952  -0.212   9.261  1.00  0.00     0.115 A 
BRANCH  41  42
ATOM     42  O   UNL     1     -11.047  -0.649   9.945  1.00  0.00    -0.508 OA
ATOM     43  H   UNL     1     -11.837  -0.445   9.418  1.00  0.00     0.293 HD
ENDBRANCH  41  42
ENDBRANCH  35  36
ENDBRANCH  34  35
BRANCH  34  44
ATOM     44  C   UNL     1      -4.496   1.447   8.856  1.00  0.00     0.243 C 
ATOM     45  O   UNL     1      -3.630   0.762   8.320  1.00  0.00    -0.273 OA
ATOM     46  N   UNL     1      -4.627   1.511  10.227  1.00  0.00    -0.341 N 
ATOM     47  H   UNL     1      -5.429   1.994  10.625  1.00  0.00     0.164 HD
BRANCH  46  48
ATOM     48  C   UNL     1      -3.726   0.826  11.156  1.00  0.00     0.196 C 
BRANCH  48  49
ATOM     49  C   UNL     1      -3.797  -0.701  10.983  1.00  0.00     0.072 C 
BRANCH  49  50
ATOM     50  C   UNL     1      -5.201  -1.239  11.135  1.00  0.00    -0.045 A 
ATOM     51  C   UNL     1      -5.803  -1.931  10.074  1.00  0.00     0.007 A 
ATOM     52  C   UNL     1      -5.926  -1.039  12.317  1.00  0.00     0.007 A 
ATOM     53  C   UNL     1      -7.104  -2.420  10.198  1.00  0.00     0.046 A 
ATOM     54  C   UNL     1      -7.228  -1.528  12.441  1.00  0.00     0.046 A 
ATOM     55  C   UNL     1      -7.806  -2.216  11.379  1.00  0.00     0.115 A 
BRANCH  55  56
ATOM     56  O   UNL     1      -9.075  -2.709  11.459  1.00  0.00    -0.508 OA
ATOM     57  H   UNL     1      -9.207  -3.069  12.350  1.00  0.00     0.293 HD
ENDBRANCH  55  56
ENDBRANCH  49  50
ENDBRANCH  48  49
BRANCH  48  58
ATOM     58  C   UNL     1      -2.290   1.307  10.904  1.00  0.00     0.326 C 
ATOM     59  O   UNL     1      -1.787   2.357  11.268  1.00  0.00    -0.250 OA
BRANCH  58  60
ATOM     60  O   UNL     1      -1.537   0.420  10.205  1.00  0.00    -0.480 OA
ATOM     61  H   UNL     1      -1.150   0.967   9.488  1.00  0.00     0.296 HD
ENDBRANCH  58  60
ENDBRANCH  48  58
ENDBRANCH  46  48
ENDBRANCH  34  44
ENDBRANCH  32  34
ENDBRANCH  25  30
ENDBRANCH  23  25
ENDBRANCH   2  23
TORSDOF 28
ENDMDL
MODEL 8
REMARK VINA RESULT:    -7.214      2.014      8.491
REMARK INTER + INTRA:         -23.110
REMARK INTER:                 -17.874
REMARK INTRA:                  -5.236
REMARK UNBOUND:                -5.141
REMARK SMILES CCCCCCC[C@H](N)[C@H](O)C(=O)N[C@H](C)C(=O)N(C)[C@H](CC(C)C)C(=O)N[C@@H](Cc1ccc(O)cc1)C(=O)N[C@@H](Cc1ccc(O)cc1)C(=O)O
REMARK SMILES IDX 18 1 17 2 15 3 16 4 14 5 12 6 13 7 10 9 11 10 8 12 9 13 7 16
REMARK SMILES IDX 6 17 5 18 4 19 3 20 2 21 1 22 19 23 20 24 21 25 22 26 23 27
REMARK SMILES IDX 24 28 25 29 26 30 27 31 28 32 29 34 30 35 31 36 32 37 37 38
REMARK SMILES IDX 33 39 36 40 34 41 35 42 38 44 39 45 40 46 41 48 42 49 43 50
REMARK SMILES IDX 44 51 49 52 45 53 48 54 46 55 47 56 50 58 51 59 52 60
REMARK H PARENT 14 8 11 11 9 14 9 15 28 33 35 43 40 47 47 57 52 61
ROOT
ATOM      1  O   UNL     1      -5.220   2.562   8.285  1.00  0.00    -0.272 OA
ATOM      2  C   UNL     1      -4.409   2.032   7.511  1.00  0.00     0.245 C 
ENDROOT
BRANCH   2   3
ATOM      3  C   UNL     1      -4.786   0.681   6.853  1.00  0.00     0.168 C 
ATOM      4  C   UNL     1      -3.554  -0.001   6.269  1.00  0.00     0.041 C 
BRANCH   3   5
ATOM      5  N   UNL     1      -5.552  -0.219   7.702  1.00  0.00    -0.342 N 
ATOM      6  C   UNL     1      -6.516  -1.060   7.188  1.00  0.00     0.251 C 
ATOM      7  O   UNL     1      -6.828  -1.087   6.003  1.00  0.00    -0.272 OA
ATOM      8  H   UNL     1      -5.406  -0.261   8.708  1.00  0.00     0.164 HD
BRANCH   6   9
ATOM      9  C   UNL     1      -7.092  -2.018   8.244  1.00  0.00     0.219 C 
BRANCH   9  10
ATOM     10  O   UNL     1      -6.084  -2.816   8.875  1.00  0.00    -0.382 OA
ATOM     11  H   UNL     1      -6.588  -3.574   9.245  1.00  0.00     0.211 HD
ENDBRANCH   9  10
BRANCH   9  12
ATOM     12  C   UNL     1      -7.970  -1.301   9.302  1.00  0.00     0.089 C 
BRANCH  12  13
ATOM     13  N   UNL     1      -7.082  -0.757  10.355  1.00  0.00    -0.325 NA
ATOM     14  H   UNL     1      -6.326  -1.421  10.533  1.00  0.00     0.119 HD
ATOM     15  H   UNL     1      -7.603  -0.704  11.233  1.00  0.00     0.119 HD
ENDBRANCH  12  13
BRANCH  12  16
ATOM     16  C   UNL     1      -8.904  -0.188   8.768  1.00  0.00     0.022 C 
BRANCH  16  17
ATOM     17  C   UNL     1      -9.931   0.445   9.717  1.00  0.00     0.002 C 
BRANCH  17  18
ATOM     18  C   UNL     1     -11.245  -0.321   9.848  1.00  0.00     0.000 C 
BRANCH  18  19
ATOM     19  C   UNL     1     -12.306   0.399  10.691  1.00  0.00    -0.000 C 
BRANCH  19  20
ATOM     20  C   UNL     1     -11.835   1.693  11.362  1.00  0.00    -0.000 C 
BRANCH  20  21
ATOM     21  C   UNL     1     -11.985   1.667  12.885  1.00  0.00    -0.003 C 
ATOM     22  C   UNL     1     -10.633   1.553  13.573  1.00  0.00     0.004 C 
ENDBRANCH  20  21
ENDBRANCH  19  20
ENDBRANCH  18  19
ENDBRANCH  17  18
ENDBRANCH  16  17
ENDBRANCH  12  16
ENDBRANCH   9  12
ENDBRANCH   6   9
ENDBRANCH   3   5
ENDBRANCH   2   3
BRANCH   2  23
ATOM     23  N   UNL     1      -3.245   2.705   7.154  1.00  0.00    -0.332 N 
ATOM     24  C   UNL     1      -3.034   3.369   5.877  1.00  0.00     0.147 C 
BRANCH  23  25
ATOM     25  C   UNL     1      -2.155   2.898   8.149  1.00  0.00     0.174 C 
BRANCH  25  26
ATOM     26  C   UNL     1      -1.016   3.806   7.626  1.00  0.00     0.038 C 
BRANCH  26  27
ATOM     27  C   UNL     1      -0.784   5.138   8.373  1.00  0.00    -0.015 C 
ATOM     28  C   UNL     1      -0.252   4.928   9.791  1.00  0.00     0.007 C 
ATOM     29  C   UNL     1       0.102   6.117   7.607  1.00  0.00     0.007 C 
ENDBRANCH  26  27
ENDBRANCH  25  26
BRANCH  25  30
ATOM     30  C   UNL     1      -1.666   1.530   8.676  1.00  0.00     0.243 C 
ATOM     31  O   UNL     1      -0.797   0.882   8.095  1.00  0.00    -0.273 OA
ATOM     32  N   UNL     1      -2.270   1.086   9.825  1.00  0.00    -0.342 N 
ATOM     33  H   UNL     1      -2.877   1.741  10.324  1.00  0.00     0.164 HD
BRANCH  32  34
ATOM     34  C   UNL     1      -1.953  -0.199  10.452  1.00  0.00     0.175 C 
BRANCH  34  35
ATOM     35  C   UNL     1      -2.125  -0.134  11.978  1.00  0.00     0.070 C 
BRANCH  35  36
ATOM     36  C   UNL     1      -3.012   1.009  12.418  1.00  0.00    -0.045 A 
ATOM     37  C   UNL     1      -2.482   2.304  12.531  1.00  0.00     0.007 A 
ATOM     38  C   UNL     1      -4.358   0.793  12.739  1.00  0.00     0.007 A 
ATOM     39  C   UNL     1      -3.289   3.362  12.950  1.00  0.00     0.046 A 
ATOM     40  C   UNL     1      -5.166   1.852  13.159  1.00  0.00     0.046 A 
ATOM     41  C   UNL     1      -4.623   3.129  13.260  1.00  0.00     0.115 A 
BRANCH  41  42
ATOM     42  O   UNL     1      -5.376   4.190  13.668  1.00  0.00    -0.508 OA
ATOM     43  H   UNL     1      -6.185   3.848  14.083  1.00  0.00     0.293 HD
ENDBRANCH  41  42
ENDBRANCH  35  36
ENDBRANCH  34  35
BRANCH  34  44
ATOM     44  C   UNL     1      -2.856  -1.279   9.815  1.00  0.00     0.243 C 
ATOM     45  O   UNL     1      -4.016  -1.499  10.150  1.00  0.00    -0.273 OA
ATOM     46  N   UNL     1      -2.197  -2.079   8.906  1.00  0.00    -0.341 N 
ATOM     47  H   UNL     1      -1.203  -1.931   8.747  1.00  0.00     0.164 HD
BRANCH  46  48
ATOM     48  C   UNL     1      -2.827  -3.211   8.223  1.00  0.00     0.196 C 
BRANCH  48  49
ATOM     49  C   UNL     1      -2.147  -3.501   6.874  1.00  0.00     0.072 C 
BRANCH  49  50
ATOM     50  C   UNL     1      -3.101  -4.083   5.855  1.00  0.00    -0.045 A 
ATOM     51  C   UNL     1      -2.663  -5.091   4.984  1.00  0.00     0.007 A 
ATOM     52  C   UNL     1      -4.417  -3.615   5.751  1.00  0.00     0.007 A 
ATOM     53  C   UNL     1      -3.530  -5.626   4.032  1.00  0.00     0.046 A 
ATOM     54  C   UNL     1      -5.285  -4.151   4.796  1.00  0.00     0.046 A 
ATOM     55  C   UNL     1      -4.834  -5.153   3.945  1.00  0.00     0.115 A 
BRANCH  55  56
ATOM     56  O   UNL     1      -5.648  -5.701   2.999  1.00  0.00    -0.508 OA
ATOM     57  H   UNL     1      -5.311  -5.453   2.123  1.00  0.00     0.293 HD
ENDBRANCH  55  56
ENDBRANCH  49  50
ENDBRANCH  48  49
BRANCH  48  58
ATOM     58  C   UNL     1      -2.733  -4.451   9.123  1.00  0.00     0.326 C 
ATOM     59  O   UNL     1      -1.844  -5.287   9.140  1.00  0.00    -0.250 OA
BRANCH  58  60
ATOM     60  O   UNL     1      -3.774  -4.575   9.984  1.00  0.00    -0.480 OA
ATOM     61  H   UNL     1      -3.642  -5.467  10.373  1.00  0.00     0.296 HD
ENDBRANCH  58  60
ENDBRANCH  48  58
ENDBRANCH  46  48
ENDBRANCH  34  44
ENDBRANCH  32  34
ENDBRANCH  25  30
ENDBRANCH  23  25
ENDBRANCH   2  23
TORSDOF 28
ENDMDL
MODEL 9
REMARK VINA RESULT:    -7.139      2.303      4.056
REMARK INTER + INTRA:         -22.923
REMARK INTER:                 -18.175
REMARK INTRA:                  -4.748
REMARK UNBOUND:                -5.141
REMARK SMILES CCCCCCC[C@H](N)[C@H](O)C(=O)N[C@H](C)C(=O)N(C)[C@H](CC(C)C)C(=O)N[C@@H](Cc1ccc(O)cc1)C(=O)N[C@@H](Cc1ccc(O)cc1)C(=O)O
REMARK SMILES IDX 18 1 17 2 15 3 16 4 14 5 12 6 13 7 10 9 11 10 8 12 9 13 7 16
REMARK SMILES IDX 6 17 5 18 4 19 3 20 2 21 1 22 19 23 20 24 21 25 22 26 23 27
REMARK SMILES IDX 24 28 25 29 26 30 27 31 28 32 29 34 30 35 31 36 32 37 37 38
REMARK SMILES IDX 33 39 36 40 34 41 35 42 38 44 39 45 40 46 41 48 42 49 43 50
REMARK SMILES IDX 44 51 49 52 45 53 48 54 46 55 47 56 50 58 51 59 52 60
REMARK H PARENT 14 8 11 11 9 14 9 15 28 33 35 43 40 47 47 57 52 61
ROOT
ATOM      1  O   UNL     1      -5.090   2.255  11.467  1.00  0.00    -0.272 OA
ATOM      2  C   UNL     1      -6.133   2.099  10.814  1.00  0.00     0.245 C 
ENDROOT
BRANCH   2   3
ATOM      3  C   UNL     1      -6.584   3.230   9.856  1.00  0.00     0.168 C 
ATOM      4  C   UNL     1      -7.453   4.246  10.590  1.00  0.00     0.041 C 
BRANCH   3   5
ATOM      5  N   UNL     1      -5.507   3.871   9.117  1.00  0.00    -0.342 N 
ATOM      6  C   UNL     1      -5.161   3.472   7.844  1.00  0.00     0.251 C 
ATOM      7  O   UNL     1      -5.695   2.536   7.259  1.00  0.00    -0.272 OA
ATOM      8  H   UNL     1      -4.968   4.638   9.512  1.00  0.00     0.164 HD
BRANCH   6   9
ATOM      9  C   UNL     1      -4.097   4.380   7.205  1.00  0.00     0.219 C 
BRANCH   9  10
ATOM     10  O   UNL     1      -4.259   5.758   7.564  1.00  0.00    -0.382 OA
ATOM     11  H   UNL     1      -4.599   6.173   6.742  1.00  0.00     0.211 HD
ENDBRANCH   9  10
BRANCH   9  12
ATOM     12  C   UNL     1      -2.647   3.906   7.481  1.00  0.00     0.089 C 
BRANCH  12  13
ATOM     13  N   UNL     1      -2.697   2.787   8.450  1.00  0.00    -0.325 NA
ATOM     14  H   UNL     1      -2.002   2.945   9.182  1.00  0.00     0.119 HD
ATOM     15  H   UNL     1      -2.400   1.928   7.980  1.00  0.00     0.119 HD
ENDBRANCH  12  13
BRANCH  12  16
ATOM     16  C   UNL     1      -1.820   3.496   6.239  1.00  0.00     0.022 C 
BRANCH  16  17
ATOM     17  C   UNL     1      -0.292   3.399   6.357  1.00  0.00     0.002 C 
BRANCH  17  18
ATOM     18  C   UNL     1       0.431   4.738   6.479  1.00  0.00     0.000 C 
BRANCH  18  19
ATOM     19  C   UNL     1       0.378   5.595   5.206  1.00  0.00    -0.000 C 
BRANCH  19  20
ATOM     20  C   UNL     1       1.236   5.087   4.044  1.00  0.00    -0.000 C 
BRANCH  20  21
ATOM     21  C   UNL     1       1.302   6.071   2.873  1.00  0.00    -0.003 C 
ATOM     22  C   UNL     1       1.074   7.501   3.337  1.00  0.00     0.004 C 
ENDBRANCH  20  21
ENDBRANCH  19  20
ENDBRANCH  18  19
ENDBRANCH  17  18
ENDBRANCH  16  17
ENDBRANCH  12  16
ENDBRANCH   9  12
ENDBRANCH   6   9
ENDBRANCH   3   5
ENDBRANCH   2   3
BRANCH   2  23
ATOM     23  N   UNL     1      -6.804   0.882  10.857  1.00  0.00    -0.332 N 
ATOM     24  C   UNL     1      -7.168   0.182  12.080  1.00  0.00     0.147 C 
BRANCH  23  25
ATOM     25  C   UNL     1      -7.321   0.265   9.604  1.00  0.00     0.174 C 
BRANCH  25  26
ATOM     26  C   UNL     1      -8.688  -0.433   9.796  1.00  0.00     0.038 C 
BRANCH  26  27
ATOM     27  C   UNL     1      -9.467  -0.809   8.516  1.00  0.00    -0.015 C 
ATOM     28  C   UNL     1      -9.248   0.192   7.383  1.00  0.00     0.007 C 
ATOM     29  C   UNL     1      -9.196  -2.232   8.036  1.00  0.00     0.007 C 
ENDBRANCH  26  27
ENDBRANCH  25  26
BRANCH  25  30
ATOM     30  C   UNL     1      -6.241  -0.646   8.976  1.00  0.00     0.243 C 
ATOM     31  O   UNL     1      -5.645  -1.497   9.634  1.00  0.00    -0.273 OA
ATOM     32  N   UNL     1      -5.990  -0.436   7.644  1.00  0.00    -0.342 N 
ATOM     33  H   UNL     1      -6.623   0.187   7.135  1.00  0.00     0.164 HD
BRANCH  32  34
ATOM     34  C   UNL     1      -4.982  -1.187   6.890  1.00  0.00     0.175 C 
BRANCH  34  35
ATOM     35  C   UNL     1      -5.467  -1.497   5.465  1.00  0.00     0.070 C 
BRANCH  35  36
ATOM     36  C   UNL     1      -4.978  -2.836   4.960  1.00  0.00    -0.045 A 
ATOM     37  C   UNL     1      -3.929  -3.494   5.619  1.00  0.00     0.007 A 
ATOM     38  C   UNL     1      -5.546  -3.426   3.823  1.00  0.00     0.007 A 
ATOM     39  C   UNL     1      -3.462  -4.724   5.153  1.00  0.00     0.046 A 
ATOM     40  C   UNL     1      -5.078  -4.656   3.355  1.00  0.00     0.046 A 
ATOM     41  C   UNL     1      -4.041  -5.295   4.025  1.00  0.00     0.115 A 
BRANCH  41  42
ATOM     42  O   UNL     1      -3.554  -6.495   3.601  1.00  0.00    -0.508 OA
ATOM     43  H   UNL     1      -2.900  -6.806   4.249  1.00  0.00     0.293 HD
ENDBRANCH  41  42
ENDBRANCH  35  36
ENDBRANCH  34  35
BRANCH  34  44
ATOM     44  C   UNL     1      -3.675  -0.364   6.889  1.00  0.00     0.243 C 
ATOM     45  O   UNL     1      -3.486   0.639   6.205  1.00  0.00    -0.273 OA
ATOM     46  N   UNL     1      -2.667  -0.933   7.638  1.00  0.00    -0.341 N 
ATOM     47  H   UNL     1      -2.835  -1.827   8.094  1.00  0.00     0.164 HD
BRANCH  46  48
ATOM     48  C   UNL     1      -1.318  -0.372   7.734  1.00  0.00     0.196 C 
BRANCH  48  49
ATOM     49  C   UNL     1      -0.576  -0.903   8.972  1.00  0.00     0.072 C 
BRANCH  49  50
ATOM     50  C   UNL     1      -1.461  -0.969  10.196  1.00  0.00    -0.045 A 
ATOM     51  C   UNL     1      -2.035  -2.191  10.579  1.00  0.00     0.007 A 
ATOM     52  C   UNL     1      -1.736   0.179  10.949  1.00  0.00     0.007 A 
ATOM     53  C   UNL     1      -2.863  -2.261  11.699  1.00  0.00     0.046 A 
ATOM     54  C   UNL     1      -2.566   0.109  12.070  1.00  0.00     0.046 A 
ATOM     55  C   UNL     1      -3.123  -1.112  12.436  1.00  0.00     0.115 A 
BRANCH  55  56
ATOM     56  O   UNL     1      -3.939  -1.223  13.523  1.00  0.00    -0.508 OA
ATOM     57  H   UNL     1      -3.462  -0.889  14.299  1.00  0.00     0.293 HD
ENDBRANCH  55  56
ENDBRANCH  49  50
ENDBRANCH  48  49
BRANCH  48  58
ATOM     58  C   UNL     1      -0.533  -0.739   6.467  1.00  0.00     0.326 C 
ATOM     59  O   UNL     1       0.112   0.012   5.753  1.00  0.00    -0.250 OA
BRANCH  58  60
ATOM     60  O   UNL     1      -0.587  -2.059   6.160  1.00  0.00    -0.480 OA
ATOM     61  H   UNL     1      -0.120  -2.485   6.912  1.00  0.00     0.296 HD
ENDBRANCH  58  60
ENDBRANCH  48  58
ENDBRANCH  46  48
ENDBRANCH  34  44
ENDBRANCH  32  34
ENDBRANCH  25  30
ENDBRANCH  23  25
ENDBRANCH   2  23
TORSDOF 28
ENDMDL
MODEL 10
REMARK VINA RESULT:    -7.125      2.761      6.841
REMARK INTER + INTRA:         -22.888
REMARK INTER:                 -17.903
REMARK INTRA:                  -4.984
REMARK UNBOUND:                -5.141
REMARK SMILES CCCCCCC[C@H](N)[C@H](O)C(=O)N[C@H](C)C(=O)N(C)[C@H](CC(C)C)C(=O)N[C@@H](Cc1ccc(O)cc1)C(=O)N[C@@H](Cc1ccc(O)cc1)C(=O)O
REMARK SMILES IDX 18 1 17 2 15 3 16 4 14 5 12 6 13 7 10 9 11 10 8 12 9 13 7 16
REMARK SMILES IDX 6 17 5 18 4 19 3 20 2 21 1 22 19 23 20 24 21 25 22 26 23 27
REMARK SMILES IDX 24 28 25 29 26 30 27 31 28 32 29 34 30 35 31 36 32 37 37 38
REMARK SMILES IDX 33 39 36 40 34 41 35 42 38 44 39 45 40 46 41 48 42 49 43 50
REMARK SMILES IDX 44 51 49 52 45 53 48 54 46 55 47 56 50 58 51 59 52 60
REMARK H PARENT 14 8 11 11 9 14 9 15 28 33 35 43 40 47 47 57 52 61
ROOT
ATOM      1  O   UNL     1      -3.511   3.934   8.337  1.00  0.00    -0.272 OA
ATOM      2  C   UNL     1      -4.219   3.213   9.055  1.00  0.00     0.245 C 
ENDROOT
BRANCH   2   3
ATOM      3  C   UNL     1      -4.088   3.340  10.593  1.00  0.00     0.168 C 
ATOM      4  C   UNL     1      -4.730   4.632  11.087  1.00  0.00     0.041 C 
BRANCH   3   5
ATOM      5  N   UNL     1      -4.551   2.183  11.344  1.00  0.00    -0.342 N 
ATOM      6  C   UNL     1      -3.910   1.753  12.486  1.00  0.00     0.251 C 
ATOM      7  O   UNL     1      -2.893   2.276  12.929  1.00  0.00    -0.272 OA
ATOM      8  H   UNL     1      -5.365   1.647  11.054  1.00  0.00     0.164 HD
BRANCH   6   9
ATOM      9  C   UNL     1      -4.655   0.606  13.189  1.00  0.00     0.219 C 
BRANCH   9  10
ATOM     10  O   UNL     1      -5.726   1.070  14.019  1.00  0.00    -0.382 OA
ATOM     11  H   UNL     1      -6.352   1.479  13.382  1.00  0.00     0.211 HD
ENDBRANCH   9  10
BRANCH   9  12
ATOM     12  C   UNL     1      -5.151  -0.489  12.209  1.00  0.00     0.089 C 
BRANCH  12  13
ATOM     13  N   UNL     1      -4.501  -1.769  12.571  1.00  0.00    -0.325 NA
ATOM     14  H   UNL     1      -4.877  -2.097  13.462  1.00  0.00     0.119 HD
ATOM     15  H   UNL     1      -3.508  -1.598  12.746  1.00  0.00     0.119 HD
ENDBRANCH  12  13
BRANCH  12  16
ATOM     16  C   UNL     1      -6.685  -0.677  12.124  1.00  0.00     0.022 C 
BRANCH  16  17
ATOM     17  C   UNL     1      -7.246  -1.955  11.486  1.00  0.00     0.002 C 
BRANCH  17  18
ATOM     18  C   UNL     1      -8.449  -1.743  10.569  1.00  0.00     0.000 C 
BRANCH  18  19
ATOM     19  C   UNL     1      -9.232  -0.455  10.854  1.00  0.00    -0.000 C 
BRANCH  19  20
ATOM     20  C   UNL     1      -9.982   0.129   9.653  1.00  0.00    -0.000 C 
BRANCH  20  21
ATOM     21  C   UNL     1     -11.117   1.074  10.057  1.00  0.00    -0.003 C 
ATOM     22  C   UNL     1     -12.267   0.318  10.702  1.00  0.00     0.004 C 
ENDBRANCH  20  21
ENDBRANCH  19  20
ENDBRANCH  18  19
ENDBRANCH  17  18
ENDBRANCH  16  17
ENDBRANCH  12  16
ENDBRANCH   9  12
ENDBRANCH   6   9
ENDBRANCH   3   5
ENDBRANCH   2   3
BRANCH   2  23
ATOM     23  N   UNL     1      -5.193   2.402   8.481  1.00  0.00    -0.332 N 
ATOM     24  C   UNL     1      -6.566   2.813   8.227  1.00  0.00     0.147 C 
BRANCH  23  25
ATOM     25  C   UNL     1      -4.835   1.055   7.957  1.00  0.00     0.174 C 
BRANCH  25  26
ATOM     26  C   UNL     1      -5.835  -0.044   8.388  1.00  0.00     0.038 C 
BRANCH  26  27
ATOM     27  C   UNL     1      -6.418  -0.938   7.271  1.00  0.00    -0.015 C 
ATOM     28  C   UNL     1      -7.875  -0.602   6.955  1.00  0.00     0.007 C 
ATOM     29  C   UNL     1      -5.578  -0.941   5.996  1.00  0.00     0.007 C 
ENDBRANCH  26  27
ENDBRANCH  25  26
BRANCH  25  30
ATOM     30  C   UNL     1      -3.364   0.725   8.297  1.00  0.00     0.243 C 
ATOM     31  O   UNL     1      -3.035   0.282   9.396  1.00  0.00    -0.273 OA
ATOM     32  N   UNL     1      -2.456   0.965   7.298  1.00  0.00    -0.342 N 
ATOM     33  H   UNL     1      -2.822   1.197   6.371  1.00  0.00     0.164 HD
BRANCH  32  34
ATOM     34  C   UNL     1      -1.017   0.737   7.451  1.00  0.00     0.175 C 
BRANCH  34  35
ATOM     35  C   UNL     1      -0.567  -0.525   6.697  1.00  0.00     0.070 C 
BRANCH  35  36
ATOM     36  C   UNL     1      -1.102  -1.797   7.316  1.00  0.00    -0.045 A 
ATOM     37  C   UNL     1      -0.744  -2.143   8.628  1.00  0.00     0.007 A 
ATOM     38  C   UNL     1      -1.937  -2.655   6.589  1.00  0.00     0.007 A 
ATOM     39  C   UNL     1      -1.221  -3.322   9.203  1.00  0.00     0.046 A 
ATOM     40  C   UNL     1      -2.414  -3.835   7.163  1.00  0.00     0.046 A 
ATOM     41  C   UNL     1      -2.052  -4.157   8.467  1.00  0.00     0.115 A 
BRANCH  41  42
ATOM     42  O   UNL     1      -2.493  -5.301   9.064  1.00  0.00    -0.508 OA
ATOM     43  H   UNL     1      -2.466  -5.172  10.026  1.00  0.00     0.293 HD
ENDBRANCH  41  42
ENDBRANCH  35  36
ENDBRANCH  34  35
BRANCH  34  44
ATOM     44  C   UNL     1      -0.277   2.000   6.955  1.00  0.00     0.243 C 
ATOM     45  O   UNL     1       0.682   1.986   6.188  1.00  0.00    -0.273 OA
ATOM     46  N   UNL     1      -0.709   3.162   7.558  1.00  0.00    -0.341 N 
ATOM     47  H   UNL     1      -1.429   3.108   8.275  1.00  0.00     0.164 HD
BRANCH  46  48
ATOM     48  C   UNL     1      -0.113   4.474   7.300  1.00  0.00     0.196 C 
BRANCH  48  49
ATOM     49  C   UNL     1      -0.977   5.301   6.332  1.00  0.00     0.072 C 
BRANCH  49  50
ATOM     50  C   UNL     1      -0.175   5.885   5.191  1.00  0.00    -0.045 A 
ATOM     51  C   UNL     1       0.872   5.146   4.622  1.00  0.00     0.007 A 
ATOM     52  C   UNL     1      -0.448   7.169   4.702  1.00  0.00     0.007 A 
ATOM     53  C   UNL     1       1.627   5.680   3.578  1.00  0.00     0.046 A 
ATOM     54  C   UNL     1       0.309   7.704   3.657  1.00  0.00     0.046 A 
ATOM     55  C   UNL     1       1.340   6.954   3.103  1.00  0.00     0.115 A 
BRANCH  55  56
ATOM     56  O   UNL     1       2.102   7.440   2.082  1.00  0.00    -0.508 OA
ATOM     57  H   UNL     1       2.156   6.762   1.390  1.00  0.00     0.293 HD
ENDBRANCH  55  56
ENDBRANCH  49  50
ENDBRANCH  48  49
BRANCH  48  58
ATOM     58  C   UNL     1       0.034   5.226   8.630  1.00  0.00     0.326 C 
ATOM     59  O   UNL     1       0.084   4.744   9.750  1.00  0.00    -0.250 OA
BRANCH  58  60
ATOM     60  O   UNL     1       0.129   6.572   8.483  1.00  0.00    -0.480 OA
ATOM     61  H   UNL     1      -0.613   6.911   9.029  1.00  0.00     0.296 HD
ENDBRANCH  58  60
ENDBRANCH  48  58
ENDBRANCH  46  48
ENDBRANCH  34  44
ENDBRANCH  32  34
ENDBRANCH  25  30
ENDBRANCH  23  25
ENDBRANCH   2  23
TORSDOF 28
ENDMDL
