MODEL 1
REMARK VINA RESULT:    -6.594      0.000      0.000
REMARK INTER + INTRA:         -20.685
REMARK INTER:                 -16.424
REMARK INTRA:                  -4.260
REMARK UNBOUND:                -4.260
REMARK SMILES CCCCCCC[C@H](N)[C@H](O)C(=O)N[C@H](C)C(=O)N(C)[C@H](CC(C)C)C(=O)N[C@@H](Cc1ccc(O)cc1)C(=O)N[C@@H](Cc1ccc(O)cc1)C(=O)O
REMARK SMILES IDX 18 1 17 2 15 3 16 4 14 5 12 6 13 7 10 9 11 10 8 12 9 13 7 16
REMARK SMILES IDX 6 17 5 18 4 19 3 20 2 21 1 22 19 23 20 24 21 25 22 26 23 27
REMARK SMILES IDX 24 28 25 29 26 30 27 31 28 32 29 34 30 35 31 36 32 37 37 38
REMARK SMILES IDX 33 39 36 40 34 41 35 42 38 44 39 45 40 46 41 48 42 49 43 50
REMARK SMILES IDX 44 51 49 52 45 53 48 54 46 55 47 56 50 58 51 59 52 60
REMARK H PARENT 14 8 11 11 9 14 9 15 28 33 35 43 40 47 47 57 52 61
ROOT
ATOM      1  O   UNL     1      -4.574  -2.687 -11.246  1.00  0.00    -0.272 OA
ATOM      2  C   UNL     1      -5.204  -1.742 -10.748  1.00  0.00     0.245 C 
ENDROOT
BRANCH   2   3
ATOM      3  C   UNL     1      -6.323  -2.057  -9.723  1.00  0.00     0.168 C 
ATOM      4  C   UNL     1      -6.806  -3.495  -9.873  1.00  0.00     0.041 C 
BRANCH   3   5
ATOM      5  N   UNL     1      -5.995  -1.736  -8.343  1.00  0.00    -0.342 N 
ATOM      6  C   UNL     1      -5.020  -2.420  -7.648  1.00  0.00     0.251 C 
ATOM      7  O   UNL     1      -4.392  -3.364  -8.116  1.00  0.00    -0.272 OA
ATOM      8  H   UNL     1      -6.473  -0.994  -7.837  1.00  0.00     0.164 HD
BRANCH   6   9
ATOM      9  C   UNL     1      -4.746  -1.819  -6.260  1.00  0.00     0.219 C 
BRANCH   9  10
ATOM     10  O   UNL     1      -5.880  -1.904  -5.388  1.00  0.00    -0.382 OA
ATOM     11  H   UNL     1      -6.556  -2.363  -5.932  1.00  0.00     0.211 HD
ENDBRANCH   9  10
BRANCH   9  12
ATOM     12  C   UNL     1      -3.483  -2.407  -5.580  1.00  0.00     0.089 C 
BRANCH  12  13
ATOM     13  N   UNL     1      -2.288  -1.885  -6.283  1.00  0.00    -0.325 NA
ATOM     14  H   UNL     1      -1.989  -1.016  -5.837  1.00  0.00     0.119 HD
ATOM     15  H   UNL     1      -2.554  -1.619  -7.234  1.00  0.00     0.119 HD
ENDBRANCH  12  13
BRANCH  12  16
ATOM     16  C   UNL     1      -3.354  -2.159  -4.058  1.00  0.00     0.022 C 
BRANCH  16  17
ATOM     17  C   UNL     1      -3.750  -3.277  -3.083  1.00  0.00     0.002 C 
BRANCH  17  18
ATOM     18  C   UNL     1      -2.616  -3.793  -2.200  1.00  0.00     0.000 C 
BRANCH  18  19
ATOM     19  C   UNL     1      -2.504  -5.323  -2.159  1.00  0.00    -0.000 C 
BRANCH  19  20
ATOM     20  C   UNL     1      -1.132  -5.863  -1.745  1.00  0.00    -0.000 C 
BRANCH  20  21
ATOM     21  C   UNL     1      -0.367  -6.509  -2.904  1.00  0.00    -0.003 C 
ATOM     22  C   UNL     1      -0.419  -5.643  -4.153  1.00  0.00     0.004 C 
ENDBRANCH  20  21
ENDBRANCH  19  20
ENDBRANCH  18  19
ENDBRANCH  17  18
ENDBRANCH  16  17
ENDBRANCH  12  16
ENDBRANCH   9  12
ENDBRANCH   6   9
ENDBRANCH   3   5
ENDBRANCH   2   3
BRANCH   2  23
ATOM     23  N   UNL     1      -4.822  -0.432 -11.017  1.00  0.00    -0.332 N 
ATOM     24  C   UNL     1      -5.728   0.706 -11.027  1.00  0.00     0.147 C 
BRANCH  23  25
ATOM     25  C   UNL     1      -3.384  -0.090 -11.193  1.00  0.00     0.174 C 
BRANCH  25  26
ATOM     26  C   UNL     1      -2.843  -0.466 -12.593  1.00  0.00     0.038 C 
BRANCH  26  27
ATOM     27  C   UNL     1      -1.821   0.501 -13.231  1.00  0.00    -0.015 C 
ATOM     28  C   UNL     1      -1.558   1.730 -12.361  1.00  0.00     0.007 C 
ATOM     29  C   UNL     1      -0.508  -0.173 -13.619  1.00  0.00     0.007 C 
ENDBRANCH  26  27
ENDBRANCH  25  26
BRANCH  25  30
ATOM     30  C   UNL     1      -2.552  -0.673 -10.028  1.00  0.00     0.243 C 
ATOM     31  O   UNL     1      -2.740  -0.333  -8.861  1.00  0.00    -0.273 OA
ATOM     32  N   UNL     1      -1.591  -1.584 -10.383  1.00  0.00    -0.342 N 
ATOM     33  H   UNL     1      -1.590  -1.920 -11.350  1.00  0.00     0.164 HD
BRANCH  32  34
ATOM     34  C   UNL     1      -0.691  -2.219  -9.416  1.00  0.00     0.175 C 
BRANCH  34  35
ATOM     35  C   UNL     1      -0.343  -3.655  -9.836  1.00  0.00     0.070 C 
BRANCH  35  36
ATOM     36  C   UNL     1      -1.295  -4.680  -9.261  1.00  0.00    -0.045 A 
ATOM     37  C   UNL     1      -1.236  -5.005  -7.898  1.00  0.00     0.007 A 
ATOM     38  C   UNL     1      -2.227  -5.332 -10.078  1.00  0.00     0.007 A 
ATOM     39  C   UNL     1      -2.101  -5.959  -7.361  1.00  0.00     0.046 A 
ATOM     40  C   UNL     1      -3.093  -6.289  -9.542  1.00  0.00     0.046 A 
ATOM     41  C   UNL     1      -3.023  -6.593  -8.187  1.00  0.00     0.115 A 
BRANCH  41  42
ATOM     42  O   UNL     1      -3.848  -7.521  -7.624  1.00  0.00    -0.508 OA
ATOM     43  H   UNL     1      -4.578  -7.053  -7.186  1.00  0.00     0.293 HD
ENDBRANCH  41  42
ENDBRANCH  35  36
ENDBRANCH  34  35
BRANCH  34  44
ATOM     44  C   UNL     1       0.569  -1.334  -9.283  1.00  0.00     0.243 C 
ATOM     45  O   UNL     1       1.715  -1.767  -9.197  1.00  0.00    -0.273 OA
ATOM     46  N   UNL     1       0.285   0.007  -9.134  1.00  0.00    -0.341 N 
ATOM     47  H   UNL     1      -0.687   0.304  -9.094  1.00  0.00     0.164 HD
BRANCH  46  48
ATOM     48  C   UNL     1       1.312   1.029  -8.924  1.00  0.00     0.196 C 
BRANCH  48  49
ATOM     49  C   UNL     1       1.545   1.860 -10.197  1.00  0.00     0.072 C 
BRANCH  49  50
ATOM     50  C   UNL     1       2.836   1.501 -10.897  1.00  0.00    -0.045 A 
ATOM     51  C   UNL     1       2.802   0.780 -12.100  1.00  0.00     0.007 A 
ATOM     52  C   UNL     1       4.075   1.861 -10.352  1.00  0.00     0.007 A 
ATOM     53  C   UNL     1       3.987   0.432 -12.748  1.00  0.00     0.046 A 
ATOM     54  C   UNL     1       5.262   1.511 -11.001  1.00  0.00     0.046 A 
ATOM     55  C   UNL     1       5.208   0.800 -12.195  1.00  0.00     0.115 A 
BRANCH  55  56
ATOM     56  O   UNL     1       6.343   0.439 -12.858  1.00  0.00    -0.508 OA
ATOM     57  H   UNL     1       6.944   1.201 -12.873  1.00  0.00     0.293 HD
ENDBRANCH  55  56
ENDBRANCH  49  50
ENDBRANCH  48  49
BRANCH  48  58
ATOM     58  C   UNL     1       0.869   1.953  -7.780  1.00  0.00     0.326 C 
ATOM     59  O   UNL     1      -0.252   2.064  -7.312  1.00  0.00    -0.250 OA
BRANCH  58  60
ATOM     60  O   UNL     1       1.880   2.695  -7.262  1.00  0.00    -0.480 OA
ATOM     61  H   UNL     1       1.612   3.617  -7.467  1.00  0.00     0.296 HD
ENDBRANCH  58  60
ENDBRANCH  48  58
ENDBRANCH  46  48
ENDBRANCH  34  44
ENDBRANCH  32  34
ENDBRANCH  25  30
ENDBRANCH  23  25
ENDBRANCH   2  23
TORSDOF 28
ENDMDL
MODEL 2
REMARK VINA RESULT:    -6.380      2.529      8.050
REMARK INTER + INTRA:         -20.151
REMARK INTER:                 -15.738
REMARK INTRA:                  -4.413
REMARK UNBOUND:                -4.260
REMARK SMILES CCCCCCC[C@H](N)[C@H](O)C(=O)N[C@H](C)C(=O)N(C)[C@H](CC(C)C)C(=O)N[C@@H](Cc1ccc(O)cc1)C(=O)N[C@@H](Cc1ccc(O)cc1)C(=O)O
REMARK SMILES IDX 18 1 17 2 15 3 16 4 14 5 12 6 13 7 10 9 11 10 8 12 9 13 7 16
REMARK SMILES IDX 6 17 5 18 4 19 3 20 2 21 1 22 19 23 20 24 21 25 22 26 23 27
REMARK SMILES IDX 24 28 25 29 26 30 27 31 28 32 29 34 30 35 31 36 32 37 37 38
REMARK SMILES IDX 33 39 36 40 34 41 35 42 38 44 39 45 40 46 41 48 42 49 43 50
REMARK SMILES IDX 44 51 49 52 45 53 48 54 46 55 47 56 50 58 51 59 52 60
REMARK H PARENT 14 8 11 11 9 14 9 15 28 33 35 43 40 47 47 57 52 61
ROOT
ATOM      1  O   UNL     1      -4.010   0.129  -9.330  1.00  0.00    -0.272 OA
ATOM      2  C   UNL     1      -2.813   0.383  -9.532  1.00  0.00     0.245 C 
ENDROOT
BRANCH   2   3
ATOM      3  C   UNL     1      -2.108  -0.287 -10.738  1.00  0.00     0.168 C 
ATOM      4  C   UNL     1      -2.898  -0.059 -12.022  1.00  0.00     0.041 C 
BRANCH   3   5
ATOM      5  N   UNL     1      -0.705   0.062 -10.896  1.00  0.00    -0.342 N 
ATOM      6  C   UNL     1       0.221  -0.843 -11.369  1.00  0.00     0.251 C 
ATOM      7  O   UNL     1      -0.051  -2.006 -11.650  1.00  0.00    -0.272 OA
ATOM      8  H   UNL     1      -0.353   0.987 -10.663  1.00  0.00     0.164 HD
BRANCH   6   9
ATOM      9  C   UNL     1       1.607  -0.216 -11.588  1.00  0.00     0.219 C 
BRANCH   9  10
ATOM     10  O   UNL     1       1.595   0.821 -12.576  1.00  0.00    -0.382 OA
ATOM     11  H   UNL     1       1.338   1.622 -12.068  1.00  0.00     0.211 HD
ENDBRANCH   9  10
BRANCH   9  12
ATOM     12  C   UNL     1       2.265   0.282 -10.275  1.00  0.00     0.089 C 
BRANCH  12  13
ATOM     13  N   UNL     1       1.871  -0.633  -9.179  1.00  0.00    -0.325 NA
ATOM     14  H   UNL     1       0.922  -0.405  -8.876  1.00  0.00     0.119 HD
ATOM     15  H   UNL     1       2.463  -0.448  -8.365  1.00  0.00     0.119 HD
ENDBRANCH  12  13
BRANCH  12  16
ATOM     16  C   UNL     1       3.803   0.444 -10.305  1.00  0.00     0.022 C 
BRANCH  16  17
ATOM     17  C   UNL     1       4.404   1.809 -10.668  1.00  0.00     0.002 C 
BRANCH  17  18
ATOM     18  C   UNL     1       3.819   2.994  -9.902  1.00  0.00     0.000 C 
BRANCH  18  19
ATOM     19  C   UNL     1       3.647   2.743  -8.398  1.00  0.00    -0.000 C 
BRANCH  19  20
ATOM     20  C   UNL     1       2.622   3.643  -7.702  1.00  0.00    -0.000 C 
BRANCH  20  21
ATOM     21  C   UNL     1       2.380   3.257  -6.240  1.00  0.00    -0.003 C 
ATOM     22  C   UNL     1       2.388   1.747  -6.057  1.00  0.00     0.004 C 
ENDBRANCH  20  21
ENDBRANCH  19  20
ENDBRANCH  18  19
ENDBRANCH  17  18
ENDBRANCH  16  17
ENDBRANCH  12  16
ENDBRANCH   9  12
ENDBRANCH   6   9
ENDBRANCH   3   5
ENDBRANCH   2   3
BRANCH   2  23
ATOM     23  N   UNL     1      -2.165   1.342  -8.762  1.00  0.00    -0.332 N 
ATOM     24  C   UNL     1      -1.707   2.630  -9.260  1.00  0.00     0.147 C 
BRANCH  23  25
ATOM     25  C   UNL     1      -2.010   1.147  -7.294  1.00  0.00     0.174 C 
BRANCH  25  26
ATOM     26  C   UNL     1      -1.245   2.304  -6.610  1.00  0.00     0.038 C 
BRANCH  26  27
ATOM     27  C   UNL     1      -1.619   2.621  -5.145  1.00  0.00    -0.015 C 
ATOM     28  C   UNL     1      -3.104   2.403  -4.860  1.00  0.00     0.007 C 
ATOM     29  C   UNL     1      -0.762   1.875  -4.125  1.00  0.00     0.007 C 
ENDBRANCH  26  27
ENDBRANCH  25  26
BRANCH  25  30
ATOM     30  C   UNL     1      -1.413  -0.250  -7.003  1.00  0.00     0.243 C 
ATOM     31  O   UNL     1      -0.200  -0.451  -7.006  1.00  0.00    -0.273 OA
ATOM     32  N   UNL     1      -2.324  -1.243  -6.750  1.00  0.00    -0.342 N 
ATOM     33  H   UNL     1      -3.302  -0.969  -6.627  1.00  0.00     0.164 HD
BRANCH  32  34
ATOM     34  C   UNL     1      -1.942  -2.632  -6.482  1.00  0.00     0.175 C 
BRANCH  34  35
ATOM     35  C   UNL     1      -3.011  -3.354  -5.647  1.00  0.00     0.070 C 
BRANCH  35  36
ATOM     36  C   UNL     1      -2.440  -4.019  -4.415  1.00  0.00    -0.045 A 
ATOM     37  C   UNL     1      -1.624  -5.153  -4.544  1.00  0.00     0.007 A 
ATOM     38  C   UNL     1      -2.732  -3.532  -3.134  1.00  0.00     0.007 A 
ATOM     39  C   UNL     1      -1.104  -5.782  -3.412  1.00  0.00     0.046 A 
ATOM     40  C   UNL     1      -2.213  -4.161  -2.000  1.00  0.00     0.046 A 
ATOM     41  C   UNL     1      -1.402  -5.281  -2.150  1.00  0.00     0.115 A 
BRANCH  41  42
ATOM     42  O   UNL     1      -0.876  -5.926  -1.070  1.00  0.00    -0.508 OA
ATOM     43  H   UNL     1      -0.666  -5.263  -0.392  1.00  0.00     0.293 HD
ENDBRANCH  41  42
ENDBRANCH  35  36
ENDBRANCH  34  35
BRANCH  34  44
ATOM     44  C   UNL     1      -1.697  -3.332  -7.837  1.00  0.00     0.243 C 
ATOM     45  O   UNL     1      -1.048  -2.848  -8.761  1.00  0.00    -0.273 OA
ATOM     46  N   UNL     1      -2.390  -4.516  -7.977  1.00  0.00    -0.341 N 
ATOM     47  H   UNL     1      -3.008  -4.817  -7.227  1.00  0.00     0.164 HD
BRANCH  46  48
ATOM     48  C   UNL     1      -2.370  -5.323  -9.199  1.00  0.00     0.196 C 
BRANCH  48  49
ATOM     49  C   UNL     1      -3.017  -4.573 -10.375  1.00  0.00     0.072 C 
BRANCH  49  50
ATOM     50  C   UNL     1      -4.433  -4.136 -10.078  1.00  0.00    -0.045 A 
ATOM     51  C   UNL     1      -4.878  -2.874 -10.498  1.00  0.00     0.007 A 
ATOM     52  C   UNL     1      -5.310  -4.966  -9.368  1.00  0.00     0.007 A 
ATOM     53  C   UNL     1      -6.179  -2.455 -10.218  1.00  0.00     0.046 A 
ATOM     54  C   UNL     1      -6.612  -4.546  -9.087  1.00  0.00     0.046 A 
ATOM     55  C   UNL     1      -7.036  -3.293  -9.515  1.00  0.00     0.115 A 
BRANCH  55  56
ATOM     56  O   UNL     1      -8.298  -2.845  -9.261  1.00  0.00    -0.508 OA
ATOM     57  H   UNL     1      -8.872  -3.113  -9.995  1.00  0.00     0.293 HD
ENDBRANCH  55  56
ENDBRANCH  49  50
ENDBRANCH  48  49
BRANCH  48  58
ATOM     58  C   UNL     1      -0.914  -5.667  -9.545  1.00  0.00     0.326 C 
ATOM     59  O   UNL     1      -0.193  -6.476  -8.986  1.00  0.00    -0.250 OA
BRANCH  58  60
ATOM     60  O   UNL     1      -0.433  -4.974 -10.608  1.00  0.00    -0.480 OA
ATOM     61  H   UNL     1      -0.791  -4.070 -10.470  1.00  0.00     0.296 HD
ENDBRANCH  58  60
ENDBRANCH  48  58
ENDBRANCH  46  48
ENDBRANCH  34  44
ENDBRANCH  32  34
ENDBRANCH  25  30
ENDBRANCH  23  25
ENDBRANCH   2  23
TORSDOF 28
ENDMDL
MODEL 3
REMARK VINA RESULT:    -6.319      2.286      7.023
REMARK INTER + INTRA:         -19.999
REMARK INTER:                 -16.304
REMARK INTRA:                  -3.695
REMARK UNBOUND:                -4.260
REMARK SMILES CCCCCCC[C@H](N)[C@H](O)C(=O)N[C@H](C)C(=O)N(C)[C@H](CC(C)C)C(=O)N[C@@H](Cc1ccc(O)cc1)C(=O)N[C@@H](Cc1ccc(O)cc1)C(=O)O
REMARK SMILES IDX 18 1 17 2 15 3 16 4 14 5 12 6 13 7 10 9 11 10 8 12 9 13 7 16
REMARK SMILES IDX 6 17 5 18 4 19 3 20 2 21 1 22 19 23 20 24 21 25 22 26 23 27
REMARK SMILES IDX 24 28 25 29 26 30 27 31 28 32 29 34 30 35 31 36 32 37 37 38
REMARK SMILES IDX 33 39 36 40 34 41 35 42 38 44 39 45 40 46 41 48 42 49 43 50
REMARK SMILES IDX 44 51 49 52 45 53 48 54 46 55 47 56 50 58 51 59 52 60
REMARK H PARENT 14 8 11 11 9 14 9 15 28 33 35 43 40 47 47 57 52 61
ROOT
ATOM      1  O   UNL     1      -5.019   1.449 -10.608  1.00  0.00    -0.272 OA
ATOM      2  C   UNL     1      -4.483   0.448 -10.110  1.00  0.00     0.245 C 
ENDROOT
BRANCH   2   3
ATOM      3  C   UNL     1      -3.432  -0.323 -10.947  1.00  0.00     0.168 C 
ATOM      4  C   UNL     1      -4.009  -1.636 -11.464  1.00  0.00     0.041 C 
BRANCH   3   5
ATOM      5  N   UNL     1      -2.810   0.452 -12.010  1.00  0.00    -0.342 N 
ATOM      6  C   UNL     1      -1.616   1.116 -11.823  1.00  0.00     0.251 C 
ATOM      7  O   UNL     1      -1.016   1.141 -10.754  1.00  0.00    -0.272 OA
ATOM      8  H   UNL     1      -3.232   0.533 -12.932  1.00  0.00     0.164 HD
BRANCH   6   9
ATOM      9  C   UNL     1      -1.078   1.746 -13.118  1.00  0.00     0.219 C 
BRANCH   9  10
ATOM     10  O   UNL     1      -1.572   3.073 -13.334  1.00  0.00    -0.382 OA
ATOM     11  H   UNL     1      -2.487   3.040 -12.976  1.00  0.00     0.211 HD
ENDBRANCH   9  10
BRANCH   9  12
ATOM     12  C   UNL     1       0.470   1.713 -13.214  1.00  0.00     0.089 C 
BRANCH  12  13
ATOM     13  N   UNL     1       1.025   2.505 -12.093  1.00  0.00    -0.325 NA
ATOM     14  H   UNL     1       0.715   3.475 -12.181  1.00  0.00     0.119 HD
ATOM     15  H   UNL     1       2.043   2.541 -12.185  1.00  0.00     0.119 HD
ENDBRANCH  12  13
BRANCH  12  16
ATOM     16  C   UNL     1       1.117   0.307 -13.243  1.00  0.00     0.022 C 
BRANCH  16  17
ATOM     17  C   UNL     1       2.561   0.140 -12.749  1.00  0.00     0.002 C 
BRANCH  17  18
ATOM     18  C   UNL     1       3.633   0.670 -13.699  1.00  0.00     0.000 C 
BRANCH  18  19
ATOM     19  C   UNL     1       5.065   0.287 -13.301  1.00  0.00    -0.000 C 
BRANCH  19  20
ATOM     20  C   UNL     1       5.844   1.372 -12.554  1.00  0.00    -0.000 C 
BRANCH  20  21
ATOM     21  C   UNL     1       5.550   1.396 -11.051  1.00  0.00    -0.003 C 
ATOM     22  C   UNL     1       4.733   2.619 -10.665  1.00  0.00     0.004 C 
ENDBRANCH  20  21
ENDBRANCH  19  20
ENDBRANCH  18  19
ENDBRANCH  17  18
ENDBRANCH  16  17
ENDBRANCH  12  16
ENDBRANCH   9  12
ENDBRANCH   6   9
ENDBRANCH   3   5
ENDBRANCH   2   3
BRANCH   2  23
ATOM     23  N   UNL     1      -4.736   0.110  -8.785  1.00  0.00    -0.332 N 
ATOM     24  C   UNL     1      -4.712   1.049  -7.674  1.00  0.00     0.147 C 
BRANCH  23  25
ATOM     25  C   UNL     1      -5.188  -1.265  -8.434  1.00  0.00     0.174 C 
BRANCH  25  26
ATOM     26  C   UNL     1      -6.702  -1.341  -8.127  1.00  0.00     0.038 C 
BRANCH  26  27
ATOM     27  C   UNL     1      -7.588  -2.084  -9.151  1.00  0.00    -0.015 C 
ATOM     28  C   UNL     1      -7.872  -1.244 -10.396  1.00  0.00     0.007 C 
ATOM     29  C   UNL     1      -7.043  -3.456  -9.543  1.00  0.00     0.007 C 
ENDBRANCH  26  27
ENDBRANCH  25  26
BRANCH  25  30
ATOM     30  C   UNL     1      -4.296  -1.848  -7.314  1.00  0.00     0.243 C 
ATOM     31  O   UNL     1      -4.709  -1.995  -6.165  1.00  0.00    -0.273 OA
ATOM     32  N   UNL     1      -3.019  -2.183  -7.686  1.00  0.00    -0.342 N 
ATOM     33  H   UNL     1      -2.796  -2.164  -8.685  1.00  0.00     0.164 HD
BRANCH  32  34
ATOM     34  C   UNL     1      -2.028  -2.723  -6.752  1.00  0.00     0.175 C 
BRANCH  34  35
ATOM     35  C   UNL     1      -2.192  -4.241  -6.579  1.00  0.00     0.070 C 
BRANCH  35  36
ATOM     36  C   UNL     1      -1.901  -4.704  -5.169  1.00  0.00    -0.045 A 
ATOM     37  C   UNL     1      -2.711  -4.272  -4.108  1.00  0.00     0.007 A 
ATOM     38  C   UNL     1      -0.814  -5.545  -4.899  1.00  0.00     0.007 A 
ATOM     39  C   UNL     1      -2.442  -4.682  -2.802  1.00  0.00     0.046 A 
ATOM     40  C   UNL     1      -0.544  -5.956  -3.591  1.00  0.00     0.046 A 
ATOM     41  C   UNL     1      -1.362  -5.521  -2.554  1.00  0.00     0.115 A 
BRANCH  41  42
ATOM     42  O   UNL     1      -1.132  -5.896  -1.264  1.00  0.00    -0.508 OA
ATOM     43  H   UNL     1      -1.684  -5.347  -0.683  1.00  0.00     0.293 HD
ENDBRANCH  41  42
ENDBRANCH  35  36
ENDBRANCH  34  35
BRANCH  34  44
ATOM     44  C   UNL     1      -0.623  -2.351  -7.277  1.00  0.00     0.243 C 
ATOM     45  O   UNL     1       0.344  -3.107  -7.268  1.00  0.00    -0.273 OA
ATOM     46  N   UNL     1      -0.508  -1.027  -7.647  1.00  0.00    -0.341 N 
ATOM     47  H   UNL     1      -1.307  -0.410  -7.526  1.00  0.00     0.164 HD
BRANCH  46  48
ATOM     48  C   UNL     1       0.744  -0.426  -8.111  1.00  0.00     0.196 C 
BRANCH  48  49
ATOM     49  C   UNL     1       1.779  -0.342  -6.977  1.00  0.00     0.072 C 
BRANCH  49  50
ATOM     50  C   UNL     1       2.176   1.081  -6.655  1.00  0.00    -0.045 A 
ATOM     51  C   UNL     1       2.590   1.941  -7.683  1.00  0.00     0.007 A 
ATOM     52  C   UNL     1       2.159   1.554  -5.337  1.00  0.00     0.007 A 
ATOM     53  C   UNL     1       2.971   3.252  -7.397  1.00  0.00     0.046 A 
ATOM     54  C   UNL     1       2.541   2.866  -5.050  1.00  0.00     0.046 A 
ATOM     55  C   UNL     1       2.943   3.705  -6.083  1.00  0.00     0.115 A 
BRANCH  55  56
ATOM     56  O   UNL     1       3.325   4.992  -5.845  1.00  0.00    -0.508 OA
ATOM     57  H   UNL     1       4.134   4.977  -5.309  1.00  0.00     0.293 HD
ENDBRANCH  55  56
ENDBRANCH  49  50
ENDBRANCH  48  49
BRANCH  48  58
ATOM     58  C   UNL     1       1.308  -1.272  -9.261  1.00  0.00     0.326 C 
ATOM     59  O   UNL     1       0.730  -1.613 -10.280  1.00  0.00    -0.250 OA
BRANCH  58  60
ATOM     60  O   UNL     1       2.600  -1.642  -9.078  1.00  0.00    -0.480 OA
ATOM     61  H   UNL     1       3.105  -0.934  -9.534  1.00  0.00     0.296 HD
ENDBRANCH  58  60
ENDBRANCH  48  58
ENDBRANCH  46  48
ENDBRANCH  34  44
ENDBRANCH  32  34
ENDBRANCH  25  30
ENDBRANCH  23  25
ENDBRANCH   2  23
TORSDOF 28
ENDMDL
MODEL 4
REMARK VINA RESULT:    -6.259     10.286     16.805
REMARK INTER + INTRA:         -19.850
REMARK INTER:                 -14.336
REMARK INTRA:                  -5.514
REMARK UNBOUND:                -4.260
REMARK SMILES CCCCCCC[C@H](N)[C@H](O)C(=O)N[C@H](C)C(=O)N(C)[C@H](CC(C)C)C(=O)N[C@@H](Cc1ccc(O)cc1)C(=O)N[C@@H](Cc1ccc(O)cc1)C(=O)O
REMARK SMILES IDX 18 1 17 2 15 3 16 4 14 5 12 6 13 7 10 9 11 10 8 12 9 13 7 16
REMARK SMILES IDX 6 17 5 18 4 19 3 20 2 21 1 22 19 23 20 24 21 25 22 26 23 27
REMARK SMILES IDX 24 28 25 29 26 30 27 31 28 32 29 34 30 35 31 36 32 37 37 38
REMARK SMILES IDX 33 39 36 40 34 41 35 42 38 44 39 45 40 46 41 48 42 49 43 50
REMARK SMILES IDX 44 51 49 52 45 53 48 54 46 55 47 56 50 58 51 59 52 60
REMARK H PARENT 14 8 11 11 9 14 9 15 28 33 35 43 40 47 47 57 52 61
ROOT
ATOM      1  O   UNL     1      -8.396  -7.637   5.945  1.00  0.00    -0.272 OA
ATOM      2  C   UNL     1      -8.257  -6.622   5.247  1.00  0.00     0.245 C 
ENDROOT
BRANCH   2   3
ATOM      3  C   UNL     1      -8.262  -6.777   3.705  1.00  0.00     0.168 C 
ATOM      4  C   UNL     1      -9.634  -7.219   3.209  1.00  0.00     0.041 C 
BRANCH   3   5
ATOM      5  N   UNL     1      -7.768  -5.621   2.973  1.00  0.00    -0.342 N 
ATOM      6  C   UNL     1      -7.019  -5.753   1.823  1.00  0.00     0.251 C 
ATOM      7  O   UNL     1      -6.681  -6.835   1.357  1.00  0.00    -0.272 OA
ATOM      8  H   UNL     1      -7.955  -4.670   3.283  1.00  0.00     0.164 HD
BRANCH   6   9
ATOM      9  C   UNL     1      -6.730  -4.404   1.144  1.00  0.00     0.219 C 
BRANCH   9  10
ATOM     10  O   UNL     1      -7.437  -3.316   1.752  1.00  0.00    -0.382 OA
ATOM     11  H   UNL     1      -6.831  -2.552   1.634  1.00  0.00     0.211 HD
ENDBRANCH   9  10
BRANCH   9  12
ATOM     12  C   UNL     1      -5.215  -4.087   1.041  1.00  0.00     0.089 C 
BRANCH  12  13
ATOM     13  N   UNL     1      -4.543  -4.616   2.250  1.00  0.00    -0.325 NA
ATOM     14  H   UNL     1      -3.531  -4.541   2.132  1.00  0.00     0.119 HD
ATOM     15  H   UNL     1      -4.730  -5.619   2.320  1.00  0.00     0.119 HD
ENDBRANCH  12  13
BRANCH  12  16
ATOM     16  C   UNL     1      -4.500  -4.601  -0.232  1.00  0.00     0.022 C 
BRANCH  16  17
ATOM     17  C   UNL     1      -3.376  -3.757  -0.849  1.00  0.00     0.002 C 
BRANCH  17  18
ATOM     18  C   UNL     1      -3.616  -3.322  -2.293  1.00  0.00     0.000 C 
BRANCH  18  19
ATOM     19  C   UNL     1      -2.543  -3.806  -3.278  1.00  0.00    -0.000 C 
BRANCH  19  20
ATOM     20  C   UNL     1      -2.435  -5.326  -3.426  1.00  0.00    -0.000 C 
BRANCH  20  21
ATOM     21  C   UNL     1      -1.024  -5.856  -3.155  1.00  0.00    -0.003 C 
ATOM     22  C   UNL     1      -0.913  -6.450  -1.760  1.00  0.00     0.004 C 
ENDBRANCH  20  21
ENDBRANCH  19  20
ENDBRANCH  18  19
ENDBRANCH  17  18
ENDBRANCH  16  17
ENDBRANCH  12  16
ENDBRANCH   9  12
ENDBRANCH   6   9
ENDBRANCH   3   5
ENDBRANCH   2   3
BRANCH   2  23
ATOM     23  N   UNL     1      -8.224  -5.366   5.843  1.00  0.00    -0.332 N 
ATOM     24  C   UNL     1      -9.352  -4.449   5.901  1.00  0.00     0.147 C 
BRANCH  23  25
ATOM     25  C   UNL     1      -7.018  -4.924   6.597  1.00  0.00     0.174 C 
BRANCH  25  26
ATOM     26  C   UNL     1      -7.336  -4.515   8.055  1.00  0.00     0.038 C 
BRANCH  26  27
ATOM     27  C   UNL     1      -7.345  -5.642   9.112  1.00  0.00    -0.015 C 
ATOM     28  C   UNL     1      -8.732  -6.254   9.302  1.00  0.00     0.007 C 
ATOM     29  C   UNL     1      -6.309  -6.732   8.847  1.00  0.00     0.007 C 
ENDBRANCH  26  27
ENDBRANCH  25  26
BRANCH  25  30
ATOM     30  C   UNL     1      -6.259  -3.840   5.799  1.00  0.00     0.243 C 
ATOM     31  O   UNL     1      -5.601  -4.112   4.796  1.00  0.00    -0.273 OA
ATOM     32  N   UNL     1      -6.365  -2.562   6.285  1.00  0.00    -0.342 N 
ATOM     33  H   UNL     1      -7.041  -2.395   7.035  1.00  0.00     0.164 HD
BRANCH  32  34
ATOM     34  C   UNL     1      -5.691  -1.413   5.674  1.00  0.00     0.175 C 
BRANCH  34  35
ATOM     35  C   UNL     1      -6.252  -1.116   4.274  1.00  0.00     0.070 C 
BRANCH  35  36
ATOM     36  C   UNL     1      -5.170  -0.978   3.228  1.00  0.00    -0.045 A 
ATOM     37  C   UNL     1      -5.479  -0.452   1.964  1.00  0.00     0.007 A 
ATOM     38  C   UNL     1      -3.857  -1.390   3.492  1.00  0.00     0.007 A 
ATOM     39  C   UNL     1      -4.490  -0.334   0.987  1.00  0.00     0.046 A 
ATOM     40  C   UNL     1      -2.867  -1.273   2.514  1.00  0.00     0.046 A 
ATOM     41  C   UNL     1      -3.193  -0.744   1.269  1.00  0.00     0.115 A 
BRANCH  41  42
ATOM     42  O   UNL     1      -2.257  -0.614   0.286  1.00  0.00    -0.508 OA
ATOM     43  H   UNL     1      -2.641  -0.939  -0.545  1.00  0.00     0.293 HD
ENDBRANCH  41  42
ENDBRANCH  35  36
ENDBRANCH  34  35
BRANCH  34  44
ATOM     44  C   UNL     1      -5.845  -0.206   6.626  1.00  0.00     0.243 C 
ATOM     45  O   UNL     1      -5.998   0.955   6.255  1.00  0.00    -0.273 OA
ATOM     46  N   UNL     1      -5.663  -0.528   7.954  1.00  0.00    -0.341 N 
ATOM     47  H   UNL     1      -5.422  -1.484   8.202  1.00  0.00     0.164 HD
BRANCH  46  48
ATOM     48  C   UNL     1      -5.694   0.461   9.034  1.00  0.00     0.196 C 
BRANCH  48  49
ATOM     49  C   UNL     1      -6.053  -0.191  10.380  1.00  0.00     0.072 C 
BRANCH  49  50
ATOM     50  C   UNL     1      -7.446  -0.780  10.388  1.00  0.00    -0.045 A 
ATOM     51  C   UNL     1      -7.652  -2.081  10.870  1.00  0.00     0.007 A 
ATOM     52  C   UNL     1      -8.539  -0.052   9.901  1.00  0.00     0.007 A 
ATOM     53  C   UNL     1      -8.931  -2.639  10.870  1.00  0.00     0.046 A 
ATOM     54  C   UNL     1      -9.819  -0.612   9.900  1.00  0.00     0.046 A 
ATOM     55  C   UNL     1     -10.004  -1.901  10.386  1.00  0.00     0.115 A 
BRANCH  55  56
ATOM     56  O   UNL     1     -11.236  -2.484  10.401  1.00  0.00    -0.508 OA
ATOM     57  H   UNL     1     -11.761  -2.110   9.675  1.00  0.00     0.293 HD
ENDBRANCH  55  56
ENDBRANCH  49  50
ENDBRANCH  48  49
BRANCH  48  58
ATOM     58  C   UNL     1      -4.317   1.130   9.138  1.00  0.00     0.326 C 
ATOM     59  O   UNL     1      -3.414   1.093   8.318  1.00  0.00    -0.250 OA
BRANCH  58  60
ATOM     60  O   UNL     1      -4.145   1.840  10.282  1.00  0.00    -0.480 OA
ATOM     61  H   UNL     1      -5.064   2.013  10.581  1.00  0.00     0.296 HD
ENDBRANCH  58  60
ENDBRANCH  48  58
ENDBRANCH  46  48
ENDBRANCH  34  44
ENDBRANCH  32  34
ENDBRANCH  25  30
ENDBRANCH  23  25
ENDBRANCH   2  23
TORSDOF 28
ENDMDL
MODEL 5
REMARK VINA RESULT:    -6.196      2.829      6.887
REMARK INTER + INTRA:         -19.693
REMARK INTER:                 -13.372
REMARK INTRA:                  -6.321
REMARK UNBOUND:                -4.260
REMARK SMILES CCCCCCC[C@H](N)[C@H](O)C(=O)N[C@H](C)C(=O)N(C)[C@H](CC(C)C)C(=O)N[C@@H](Cc1ccc(O)cc1)C(=O)N[C@@H](Cc1ccc(O)cc1)C(=O)O
REMARK SMILES IDX 18 1 17 2 15 3 16 4 14 5 12 6 13 7 10 9 11 10 8 12 9 13 7 16
REMARK SMILES IDX 6 17 5 18 4 19 3 20 2 21 1 22 19 23 20 24 21 25 22 26 23 27
REMARK SMILES IDX 24 28 25 29 26 30 27 31 28 32 29 34 30 35 31 36 32 37 37 38
REMARK SMILES IDX 33 39 36 40 34 41 35 42 38 44 39 45 40 46 41 48 42 49 43 50
REMARK SMILES IDX 44 51 49 52 45 53 48 54 46 55 47 56 50 58 51 59 52 60
REMARK H PARENT 14 8 11 11 9 14 9 15 28 33 35 43 40 47 47 57 52 61
ROOT
ATOM      1  O   UNL     1      -0.906   0.951 -10.456  1.00  0.00    -0.272 OA
ATOM      2  C   UNL     1      -1.007  -0.097  -9.801  1.00  0.00     0.245 C 
ENDROOT
BRANCH   2   3
ATOM      3  C   UNL     1      -1.536  -1.367 -10.512  1.00  0.00     0.168 C 
ATOM      4  C   UNL     1      -0.453  -1.991 -11.384  1.00  0.00     0.041 C 
BRANCH   3   5
ATOM      5  N   UNL     1      -2.155  -2.346  -9.632  1.00  0.00    -0.342 N 
ATOM      6  C   UNL     1      -3.388  -2.898  -9.911  1.00  0.00     0.251 C 
ATOM      7  O   UNL     1      -4.067  -2.582 -10.882  1.00  0.00    -0.272 OA
ATOM      8  H   UNL     1      -1.703  -2.661  -8.778  1.00  0.00     0.164 HD
BRANCH   6   9
ATOM      9  C   UNL     1      -3.778  -4.010  -8.923  1.00  0.00     0.219 C 
BRANCH   9  10
ATOM     10  O   UNL     1      -5.170  -3.985  -8.585  1.00  0.00    -0.382 OA
ATOM     11  H   UNL     1      -5.530  -3.262  -9.143  1.00  0.00     0.211 HD
ENDBRANCH   9  10
BRANCH   9  12
ATOM     12  C   UNL     1      -3.352  -5.424  -9.399  1.00  0.00     0.089 C 
BRANCH  12  13
ATOM     13  N   UNL     1      -2.539  -5.278 -10.628  1.00  0.00    -0.325 NA
ATOM     14  H   UNL     1      -1.553  -5.405 -10.396  1.00  0.00     0.119 HD
ATOM     15  H   UNL     1      -2.613  -4.314 -10.962  1.00  0.00     0.119 HD
ENDBRANCH  12  13
BRANCH  12  16
ATOM     16  C   UNL     1      -2.596  -6.288  -8.362  1.00  0.00     0.022 C 
BRANCH  16  17
ATOM     17  C   UNL     1      -2.242  -5.680  -6.998  1.00  0.00     0.002 C 
BRANCH  17  18
ATOM     18  C   UNL     1      -0.881  -4.990  -6.934  1.00  0.00     0.000 C 
BRANCH  18  19
ATOM     19  C   UNL     1      -0.073  -5.318  -5.670  1.00  0.00    -0.000 C 
BRANCH  19  20
ATOM     20  C   UNL     1      -0.910  -5.621  -4.424  1.00  0.00    -0.000 C 
BRANCH  20  21
ATOM     21  C   UNL     1      -0.059  -5.895  -3.182  1.00  0.00    -0.003 C 
ATOM     22  C   UNL     1      -0.842  -6.668  -2.132  1.00  0.00     0.004 C 
ENDBRANCH  20  21
ENDBRANCH  19  20
ENDBRANCH  18  19
ENDBRANCH  17  18
ENDBRANCH  16  17
ENDBRANCH  12  16
ENDBRANCH   9  12
ENDBRANCH   6   9
ENDBRANCH   3   5
ENDBRANCH   2   3
BRANCH   2  23
ATOM     23  N   UNL     1      -0.535  -0.148  -8.493  1.00  0.00    -0.332 N 
ATOM     24  C   UNL     1       0.757  -0.691  -8.102  1.00  0.00     0.147 C 
BRANCH  23  25
ATOM     25  C   UNL     1      -1.306   0.492  -7.392  1.00  0.00     0.174 C 
BRANCH  25  26
ATOM     26  C   UNL     1      -0.399   1.061  -6.274  1.00  0.00     0.038 C 
BRANCH  26  27
ATOM     27  C   UNL     1      -0.363   2.597  -6.118  1.00  0.00    -0.015 C 
ATOM     28  C   UNL     1       0.766   3.240  -6.923  1.00  0.00     0.007 C 
ATOM     29  C   UNL     1      -1.696   3.272  -6.429  1.00  0.00     0.007 C 
ENDBRANCH  26  27
ENDBRANCH  25  26
BRANCH  25  30
ATOM     30  C   UNL     1      -2.397  -0.474  -6.875  1.00  0.00     0.243 C 
ATOM     31  O   UNL     1      -2.194  -1.682  -6.761  1.00  0.00    -0.273 OA
ATOM     32  N   UNL     1      -3.600   0.103  -6.561  1.00  0.00    -0.342 N 
ATOM     33  H   UNL     1      -3.646   1.125  -6.548  1.00  0.00     0.164 HD
BRANCH  32  34
ATOM     34  C   UNL     1      -4.756  -0.661  -6.084  1.00  0.00     0.175 C 
BRANCH  34  35
ATOM     35  C   UNL     1      -5.045  -0.370  -4.603  1.00  0.00     0.070 C 
BRANCH  35  36
ATOM     36  C   UNL     1      -4.297  -1.294  -3.669  1.00  0.00    -0.045 A 
ATOM     37  C   UNL     1      -3.878  -0.832  -2.412  1.00  0.00     0.007 A 
ATOM     38  C   UNL     1      -3.993  -2.608  -4.048  1.00  0.00     0.007 A 
ATOM     39  C   UNL     1      -3.175  -1.673  -1.548  1.00  0.00     0.046 A 
ATOM     40  C   UNL     1      -3.289  -3.450  -3.185  1.00  0.00     0.046 A 
ATOM     41  C   UNL     1      -2.887  -2.975  -1.941  1.00  0.00     0.115 A 
BRANCH  41  42
ATOM     42  O   UNL     1      -2.196  -3.763  -1.069  1.00  0.00    -0.508 OA
ATOM     43  H   UNL     1      -2.564  -3.629  -0.180  1.00  0.00     0.293 HD
ENDBRANCH  41  42
ENDBRANCH  35  36
ENDBRANCH  34  35
BRANCH  34  44
ATOM     44  C   UNL     1      -5.963  -0.317  -6.986  1.00  0.00     0.243 C 
ATOM     45  O   UNL     1      -6.998   0.209  -6.589  1.00  0.00    -0.273 OA
ATOM     46  N   UNL     1      -5.830  -0.778  -8.279  1.00  0.00    -0.341 N 
ATOM     47  H   UNL     1      -5.002  -1.312  -8.530  1.00  0.00     0.164 HD
BRANCH  46  48
ATOM     48  C   UNL     1      -6.872  -0.632  -9.297  1.00  0.00     0.196 C 
BRANCH  48  49
ATOM     49  C   UNL     1      -6.270  -0.285 -10.669  1.00  0.00     0.072 C 
BRANCH  49  50
ATOM     50  C   UNL     1      -5.789   1.146 -10.748  1.00  0.00    -0.045 A 
ATOM     51  C   UNL     1      -6.718   2.192 -10.842  1.00  0.00     0.007 A 
ATOM     52  C   UNL     1      -4.421   1.447 -10.750  1.00  0.00     0.007 A 
ATOM     53  C   UNL     1      -6.285   3.515 -10.929  1.00  0.00     0.046 A 
ATOM     54  C   UNL     1      -3.987   2.772 -10.839  1.00  0.00     0.046 A 
ATOM     55  C   UNL     1      -4.925   3.796 -10.926  1.00  0.00     0.115 A 
BRANCH  55  56
ATOM     56  O   UNL     1      -4.543   5.102 -11.015  1.00  0.00    -0.508 OA
ATOM     57  H   UNL     1      -4.671   5.396 -11.930  1.00  0.00     0.293 HD
ENDBRANCH  55  56
ENDBRANCH  49  50
ENDBRANCH  48  49
BRANCH  48  58
ATOM     58  C   UNL     1      -7.660  -1.945  -9.398  1.00  0.00     0.326 C 
ATOM     59  O   UNL     1      -8.729  -2.208  -8.872  1.00  0.00    -0.250 OA
BRANCH  58  60
ATOM     60  O   UNL     1      -7.060  -2.877 -10.181  1.00  0.00    -0.480 OA
ATOM     61  H   UNL     1      -6.210  -3.047  -9.719  1.00  0.00     0.296 HD
ENDBRANCH  58  60
ENDBRANCH  48  58
ENDBRANCH  46  48
ENDBRANCH  34  44
ENDBRANCH  32  34
ENDBRANCH  25  30
ENDBRANCH  23  25
ENDBRANCH   2  23
TORSDOF 28
ENDMDL
MODEL 6
REMARK VINA RESULT:    -6.148      3.073      9.839
REMARK INTER + INTRA:         -19.573
REMARK INTER:                 -16.401
REMARK INTRA:                  -3.171
REMARK UNBOUND:                -4.260
REMARK SMILES CCCCCCC[C@H](N)[C@H](O)C(=O)N[C@H](C)C(=O)N(C)[C@H](CC(C)C)C(=O)N[C@@H](Cc1ccc(O)cc1)C(=O)N[C@@H](Cc1ccc(O)cc1)C(=O)O
REMARK SMILES IDX 18 1 17 2 15 3 16 4 14 5 12 6 13 7 10 9 11 10 8 12 9 13 7 16
REMARK SMILES IDX 6 17 5 18 4 19 3 20 2 21 1 22 19 23 20 24 21 25 22 26 23 27
REMARK SMILES IDX 24 28 25 29 26 30 27 31 28 32 29 34 30 35 31 36 32 37 37 38
REMARK SMILES IDX 33 39 36 40 34 41 35 42 38 44 39 45 40 46 41 48 42 49 43 50
REMARK SMILES IDX 44 51 49 52 45 53 48 54 46 55 47 56 50 58 51 59 52 60
REMARK H PARENT 14 8 11 11 9 14 9 15 28 33 35 43 40 47 47 57 52 61
ROOT
ATOM      1  O   UNL     1       0.470  -1.942 -12.967  1.00  0.00    -0.272 OA
ATOM      2  C   UNL     1       0.248  -0.818 -12.493  1.00  0.00     0.245 C 
ENDROOT
BRANCH   2   3
ATOM      3  C   UNL     1       0.499   0.425 -13.382  1.00  0.00     0.168 C 
ATOM      4  C   UNL     1      -0.813   1.132 -13.707  1.00  0.00     0.041 C 
BRANCH   3   5
ATOM      5  N   UNL     1       1.500   1.349 -12.872  1.00  0.00    -0.342 N 
ATOM      6  C   UNL     1       2.838   1.212 -13.175  1.00  0.00     0.251 C 
ATOM      7  O   UNL     1       3.288   0.293 -13.852  1.00  0.00    -0.272 OA
ATOM      8  H   UNL     1       1.251   2.131 -12.271  1.00  0.00     0.164 HD
BRANCH   6   9
ATOM      9  C   UNL     1       3.689   2.378 -12.648  1.00  0.00     0.219 C 
BRANCH   9  10
ATOM     10  O   UNL     1       2.998   3.632 -12.695  1.00  0.00    -0.382 OA
ATOM     11  H   UNL     1       3.467   4.180 -12.027  1.00  0.00     0.211 HD
ENDBRANCH   9  10
BRANCH   9  12
ATOM     12  C   UNL     1       4.266   2.120 -11.232  1.00  0.00     0.089 C 
BRANCH  12  13
ATOM     13  N   UNL     1       4.152   0.673 -10.938  1.00  0.00    -0.325 NA
ATOM     14  H   UNL     1       3.800   0.550  -9.987  1.00  0.00     0.119 HD
ATOM     15  H   UNL     1       5.089   0.262 -10.931  1.00  0.00     0.119 HD
ENDBRANCH  12  13
BRANCH  12  16
ATOM     16  C   UNL     1       5.718   2.599 -10.992  1.00  0.00     0.022 C 
BRANCH  16  17
ATOM     17  C   UNL     1       6.020   4.104 -11.006  1.00  0.00     0.002 C 
BRANCH  17  18
ATOM     18  C   UNL     1       7.495   4.466 -10.851  1.00  0.00     0.000 C 
BRANCH  18  19
ATOM     19  C   UNL     1       7.782   5.439  -9.700  1.00  0.00    -0.000 C 
BRANCH  19  20
ATOM     20  C   UNL     1       9.261   5.767  -9.479  1.00  0.00    -0.000 C 
BRANCH  20  21
ATOM     21  C   UNL     1       9.644   5.840  -7.998  1.00  0.00    -0.003 C 
ATOM     22  C   UNL     1       8.978   7.022  -7.311  1.00  0.00     0.004 C 
ENDBRANCH  20  21
ENDBRANCH  19  20
ENDBRANCH  18  19
ENDBRANCH  17  18
ENDBRANCH  16  17
ENDBRANCH  12  16
ENDBRANCH   9  12
ENDBRANCH   6   9
ENDBRANCH   3   5
ENDBRANCH   2   3
BRANCH   2  23
ATOM     23  N   UNL     1      -0.331  -0.697 -11.234  1.00  0.00    -0.332 N 
ATOM     24  C   UNL     1       0.294  -0.038 -10.097  1.00  0.00     0.147 C 
BRANCH  23  25
ATOM     25  C   UNL     1      -1.733  -1.145 -11.005  1.00  0.00     0.174 C 
BRANCH  25  26
ATOM     26  C   UNL     1      -2.659  -0.001 -10.529  1.00  0.00     0.038 C 
BRANCH  26  27
ATOM     27  C   UNL     1      -4.017   0.147 -11.253  1.00  0.00    -0.015 C 
ATOM     28  C   UNL     1      -4.379  -1.090 -12.073  1.00  0.00     0.007 C 
ATOM     29  C   UNL     1      -5.163   0.528 -10.320  1.00  0.00     0.007 C 
ENDBRANCH  26  27
ENDBRANCH  25  26
BRANCH  25  30
ATOM     30  C   UNL     1      -1.752  -2.385 -10.083  1.00  0.00     0.243 C 
ATOM     31  O   UNL     1      -1.211  -3.442 -10.404  1.00  0.00    -0.273 OA
ATOM     32  N   UNL     1      -2.414  -2.229  -8.892  1.00  0.00    -0.342 N 
ATOM     33  H   UNL     1      -2.713  -1.284  -8.637  1.00  0.00     0.164 HD
BRANCH  32  34
ATOM     34  C   UNL     1      -2.557  -3.305  -7.907  1.00  0.00     0.175 C 
BRANCH  34  35
ATOM     35  C   UNL     1      -2.435  -2.768  -6.473  1.00  0.00     0.070 C 
BRANCH  35  36
ATOM     36  C   UNL     1      -1.933  -3.811  -5.499  1.00  0.00    -0.045 A 
ATOM     37  C   UNL     1      -2.548  -3.955  -4.246  1.00  0.00     0.007 A 
ATOM     38  C   UNL     1      -0.840  -4.627  -5.820  1.00  0.00     0.007 A 
ATOM     39  C   UNL     1      -2.083  -4.905  -3.336  1.00  0.00     0.046 A 
ATOM     40  C   UNL     1      -0.373  -5.577  -4.909  1.00  0.00     0.046 A 
ATOM     41  C   UNL     1      -1.001  -5.708  -3.674  1.00  0.00     0.115 A 
BRANCH  41  42
ATOM     42  O   UNL     1      -0.575  -6.621  -2.755  1.00  0.00    -0.508 OA
ATOM     43  H   UNL     1      -0.256  -6.141  -1.974  1.00  0.00     0.293 HD
ENDBRANCH  41  42
ENDBRANCH  35  36
ENDBRANCH  34  35
BRANCH  34  44
ATOM     44  C   UNL     1      -3.915  -4.000  -8.151  1.00  0.00     0.243 C 
ATOM     45  O   UNL     1      -4.052  -5.201  -8.364  1.00  0.00    -0.273 OA
ATOM     46  N   UNL     1      -4.973  -3.120  -8.239  1.00  0.00    -0.341 N 
ATOM     47  H   UNL     1      -4.793  -2.121  -8.171  1.00  0.00     0.164 HD
BRANCH  46  48
ATOM     48  C   UNL     1      -6.346  -3.538  -8.532  1.00  0.00     0.196 C 
BRANCH  48  49
ATOM     49  C   UNL     1      -7.254  -2.327  -8.803  1.00  0.00     0.072 C 
BRANCH  49  50
ATOM     50  C   UNL     1      -7.621  -1.580  -7.541  1.00  0.00    -0.045 A 
ATOM     51  C   UNL     1      -8.404  -2.206  -6.560  1.00  0.00     0.007 A 
ATOM     52  C   UNL     1      -7.206  -0.257  -7.340  1.00  0.00     0.007 A 
ATOM     53  C   UNL     1      -8.759  -1.523  -5.397  1.00  0.00     0.046 A 
ATOM     54  C   UNL     1      -7.563   0.428  -6.176  1.00  0.00     0.046 A 
ATOM     55  C   UNL     1      -8.336  -0.212  -5.213  1.00  0.00     0.115 A 
BRANCH  55  56
ATOM     56  O   UNL     1      -8.706   0.421  -4.064  1.00  0.00    -0.508 OA
ATOM     57  H   UNL     1      -8.563  -0.185  -3.320  1.00  0.00     0.293 HD
ENDBRANCH  55  56
ENDBRANCH  49  50
ENDBRANCH  48  49
BRANCH  48  58
ATOM     58  C   UNL     1      -6.336  -4.459  -9.760  1.00  0.00     0.326 C 
ATOM     59  O   UNL     1      -5.969  -4.180 -10.890  1.00  0.00    -0.250 OA
BRANCH  58  60
ATOM     60  O   UNL     1      -6.783  -5.713  -9.499  1.00  0.00    -0.480 OA
ATOM     61  H   UNL     1      -6.336  -5.942  -8.655  1.00  0.00     0.296 HD
ENDBRANCH  58  60
ENDBRANCH  48  58
ENDBRANCH  46  48
ENDBRANCH  34  44
ENDBRANCH  32  34
ENDBRANCH  25  30
ENDBRANCH  23  25
ENDBRANCH   2  23
TORSDOF 28
ENDMDL
MODEL 7
REMARK VINA RESULT:    -6.093      2.454      5.135
REMARK INTER + INTRA:         -19.436
REMARK INTER:                 -13.513
REMARK INTRA:                  -5.923
REMARK UNBOUND:                -4.260
REMARK SMILES CCCCCCC[C@H](N)[C@H](O)C(=O)N[C@H](C)C(=O)N(C)[C@H](CC(C)C)C(=O)N[C@@H](Cc1ccc(O)cc1)C(=O)N[C@@H](Cc1ccc(O)cc1)C(=O)O
REMARK SMILES IDX 18 1 17 2 15 3 16 4 14 5 12 6 13 7 10 9 11 10 8 12 9 13 7 16
REMARK SMILES IDX 6 17 5 18 4 19 3 20 2 21 1 22 19 23 20 24 21 25 22 26 23 27
REMARK SMILES IDX 24 28 25 29 26 30 27 31 28 32 29 34 30 35 31 36 32 37 37 38
REMARK SMILES IDX 33 39 36 40 34 41 35 42 38 44 39 45 40 46 41 48 42 49 43 50
REMARK SMILES IDX 44 51 49 52 45 53 48 54 46 55 47 56 50 58 51 59 52 60
REMARK H PARENT 14 8 11 11 9 14 9 15 28 33 35 43 40 47 47 57 52 61
ROOT
ATOM      1  O   UNL     1      -4.966  -1.116 -12.165  1.00  0.00    -0.272 OA
ATOM      2  C   UNL     1      -4.156  -0.871 -11.259  1.00  0.00     0.245 C 
ENDROOT
BRANCH   2   3
ATOM      3  C   UNL     1      -2.696  -1.366 -11.416  1.00  0.00     0.168 C 
ATOM      4  C   UNL     1      -1.808  -0.263 -11.980  1.00  0.00     0.041 C 
BRANCH   3   5
ATOM      5  N   UNL     1      -2.123  -1.966 -10.221  1.00  0.00    -0.342 N 
ATOM      6  C   UNL     1      -2.268  -3.308  -9.939  1.00  0.00     0.251 C 
ATOM      7  O   UNL     1      -2.916  -4.080 -10.638  1.00  0.00    -0.272 OA
ATOM      8  H   UNL     1      -1.594  -1.418  -9.547  1.00  0.00     0.164 HD
BRANCH   6   9
ATOM      9  C   UNL     1      -1.462  -3.747  -8.705  1.00  0.00     0.219 C 
BRANCH   9  10
ATOM     10  O   UNL     1      -0.255  -2.994  -8.538  1.00  0.00    -0.382 OA
ATOM     11  H   UNL     1      -0.205  -2.452  -9.356  1.00  0.00     0.211 HD
ENDBRANCH   9  10
BRANCH   9  12
ATOM     12  C   UNL     1      -2.298  -3.744  -7.399  1.00  0.00     0.089 C 
BRANCH  12  13
ATOM     13  N   UNL     1      -3.730  -3.635  -7.761  1.00  0.00    -0.325 NA
ATOM     14  H   UNL     1      -3.879  -4.063  -8.677  1.00  0.00     0.119 HD
ATOM     15  H   UNL     1      -3.966  -2.647  -7.886  1.00  0.00     0.119 HD
ENDBRANCH  12  13
BRANCH  12  16
ATOM     16  C   UNL     1      -2.080  -4.948  -6.452  1.00  0.00     0.022 C 
BRANCH  16  17
ATOM     17  C   UNL     1      -0.735  -5.094  -5.728  1.00  0.00     0.002 C 
BRANCH  17  18
ATOM     18  C   UNL     1      -0.825  -5.637  -4.303  1.00  0.00     0.000 C 
BRANCH  18  19
ATOM     19  C   UNL     1      -2.037  -5.123  -3.515  1.00  0.00    -0.000 C 
BRANCH  19  20
ATOM     20  C   UNL     1      -1.759  -4.773  -2.050  1.00  0.00    -0.000 C 
BRANCH  20  21
ATOM     21  C   UNL     1      -2.942  -4.085  -1.363  1.00  0.00    -0.003 C 
ATOM     22  C   UNL     1      -2.493  -2.857  -0.587  1.00  0.00     0.004 C 
ENDBRANCH  20  21
ENDBRANCH  19  20
ENDBRANCH  18  19
ENDBRANCH  17  18
ENDBRANCH  16  17
ENDBRANCH  12  16
ENDBRANCH   9  12
ENDBRANCH   6   9
ENDBRANCH   3   5
ENDBRANCH   2   3
BRANCH   2  23
ATOM     23  N   UNL     1      -4.531  -0.063 -10.190  1.00  0.00    -0.332 N 
ATOM     24  C   UNL     1      -4.339   1.379 -10.138  1.00  0.00     0.147 C 
BRANCH  23  25
ATOM     25  C   UNL     1      -5.294  -0.636  -9.048  1.00  0.00     0.174 C 
BRANCH  25  26
ATOM     26  C   UNL     1      -6.822  -0.440  -9.186  1.00  0.00     0.038 C 
BRANCH  26  27
ATOM     27  C   UNL     1      -7.701  -1.707  -9.097  1.00  0.00    -0.015 C 
ATOM     28  C   UNL     1      -6.973  -2.959  -9.586  1.00  0.00     0.007 C 
ATOM     29  C   UNL     1      -8.295  -1.938  -7.710  1.00  0.00     0.007 C 
ENDBRANCH  26  27
ENDBRANCH  25  26
BRANCH  25  30
ATOM     30  C   UNL     1      -4.719  -0.116  -7.710  1.00  0.00     0.243 C 
ATOM     31  O   UNL     1      -5.418   0.474  -6.888  1.00  0.00    -0.273 OA
ATOM     32  N   UNL     1      -3.384  -0.352  -7.507  1.00  0.00    -0.342 N 
ATOM     33  H   UNL     1      -2.906  -0.970  -8.168  1.00  0.00     0.164 HD
BRANCH  32  34
ATOM     34  C   UNL     1      -2.664   0.092  -6.310  1.00  0.00     0.175 C 
BRANCH  34  35
ATOM     35  C   UNL     1      -2.384  -1.082  -5.359  1.00  0.00     0.070 C 
BRANCH  35  36
ATOM     36  C   UNL     1      -3.478  -1.277  -4.333  1.00  0.00    -0.045 A 
ATOM     37  C   UNL     1      -4.380  -2.343  -4.464  1.00  0.00     0.007 A 
ATOM     38  C   UNL     1      -3.621  -0.392  -3.257  1.00  0.00     0.007 A 
ATOM     39  C   UNL     1      -5.401  -2.524  -3.530  1.00  0.00     0.046 A 
ATOM     40  C   UNL     1      -4.643  -0.571  -2.322  1.00  0.00     0.046 A 
ATOM     41  C   UNL     1      -5.524  -1.637  -2.467  1.00  0.00     0.115 A 
BRANCH  41  42
ATOM     42  O   UNL     1      -6.537  -1.847  -1.579  1.00  0.00    -0.508 OA
ATOM     43  H   UNL     1      -7.381  -1.704  -2.040  1.00  0.00     0.293 HD
ENDBRANCH  41  42
ENDBRANCH  35  36
ENDBRANCH  34  35
BRANCH  34  44
ATOM     44  C   UNL     1      -1.362   0.789  -6.765  1.00  0.00     0.243 C 
ATOM     45  O   UNL     1      -1.273   1.984  -7.034  1.00  0.00    -0.273 OA
ATOM     46  N   UNL     1      -0.316  -0.084  -6.974  1.00  0.00    -0.341 N 
ATOM     47  H   UNL     1      -0.472  -1.081  -6.850  1.00  0.00     0.164 HD
BRANCH  46  48
ATOM     48  C   UNL     1       0.996   0.335  -7.472  1.00  0.00     0.196 C 
BRANCH  48  49
ATOM     49  C   UNL     1       1.872   0.895  -6.338  1.00  0.00     0.072 C 
BRANCH  49  50
ATOM     50  C   UNL     1       2.556   2.190  -6.717  1.00  0.00    -0.045 A 
ATOM     51  C   UNL     1       2.657   3.227  -5.779  1.00  0.00     0.007 A 
ATOM     52  C   UNL     1       3.075   2.381  -8.004  1.00  0.00     0.007 A 
ATOM     53  C   UNL     1       3.274   4.431  -6.121  1.00  0.00     0.046 A 
ATOM     54  C   UNL     1       3.691   3.586  -8.347  1.00  0.00     0.046 A 
ATOM     55  C   UNL     1       3.787   4.601  -7.401  1.00  0.00     0.115 A 
BRANCH  55  56
ATOM     56  O   UNL     1       4.380   5.793  -7.696  1.00  0.00    -0.508 OA
ATOM     57  H   UNL     1       5.269   5.615  -8.043  1.00  0.00     0.293 HD
ENDBRANCH  55  56
ENDBRANCH  49  50
ENDBRANCH  48  49
BRANCH  48  58
ATOM     58  C   UNL     1       1.695  -0.871  -8.114  1.00  0.00     0.326 C 
ATOM     59  O   UNL     1       1.844  -1.091  -9.305  1.00  0.00    -0.250 OA
BRANCH  58  60
ATOM     60  O   UNL     1       2.196  -1.751  -7.210  1.00  0.00    -0.480 OA
ATOM     61  H   UNL     1       2.346  -1.196  -6.414  1.00  0.00     0.296 HD
ENDBRANCH  58  60
ENDBRANCH  48  58
ENDBRANCH  46  48
ENDBRANCH  34  44
ENDBRANCH  32  34
ENDBRANCH  25  30
ENDBRANCH  23  25
ENDBRANCH   2  23
TORSDOF 28
ENDMDL
MODEL 8
REMARK VINA RESULT:    -5.993      2.865      5.775
REMARK INTER + INTRA:         -19.189
REMARK INTER:                 -13.510
REMARK INTRA:                  -5.679
REMARK UNBOUND:                -4.260
REMARK SMILES CCCCCCC[C@H](N)[C@H](O)C(=O)N[C@H](C)C(=O)N(C)[C@H](CC(C)C)C(=O)N[C@@H](Cc1ccc(O)cc1)C(=O)N[C@@H](Cc1ccc(O)cc1)C(=O)O
REMARK SMILES IDX 18 1 17 2 15 3 16 4 14 5 12 6 13 7 10 9 11 10 8 12 9 13 7 16
REMARK SMILES IDX 6 17 5 18 4 19 3 20 2 21 1 22 19 23 20 24 21 25 22 26 23 27
REMARK SMILES IDX 24 28 25 29 26 30 27 31 28 32 29 34 30 35 31 36 32 37 37 38
REMARK SMILES IDX 33 39 36 40 34 41 35 42 38 44 39 45 40 46 41 48 42 49 43 50
REMARK SMILES IDX 44 51 49 52 45 53 48 54 46 55 47 56 50 58 51 59 52 60
REMARK H PARENT 14 8 11 11 9 14 9 15 28 33 35 43 40 47 47 57 52 61
ROOT
ATOM      1  O   UNL     1      -4.051   0.678  -8.184  1.00  0.00    -0.272 OA
ATOM      2  C   UNL     1      -4.748   0.505  -7.173  1.00  0.00     0.245 C 
ENDROOT
BRANCH   2   3
ATOM      3  C   UNL     1      -4.491   1.399  -5.935  1.00  0.00     0.168 C 
ATOM      4  C   UNL     1      -5.244   2.720  -6.055  1.00  0.00     0.041 C 
BRANCH   3   5
ATOM      5  N   UNL     1      -4.732   0.753  -4.654  1.00  0.00    -0.342 N 
ATOM      6  C   UNL     1      -3.864   0.896  -3.592  1.00  0.00     0.251 C 
ATOM      7  O   UNL     1      -2.818   1.534  -3.654  1.00  0.00    -0.272 OA
ATOM      8  H   UNL     1      -5.549   0.169  -4.493  1.00  0.00     0.164 HD
BRANCH   6   9
ATOM      9  C   UNL     1      -4.390   0.245  -2.303  1.00  0.00     0.219 C 
BRANCH   9  10
ATOM     10  O   UNL     1      -5.821   0.239  -2.231  1.00  0.00    -0.382 OA
ATOM     11  H   UNL     1      -6.074  -0.563  -2.738  1.00  0.00     0.211 HD
ENDBRANCH   9  10
BRANCH   9  12
ATOM     12  C   UNL     1      -3.820  -1.177  -2.062  1.00  0.00     0.089 C 
BRANCH  12  13
ATOM     13  N   UNL     1      -2.907  -1.510  -3.180  1.00  0.00    -0.325 NA
ATOM     14  H   UNL     1      -2.099  -0.886  -3.150  1.00  0.00     0.119 HD
ATOM     15  H   UNL     1      -3.375  -1.298  -4.064  1.00  0.00     0.119 HD
ENDBRANCH  12  13
BRANCH  12  16
ATOM     16  C   UNL     1      -3.106  -1.402  -0.708  1.00  0.00     0.022 C 
BRANCH  16  17
ATOM     17  C   UNL     1      -3.270  -2.750   0.008  1.00  0.00     0.002 C 
BRANCH  17  18
ATOM     18  C   UNL     1      -4.715  -3.191   0.228  1.00  0.00     0.000 C 
BRANCH  18  19
ATOM     19  C   UNL     1      -4.854  -4.517   0.988  1.00  0.00    -0.000 C 
BRANCH  19  20
ATOM     20  C   UNL     1      -5.292  -4.386   2.450  1.00  0.00    -0.000 C 
BRANCH  20  21
ATOM     21  C   UNL     1      -4.230  -3.732   3.337  1.00  0.00    -0.003 C 
ATOM     22  C   UNL     1      -4.206  -4.356   4.724  1.00  0.00     0.004 C 
ENDBRANCH  20  21
ENDBRANCH  19  20
ENDBRANCH  18  19
ENDBRANCH  17  18
ENDBRANCH  16  17
ENDBRANCH  12  16
ENDBRANCH   9  12
ENDBRANCH   6   9
ENDBRANCH   3   5
ENDBRANCH   2   3
BRANCH   2  23
ATOM     23  N   UNL     1      -5.812  -0.390  -7.207  1.00  0.00    -0.332 N 
ATOM     24  C   UNL     1      -7.215  -0.008  -7.140  1.00  0.00     0.147 C 
BRANCH  23  25
ATOM     25  C   UNL     1      -5.568  -1.838  -7.449  1.00  0.00     0.174 C 
BRANCH  25  26
ATOM     26  C   UNL     1      -6.862  -2.684  -7.396  1.00  0.00     0.038 C 
BRANCH  26  27
ATOM     27  C   UNL     1      -7.274  -3.415  -8.693  1.00  0.00    -0.015 C 
ATOM     28  C   UNL     1      -7.670  -2.449  -9.809  1.00  0.00     0.007 C 
ATOM     29  C   UNL     1      -6.226  -4.408  -9.190  1.00  0.00     0.007 C 
ENDBRANCH  26  27
ENDBRANCH  25  26
BRANCH  25  30
ATOM     30  C   UNL     1      -4.450  -2.354  -6.514  1.00  0.00     0.243 C 
ATOM     31  O   UNL     1      -4.562  -2.324  -5.289  1.00  0.00    -0.273 OA
ATOM     32  N   UNL     1      -3.330  -2.837  -7.139  1.00  0.00    -0.342 N 
ATOM     33  H   UNL     1      -3.370  -2.960  -8.154  1.00  0.00     0.164 HD
BRANCH  32  34
ATOM     34  C   UNL     1      -2.161  -3.341  -6.413  1.00  0.00     0.175 C 
BRANCH  34  35
ATOM     35  C   UNL     1      -2.279  -4.849  -6.142  1.00  0.00     0.070 C 
BRANCH  35  36
ATOM     36  C   UNL     1      -1.892  -5.221  -4.728  1.00  0.00    -0.045 A 
ATOM     37  C   UNL     1      -0.612  -5.730  -4.462  1.00  0.00     0.007 A 
ATOM     38  C   UNL     1      -2.804  -5.087  -3.674  1.00  0.00     0.007 A 
ATOM     39  C   UNL     1      -0.250  -6.089  -3.164  1.00  0.00     0.046 A 
ATOM     40  C   UNL     1      -2.443  -5.447  -2.373  1.00  0.00     0.046 A 
ATOM     41  C   UNL     1      -1.167  -5.944  -2.130  1.00  0.00     0.115 A 
BRANCH  41  42
ATOM     42  O   UNL     1      -0.775  -6.309  -0.876  1.00  0.00    -0.508 OA
ATOM     43  H   UNL     1      -1.555  -6.631  -0.395  1.00  0.00     0.293 HD
ENDBRANCH  41  42
ENDBRANCH  35  36
ENDBRANCH  34  35
BRANCH  34  44
ATOM     44  C   UNL     1      -0.901  -3.000  -7.239  1.00  0.00     0.243 C 
ATOM     45  O   UNL     1       0.215  -3.467  -7.028  1.00  0.00    -0.273 OA
ATOM     46  N   UNL     1      -1.109  -2.007  -8.173  1.00  0.00    -0.341 N 
ATOM     47  H   UNL     1      -2.024  -1.568  -8.231  1.00  0.00     0.164 HD
BRANCH  46  48
ATOM     48  C   UNL     1      -0.048  -1.469  -9.027  1.00  0.00     0.196 C 
BRANCH  48  49
ATOM     49  C   UNL     1      -0.362  -1.686 -10.517  1.00  0.00     0.072 C 
BRANCH  49  50
ATOM     50  C   UNL     1      -1.778  -1.293 -10.875  1.00  0.00    -0.045 A 
ATOM     51  C   UNL     1      -2.831  -2.190 -10.647  1.00  0.00     0.007 A 
ATOM     52  C   UNL     1      -2.055  -0.049 -11.456  1.00  0.00     0.007 A 
ATOM     53  C   UNL     1      -4.139  -1.844 -10.986  1.00  0.00     0.046 A 
ATOM     54  C   UNL     1      -3.365   0.297 -11.797  1.00  0.00     0.046 A 
ATOM     55  C   UNL     1      -4.396  -0.604 -11.557  1.00  0.00     0.115 A 
BRANCH  55  56
ATOM     56  O   UNL     1      -5.688  -0.305 -11.876  1.00  0.00    -0.508 OA
ATOM     57  H   UNL     1      -5.846  -0.572 -12.796  1.00  0.00     0.293 HD
ENDBRANCH  55  56
ENDBRANCH  49  50
ENDBRANCH  48  49
BRANCH  48  58
ATOM     58  C   UNL     1       0.105   0.033  -8.747  1.00  0.00     0.326 C 
ATOM     59  O   UNL     1       1.034   0.754  -9.070  1.00  0.00    -0.250 OA
BRANCH  58  60
ATOM     60  O   UNL     1      -0.946   0.567  -8.075  1.00  0.00    -0.480 OA
ATOM     61  H   UNL     1      -0.562   0.796  -7.200  1.00  0.00     0.296 HD
ENDBRANCH  58  60
ENDBRANCH  48  58
ENDBRANCH  46  48
ENDBRANCH  34  44
ENDBRANCH  32  34
ENDBRANCH  25  30
ENDBRANCH  23  25
ENDBRANCH   2  23
TORSDOF 28
ENDMDL
MODEL 9
REMARK VINA RESULT:    -5.929      2.244      8.070
REMARK INTER + INTRA:         -19.028
REMARK INTER:                 -14.126
REMARK INTRA:                  -4.902
REMARK UNBOUND:                -4.260
REMARK SMILES CCCCCCC[C@H](N)[C@H](O)C(=O)N[C@H](C)C(=O)N(C)[C@H](CC(C)C)C(=O)N[C@@H](Cc1ccc(O)cc1)C(=O)N[C@@H](Cc1ccc(O)cc1)C(=O)O
REMARK SMILES IDX 18 1 17 2 15 3 16 4 14 5 12 6 13 7 10 9 11 10 8 12 9 13 7 16
REMARK SMILES IDX 6 17 5 18 4 19 3 20 2 21 1 22 19 23 20 24 21 25 22 26 23 27
REMARK SMILES IDX 24 28 25 29 26 30 27 31 28 32 29 34 30 35 31 36 32 37 37 38
REMARK SMILES IDX 33 39 36 40 34 41 35 42 38 44 39 45 40 46 41 48 42 49 43 50
REMARK SMILES IDX 44 51 49 52 45 53 48 54 46 55 47 56 50 58 51 59 52 60
REMARK H PARENT 14 8 11 11 9 14 9 15 28 33 35 43 40 47 47 57 52 61
ROOT
ATOM      1  O   UNL     1      -1.190  -0.282  -9.467  1.00  0.00    -0.272 OA
ATOM      2  C   UNL     1      -0.423  -1.225  -9.712  1.00  0.00     0.245 C 
ENDROOT
BRANCH   2   3
ATOM      3  C   UNL     1       0.566  -1.088 -10.897  1.00  0.00     0.168 C 
ATOM      4  C   UNL     1      -0.071  -1.577 -12.193  1.00  0.00     0.041 C 
BRANCH   3   5
ATOM      5  N   UNL     1       1.159   0.232 -11.048  1.00  0.00    -0.342 N 
ATOM      6  C   UNL     1       2.391   0.542 -10.513  1.00  0.00     0.251 C 
ATOM      7  O   UNL     1       3.055  -0.243  -9.843  1.00  0.00    -0.272 OA
ATOM      8  H   UNL     1       0.687   0.977 -11.555  1.00  0.00     0.164 HD
BRANCH   6   9
ATOM      9  C   UNL     1       2.880   1.941 -10.918  1.00  0.00     0.219 C 
BRANCH   9  10
ATOM     10  O   UNL     1       1.880   2.950 -10.736  1.00  0.00    -0.382 OA
ATOM     11  H   UNL     1       1.993   3.222  -9.798  1.00  0.00     0.211 HD
ENDBRANCH   9  10
BRANCH   9  12
ATOM     12  C   UNL     1       4.206   2.349 -10.223  1.00  0.00     0.089 C 
BRANCH  12  13
ATOM     13  N   UNL     1       5.306   1.550 -10.809  1.00  0.00    -0.325 NA
ATOM     14  H   UNL     1       5.188   0.570 -10.543  1.00  0.00     0.119 HD
ATOM     15  H   UNL     1       6.189   1.838 -10.382  1.00  0.00     0.119 HD
ENDBRANCH  12  13
BRANCH  12  16
ATOM     16  C   UNL     1       4.560   3.854 -10.267  1.00  0.00     0.022 C 
BRANCH  16  17
ATOM     17  C   UNL     1       4.449   4.686  -8.982  1.00  0.00     0.002 C 
BRANCH  17  18
ATOM     18  C   UNL     1       3.853   3.947  -7.786  1.00  0.00     0.000 C 
BRANCH  18  19
ATOM     19  C   UNL     1       2.368   4.247  -7.543  1.00  0.00    -0.000 C 
BRANCH  19  20
ATOM     20  C   UNL     1       1.538   3.060  -7.046  1.00  0.00    -0.000 C 
BRANCH  20  21
ATOM     21  C   UNL     1       2.349   1.765  -6.937  1.00  0.00    -0.003 C 
ATOM     22  C   UNL     1       2.134   1.088  -5.592  1.00  0.00     0.004 C 
ENDBRANCH  20  21
ENDBRANCH  19  20
ENDBRANCH  18  19
ENDBRANCH  17  18
ENDBRANCH  16  17
ENDBRANCH  12  16
ENDBRANCH   9  12
ENDBRANCH   6   9
ENDBRANCH   3   5
ENDBRANCH   2   3
BRANCH   2  23
ATOM     23  N   UNL     1      -0.376  -2.323  -8.859  1.00  0.00    -0.332 N 
ATOM     24  C   UNL     1       0.619  -2.515  -7.814  1.00  0.00     0.147 C 
BRANCH  23  25
ATOM     25  C   UNL     1      -1.460  -3.342  -8.887  1.00  0.00     0.174 C 
BRANCH  25  26
ATOM     26  C   UNL     1      -2.268  -3.327 -10.206  1.00  0.00     0.038 C 
BRANCH  26  27
ATOM     27  C   UNL     1      -3.234  -4.507 -10.449  1.00  0.00    -0.015 C 
ATOM     28  C   UNL     1      -2.723  -5.815  -9.846  1.00  0.00     0.007 C 
ATOM     29  C   UNL     1      -4.663  -4.226  -9.990  1.00  0.00     0.007 C 
ENDBRANCH  26  27
ENDBRANCH  25  26
BRANCH  25  30
ATOM     30  C   UNL     1      -2.338  -3.220  -7.620  1.00  0.00     0.243 C 
ATOM     31  O   UNL     1      -2.422  -4.131  -6.797  1.00  0.00    -0.273 OA
ATOM     32  N   UNL     1      -3.017  -2.037  -7.480  1.00  0.00    -0.342 N 
ATOM     33  H   UNL     1      -2.786  -1.279  -8.128  1.00  0.00     0.164 HD
BRANCH  32  34
ATOM     34  C   UNL     1      -3.915  -1.756  -6.357  1.00  0.00     0.175 C 
BRANCH  34  35
ATOM     35  C   UNL     1      -3.181  -1.023  -5.223  1.00  0.00     0.070 C 
BRANCH  35  36
ATOM     36  C   UNL     1      -3.180  -1.803  -3.928  1.00  0.00    -0.045 A 
ATOM     37  C   UNL     1      -3.432  -1.147  -2.714  1.00  0.00     0.007 A 
ATOM     38  C   UNL     1      -2.906  -3.177  -3.916  1.00  0.00     0.007 A 
ATOM     39  C   UNL     1      -3.419  -1.855  -1.512  1.00  0.00     0.046 A 
ATOM     40  C   UNL     1      -2.892  -3.887  -2.713  1.00  0.00     0.046 A 
ATOM     41  C   UNL     1      -3.151  -3.219  -1.521  1.00  0.00     0.115 A 
BRANCH  41  42
ATOM     42  O   UNL     1      -3.145  -3.873  -0.325  1.00  0.00    -0.508 OA
ATOM     43  H   UNL     1      -3.031  -3.216   0.382  1.00  0.00     0.293 HD
ENDBRANCH  41  42
ENDBRANCH  35  36
ENDBRANCH  34  35
BRANCH  34  44
ATOM     44  C   UNL     1      -5.111  -0.937  -6.894  1.00  0.00     0.243 C 
ATOM     45  O   UNL     1      -5.673  -0.040  -6.272  1.00  0.00    -0.273 OA
ATOM     46  N   UNL     1      -5.588  -1.392  -8.105  1.00  0.00    -0.341 N 
ATOM     47  H   UNL     1      -5.162  -2.213  -8.527  1.00  0.00     0.164 HD
BRANCH  46  48
ATOM     48  C   UNL     1      -6.756  -0.818  -8.778  1.00  0.00     0.196 C 
BRANCH  48  49
ATOM     49  C   UNL     1      -6.612  -0.891 -10.307  1.00  0.00     0.072 C 
BRANCH  49  50
ATOM     50  C   UNL     1      -5.335  -0.251 -10.803  1.00  0.00    -0.045 A 
ATOM     51  C   UNL     1      -4.510  -0.942 -11.702  1.00  0.00     0.007 A 
ATOM     52  C   UNL     1      -4.947   1.021 -10.361  1.00  0.00     0.007 A 
ATOM     53  C   UNL     1      -3.322  -0.367 -12.155  1.00  0.00     0.046 A 
ATOM     54  C   UNL     1      -3.758   1.596 -10.814  1.00  0.00     0.046 A 
ATOM     55  C   UNL     1      -2.956   0.896 -11.709  1.00  0.00     0.115 A 
BRANCH  55  56
ATOM     56  O   UNL     1      -1.787   1.422 -12.175  1.00  0.00    -0.508 OA
ATOM     57  H   UNL     1      -1.399   0.794 -12.805  1.00  0.00     0.293 HD
ENDBRANCH  55  56
ENDBRANCH  49  50
ENDBRANCH  48  49
BRANCH  48  58
ATOM     58  C   UNL     1      -8.011  -1.587  -8.342  1.00  0.00     0.326 C 
ATOM     59  O   UNL     1      -8.678  -2.355  -9.015  1.00  0.00    -0.250 OA
BRANCH  58  60
ATOM     60  O   UNL     1      -8.364  -1.359  -7.052  1.00  0.00    -0.480 OA
ATOM     61  H   UNL     1      -8.782  -2.204  -6.779  1.00  0.00     0.296 HD
ENDBRANCH  58  60
ENDBRANCH  48  58
ENDBRANCH  46  48
ENDBRANCH  34  44
ENDBRANCH  32  34
ENDBRANCH  25  30
ENDBRANCH  23  25
ENDBRANCH   2  23
TORSDOF 28
ENDMDL
MODEL 10
REMARK VINA RESULT:    -5.913      2.244      7.872
REMARK INTER + INTRA:         -18.988
REMARK INTER:                 -14.839
REMARK INTRA:                  -4.148
REMARK UNBOUND:                -4.260
REMARK SMILES CCCCCCC[C@H](N)[C@H](O)C(=O)N[C@H](C)C(=O)N(C)[C@H](CC(C)C)C(=O)N[C@@H](Cc1ccc(O)cc1)C(=O)N[C@@H](Cc1ccc(O)cc1)C(=O)O
REMARK SMILES IDX 18 1 17 2 15 3 16 4 14 5 12 6 13 7 10 9 11 10 8 12 9 13 7 16
REMARK SMILES IDX 6 17 5 18 4 19 3 20 2 21 1 22 19 23 20 24 21 25 22 26 23 27
REMARK SMILES IDX 24 28 25 29 26 30 27 31 28 32 29 34 30 35 31 36 32 37 37 38
REMARK SMILES IDX 33 39 36 40 34 41 35 42 38 44 39 45 40 46 41 48 42 49 43 50
REMARK SMILES IDX 44 51 49 52 45 53 48 54 46 55 47 56 50 58 51 59 52 60
REMARK H PARENT 14 8 11 11 9 14 9 15 28 33 35 43 40 47 47 57 52 61
ROOT
ATOM      1  O   UNL     1      -3.736  -0.820 -12.511  1.00  0.00    -0.272 OA
ATOM      2  C   UNL     1      -2.789  -0.164 -12.051  1.00  0.00     0.245 C 
ENDROOT
BRANCH   2   3
ATOM      3  C   UNL     1      -1.347  -0.677 -12.289  1.00  0.00     0.168 C 
ATOM      4  C   UNL     1      -0.843  -0.256 -13.665  1.00  0.00     0.041 C 
BRANCH   3   5
ATOM      5  N   UNL     1      -0.398  -0.343 -11.238  1.00  0.00    -0.342 N 
ATOM      6  C   UNL     1       0.273  -1.314 -10.527  1.00  0.00     0.251 C 
ATOM      7  O   UNL     1       0.095  -2.517 -10.691  1.00  0.00    -0.272 OA
ATOM      8  H   UNL     1      -0.194   0.622 -10.988  1.00  0.00     0.164 HD
BRANCH   6   9
ATOM      9  C   UNL     1       1.325  -0.731  -9.570  1.00  0.00     0.219 C 
BRANCH   9  10
ATOM     10  O   UNL     1       2.202   0.201 -10.216  1.00  0.00    -0.382 OA
ATOM     11  H   UNL     1       2.841   0.443  -9.510  1.00  0.00     0.211 HD
ENDBRANCH   9  10
BRANCH   9  12
ATOM     12  C   UNL     1       0.708  -0.111  -8.290  1.00  0.00     0.089 C 
BRANCH  12  13
ATOM     13  N   UNL     1      -0.645  -0.683  -8.099  1.00  0.00    -0.325 NA
ATOM     14  H   UNL     1      -1.345   0.014  -8.360  1.00  0.00     0.119 HD
ATOM     15  H   UNL     1      -0.795  -0.851  -7.101  1.00  0.00     0.119 HD
ENDBRANCH  12  13
BRANCH  12  16
ATOM     16  C   UNL     1       1.538  -0.264  -6.994  1.00  0.00     0.022 C 
BRANCH  16  17
ATOM     17  C   UNL     1       2.166   0.983  -6.356  1.00  0.00     0.002 C 
BRANCH  17  18
ATOM     18  C   UNL     1       1.924   2.286  -7.116  1.00  0.00     0.000 C 
BRANCH  18  19
ATOM     19  C   UNL     1       3.203   2.952  -7.638  1.00  0.00    -0.000 C 
BRANCH  19  20
ATOM     20  C   UNL     1       3.175   3.342  -9.119  1.00  0.00    -0.000 C 
BRANCH  20  21
ATOM     21  C   UNL     1       4.572   3.547  -9.711  1.00  0.00    -0.003 C 
ATOM     22  C   UNL     1       4.745   4.961 -10.246  1.00  0.00     0.004 C 
ENDBRANCH  20  21
ENDBRANCH  19  20
ENDBRANCH  18  19
ENDBRANCH  17  18
ENDBRANCH  16  17
ENDBRANCH  12  16
ENDBRANCH   9  12
ENDBRANCH   6   9
ENDBRANCH   3   5
ENDBRANCH   2   3
BRANCH   2  23
ATOM     23  N   UNL     1      -3.025   1.066 -11.446  1.00  0.00    -0.332 N 
ATOM     24  C   UNL     1      -2.342   2.303 -11.796  1.00  0.00     0.147 C 
BRANCH  23  25
ATOM     25  C   UNL     1      -4.123   1.216 -10.452  1.00  0.00     0.174 C 
BRANCH  25  26
ATOM     26  C   UNL     1      -4.307   2.675  -9.974  1.00  0.00     0.038 C 
BRANCH  26  27
ATOM     27  C   UNL     1      -5.702   3.308 -10.177  1.00  0.00    -0.015 C 
ATOM     28  C   UNL     1      -6.663   2.378 -10.917  1.00  0.00     0.007 C 
ATOM     29  C   UNL     1      -6.334   3.814  -8.883  1.00  0.00     0.007 C 
ENDBRANCH  26  27
ENDBRANCH  25  26
BRANCH  25  30
ATOM     30  C   UNL     1      -3.938   0.203  -9.299  1.00  0.00     0.243 C 
ATOM     31  O   UNL     1      -3.324   0.491  -8.272  1.00  0.00    -0.273 OA
ATOM     32  N   UNL     1      -4.497  -1.033  -9.499  1.00  0.00    -0.342 N 
ATOM     33  H   UNL     1      -5.110  -1.149 -10.311  1.00  0.00     0.164 HD
BRANCH  32  34
ATOM     34  C   UNL     1      -4.399  -2.125  -8.527  1.00  0.00     0.175 C 
BRANCH  34  35
ATOM     35  C   UNL     1      -5.711  -2.920  -8.446  1.00  0.00     0.070 C 
BRANCH  35  36
ATOM     36  C   UNL     1      -6.614  -2.447  -7.329  1.00  0.00    -0.045 A 
ATOM     37  C   UNL     1      -8.000  -2.364  -7.534  1.00  0.00     0.007 A 
ATOM     38  C   UNL     1      -6.084  -2.064  -6.090  1.00  0.00     0.007 A 
ATOM     39  C   UNL     1      -8.839  -1.915  -6.514  1.00  0.00     0.046 A 
ATOM     40  C   UNL     1      -6.924  -1.613  -5.069  1.00  0.00     0.046 A 
ATOM     41  C   UNL     1      -8.295  -1.544  -5.290  1.00  0.00     0.115 A 
BRANCH  41  42
ATOM     42  O   UNL     1      -9.150  -1.108  -4.322  1.00  0.00    -0.508 OA
ATOM     43  H   UNL     1      -9.760  -1.832  -4.105  1.00  0.00     0.293 HD
ENDBRANCH  41  42
ENDBRANCH  35  36
ENDBRANCH  34  35
BRANCH  34  44
ATOM     44  C   UNL     1      -3.206  -3.020  -8.932  1.00  0.00     0.243 C 
ATOM     45  O   UNL     1      -2.994  -3.420 -10.073  1.00  0.00    -0.273 OA
ATOM     46  N   UNL     1      -2.452  -3.447  -7.859  1.00  0.00    -0.341 N 
ATOM     47  H   UNL     1      -2.737  -3.183  -6.919  1.00  0.00     0.164 HD
BRANCH  46  48
ATOM     48  C   UNL     1      -1.312  -4.357  -7.986  1.00  0.00     0.196 C 
BRANCH  48  49
ATOM     49  C   UNL     1      -0.291  -4.138  -6.857  1.00  0.00     0.072 C 
BRANCH  49  50
ATOM     50  C   UNL     1      -0.772  -4.671  -5.527  1.00  0.00    -0.045 A 
ATOM     51  C   UNL     1       0.010  -5.596  -4.820  1.00  0.00     0.007 A 
ATOM     52  C   UNL     1      -2.004  -4.270  -4.993  1.00  0.00     0.007 A 
ATOM     53  C   UNL     1      -0.430  -6.104  -3.597  1.00  0.00     0.046 A 
ATOM     54  C   UNL     1      -2.445  -4.780  -3.769  1.00  0.00     0.046 A 
ATOM     55  C   UNL     1      -1.653  -5.692  -3.081  1.00  0.00     0.115 A 
BRANCH  55  56
ATOM     56  O   UNL     1      -2.047  -6.214  -1.885  1.00  0.00    -0.508 OA
ATOM     57  H   UNL     1      -3.017  -6.213  -1.855  1.00  0.00     0.293 HD
ENDBRANCH  55  56
ENDBRANCH  49  50
ENDBRANCH  48  49
BRANCH  48  58
ATOM     58  C   UNL     1      -1.822  -5.805  -7.946  1.00  0.00     0.326 C 
ATOM     59  O   UNL     1      -2.939  -6.187  -7.636  1.00  0.00    -0.250 OA
BRANCH  58  60
ATOM     60  O   UNL     1      -0.889  -6.717  -8.318  1.00  0.00    -0.480 OA
ATOM     61  H   UNL     1      -0.135  -6.527  -7.719  1.00  0.00     0.296 HD
ENDBRANCH  58  60
ENDBRANCH  48  58
ENDBRANCH  46  48
ENDBRANCH  34  44
ENDBRANCH  32  34
ENDBRANCH  25  30
ENDBRANCH  23  25
ENDBRANCH   2  23
TORSDOF 28
ENDMDL
