MODEL 1
REMARK VINA RESULT:    -6.150      0.000      0.000
REMARK INTER + INTRA:         -13.509
REMARK INTER:                 -12.442
REMARK INTRA:                  -1.067
REMARK UNBOUND:                -1.067
REMARK SMILES CC[C@@H](C)[C@@H](NC(=O)[C@@H](O)Cc1ccc(O)c(Cl)c1)C(=O)N1[C@H](C(=O)NCCCCN=C(N)N)C[C@H]2CC[C@H](OS(=O)(=O)O)C[C@@H]21
REMARK SMILES IDX 22 1 36 2 46 3 35 4 23 5 45 6 37 7 39 8 38 9 20 10 21 11
REMARK SMILES IDX 5 12 6 13 7 14 8 15 9 17 11 18 12 19 17 20 19 21 15 22 14 23
REMARK SMILES IDX 13 24 18 25 16 26 10 28 3 30 4 31 2 32 1 33 24 34 25 35
REMARK SMILES IDX 26 36 27 38 28 39 29 40 30 41 31 42 32 43 33 44 34 45 40 50
REMARK SMILES IDX 41 51 42 52 43 53 44 54
REMARK H PARENT 6 16 16 27 10 29 26 37 33 46 33 47 34 48 34 49 44 55
ROOT
ATOM      1  N   UNL     1       3.916   4.410 -11.177  1.00  0.00    -0.326 N 
ATOM      2  C   UNL     1       3.645   2.236 -10.317  1.00  0.00     0.014 C 
ATOM      3  C   UNL     1       4.527   3.484 -10.220  1.00  0.00     0.091 C 
ATOM      4  C   UNL     1       3.254   2.215 -11.786  1.00  0.00     0.041 C 
ATOM      5  C   UNL     1       2.903   3.700 -11.996  1.00  0.00     0.175 C 
ATOM      6  C   UNL     1       4.607   3.906  -8.754  1.00  0.00     0.059 C 
ATOM      7  C   UNL     1       4.342   1.031  -9.715  1.00  0.00     0.008 C 
ATOM      8  C   UNL     1       4.530   2.725  -7.762  1.00  0.00     0.143 C 
ATOM      9  C   UNL     1       5.033   1.409  -8.388  1.00  0.00     0.034 C 
ENDROOT
BRANCH   1  10
ATOM     10  C   UNL     1       4.293   5.694 -11.535  1.00  0.00     0.246 C 
ATOM     11  O   UNL     1       3.454   6.449 -12.037  1.00  0.00    -0.272 OA
BRANCH  10  12
ATOM     12  C   UNL     1       5.748   6.171 -11.258  1.00  0.00     0.174 C 
BRANCH  12  13
ATOM     13  N   UNL     1       5.835   6.758  -9.921  1.00  0.00    -0.342 N 
ATOM     14  C   UNL     1       6.687   6.335  -8.926  1.00  0.00     0.249 C 
ATOM     15  O   UNL     1       7.497   5.427  -9.063  1.00  0.00    -0.272 OA
ATOM     16  H   UNL     1       5.121   7.412  -9.611  1.00  0.00     0.164 HD
BRANCH  14  17
ATOM     17  C   UNL     1       6.528   7.145  -7.622  1.00  0.00     0.207 C 
BRANCH  17  18
ATOM     18  C   UNL     1       7.534   6.668  -6.569  1.00  0.00     0.077 C 
BRANCH  18  19
ATOM     19  C   UNL     1       8.787   7.514  -6.565  1.00  0.00    -0.043 A 
ATOM     20  C   UNL     1      11.153   7.770  -7.039  1.00  0.00     0.083 A 
ATOM     21  C   UNL     1       9.986   7.005  -7.089  1.00  0.00     0.028 A 
ATOM     22  C   UNL     1      11.130   9.042  -6.466  1.00  0.00     0.134 A 
ATOM     23  C   UNL     1       9.949   9.557  -5.943  1.00  0.00     0.048 A 
ATOM     24  C   UNL     1       8.781   8.794  -5.990  1.00  0.00     0.008 A 
ATOM     25  Cl  UNL     1      12.616   7.128  -7.688  1.00  0.00    -0.080 Cl
BRANCH  22  26
ATOM     26  O   UNL     1      12.250   9.824  -6.385  1.00  0.00    -0.506 OA
ATOM     27  H   UNL     1      13.007   9.219  -6.279  1.00  0.00     0.293 HD
ENDBRANCH  22  26
ENDBRANCH  18  19
ENDBRANCH  17  18
BRANCH  17  28
ATOM     28  O   UNL     1       5.196   7.025  -7.097  1.00  0.00    -0.383 OA
ATOM     29  H   UNL     1       5.281   7.097  -6.120  1.00  0.00     0.211 HD
ENDBRANCH  17  28
ENDBRANCH  14  17
ENDBRANCH  12  13
BRANCH  12  30
ATOM     30  C   UNL     1       6.287   7.123 -12.359  1.00  0.00     0.018 C 
ATOM     31  C   UNL     1       7.354   8.070 -11.788  1.00  0.00     0.010 C 
BRANCH  30  32
ATOM     32  C   UNL     1       5.180   7.938 -13.073  1.00  0.00     0.002 C 
ATOM     33  C   UNL     1       5.547   9.376 -13.413  1.00  0.00     0.004 C 
ENDBRANCH  30  32
ENDBRANCH  12  30
ENDBRANCH  10  12
ENDBRANCH   1  10
BRANCH   5  34
ATOM     34  C   UNL     1       1.469   4.024 -11.500  1.00  0.00     0.242 C 
ATOM     35  O   UNL     1       1.185   4.085 -10.304  1.00  0.00    -0.273 OA
ATOM     36  N   UNL     1       0.528   4.184 -12.492  1.00  0.00    -0.354 N 
ATOM     37  H   UNL     1       0.798   4.002 -13.459  1.00  0.00     0.163 HD
BRANCH  36  38
ATOM     38  C   UNL     1      -0.799   4.697 -12.224  1.00  0.00     0.116 C 
BRANCH  38  39
ATOM     39  C   UNL     1      -1.299   5.495 -13.426  1.00  0.00     0.023 C 
BRANCH  39  40
ATOM     40  C   UNL     1      -1.544   6.963 -13.090  1.00  0.00     0.026 C 
BRANCH  40  41
ATOM     41  C   UNL     1      -0.223   7.730 -13.019  1.00  0.00     0.146 C 
BRANCH  41  42
ATOM     42  N   UNL     1      -0.305   8.756 -11.989  1.00  0.00    -0.254 NA
ATOM     43  C   UNL     1       0.765   9.318 -11.568  1.00  0.00     0.185 C 
ATOM     44  N   UNL     1       2.046   9.120 -11.931  1.00  0.00    -0.370 N 
ATOM     45  N   UNL     1       0.669  10.259 -10.615  1.00  0.00    -0.370 N 
ATOM     46  H   UNL     1       2.800   9.450 -11.351  1.00  0.00     0.159 HD
ATOM     47  H   UNL     1       2.299   8.452 -12.651  1.00  0.00     0.159 HD
ATOM     48  H   UNL     1      -0.264  10.475 -10.291  1.00  0.00     0.159 HD
ATOM     49  H   UNL     1       1.413  10.901 -10.407  1.00  0.00     0.159 HD
ENDBRANCH  41  42
ENDBRANCH  40  41
ENDBRANCH  39  40
ENDBRANCH  38  39
ENDBRANCH  36  38
ENDBRANCH   5  34
BRANCH   8  50
ATOM     50  O   UNL     1       3.183   2.536  -7.329  1.00  0.00    -0.245 OA
BRANCH  50  51
ATOM     51  S   UNL     1       2.827   2.631  -5.745  1.00  0.00     0.397 S 
ATOM     52  O   UNL     1       2.874   1.294  -5.196  1.00  0.00    -0.169 OA
ATOM     53  O   UNL     1       1.677   3.490  -5.556  1.00  0.00    -0.169 OA
BRANCH  51  54
ATOM     54  O   UNL     1       4.116   3.391  -5.157  1.00  0.00    -0.264 OA
ATOM     55  H   UNL     1       4.663   2.730  -4.685  1.00  0.00     0.236 HD
ENDBRANCH  51  54
ENDBRANCH  50  51
ENDBRANCH   8  50
TORSDOF 19
ENDMDL
MODEL 2
REMARK VINA RESULT:    -4.550      1.477      2.075
REMARK INTER + INTRA:         -10.272
REMARK INTER:                  -8.675
REMARK INTRA:                  -1.597
REMARK UNBOUND:                -1.067
REMARK SMILES CC[C@@H](C)[C@@H](NC(=O)[C@@H](O)Cc1ccc(O)c(Cl)c1)C(=O)N1[C@H](C(=O)NCCCCN=C(N)N)C[C@H]2CC[C@H](OS(=O)(=O)O)C[C@@H]21
REMARK SMILES IDX 22 1 36 2 46 3 35 4 23 5 45 6 37 7 39 8 38 9 20 10 21 11
REMARK SMILES IDX 5 12 6 13 7 14 8 15 9 17 11 18 12 19 17 20 19 21 15 22 14 23
REMARK SMILES IDX 13 24 18 25 16 26 10 28 3 30 4 31 2 32 1 33 24 34 25 35
REMARK SMILES IDX 26 36 27 38 28 39 29 40 30 41 31 42 32 43 33 44 34 45 40 50
REMARK SMILES IDX 41 51 42 52 43 53 44 54
REMARK H PARENT 6 16 16 27 10 29 26 37 33 46 33 47 34 48 34 49 44 55
ROOT
ATOM      1  N   UNL     1       4.021   4.275  -9.888  1.00  0.00    -0.326 N 
ATOM      2  C   UNL     1       3.863   2.284  -8.641  1.00  0.00     0.014 C 
ATOM      3  C   UNL     1       4.518   3.668  -8.649  1.00  0.00     0.091 C 
ATOM      4  C   UNL     1       3.827   1.922 -10.118  1.00  0.00     0.041 C 
ATOM      5  C   UNL     1       3.331   3.253 -10.713  1.00  0.00     0.175 C 
ATOM      6  C   UNL     1       4.201   4.361  -7.325  1.00  0.00     0.059 C 
ATOM      7  C   UNL     1       4.563   1.359  -7.665  1.00  0.00     0.008 C 
ATOM      8  C   UNL     1       4.063   3.389  -6.133  1.00  0.00     0.143 C 
ATOM      9  C   UNL     1       4.873   2.094  -6.345  1.00  0.00     0.034 C 
ENDROOT
BRANCH   1  10
ATOM     10  C   UNL     1       4.289   5.517 -10.437  1.00  0.00     0.246 C 
ATOM     11  O   UNL     1       3.590   6.482 -10.111  1.00  0.00    -0.272 OA
BRANCH  10  12
ATOM     12  C   UNL     1       5.487   5.680 -11.417  1.00  0.00     0.174 C 
BRANCH  12  13
ATOM     13  N   UNL     1       6.517   6.522 -10.809  1.00  0.00    -0.342 N 
ATOM     14  C   UNL     1       7.181   6.237  -9.637  1.00  0.00     0.249 C 
ATOM     15  O   UNL     1       6.998   5.219  -8.980  1.00  0.00    -0.272 OA
ATOM     16  H   UNL     1       6.663   7.467 -11.154  1.00  0.00     0.164 HD
BRANCH  14  17
ATOM     17  C   UNL     1       8.199   7.330  -9.247  1.00  0.00     0.207 C 
BRANCH  17  18
ATOM     18  C   UNL     1       7.915   7.847  -7.834  1.00  0.00     0.077 C 
BRANCH  18  19
ATOM     19  C   UNL     1       9.178   8.301  -7.137  1.00  0.00    -0.043 A 
ATOM     20  C   UNL     1      11.393   9.285  -7.231  1.00  0.00     0.083 A 
ATOM     21  C   UNL     1      10.209   8.912  -7.868  1.00  0.00     0.028 A 
ATOM     22  C   UNL     1      11.555   9.050  -5.865  1.00  0.00     0.134 A 
ATOM     23  C   UNL     1      10.542   8.446  -5.130  1.00  0.00     0.048 A 
ATOM     24  C   UNL     1       9.356   8.070  -5.765  1.00  0.00     0.008 A 
ATOM     25  Cl  UNL     1      12.648  10.035  -8.145  1.00  0.00    -0.080 Cl
BRANCH  22  26
ATOM     26  O   UNL     1      12.702   9.389  -5.199  1.00  0.00    -0.506 OA
ATOM     27  H   UNL     1      13.440   8.978  -5.687  1.00  0.00     0.293 HD
ENDBRANCH  22  26
ENDBRANCH  18  19
ENDBRANCH  17  18
BRANCH  17  28
ATOM     28  O   UNL     1       8.159   8.427 -10.174  1.00  0.00    -0.383 OA
ATOM     29  H   UNL     1       7.991   8.030 -11.058  1.00  0.00     0.211 HD
ENDBRANCH  17  28
ENDBRANCH  14  17
ENDBRANCH  12  13
BRANCH  12  30
ATOM     30  C   UNL     1       5.052   6.194 -12.816  1.00  0.00     0.018 C 
ATOM     31  C   UNL     1       4.864   7.719 -12.804  1.00  0.00     0.010 C 
BRANCH  30  32
ATOM     32  C   UNL     1       3.778   5.505 -13.362  1.00  0.00     0.002 C 
ATOM     33  C   UNL     1       3.975   4.086 -13.879  1.00  0.00     0.004 C 
ENDBRANCH  30  32
ENDBRANCH  12  30
ENDBRANCH  10  12
ENDBRANCH   1  10
BRANCH   5  34
ATOM     34  C   UNL     1       1.790   3.396 -10.590  1.00  0.00     0.242 C 
ATOM     35  O   UNL     1       1.207   3.325  -9.509  1.00  0.00    -0.273 OA
ATOM     36  N   UNL     1       1.120   3.552 -11.783  1.00  0.00    -0.354 N 
ATOM     37  H   UNL     1       1.646   3.482 -12.655  1.00  0.00     0.163 HD
BRANCH  36  38
ATOM     38  C   UNL     1      -0.281   3.913 -11.841  1.00  0.00     0.116 C 
BRANCH  38  39
ATOM     39  C   UNL     1      -0.746   3.956 -13.294  1.00  0.00     0.023 C 
BRANCH  39  40
ATOM     40  C   UNL     1      -0.639   5.352 -13.899  1.00  0.00     0.026 C 
BRANCH  40  41
ATOM     41  C   UNL     1      -1.196   6.403 -12.938  1.00  0.00     0.146 C 
BRANCH  41  42
ATOM     42  N   UNL     1      -0.667   7.716 -13.284  1.00  0.00    -0.254 NA
ATOM     43  C   UNL     1       0.353   8.172 -12.660  1.00  0.00     0.185 C 
ATOM     44  N   UNL     1       1.081   7.620 -11.672  1.00  0.00    -0.370 N 
ATOM     45  N   UNL     1       0.823   9.386 -12.991  1.00  0.00    -0.370 N 
ATOM     46  H   UNL     1       1.697   8.185 -11.112  1.00  0.00     0.159 HD
ATOM     47  H   UNL     1       0.872   6.696 -11.308  1.00  0.00     0.159 HD
ATOM     48  H   UNL     1       0.336   9.868 -13.735  1.00  0.00     0.159 HD
ATOM     49  H   UNL     1       1.737   9.707 -12.726  1.00  0.00     0.159 HD
ENDBRANCH  41  42
ENDBRANCH  40  41
ENDBRANCH  39  40
ENDBRANCH  38  39
ENDBRANCH  36  38
ENDBRANCH   5  34
BRANCH   8  50
ATOM     50  O   UNL     1       2.692   3.040  -5.942  1.00  0.00    -0.245 OA
BRANCH  50  51
ATOM     51  S   UNL     1       2.093   2.934  -4.433  1.00  0.00     0.397 S 
ATOM     52  O   UNL     1       2.580   4.067  -3.679  1.00  0.00    -0.169 OA
ATOM     53  O   UNL     1       2.239   1.578  -3.946  1.00  0.00    -0.169 OA
BRANCH  51  54
ATOM     54  O   UNL     1       0.527   3.209  -4.674  1.00  0.00    -0.264 OA
ATOM     55  H   UNL     1       0.447   3.890  -5.372  1.00  0.00     0.236 HD
ENDBRANCH  51  54
ENDBRANCH  50  51
ENDBRANCH   8  50
TORSDOF 19
ENDMDL
