MODEL 1
REMARK VINA RESULT:    -5.249      0.000      0.000
REMARK INTER + INTRA:         -11.247
REMARK INTER:                  -9.392
REMARK INTRA:                  -1.855
REMARK UNBOUND:                -1.855
REMARK SMILES CC[C@H](C)[C@H]1NC(=O)c2coc(n2)[C@H](C(C)C)NC(=O)[C@H]([C@@H](C)O)NC(=O)[C@H](C)NC(=O)c2csc1n2
REMARK SMILES IDX 11 1 13 2 12 3 9 4 10 5 7 6 6 7 8 8 5 10 36 11 35 12 34 13
REMARK SMILES IDX 37 14 33 15 31 16 32 17 30 18 28 20 29 21 3 23 4 24 2 25
REMARK SMILES IDX 1 26 14 27 18 28 19 29 20 30 21 32 25 33 26 34 27 35 22 38
REMARK SMILES IDX 23 39 24 40 15 42 16 43 17 44
REMARK H PARENT 6 9 30 19 18 31 25 36 24 41
REMARK Flexibility Score:   94.900
ROOT
ATOM      1  O   UNL     1       2.045  -3.789   5.329  1.00  0.00    -0.446 OA
ATOM      2  N   UNL     1      -0.022  -4.344   6.036  1.00  0.00    -0.207 NA
ATOM      3  C   UNL     1       1.066  -3.634   6.274  1.00  0.00     0.217 A 
ATOM      4  C   UNL     1       0.249  -4.988   4.841  1.00  0.00     0.167 A 
ATOM      5  C   UNL     1       1.509  -4.645   4.416  1.00  0.00     0.231 A 
ENDROOT
BRANCH   4   6
ATOM      6  C   UNL     1      -0.685  -5.900   4.203  1.00  0.00     0.273 C 
ATOM      7  N   UNL     1      -1.780  -5.242   3.703  1.00  0.00    -0.341 N 
ATOM      8  O   UNL     1      -0.516  -7.112   4.146  1.00  0.00    -0.267 OA
ATOM      9  H   UNL     1      -1.827  -4.248   3.906  1.00  0.00     0.164 HD
BRANCH   7  10
ATOM     10  C   UNL     1      -2.971  -5.925   3.240  1.00  0.00     0.145 C 
BRANCH  10  11
ATOM     11  C   UNL     1      -4.171  -5.248   3.887  1.00  0.00     0.116 A 
ATOM     12  S   UNL     1      -5.680  -6.076   3.968  1.00  0.00    -0.124 S 
ATOM     13  C   UNL     1      -6.359  -4.743   4.793  1.00  0.00     0.101 A 
ATOM     14  N   UNL     1      -4.160  -4.039   4.425  1.00  0.00    -0.234 NA
ATOM     15  C   UNL     1      -5.415  -3.749   4.965  1.00  0.00     0.139 A 
BRANCH  15  16
ATOM     16  C   UNL     1      -5.681  -2.488   5.661  1.00  0.00     0.271 C 
ATOM     17  O   UNL     1      -6.292  -1.559   5.144  1.00  0.00    -0.267 OA
ATOM     18  N   UNL     1      -5.179  -2.451   6.945  1.00  0.00    -0.339 N 
ATOM     19  H   UNL     1      -4.596  -3.238   7.217  1.00  0.00     0.164 HD
BRANCH  18  20
ATOM     20  C   UNL     1      -5.289  -1.251   7.764  1.00  0.00     0.168 CG0
ATOM     21  C   UNL     1      -6.575  -1.260   8.593  1.00  0.00     0.041 C 
ATOM     22  G   UNL     1      -4.106  -1.082   8.731  1.00  0.00     0.000 G0
ENDBRANCH  18  20
ENDBRANCH  15  16
ENDBRANCH  10  11
BRANCH  10  23
ATOM     23  C   UNL     1      -3.069  -5.950   1.692  1.00  0.00     0.015 C 
ATOM     24  C   UNL     1      -3.030  -7.370   1.102  1.00  0.00     0.010 C 
BRANCH  23  25
ATOM     25  C   UNL     1      -4.328  -5.228   1.160  1.00  0.00     0.002 C 
ATOM     26  C   UNL     1      -5.057  -5.985   0.059  1.00  0.00     0.004 C 
ENDBRANCH  23  25
ENDBRANCH  10  23
ENDBRANCH   7  10
ENDBRANCH   4   6
BRANCH   3  27
ATOM     27  C   UNL     1       1.332  -2.755   7.465  1.00  0.00     0.171 C 
BRANCH  27  28
ATOM     28  N   UNL     1       0.152  -2.795   8.322  1.00  0.00    -0.342 N 
ATOM     29  C   UNL     1      -0.591  -1.676   8.623  1.00  0.00     0.245 C 
ATOM     30  O   UNL     1      -0.324  -0.560   8.179  1.00  0.00    -0.273 OA
ATOM     31  H   UNL     1      -0.196  -3.701   8.634  1.00  0.00     0.164 HD
BRANCH  29  32
ATOM     32  C   UNL     1      -1.875  -1.936   9.438  1.00  0.00     0.200 C 
BRANCH  32  33
ATOM     33  N   UNL     1      -3.018  -1.914   8.516  1.00  0.00    -0.340 N 
ATOM     34  C   UNL     1      -4.098  -1.084   8.735  1.00  0.00     0.243 CG0
ATOM     35  O   UNL     1      -4.182  -0.377   9.737  1.00  0.00    -0.273 OA
ATOM     36  H   UNL     1      -2.992  -2.509   7.697  1.00  0.00     0.164 HD
ATOM     37  G   UNL     1      -5.281  -1.262   7.770  1.00  0.00     0.000 G0
ENDBRANCH  32  33
BRANCH  32  38
ATOM     38  C   UNL     1      -1.776  -3.252  10.244  1.00  0.00     0.143 C 
ATOM     39  C   UNL     1      -0.976  -3.132  11.536  1.00  0.00     0.041 C 
BRANCH  38  40
ATOM     40  O   UNL     1      -3.096  -3.740  10.556  1.00  0.00    -0.391 OA
ATOM     41  H   UNL     1      -2.982  -4.460  11.204  1.00  0.00     0.211 HD
ENDBRANCH  38  40
ENDBRANCH  32  38
ENDBRANCH  29  32
ENDBRANCH  27  28
BRANCH  27  42
ATOM     42  C   UNL     1       2.630  -3.016   8.269  1.00  0.00     0.015 C 
ATOM     43  C   UNL     1       2.905  -2.037   9.416  1.00  0.00     0.010 C 
ATOM     44  C   UNL     1       2.709  -4.461   8.774  1.00  0.00     0.010 C 
ENDBRANCH  27  42
ENDBRANCH   3  27
TORSDOF 5
ENDMDL
MODEL 2
REMARK VINA RESULT:    -5.038      7.283     11.701
REMARK INTER + INTRA:         -10.868
REMARK INTER:                  -8.607
REMARK INTRA:                  -2.262
REMARK UNBOUND:                -1.855
REMARK SMILES CC[C@H](C)[C@H]1NC(=O)c2coc(n2)[C@H](C(C)C)NC(=O)[C@H]([C@@H](C)O)NC(=O)[C@H](C)NC(=O)c2csc1n2
REMARK SMILES IDX 11 1 13 2 12 3 9 4 10 5 7 6 6 7 8 8 5 10 36 11 35 12 34 13
REMARK SMILES IDX 37 14 33 15 31 16 32 17 30 18 28 20 29 21 3 23 4 24 2 25
REMARK SMILES IDX 1 26 14 27 18 28 19 29 20 30 21 32 25 33 26 34 27 35 22 38
REMARK SMILES IDX 23 39 24 40 15 42 16 43 17 44
REMARK H PARENT 6 9 30 19 18 31 25 36 24 41
REMARK Flexibility Score:   94.900
ROOT
ATOM      1  O   UNL     1     -13.448  -3.202   8.925  1.00  0.00    -0.446 OA
ATOM      2  N   UNL     1     -12.919  -3.568   6.764  1.00  0.00    -0.207 NA
ATOM      3  C   UNL     1     -13.725  -2.948   7.608  1.00  0.00     0.217 A 
ATOM      4  C   UNL     1     -12.037  -4.254   7.580  1.00  0.00     0.167 A 
ATOM      5  C   UNL     1     -12.364  -4.027   8.895  1.00  0.00     0.231 A 
ENDROOT
BRANCH   4   6
ATOM      6  C   UNL     1     -10.971  -5.096   7.065  1.00  0.00     0.273 C 
ATOM      7  N   UNL     1      -9.757  -4.458   7.100  1.00  0.00    -0.341 N 
ATOM      8  O   UNL     1     -11.151  -6.227   6.631  1.00  0.00    -0.267 OA
ATOM      9  H   UNL     1      -9.777  -3.488   7.400  1.00  0.00     0.164 HD
BRANCH   7  10
ATOM     10  C   UNL     1      -8.577  -4.965   6.426  1.00  0.00     0.145 C 
BRANCH  10  11
ATOM     11  C   UNL     1      -8.067  -3.868   5.504  1.00  0.00     0.116 A 
ATOM     12  S   UNL     1      -6.408  -3.403   5.564  1.00  0.00    -0.124 S 
ATOM     13  C   UNL     1      -6.686  -2.277   4.308  1.00  0.00     0.101 A 
ATOM     14  N   UNL     1      -8.803  -3.221   4.615  1.00  0.00    -0.234 NA
ATOM     15  C   UNL     1      -8.008  -2.314   3.910  1.00  0.00     0.139 A 
BRANCH  15  16
ATOM     16  C   UNL     1      -8.556  -1.485   2.834  1.00  0.00     0.271 C 
ATOM     17  O   UNL     1      -7.853  -0.952   1.982  1.00  0.00    -0.267 OA
ATOM     18  N   UNL     1      -9.929  -1.367   2.874  1.00  0.00    -0.339 N 
ATOM     19  H   UNL     1     -10.385  -1.762   3.692  1.00  0.00     0.164 HD
BRANCH  18  20
ATOM     20  C   UNL     1     -10.642  -0.526   1.922  1.00  0.00     0.168 CG0
ATOM     21  C   UNL     1     -10.838  -1.242   0.584  1.00  0.00     0.041 C 
ATOM     22  G   UNL     1     -12.027  -0.095   2.431  1.00  0.00     0.000 G0
ENDBRANCH  18  20
ENDBRANCH  15  16
ENDBRANCH  10  11
BRANCH  10  23
ATOM     23  C   UNL     1      -7.494  -5.449   7.426  1.00  0.00     0.015 C 
ATOM     24  C   UNL     1      -7.879  -5.223   8.898  1.00  0.00     0.010 C 
BRANCH  23  25
ATOM     25  C   UNL     1      -7.123  -6.937   7.234  1.00  0.00     0.002 C 
ATOM     26  C   UNL     1      -7.779  -7.585   6.022  1.00  0.00     0.004 C 
ENDBRANCH  23  25
ENDBRANCH  10  23
ENDBRANCH   7  10
ENDBRANCH   4   6
BRANCH   3  27
ATOM     27  C   UNL     1     -14.899  -2.072   7.264  1.00  0.00     0.171 C 
BRANCH  27  28
ATOM     28  N   UNL     1     -14.847  -1.799   5.832  1.00  0.00    -0.342 N 
ATOM     29  C   UNL     1     -14.042  -0.825   5.285  1.00  0.00     0.245 C 
ATOM     30  O   UNL     1     -13.294  -0.122   5.963  1.00  0.00    -0.273 OA
ATOM     31  H   UNL     1     -15.352  -2.417   5.197  1.00  0.00     0.164 HD
BRANCH  29  32
ATOM     32  C   UNL     1     -14.026  -0.772   3.742  1.00  0.00     0.200 C 
BRANCH  32  33
ATOM     33  N   UNL     1     -12.648  -0.992   3.288  1.00  0.00    -0.340 N 
ATOM     34  C   UNL     1     -12.026  -0.106   2.433  1.00  0.00     0.243 CG0
ATOM     35  O   UNL     1     -12.613   0.868   1.966  1.00  0.00    -0.273 OA
ATOM     36  H   UNL     1     -12.148  -1.803   3.632  1.00  0.00     0.164 HD
ATOM     37  G   UNL     1     -10.636  -0.529   1.930  1.00  0.00     0.000 G0
ENDBRANCH  32  33
BRANCH  32  38
ATOM     38  C   UNL     1     -15.031  -1.776   3.132  1.00  0.00     0.143 C 
ATOM     39  C   UNL     1     -15.665  -1.307   1.827  1.00  0.00     0.041 C 
BRANCH  38  40
ATOM     40  O   UNL     1     -14.384  -3.044   2.907  1.00  0.00    -0.391 OA
ATOM     41  H   UNL     1     -14.965  -3.552   2.309  1.00  0.00     0.211 HD
ENDBRANCH  38  40
ENDBRANCH  32  38
ENDBRANCH  29  32
ENDBRANCH  27  28
BRANCH  27  42
ATOM     42  C   UNL     1     -16.303  -2.557   7.702  1.00  0.00     0.015 C 
ATOM     43  C   UNL     1     -16.703  -2.209   9.140  1.00  0.00     0.010 C 
ATOM     44  C   UNL     1     -17.394  -2.109   6.723  1.00  0.00     0.010 C 
ENDBRANCH  27  42
ENDBRANCH   3  27
TORSDOF 5
ENDMDL
MODEL 3
REMARK VINA RESULT:    -4.970     14.784     17.426
REMARK INTER + INTRA:         -10.747
REMARK INTER:                  -8.228
REMARK INTRA:                  -2.519
REMARK UNBOUND:                -1.855
REMARK SMILES CC[C@H](C)[C@H]1NC(=O)c2coc(n2)[C@H](C(C)C)NC(=O)[C@H]([C@@H](C)O)NC(=O)[C@H](C)NC(=O)c2csc1n2
REMARK SMILES IDX 11 1 13 2 12 3 9 4 10 5 7 6 6 7 8 8 5 10 36 11 35 12 34 13
REMARK SMILES IDX 37 14 33 15 31 16 32 17 30 18 28 20 29 21 3 23 4 24 2 25
REMARK SMILES IDX 1 26 14 27 18 28 19 29 20 30 21 32 25 33 26 34 27 35 22 38
REMARK SMILES IDX 23 39 24 40 15 42 16 43 17 44
REMARK H PARENT 6 9 30 19 18 31 25 36 24 41
REMARK Flexibility Score:   94.900
ROOT
ATOM      1  O   UNL     1      -6.901   6.207  -7.020  1.00  0.00    -0.446 OA
ATOM      2  N   UNL     1      -6.371   4.374  -8.219  1.00  0.00    -0.207 NA
ATOM      3  C   UNL     1      -7.230   5.362  -8.046  1.00  0.00     0.217 A 
ATOM      4  C   UNL     1      -5.398   4.598  -7.261  1.00  0.00     0.167 A 
ATOM      5  C   UNL     1      -5.726   5.716  -6.534  1.00  0.00     0.231 A 
ENDROOT
BRANCH   4   6
ATOM      6  C   UNL     1      -4.248   3.729  -7.079  1.00  0.00     0.273 C 
ATOM      7  N   UNL     1      -4.227   2.712  -7.999  1.00  0.00    -0.341 N 
ATOM      8  O   UNL     1      -3.417   3.881  -6.192  1.00  0.00    -0.267 OA
ATOM      9  H   UNL     1      -5.033   2.659  -8.616  1.00  0.00     0.164 HD
BRANCH   7  10
ATOM     10  C   UNL     1      -3.340   1.570  -7.897  1.00  0.00     0.145 C 
BRANCH  10  11
ATOM     11  C   UNL     1      -4.205   0.319  -7.840  1.00  0.00     0.116 A 
ATOM     12  S   UNL     1      -3.494  -1.225  -8.125  1.00  0.00    -0.124 S 
ATOM     13  C   UNL     1      -5.010  -1.965  -7.849  1.00  0.00     0.101 A 
ATOM     14  N   UNL     1      -5.499   0.304  -7.567  1.00  0.00    -0.234 NA
ATOM     15  C   UNL     1      -5.966  -1.013  -7.554  1.00  0.00     0.139 A 
BRANCH  15  16
ATOM     16  C   UNL     1      -7.361  -1.331  -7.241  1.00  0.00     0.271 C 
ATOM     17  O   UNL     1      -7.789  -2.480  -7.204  1.00  0.00    -0.267 OA
ATOM     18  N   UNL     1      -8.138  -0.219  -6.992  1.00  0.00    -0.339 N 
ATOM     19  H   UNL     1      -7.694   0.680  -7.163  1.00  0.00     0.164 HD
BRANCH  18  20
ATOM     20  C   UNL     1      -9.566  -0.339  -6.730  1.00  0.00     0.168 CG0
ATOM     21  C   UNL     1      -9.905   0.074  -5.296  1.00  0.00     0.041 C 
ATOM     22  G   UNL     1     -10.418   0.517  -7.680  1.00  0.00     0.000 G0
ENDBRANCH  18  20
ENDBRANCH  15  16
ENDBRANCH  10  11
BRANCH  10  23
ATOM     23  C   UNL     1      -2.309   1.523  -9.056  1.00  0.00     0.015 C 
ATOM     24  C   UNL     1      -2.956   1.589 -10.450  1.00  0.00     0.010 C 
BRANCH  23  25
ATOM     25  C   UNL     1      -1.243   2.637  -8.953  1.00  0.00     0.002 C 
ATOM     26  C   UNL     1       0.082   2.172  -8.364  1.00  0.00     0.004 C 
ENDBRANCH  23  25
ENDBRANCH  10  23
ENDBRANCH   7  10
ENDBRANCH   4   6
BRANCH   3  27
ATOM     27  C   UNL     1      -8.506   5.598  -8.806  1.00  0.00     0.171 C 
BRANCH  27  28
ATOM     28  N   UNL     1      -9.512   4.677  -8.287  1.00  0.00    -0.342 N 
ATOM     29  C   UNL     1     -10.194   3.788  -9.087  1.00  0.00     0.245 C 
ATOM     30  O   UNL     1      -9.995   3.694 -10.297  1.00  0.00    -0.273 OA
ATOM     31  H   UNL     1      -9.648   4.617  -7.279  1.00  0.00     0.164 HD
BRANCH  29  32
ATOM     32  C   UNL     1     -11.123   2.807  -8.340  1.00  0.00     0.200 C 
BRANCH  32  33
ATOM     33  N   UNL     1     -10.288   1.882  -7.564  1.00  0.00    -0.340 N 
ATOM     34  C   UNL     1     -10.423   0.515  -7.693  1.00  0.00     0.243 CG0
ATOM     35  O   UNL     1     -11.286   0.013  -8.410  1.00  0.00    -0.273 OA
ATOM     36  H   UNL     1      -9.587   2.268  -6.941  1.00  0.00     0.164 HD
ATOM     37  G   UNL     1      -9.584  -0.332  -6.722  1.00  0.00     0.000 G0
ENDBRANCH  32  33
BRANCH  32  38
ATOM     38  C   UNL     1     -12.158   3.559  -7.472  1.00  0.00     0.143 C 
ATOM     39  C   UNL     1     -13.494   2.839  -7.333  1.00  0.00     0.041 C 
BRANCH  38  40
ATOM     40  O   UNL     1     -11.618   3.797  -6.157  1.00  0.00    -0.391 OA
ATOM     41  H   UNL     1     -11.274   4.711  -6.159  1.00  0.00     0.211 HD
ENDBRANCH  38  40
ENDBRANCH  32  38
ENDBRANCH  29  32
ENDBRANCH  27  28
BRANCH  27  42
ATOM     42  C   UNL     1      -9.042   7.050  -8.867  1.00  0.00     0.015 C 
ATOM     43  C   UNL     1      -9.450   7.545 -10.259  1.00  0.00     0.010 C 
ATOM     44  C   UNL     1     -10.178   7.284  -7.866  1.00  0.00     0.010 C 
ENDBRANCH  27  42
ENDBRANCH   3  27
TORSDOF 5
ENDMDL
MODEL 4
REMARK VINA RESULT:    -4.711      5.868     11.227
REMARK INTER + INTRA:         -10.283
REMARK INTER:                  -7.771
REMARK INTRA:                  -2.512
REMARK UNBOUND:                -1.855
REMARK SMILES CC[C@H](C)[C@H]1NC(=O)c2coc(n2)[C@H](C(C)C)NC(=O)[C@H]([C@@H](C)O)NC(=O)[C@H](C)NC(=O)c2csc1n2
REMARK SMILES IDX 11 1 13 2 12 3 9 4 10 5 7 6 6 7 8 8 5 10 36 11 35 12 34 13
REMARK SMILES IDX 37 14 33 15 31 16 32 17 30 18 28 20 29 21 3 23 4 24 2 25
REMARK SMILES IDX 1 26 14 27 18 28 19 29 20 30 21 32 25 33 26 34 27 35 22 38
REMARK SMILES IDX 23 39 24 40 15 42 16 43 17 44
REMARK H PARENT 6 9 30 19 18 31 25 36 24 41
REMARK Flexibility Score:   94.900
ROOT
ATOM      1  O   UNL     1     -10.568  -2.762  13.985  1.00  0.00    -0.446 OA
ATOM      2  N   UNL     1      -9.767  -1.161  12.615  1.00  0.00    -0.207 NA
ATOM      3  C   UNL     1     -10.737  -2.029  12.840  1.00  0.00     0.217 A 
ATOM      4  C   UNL     1      -8.917  -1.314  13.697  1.00  0.00     0.167 A 
ATOM      5  C   UNL     1      -9.411  -2.290  14.527  1.00  0.00     0.231 A 
ENDROOT
BRANCH   4   6
ATOM      6  C   UNL     1      -7.689  -0.554  13.856  1.00  0.00     0.273 C 
ATOM      7  N   UNL     1      -7.473   0.292  12.797  1.00  0.00    -0.341 N 
ATOM      8  O   UNL     1      -6.933  -0.680  14.811  1.00  0.00    -0.267 OA
ATOM      9  H   UNL     1      -8.139   0.221  12.033  1.00  0.00     0.164 HD
BRANCH   7  10
ATOM     10  C   UNL     1      -6.216   0.979  12.577  1.00  0.00     0.145 C 
BRANCH  10  11
ATOM     11  C   UNL     1      -5.478   0.243  11.468  1.00  0.00     0.116 A 
ATOM     12  S   UNL     1      -3.786   0.494  11.255  1.00  0.00    -0.124 S 
ATOM     13  C   UNL     1      -3.788  -0.631   9.969  1.00  0.00     0.101 A 
ATOM     14  N   UNL     1      -6.032  -0.616  10.629  1.00  0.00    -0.234 NA
ATOM     15  C   UNL     1      -5.059  -1.137   9.772  1.00  0.00     0.139 A 
BRANCH  15  16
ATOM     16  C   UNL     1      -5.385  -2.144   8.759  1.00  0.00     0.271 C 
ATOM     17  O   UNL     1      -4.780  -2.238   7.697  1.00  0.00    -0.267 OA
ATOM     18  N   UNL     1      -6.430  -2.968   9.119  1.00  0.00    -0.339 N 
ATOM     19  H   UNL     1      -6.920  -2.718   9.974  1.00  0.00     0.164 HD
BRANCH  18  20
ATOM     20  C   UNL     1      -6.937  -3.985   8.208  1.00  0.00     0.168 CG0
ATOM     21  C   UNL     1      -6.891  -5.376   8.844  1.00  0.00     0.041 C 
ATOM     22  G   UNL     1      -8.384  -3.718   7.765  1.00  0.00     0.000 G0
ENDBRANCH  18  20
ENDBRANCH  15  16
ENDBRANCH  10  11
BRANCH  10  23
ATOM     23  C   UNL     1      -6.419   2.484  12.255  1.00  0.00     0.015 C 
ATOM     24  C   UNL     1      -7.830   2.811  11.740  1.00  0.00     0.010 C 
BRANCH  23  25
ATOM     25  C   UNL     1      -6.106   3.400  13.459  1.00  0.00     0.002 C 
ATOM     26  C   UNL     1      -4.746   4.081  13.382  1.00  0.00     0.004 C 
ENDBRANCH  23  25
ENDBRANCH  10  23
ENDBRANCH   7  10
ENDBRANCH   4   6
BRANCH   3  27
ATOM     27  C   UNL     1     -11.926  -2.307  11.962  1.00  0.00     0.171 C 
BRANCH  27  28
ATOM     28  N   UNL     1     -11.470  -3.113  10.835  1.00  0.00    -0.342 N 
ATOM     29  C   UNL     1     -11.365  -2.615   9.555  1.00  0.00     0.245 C 
ATOM     30  O   UNL     1     -11.633  -1.449   9.270  1.00  0.00    -0.273 OA
ATOM     31  H   UNL     1     -11.121  -4.054  11.014  1.00  0.00     0.164 HD
BRANCH  29  32
ATOM     32  C   UNL     1     -10.742  -3.578   8.522  1.00  0.00     0.200 C 
BRANCH  32  33
ATOM     33  N   UNL     1      -9.302  -3.675   8.792  1.00  0.00    -0.340 N 
ATOM     34  C   UNL     1      -8.384  -3.743   7.764  1.00  0.00     0.243 CG0
ATOM     35  O   UNL     1      -8.731  -3.790   6.586  1.00  0.00    -0.273 OA
ATOM     36  H   UNL     1      -8.988  -3.669   9.755  1.00  0.00     0.164 HD
ATOM     37  G   UNL     1      -6.926  -3.980   8.188  1.00  0.00     0.000 G0
ENDBRANCH  32  33
BRANCH  32  38
ATOM     38  C   UNL     1     -11.451  -4.952   8.531  1.00  0.00     0.143 C 
ATOM     39  C   UNL     1     -11.589  -5.590   7.154  1.00  0.00     0.041 C 
BRANCH  38  40
ATOM     40  O   UNL     1     -10.750  -5.863   9.400  1.00  0.00    -0.391 OA
ATOM     41  H   UNL     1     -10.121  -5.326   9.918  1.00  0.00     0.211 HD
ENDBRANCH  38  40
ENDBRANCH  32  38
ENDBRANCH  29  32
ENDBRANCH  27  28
BRANCH  27  42
ATOM     42  C   UNL     1     -13.179  -2.923  12.632  1.00  0.00     0.015 C 
ATOM     43  C   UNL     1     -14.486  -2.149  12.427  1.00  0.00     0.010 C 
ATOM     44  C   UNL     1     -13.367  -4.395  12.251  1.00  0.00     0.010 C 
ENDBRANCH  27  42
ENDBRANCH   3  27
TORSDOF 5
ENDMDL
MODEL 5
REMARK VINA RESULT:    -4.592      9.907     13.058
REMARK INTER + INTRA:         -10.071
REMARK INTER:                  -7.666
REMARK INTRA:                  -2.405
REMARK UNBOUND:                -1.855
REMARK SMILES CC[C@H](C)[C@H]1NC(=O)c2coc(n2)[C@H](C(C)C)NC(=O)[C@H]([C@@H](C)O)NC(=O)[C@H](C)NC(=O)c2csc1n2
REMARK SMILES IDX 11 1 13 2 12 3 9 4 10 5 7 6 6 7 8 8 5 10 36 11 35 12 34 13
REMARK SMILES IDX 37 14 33 15 31 16 32 17 30 18 28 20 29 21 3 23 4 24 2 25
REMARK SMILES IDX 1 26 14 27 18 28 19 29 20 30 21 32 25 33 26 34 27 35 22 38
REMARK SMILES IDX 23 39 24 40 15 42 16 43 17 44
REMARK H PARENT 6 9 30 19 18 31 25 36 24 41
REMARK Flexibility Score:   94.900
ROOT
ATOM      1  O   UNL     1      -6.949  -3.304  -4.371  1.00  0.00    -0.446 OA
ATOM      2  N   UNL     1      -6.352  -1.150  -4.079  1.00  0.00    -0.207 NA
ATOM      3  C   UNL     1      -6.830  -2.243  -3.513  1.00  0.00     0.217 A 
ATOM      4  C   UNL     1      -6.116  -1.523  -5.391  1.00  0.00     0.167 A 
ATOM      5  C   UNL     1      -6.481  -2.836  -5.562  1.00  0.00     0.231 A 
ENDROOT
BRANCH   4   6
ATOM      6  C   UNL     1      -5.592  -0.612  -6.394  1.00  0.00     0.273 C 
ATOM      7  N   UNL     1      -4.724   0.300  -5.849  1.00  0.00    -0.341 N 
ATOM      8  O   UNL     1      -5.914  -0.646  -7.575  1.00  0.00    -0.267 OA
ATOM      9  H   UNL     1      -4.625   0.266  -4.839  1.00  0.00     0.164 HD
BRANCH   7  10
ATOM     10  C   UNL     1      -4.251   1.469  -6.565  1.00  0.00     0.145 C 
BRANCH  10  11
ATOM     11  C   UNL     1      -5.059   2.664  -6.082  1.00  0.00     0.116 A 
ATOM     12  S   UNL     1      -4.488   4.261  -6.386  1.00  0.00    -0.124 S 
ATOM     13  C   UNL     1      -5.880   4.896  -5.623  1.00  0.00     0.101 A 
ATOM     14  N   UNL     1      -6.212   2.589  -5.438  1.00  0.00    -0.234 NA
ATOM     15  C   UNL     1      -6.699   3.873  -5.185  1.00  0.00     0.139 A 
BRANCH  15  16
ATOM     16  C   UNL     1      -7.983   4.092  -4.515  1.00  0.00     0.271 C 
ATOM     17  O   UNL     1      -8.577   5.164  -4.548  1.00  0.00    -0.267 OA
ATOM     18  N   UNL     1      -8.454   2.979  -3.850  1.00  0.00    -0.339 N 
ATOM     19  H   UNL     1      -7.818   2.187  -3.804  1.00  0.00     0.164 HD
BRANCH  18  20
ATOM     20  C   UNL     1      -9.683   3.029  -3.071  1.00  0.00     0.168 CG0
ATOM     21  C   UNL     1     -10.894   2.627  -3.915  1.00  0.00     0.041 C 
ATOM     22  G   UNL     1      -9.643   2.111  -1.838  1.00  0.00     0.000 G0
ENDBRANCH  18  20
ENDBRANCH  15  16
ENDBRANCH  10  11
BRANCH  10  23
ATOM     23  C   UNL     1      -2.723   1.681  -6.396  1.00  0.00     0.015 C 
ATOM     24  C   UNL     1      -2.090   0.746  -5.352  1.00  0.00     0.010 C 
BRANCH  23  25
ATOM     25  C   UNL     1      -1.948   1.534  -7.725  1.00  0.00     0.002 C 
ATOM     26  C   UNL     1      -1.783   2.839  -8.492  1.00  0.00     0.004 C 
ENDBRANCH  23  25
ENDBRANCH  10  23
ENDBRANCH   7  10
ENDBRANCH   4   6
BRANCH   3  27
ATOM     27  C   UNL     1      -7.285  -2.401  -2.088  1.00  0.00     0.171 C 
BRANCH  27  28
ATOM     28  N   UNL     1      -8.555  -1.697  -1.944  1.00  0.00    -0.342 N 
ATOM     29  C   UNL     1      -8.849  -0.901  -0.860  1.00  0.00     0.245 C 
ATOM     30  O   UNL     1      -8.056  -0.711   0.061  1.00  0.00    -0.273 OA
ATOM     31  H   UNL     1      -9.216  -1.715  -2.720  1.00  0.00     0.164 HD
BRANCH  29  32
ATOM     32  C   UNL     1     -10.187  -0.137  -0.947  1.00  0.00     0.200 C 
BRANCH  32  33
ATOM     33  N   UNL     1     -10.098   0.826  -2.051  1.00  0.00    -0.340 N 
ATOM     34  C   UNL     1      -9.621   2.105  -1.850  1.00  0.00     0.243 CG0
ATOM     35  O   UNL     1      -9.312   2.514  -0.733  1.00  0.00    -0.273 OA
ATOM     36  H   UNL     1     -10.374   0.527  -2.979  1.00  0.00     0.164 HD
ATOM     37  G   UNL     1      -9.710   3.048  -3.060  1.00  0.00     0.000 G0
ENDBRANCH  32  33
BRANCH  32  38
ATOM     38  C   UNL     1     -11.384  -1.106  -1.087  1.00  0.00     0.143 C 
ATOM     39  C   UNL     1     -12.706  -0.540  -0.583  1.00  0.00     0.041 C 
BRANCH  38  40
ATOM     40  O   UNL     1     -11.539  -1.501  -2.464  1.00  0.00    -0.391 OA
ATOM     41  H   UNL     1     -10.662  -1.407  -2.882  1.00  0.00     0.211 HD
ENDBRANCH  38  40
ENDBRANCH  32  38
ENDBRANCH  29  32
ENDBRANCH  27  28
BRANCH  27  42
ATOM     42  C   UNL     1      -7.364  -3.840  -1.520  1.00  0.00     0.015 C 
ATOM     43  C   UNL     1      -6.710  -4.045  -0.148  1.00  0.00     0.010 C 
ATOM     44  C   UNL     1      -8.800  -4.373  -1.509  1.00  0.00     0.010 C 
ENDBRANCH  27  42
ENDBRANCH   3  27
TORSDOF 5
ENDMDL
MODEL 6
REMARK VINA RESULT:    -4.533      5.311      8.468
REMARK INTER + INTRA:          -9.966
REMARK INTER:                  -7.857
REMARK INTRA:                  -2.109
REMARK UNBOUND:                -1.855
REMARK SMILES CC[C@H](C)[C@H]1NC(=O)c2coc(n2)[C@H](C(C)C)NC(=O)[C@H]([C@@H](C)O)NC(=O)[C@H](C)NC(=O)c2csc1n2
REMARK SMILES IDX 11 1 13 2 12 3 9 4 10 5 7 6 6 7 8 8 5 10 36 11 35 12 34 13
REMARK SMILES IDX 37 14 33 15 31 16 32 17 30 18 28 20 29 21 3 23 4 24 2 25
REMARK SMILES IDX 1 26 14 27 18 28 19 29 20 30 21 32 25 33 26 34 27 35 22 38
REMARK SMILES IDX 23 39 24 40 15 42 16 43 17 44
REMARK H PARENT 6 9 30 19 18 31 25 36 24 41
REMARK Flexibility Score:   94.900
ROOT
ATOM      1  O   UNL     1      -7.023   0.465  10.330  1.00  0.00    -0.446 OA
ATOM      2  N   UNL     1      -7.126  -1.786  10.289  1.00  0.00    -0.207 NA
ATOM      3  C   UNL     1      -7.493  -0.681  10.913  1.00  0.00     0.217 A 
ATOM      4  C   UNL     1      -6.387  -1.336   9.209  1.00  0.00     0.167 A 
ATOM      5  C   UNL     1      -6.328   0.035   9.239  1.00  0.00     0.231 A 
ENDROOT
BRANCH   4   6
ATOM      6  C   UNL     1      -5.766  -2.229   8.246  1.00  0.00     0.273 C 
ATOM      7  N   UNL     1      -6.476  -2.286   7.073  1.00  0.00    -0.341 N 
ATOM      8  O   UNL     1      -4.746  -2.867   8.473  1.00  0.00    -0.267 OA
ATOM      9  H   UNL     1      -7.353  -1.773   7.063  1.00  0.00     0.164 HD
BRANCH   7  10
ATOM     10  C   UNL     1      -6.225  -3.275   6.043  1.00  0.00     0.145 C 
BRANCH  10  11
ATOM     11  C   UNL     1      -7.299  -4.346   6.161  1.00  0.00     0.116 A 
ATOM     12  S   UNL     1      -7.025  -5.909   5.487  1.00  0.00    -0.124 S 
ATOM     13  C   UNL     1      -8.554  -6.415   6.060  1.00  0.00     0.101 A 
ATOM     14  N   UNL     1      -8.463  -4.189   6.769  1.00  0.00    -0.234 NA
ATOM     15  C   UNL     1      -9.186  -5.384   6.729  1.00  0.00     0.139 A 
BRANCH  15  16
ATOM     16  C   UNL     1     -10.501  -5.510   7.360  1.00  0.00     0.271 C 
ATOM     17  O   UNL     1     -11.429  -6.125   6.846  1.00  0.00    -0.267 OA
ATOM     18  N   UNL     1     -10.589  -4.875   8.581  1.00  0.00    -0.339 N 
ATOM     19  H   UNL     1      -9.788  -4.307   8.845  1.00  0.00     0.164 HD
BRANCH  18  20
ATOM     20  C   UNL     1     -11.841  -4.837   9.323  1.00  0.00     0.168 CG0
ATOM     21  C   UNL     1     -11.724  -5.586  10.652  1.00  0.00     0.041 C 
ATOM     22  G   UNL     1     -12.307  -3.404   9.631  1.00  0.00     0.000 G0
ENDBRANCH  18  20
ENDBRANCH  15  16
ENDBRANCH  10  11
BRANCH  10  23
ATOM     23  C   UNL     1      -6.172  -2.644   4.626  1.00  0.00     0.015 C 
ATOM     24  C   UNL     1      -5.214  -3.374   3.670  1.00  0.00     0.010 C 
BRANCH  23  25
ATOM     25  C   UNL     1      -7.563  -2.554   3.959  1.00  0.00     0.002 C 
ATOM     26  C   UNL     1      -7.577  -2.980   2.497  1.00  0.00     0.004 C 
ENDBRANCH  23  25
ENDBRANCH  10  23
ENDBRANCH   7  10
ENDBRANCH   4   6
BRANCH   3  27
ATOM     27  C   UNL     1      -8.299  -0.580  12.179  1.00  0.00     0.171 C 
BRANCH  27  28
ATOM     28  N   UNL     1      -9.616  -1.151  11.917  1.00  0.00    -0.342 N 
ATOM     29  C   UNL     1     -10.578  -0.502  11.174  1.00  0.00     0.245 C 
ATOM     30  O   UNL     1     -10.392   0.602  10.664  1.00  0.00    -0.273 OA
ATOM     31  H   UNL     1      -9.802  -2.109  12.210  1.00  0.00     0.164 HD
BRANCH  29  32
ATOM     32  C   UNL     1     -11.858  -1.317  10.896  1.00  0.00     0.200 C 
BRANCH  32  33
ATOM     33  N   UNL     1     -11.462  -2.648  10.421  1.00  0.00    -0.340 N 
ATOM     34  C   UNL     1     -12.305  -3.407   9.635  1.00  0.00     0.243 CG0
ATOM     35  O   UNL     1     -13.441  -3.034   9.352  1.00  0.00    -0.273 OA
ATOM     36  H   UNL     1     -10.542  -2.996  10.663  1.00  0.00     0.164 HD
ATOM     37  G   UNL     1     -11.821  -4.833   9.324  1.00  0.00     0.000 G0
ENDBRANCH  32  33
BRANCH  32  38
ATOM     38  C   UNL     1     -12.776  -1.369  12.139  1.00  0.00     0.143 C 
ATOM     39  C   UNL     1     -12.728  -2.693  12.893  1.00  0.00     0.041 C 
BRANCH  38  40
ATOM     40  O   UNL     1     -12.438  -0.302  13.047  1.00  0.00    -0.391 OA
ATOM     41  H   UNL     1     -11.687  -0.619  13.583  1.00  0.00     0.211 HD
ENDBRANCH  38  40
ENDBRANCH  32  38
ENDBRANCH  29  32
ENDBRANCH  27  28
BRANCH  27  42
ATOM     42  C   UNL     1      -7.674  -1.160  13.471  1.00  0.00     0.015 C 
ATOM     43  C   UNL     1      -6.881  -0.165  14.326  1.00  0.00     0.010 C 
ATOM     44  C   UNL     1      -8.711  -1.890  14.331  1.00  0.00     0.010 C 
ENDBRANCH  27  42
ENDBRANCH   3  27
TORSDOF 5
ENDMDL
MODEL 7
REMARK VINA RESULT:    -4.206     12.604     16.579
REMARK INTER + INTRA:          -9.380
REMARK INTER:                  -7.364
REMARK INTRA:                  -2.016
REMARK UNBOUND:                -1.855
REMARK SMILES CC[C@H](C)[C@H]1NC(=O)c2coc(n2)[C@H](C(C)C)NC(=O)[C@H]([C@@H](C)O)NC(=O)[C@H](C)NC(=O)c2csc1n2
REMARK SMILES IDX 11 1 13 2 12 3 9 4 10 5 7 6 6 7 8 8 5 10 36 11 35 12 34 13
REMARK SMILES IDX 37 14 33 15 31 16 32 17 30 18 28 20 29 21 3 23 4 24 2 25
REMARK SMILES IDX 1 26 14 27 18 28 19 29 20 30 21 32 25 33 26 34 27 35 22 38
REMARK SMILES IDX 23 39 24 40 15 42 16 43 17 44
REMARK H PARENT 6 9 30 19 18 31 25 36 24 41
REMARK Flexibility Score:   94.900
ROOT
ATOM      1  O   UNL     1     -12.129   0.594   1.191  1.00  0.00    -0.446 OA
ATOM      2  N   UNL     1     -13.812  -0.874   0.886  1.00  0.00    -0.207 NA
ATOM      3  C   UNL     1     -12.648  -0.431   0.446  1.00  0.00     0.217 A 
ATOM      4  C   UNL     1     -14.064  -0.107   2.010  1.00  0.00     0.167 A 
ATOM      5  C   UNL     1     -13.035   0.785   2.191  1.00  0.00     0.231 A 
ENDROOT
BRANCH   4   6
ATOM      6  C   UNL     1     -15.266  -0.248   2.814  1.00  0.00     0.273 C 
ATOM      7  N   UNL     1     -16.292  -0.815   2.101  1.00  0.00    -0.341 N 
ATOM      8  O   UNL     1     -15.349   0.121   3.979  1.00  0.00    -0.267 OA
ATOM      9  H   UNL     1     -16.104  -0.984   1.117  1.00  0.00     0.164 HD
BRANCH   7  10
ATOM     10  C   UNL     1     -17.662  -0.845   2.574  1.00  0.00     0.145 C 
BRANCH  10  11
ATOM     11  C   UNL     1     -18.552  -0.364   1.438  1.00  0.00     0.116 A 
ATOM     12  S   UNL     1     -20.006   0.491   1.794  1.00  0.00    -0.124 S 
ATOM     13  C   UNL     1     -20.308   0.660   0.120  1.00  0.00     0.101 A 
ATOM     14  N   UNL     1     -18.298  -0.535   0.151  1.00  0.00    -0.234 NA
ATOM     15  C   UNL     1     -19.298   0.068  -0.615  1.00  0.00     0.139 A 
BRANCH  15  16
ATOM     16  C   UNL     1     -19.253   0.067  -2.079  1.00  0.00     0.271 C 
ATOM     17  O   UNL     1     -20.218  -0.233  -2.774  1.00  0.00    -0.267 OA
ATOM     18  N   UNL     1     -18.027   0.435  -2.592  1.00  0.00    -0.339 N 
ATOM     19  H   UNL     1     -17.279   0.551  -1.915  1.00  0.00     0.164 HD
BRANCH  18  20
ATOM     20  C   UNL     1     -17.777   0.425  -4.027  1.00  0.00     0.168 CG0
ATOM     21  C   UNL     1     -17.963   1.818  -4.634  1.00  0.00     0.041 C 
ATOM     22  G   UNL     1     -16.359  -0.055  -4.380  1.00  0.00     0.000 G0
ENDBRANCH  18  20
ENDBRANCH  15  16
ENDBRANCH  10  11
BRANCH  10  23
ATOM     23  C   UNL     1     -18.072  -2.249   3.093  1.00  0.00     0.015 C 
ATOM     24  C   UNL     1     -18.116  -2.342   4.628  1.00  0.00     0.010 C 
BRANCH  23  25
ATOM     25  C   UNL     1     -19.431  -2.721   2.530  1.00  0.00     0.002 C 
ATOM     26  C   UNL     1     -19.617  -4.232   2.550  1.00  0.00     0.004 C 
ENDBRANCH  23  25
ENDBRANCH  10  23
ENDBRANCH   7  10
ENDBRANCH   4   6
BRANCH   3  27
ATOM     27  C   UNL     1     -11.904  -0.896  -0.776  1.00  0.00     0.171 C 
BRANCH  27  28
ATOM     28  N   UNL     1     -12.448  -0.185  -1.928  1.00  0.00    -0.342 N 
ATOM     29  C   UNL     1     -13.391  -0.735  -2.767  1.00  0.00     0.245 C 
ATOM     30  O   UNL     1     -13.857  -1.861  -2.599  1.00  0.00    -0.273 OA
ATOM     31  H   UNL     1     -12.195   0.793  -2.064  1.00  0.00     0.164 HD
BRANCH  29  32
ATOM     32  C   UNL     1     -13.941   0.215  -3.853  1.00  0.00     0.200 C 
BRANCH  32  33
ATOM     33  N   UNL     1     -15.357   0.473  -3.565  1.00  0.00    -0.340 N 
ATOM     34  C   UNL     1     -16.356  -0.047  -4.362  1.00  0.00     0.243 CG0
ATOM     35  O   UNL     1     -16.106  -0.691  -5.379  1.00  0.00    -0.273 OA
ATOM     36  H   UNL     1     -15.593   1.027  -2.750  1.00  0.00     0.164 HD
ATOM     37  G   UNL     1     -17.783   0.415  -4.027  1.00  0.00     0.000 G0
ENDBRANCH  32  33
BRANCH  32  38
ATOM     38  C   UNL     1     -13.100   1.509  -3.951  1.00  0.00     0.143 C 
ATOM     39  C   UNL     1     -12.504   1.761  -5.331  1.00  0.00     0.041 C 
BRANCH  38  40
ATOM     40  O   UNL     1     -13.899   2.646  -3.572  1.00  0.00    -0.391 OA
ATOM     41  H   UNL     1     -14.525   2.333  -2.891  1.00  0.00     0.211 HD
ENDBRANCH  38  40
ENDBRANCH  32  38
ENDBRANCH  29  32
ENDBRANCH  27  28
BRANCH  27  42
ATOM     42  C   UNL     1     -10.357  -0.823  -0.740  1.00  0.00     0.015 C 
ATOM     43  C   UNL     1      -9.675  -1.744   0.278  1.00  0.00     0.010 C 
ATOM     44  C   UNL     1      -9.742  -1.019  -2.129  1.00  0.00     0.010 C 
ENDBRANCH  27  42
ENDBRANCH   3  27
TORSDOF 5
ENDMDL
MODEL 8
REMARK VINA RESULT:    -4.156     11.919     16.230
REMARK INTER + INTRA:          -9.291
REMARK INTER:                  -6.871
REMARK INTRA:                  -2.420
REMARK UNBOUND:                -1.855
REMARK SMILES CC[C@H](C)[C@H]1NC(=O)c2coc(n2)[C@H](C(C)C)NC(=O)[C@H]([C@@H](C)O)NC(=O)[C@H](C)NC(=O)c2csc1n2
REMARK SMILES IDX 11 1 13 2 12 3 9 4 10 5 7 6 6 7 8 8 5 10 36 11 35 12 34 13
REMARK SMILES IDX 37 14 33 15 31 16 32 17 30 18 28 20 29 21 3 23 4 24 2 25
REMARK SMILES IDX 1 26 14 27 18 28 19 29 20 30 21 32 25 33 26 34 27 35 22 38
REMARK SMILES IDX 23 39 24 40 15 42 16 43 17 44
REMARK H PARENT 6 9 30 19 18 31 25 36 24 41
REMARK Flexibility Score:   94.900
ROOT
ATOM      1  O   UNL     1     -12.914   4.403  -4.044  1.00  0.00    -0.446 OA
ATOM      2  N   UNL     1     -12.244   2.287  -3.652  1.00  0.00    -0.207 NA
ATOM      3  C   UNL     1     -12.983   3.083  -4.403  1.00  0.00     0.217 A 
ATOM      4  C   UNL     1     -11.628   3.142  -2.754  1.00  0.00     0.167 A 
ATOM      5  C   UNL     1     -12.040   4.429  -2.999  1.00  0.00     0.231 A 
ENDROOT
BRANCH   4   6
ATOM      6  C   UNL     1     -10.722   2.683  -1.716  1.00  0.00     0.273 C 
ATOM      7  N   UNL     1     -10.267   1.412  -1.961  1.00  0.00    -0.341 N 
ATOM      8  O   UNL     1     -10.426   3.350  -0.732  1.00  0.00    -0.267 OA
ATOM      9  H   UNL     1     -10.671   0.948  -2.769  1.00  0.00     0.164 HD
BRANCH   7  10
ATOM     10  C   UNL     1      -9.555   0.623  -0.976  1.00  0.00     0.145 C 
BRANCH  10  11
ATOM     11  C   UNL     1     -10.586   0.036  -0.023  1.00  0.00     0.116 A 
ATOM     12  S   UNL     1     -10.291   0.059   1.675  1.00  0.00    -0.124 S 
ATOM     13  C   UNL     1     -11.810  -0.677   1.941  1.00  0.00     0.101 A 
ATOM     14  N   UNL     1     -11.739  -0.498  -0.389  1.00  0.00    -0.234 NA
ATOM     15  C   UNL     1     -12.458  -0.896   0.741  1.00  0.00     0.139 A 
BRANCH  15  16
ATOM     16  C   UNL     1     -13.793  -1.489   0.634  1.00  0.00     0.271 C 
ATOM     17  O   UNL     1     -14.200  -2.353   1.402  1.00  0.00    -0.267 OA
ATOM     18  N   UNL     1     -14.540  -0.979  -0.407  1.00  0.00    -0.339 N 
ATOM     19  H   UNL     1     -14.052  -0.349  -1.037  1.00  0.00     0.164 HD
BRANCH  18  20
ATOM     20  C   UNL     1     -15.868  -1.497  -0.707  1.00  0.00     0.168 CG0
ATOM     21  C   UNL     1     -16.947  -0.755   0.085  1.00  0.00     0.041 C 
ATOM     22  G   UNL     1     -16.224  -1.391  -2.199  1.00  0.00     0.000 G0
ENDBRANCH  18  20
ENDBRANCH  15  16
ENDBRANCH  10  11
BRANCH  10  23
ATOM     23  C   UNL     1      -8.666  -0.468  -1.630  1.00  0.00     0.015 C 
ATOM     24  C   UNL     1      -8.083  -1.467  -0.617  1.00  0.00     0.010 C 
BRANCH  23  25
ATOM     25  C   UNL     1      -9.404  -1.258  -2.735  1.00  0.00     0.002 C 
ATOM     26  C   UNL     1      -8.919  -2.692  -2.900  1.00  0.00     0.004 C 
ENDBRANCH  23  25
ENDBRANCH  10  23
ENDBRANCH   7  10
ENDBRANCH   4   6
BRANCH   3  27
ATOM     27  C   UNL     1     -13.892   2.680  -5.532  1.00  0.00     0.171 C 
BRANCH  27  28
ATOM     28  N   UNL     1     -15.051   2.010  -4.953  1.00  0.00    -0.342 N 
ATOM     29  C   UNL     1     -15.192   0.640  -4.938  1.00  0.00     0.245 C 
ATOM     30  O   UNL     1     -14.342  -0.121  -5.398  1.00  0.00    -0.273 OA
ATOM     31  H   UNL     1     -15.741   2.569  -4.452  1.00  0.00     0.164 HD
BRANCH  29  32
ATOM     32  C   UNL     1     -16.421   0.112  -4.169  1.00  0.00     0.200 C 
BRANCH  32  33
ATOM     33  N   UNL     1     -16.016  -0.160  -2.784  1.00  0.00    -0.340 N 
ATOM     34  C   UNL     1     -16.207  -1.401  -2.213  1.00  0.00     0.243 CG0
ATOM     35  O   UNL     1     -16.778  -2.311  -2.811  1.00  0.00    -0.273 OA
ATOM     36  H   UNL     1     -15.570   0.580  -2.255  1.00  0.00     0.164 HD
ATOM     37  G   UNL     1     -15.864  -1.507  -0.718  1.00  0.00     0.000 G0
ENDBRANCH  32  33
BRANCH  32  38
ATOM     38  C   UNL     1     -17.614   1.092  -4.267  1.00  0.00     0.143 C 
ATOM     39  C   UNL     1     -18.979   0.415  -4.234  1.00  0.00     0.041 C 
BRANCH  38  40
ATOM     40  O   UNL     1     -17.545   2.059  -3.202  1.00  0.00    -0.391 OA
ATOM     41  H   UNL     1     -18.426   2.476  -3.146  1.00  0.00     0.211 HD
ENDBRANCH  38  40
ENDBRANCH  32  38
ENDBRANCH  29  32
ENDBRANCH  27  28
BRANCH  27  42
ATOM     42  C   UNL     1     -14.312   3.780  -6.537  1.00  0.00     0.015 C 
ATOM     43  C   UNL     1     -13.906   3.534  -7.994  1.00  0.00     0.010 C 
ATOM     44  C   UNL     1     -15.810   4.094  -6.449  1.00  0.00     0.010 C 
ENDBRANCH  27  42
ENDBRANCH   3  27
TORSDOF 5
ENDMDL
MODEL 9
REMARK VINA RESULT:    -3.965      6.123      9.672
REMARK INTER + INTRA:          -8.950
REMARK INTER:                  -7.611
REMARK INTRA:                  -1.339
REMARK UNBOUND:                -1.855
REMARK SMILES CC[C@H](C)[C@H]1NC(=O)c2coc(n2)[C@H](C(C)C)NC(=O)[C@H]([C@@H](C)O)NC(=O)[C@H](C)NC(=O)c2csc1n2
REMARK SMILES IDX 11 1 13 2 12 3 9 4 10 5 7 6 6 7 8 8 5 10 36 11 35 12 34 13
REMARK SMILES IDX 37 14 33 15 31 16 32 17 30 18 28 20 29 21 3 23 4 24 2 25
REMARK SMILES IDX 1 26 14 27 18 28 19 29 20 30 21 32 25 33 26 34 27 35 22 38
REMARK SMILES IDX 23 39 24 40 15 42 16 43 17 44
REMARK H PARENT 6 9 30 19 18 31 25 36 24 41
REMARK Flexibility Score:   94.900
ROOT
ATOM      1  O   UNL     1       2.231  -3.529   7.123  1.00  0.00    -0.446 OA
ATOM      2  N   UNL     1       2.281  -3.679   9.372  1.00  0.00    -0.207 NA
ATOM      3  C   UNL     1       2.870  -4.007   8.236  1.00  0.00     0.217 A 
ATOM      4  C   UNL     1       1.197  -2.912   8.982  1.00  0.00     0.167 A 
ATOM      5  C   UNL     1       1.173  -2.824   7.612  1.00  0.00     0.231 A 
ENDROOT
BRANCH   4   6
ATOM      6  C   UNL     1       0.248  -2.343   9.924  1.00  0.00     0.273 C 
ATOM      7  N   UNL     1       0.305  -0.972   9.939  1.00  0.00    -0.341 N 
ATOM      8  O   UNL     1      -0.490  -3.017  10.632  1.00  0.00    -0.267 OA
ATOM      9  H   UNL     1       1.032  -0.555   9.365  1.00  0.00     0.164 HD
BRANCH   7  10
ATOM     10  C   UNL     1      -0.347  -0.164  10.951  1.00  0.00     0.145 C 
BRANCH  10  11
ATOM     11  C   UNL     1       0.730   0.346  11.897  1.00  0.00     0.116 A 
ATOM     12  S   UNL     1       0.467   1.797  12.789  1.00  0.00    -0.124 S 
ATOM     13  C   UNL     1       1.993   1.607  13.534  1.00  0.00     0.101 A 
ATOM     14  N   UNL     1       1.889  -0.252  12.119  1.00  0.00    -0.234 NA
ATOM     15  C   UNL     1       2.616   0.462  13.075  1.00  0.00     0.139 A 
BRANCH  15  16
ATOM     16  C   UNL     1       3.927   0.007  13.543  1.00  0.00     0.271 C 
ATOM     17  O   UNL     1       4.724   0.746  14.110  1.00  0.00    -0.267 OA
ATOM     18  N   UNL     1       4.173  -1.325  13.283  1.00  0.00    -0.339 N 
ATOM     19  H   UNL     1       3.481  -1.801  12.709  1.00  0.00     0.164 HD
BRANCH  18  20
ATOM     20  C   UNL     1       5.452  -1.935  13.617  1.00  0.00     0.168 CG0
ATOM     21  C   UNL     1       5.346  -2.798  14.876  1.00  0.00     0.041 C 
ATOM     22  G   UNL     1       6.001  -2.820  12.486  1.00  0.00     0.000 G0
ENDBRANCH  18  20
ENDBRANCH  15  16
ENDBRANCH  10  11
BRANCH  10  23
ATOM     23  C   UNL     1      -1.184   0.987  10.332  1.00  0.00     0.015 C 
ATOM     24  C   UNL     1      -0.924   1.188   8.829  1.00  0.00     0.010 C 
BRANCH  23  25
ATOM     25  C   UNL     1      -2.703   0.807  10.552  1.00  0.00     0.002 C 
ATOM     26  C   UNL     1      -3.248   1.565  11.754  1.00  0.00     0.004 C 
ENDBRANCH  23  25
ENDBRANCH  10  23
ENDBRANCH   7  10
ENDBRANCH   4   6
BRANCH   3  27
ATOM     27  C   UNL     1       4.093  -4.866   8.063  1.00  0.00     0.171 C 
BRANCH  27  28
ATOM     28  N   UNL     1       4.963  -4.640   9.213  1.00  0.00    -0.342 N 
ATOM     29  C   UNL     1       4.859  -5.361  10.382  1.00  0.00     0.245 C 
ATOM     30  O   UNL     1       4.034  -6.260  10.537  1.00  0.00    -0.273 OA
ATOM     31  H   UNL     1       5.743  -3.991   9.118  1.00  0.00     0.164 HD
BRANCH  29  32
ATOM     32  C   UNL     1       5.947  -5.069  11.436  1.00  0.00     0.200 C 
BRANCH  32  33
ATOM     33  N   UNL     1       5.421  -4.073  12.377  1.00  0.00    -0.340 N 
ATOM     34  C   UNL     1       5.998  -2.825  12.496  1.00  0.00     0.243 CG0
ATOM     35  O   UNL     1       7.010  -2.515  11.870  1.00  0.00    -0.273 OA
ATOM     36  H   UNL     1       4.606  -4.310  12.929  1.00  0.00     0.164 HD
ATOM     37  G   UNL     1       5.434  -1.933  13.614  1.00  0.00     0.000 G0
ENDBRANCH  32  33
BRANCH  32  38
ATOM     38  C   UNL     1       6.421  -6.366  12.133  1.00  0.00     0.143 C 
ATOM     39  C   UNL     1       7.912  -6.643  11.984  1.00  0.00     0.041 C 
BRANCH  38  40
ATOM     40  O   UNL     1       6.093  -6.320  13.535  1.00  0.00    -0.391 OA
ATOM     41  H   UNL     1       6.211  -5.393  13.820  1.00  0.00     0.211 HD
ENDBRANCH  38  40
ENDBRANCH  32  38
ENDBRANCH  29  32
ENDBRANCH  27  28
BRANCH  27  42
ATOM     42  C   UNL     1       3.874  -6.376   7.803  1.00  0.00     0.015 C 
ATOM     43  C   UNL     1       2.575  -6.739   7.074  1.00  0.00     0.010 C 
ATOM     44  C   UNL     1       5.075  -7.016   7.099  1.00  0.00     0.010 C 
ENDBRANCH  27  42
ENDBRANCH   3  27
TORSDOF 5
ENDMDL
MODEL 10
REMARK VINA RESULT:    -3.837     13.566     17.316
REMARK INTER + INTRA:          -8.720
REMARK INTER:                  -6.933
REMARK INTRA:                  -1.787
REMARK UNBOUND:                -1.855
REMARK SMILES CC[C@H](C)[C@H]1NC(=O)c2coc(n2)[C@H](C(C)C)NC(=O)[C@H]([C@@H](C)O)NC(=O)[C@H](C)NC(=O)c2csc1n2
REMARK SMILES IDX 11 1 13 2 12 3 9 4 10 5 7 6 6 7 8 8 5 10 36 11 35 12 34 13
REMARK SMILES IDX 37 14 33 15 31 16 32 17 30 18 28 20 29 21 3 23 4 24 2 25
REMARK SMILES IDX 1 26 14 27 18 28 19 29 20 30 21 32 25 33 26 34 27 35 22 38
REMARK SMILES IDX 23 39 24 40 15 42 16 43 17 44
REMARK H PARENT 6 9 30 19 18 31 25 36 24 41
REMARK Flexibility Score:   94.900
ROOT
ATOM      1  O   UNL     1      -9.622   5.970  -8.609  1.00  0.00    -0.446 OA
ATOM      2  N   UNL     1      -8.806   4.086  -7.678  1.00  0.00    -0.207 NA
ATOM      3  C   UNL     1      -9.842   4.664  -8.259  1.00  0.00     0.217 A 
ATOM      4  C   UNL     1      -7.830   5.068  -7.670  1.00  0.00     0.167 A 
ATOM      5  C   UNL     1      -8.333   6.212  -8.238  1.00  0.00     0.231 A 
ENDROOT
BRANCH   4   6
ATOM      6  C   UNL     1      -6.508   4.867  -7.103  1.00  0.00     0.273 C 
ATOM      7  N   UNL     1      -5.821   3.872  -7.751  1.00  0.00    -0.341 N 
ATOM      8  O   UNL     1      -6.079   5.499  -6.145  1.00  0.00    -0.267 OA
ATOM      9  H   UNL     1      -6.339   3.373  -8.467  1.00  0.00     0.164 HD
BRANCH   7  10
ATOM     10  C   UNL     1      -4.589   3.300  -7.242  1.00  0.00     0.145 C 
BRANCH  10  11
ATOM     11  C   UNL     1      -4.945   2.007  -6.523  1.00  0.00     0.116 A 
ATOM     12  S   UNL     1      -4.040   1.522  -5.139  1.00  0.00    -0.124 S 
ATOM     13  C   UNL     1      -5.042   0.148  -4.974  1.00  0.00     0.101 A 
ATOM     14  N   UNL     1      -5.933   1.196  -6.865  1.00  0.00    -0.234 NA
ATOM     15  C   UNL     1      -6.005   0.130  -5.965  1.00  0.00     0.139 A 
BRANCH  15  16
ATOM     16  C   UNL     1      -7.033  -0.907  -6.080  1.00  0.00     0.271 C 
ATOM     17  O   UNL     1      -6.767  -2.090  -6.258  1.00  0.00    -0.267 OA
ATOM     18  N   UNL     1      -8.319  -0.421  -5.968  1.00  0.00    -0.339 N 
ATOM     19  H   UNL     1      -8.410   0.591  -5.934  1.00  0.00     0.164 HD
BRANCH  18  20
ATOM     20  C   UNL     1      -9.472  -1.297  -6.124  1.00  0.00     0.168 CG0
ATOM     21  C   UNL     1      -9.794  -2.032  -4.821  1.00  0.00     0.041 C 
ATOM     22  G   UNL     1     -10.737  -0.541  -6.563  1.00  0.00     0.000 G0
ENDBRANCH  18  20
ENDBRANCH  15  16
ENDBRANCH  10  11
BRANCH  10  23
ATOM     23  C   UNL     1      -3.538   3.083  -8.362  1.00  0.00     0.015 C 
ATOM     24  C   UNL     1      -2.087   3.211  -7.868  1.00  0.00     0.010 C 
BRANCH  23  25
ATOM     25  C   UNL     1      -3.699   1.723  -9.079  1.00  0.00     0.002 C 
ATOM     26  C   UNL     1      -4.330   1.823 -10.461  1.00  0.00     0.004 C 
ENDBRANCH  23  25
ENDBRANCH  10  23
ENDBRANCH   7  10
ENDBRANCH   4   6
BRANCH   3  27
ATOM     27  C   UNL     1     -11.197   4.059  -8.507  1.00  0.00     0.171 C 
BRANCH  27  28
ATOM     28  N   UNL     1     -11.536   3.235  -7.352  1.00  0.00    -0.342 N 
ATOM     29  C   UNL     1     -12.224   2.047  -7.458  1.00  0.00     0.245 C 
ATOM     30  O   UNL     1     -12.589   1.584  -8.538  1.00  0.00    -0.273 OA
ATOM     31  H   UNL     1     -11.167   3.496  -6.438  1.00  0.00     0.164 HD
BRANCH  29  32
ATOM     32  C   UNL     1     -12.376   1.253  -6.143  1.00  0.00     0.200 C 
BRANCH  32  33
ATOM     33  N   UNL     1     -11.111   0.558  -5.875  1.00  0.00    -0.340 N 
ATOM     34  C   UNL     1     -10.751  -0.570  -6.582  1.00  0.00     0.243 CG0
ATOM     35  O   UNL     1     -11.495  -1.079  -7.418  1.00  0.00    -0.273 OA
ATOM     36  H   UNL     1     -10.490   0.937  -5.170  1.00  0.00     0.164 HD
ATOM     37  G   UNL     1      -9.470  -1.274  -6.106  1.00  0.00     0.000 G0
ENDBRANCH  32  33
BRANCH  32  38
ATOM     38  C   UNL     1     -12.820   2.169  -4.979  1.00  0.00     0.143 C 
ATOM     39  C   UNL     1     -14.198   2.794  -5.168  1.00  0.00     0.041 C 
BRANCH  38  40
ATOM     40  O   UNL     1     -12.807   1.432  -3.741  1.00  0.00    -0.391 OA
ATOM     41  H   UNL     1     -12.813   0.486  -3.979  1.00  0.00     0.211 HD
ENDBRANCH  38  40
ENDBRANCH  32  38
ENDBRANCH  29  32
ENDBRANCH  27  28
BRANCH  27  42
ATOM     42  C   UNL     1     -12.351   5.023  -8.879  1.00  0.00     0.015 C 
ATOM     43  C   UNL     1     -13.324   4.508  -9.946  1.00  0.00     0.010 C 
ATOM     44  C   UNL     1     -13.121   5.497  -7.642  1.00  0.00     0.010 C 
ENDBRANCH  27  42
ENDBRANCH   3  27
TORSDOF 5
ENDMDL
