MODEL 1
REMARK VINA RESULT:    -5.248      0.000      0.000
REMARK INTER + INTRA:         -11.775
REMARK INTER:                  -9.389
REMARK INTRA:                  -2.385
REMARK UNBOUND:                -2.385
REMARK SMILES CC[C@H](C)[C@H]1NC(=O)c2coc(n2)[C@H](C(C)C)NC(=O)[C@H]([C@@H](C)O)NC(=O)[C@H](C)NC(=O)c2csc1n2
REMARK SMILES IDX 11 1 13 2 12 3 9 4 10 5 7 6 6 7 8 8 5 10 36 11 35 12 34 13
REMARK SMILES IDX 37 14 33 15 31 16 32 17 30 18 28 20 29 21 3 23 4 24 2 25
REMARK SMILES IDX 1 26 14 27 18 28 19 29 20 30 21 32 25 33 26 34 27 35 22 38
REMARK SMILES IDX 23 39 24 40 15 42 16 43 17 44
REMARK H PARENT 6 9 30 19 18 31 25 36 24 41
REMARK Flexibility Score:   94.900
ROOT
ATOM      1  O   UNL     1      -5.945   3.170  11.264  1.00  0.00    -0.446 OA
ATOM      2  N   UNL     1      -4.194   4.588  11.186  1.00  0.00    -0.207 NA
ATOM      3  C   UNL     1      -4.706   3.450  10.751  1.00  0.00     0.217 A 
ATOM      4  C   UNL     1      -5.172   5.103  12.018  1.00  0.00     0.167 A 
ATOM      5  C   UNL     1      -6.236   4.235  12.061  1.00  0.00     0.231 A 
ENDROOT
BRANCH   4   6
ATOM      6  C   UNL     1      -5.023   6.358  12.735  1.00  0.00     0.273 C 
ATOM      7  N   UNL     1      -6.014   7.251  12.411  1.00  0.00    -0.341 N 
ATOM      8  O   UNL     1      -4.106   6.590  13.513  1.00  0.00    -0.267 OA
ATOM      9  H   UNL     1      -6.654   6.952  11.680  1.00  0.00     0.164 HD
BRANCH   7  10
ATOM     10  C   UNL     1      -5.971   8.651  12.784  1.00  0.00     0.145 C 
BRANCH  10  11
ATOM     11  C   UNL     1      -5.038   9.358  11.812  1.00  0.00     0.116 A 
ATOM     12  S   UNL     1      -4.477  10.948  12.169  1.00  0.00    -0.124 S 
ATOM     13  C   UNL     1      -3.558  10.940  10.728  1.00  0.00     0.101 A 
ATOM     14  N   UNL     1      -4.587   8.841  10.681  1.00  0.00    -0.234 NA
ATOM     15  C   UNL     1      -3.719   9.742  10.059  1.00  0.00     0.139 A 
BRANCH  15  16
ATOM     16  C   UNL     1      -3.041   9.415   8.803  1.00  0.00     0.271 C 
ATOM     17  O   UNL     1      -2.678  10.269   8.001  1.00  0.00    -0.267 OA
ATOM     18  N   UNL     1      -2.852   8.062   8.615  1.00  0.00    -0.339 N 
ATOM     19  H   UNL     1      -3.296   7.452   9.296  1.00  0.00     0.164 HD
BRANCH  18  20
ATOM     20  C   UNL     1      -2.254   7.546   7.390  1.00  0.00     0.168 CG0
ATOM     21  C   UNL     1      -0.884   6.922   7.660  1.00  0.00     0.041 C 
ATOM     22  G   UNL     1      -3.128   6.484   6.704  1.00  0.00     0.000 G0
ENDBRANCH  18  20
ENDBRANCH  15  16
ENDBRANCH  10  11
BRANCH  10  23
ATOM     23  C   UNL     1      -7.384   9.291  12.819  1.00  0.00     0.015 C 
ATOM     24  C   UNL     1      -8.508   8.306  12.456  1.00  0.00     0.010 C 
BRANCH  23  25
ATOM     25  C   UNL     1      -7.714   9.938  14.183  1.00  0.00     0.002 C 
ATOM     26  C   UNL     1      -7.004   9.289  15.363  1.00  0.00     0.004 C 
ENDBRANCH  23  25
ENDBRANCH  10  23
ENDBRANCH   7  10
ENDBRANCH   4   6
BRANCH   3  27
ATOM     27  C   UNL     1      -4.054   2.456   9.830  1.00  0.00     0.171 C 
BRANCH  27  28
ATOM     28  N   UNL     1      -3.554   3.185   8.669  1.00  0.00    -0.342 N 
ATOM     29  C   UNL     1      -4.165   3.135   7.436  1.00  0.00     0.245 C 
ATOM     30  O   UNL     1      -5.187   2.484   7.225  1.00  0.00    -0.273 OA
ATOM     31  H   UNL     1      -2.779   3.834   8.795  1.00  0.00     0.164 HD
BRANCH  29  32
ATOM     32  C   UNL     1      -3.567   4.073   6.365  1.00  0.00     0.200 C 
BRANCH  32  33
ATOM     33  N   UNL     1      -2.889   5.180   7.050  1.00  0.00    -0.340 N 
ATOM     34  C   UNL     1      -3.127   6.493   6.697  1.00  0.00     0.243 CG0
ATOM     35  O   UNL     1      -3.863   6.790   5.759  1.00  0.00    -0.273 OA
ATOM     36  H   UNL     1      -2.253   4.965   7.808  1.00  0.00     0.164 HD
ATOM     37  G   UNL     1      -2.250   7.541   7.400  1.00  0.00     0.000 G0
ENDBRANCH  32  33
BRANCH  32  38
ATOM     38  C   UNL     1      -2.639   3.304   5.396  1.00  0.00     0.143 C 
ATOM     39  C   UNL     1      -1.193   3.787   5.405  1.00  0.00     0.041 C 
BRANCH  38  40
ATOM     40  O   UNL     1      -2.663   1.897   5.702  1.00  0.00    -0.391 OA
ATOM     41  H   UNL     1      -3.576   1.592   5.540  1.00  0.00     0.211 HD
ENDBRANCH  38  40
ENDBRANCH  32  38
ENDBRANCH  29  32
ENDBRANCH  27  28
BRANCH  27  42
ATOM     42  C   UNL     1      -2.969   1.530  10.432  1.00  0.00     0.015 C 
ATOM     43  C   UNL     1      -1.583   2.162  10.606  1.00  0.00     0.010 C 
ATOM     44  C   UNL     1      -3.428   0.887  11.744  1.00  0.00     0.010 C 
ENDBRANCH  27  42
ENDBRANCH   3  27
TORSDOF 5
ENDMDL
MODEL 2
REMARK VINA RESULT:    -5.117      2.854      6.709
REMARK INTER + INTRA:         -11.542
REMARK INTER:                  -9.571
REMARK INTRA:                  -1.971
REMARK UNBOUND:                -2.385
REMARK SMILES CC[C@H](C)[C@H]1NC(=O)c2coc(n2)[C@H](C(C)C)NC(=O)[C@H]([C@@H](C)O)NC(=O)[C@H](C)NC(=O)c2csc1n2
REMARK SMILES IDX 11 1 13 2 12 3 9 4 10 5 7 6 6 7 8 8 5 10 36 11 35 12 34 13
REMARK SMILES IDX 37 14 33 15 31 16 32 17 30 18 28 20 29 21 3 23 4 24 2 25
REMARK SMILES IDX 1 26 14 27 18 28 19 29 20 30 21 32 25 33 26 34 27 35 22 38
REMARK SMILES IDX 23 39 24 40 15 42 16 43 17 44
REMARK H PARENT 6 9 30 19 18 31 25 36 24 41
REMARK Flexibility Score:   94.900
ROOT
ATOM      1  O   UNL     1      -1.134   3.207   8.093  1.00  0.00    -0.446 OA
ATOM      2  N   UNL     1      -1.975   5.260   7.698  1.00  0.00    -0.207 NA
ATOM      3  C   UNL     1      -2.243   4.006   8.013  1.00  0.00     0.217 A 
ATOM      4  C   UNL     1      -0.596   5.295   7.589  1.00  0.00     0.167 A 
ATOM      5  C   UNL     1      -0.090   4.042   7.832  1.00  0.00     0.231 A 
ENDROOT
BRANCH   4   6
ATOM      6  C   UNL     1       0.143   6.496   7.237  1.00  0.00     0.273 C 
ATOM      7  N   UNL     1       0.872   6.975   8.296  1.00  0.00    -0.341 N 
ATOM      8  O   UNL     1       0.093   7.023   6.132  1.00  0.00    -0.267 OA
ATOM      9  H   UNL     1       0.742   6.486   9.177  1.00  0.00     0.164 HD
BRANCH   7  10
ATOM     10  C   UNL     1       1.498   8.282   8.300  1.00  0.00     0.145 C 
BRANCH  10  11
ATOM     11  C   UNL     1       0.575   9.233   9.048  1.00  0.00     0.116 A 
ATOM     12  S   UNL     1       1.043  10.876   9.276  1.00  0.00    -0.124 S 
ATOM     13  C   UNL     1      -0.436  11.178  10.079  1.00  0.00     0.101 A 
ATOM     14  N   UNL     1      -0.606   8.907   9.547  1.00  0.00    -0.234 NA
ATOM     15  C   UNL     1      -1.202  10.029  10.128  1.00  0.00     0.139 A 
BRANCH  15  16
ATOM     16  C   UNL     1      -2.537   9.968  10.728  1.00  0.00     0.271 C 
ATOM     17  O   UNL     1      -3.112  10.955  11.173  1.00  0.00    -0.267 OA
ATOM     18  N   UNL     1      -3.078   8.700  10.740  1.00  0.00    -0.339 N 
ATOM     19  H   UNL     1      -2.458   7.950  10.444  1.00  0.00     0.164 HD
BRANCH  18  20
ATOM     20  C   UNL     1      -4.370   8.436  11.358  1.00  0.00     0.168 CG0
ATOM     21  C   UNL     1      -5.508   8.556  10.343  1.00  0.00     0.041 C 
ATOM     22  G   UNL     1      -4.451   7.038  11.992  1.00  0.00     0.000 G0
ENDBRANCH  18  20
ENDBRANCH  15  16
ENDBRANCH  10  11
BRANCH  10  23
ATOM     23  C   UNL     1       2.926   8.246   8.905  1.00  0.00     0.015 C 
ATOM     24  C   UNL     1       3.186   7.008   9.779  1.00  0.00     0.010 C 
BRANCH  23  25
ATOM     25  C   UNL     1       4.034   8.335   7.830  1.00  0.00     0.002 C 
ATOM     26  C   UNL     1       3.738   7.534   6.570  1.00  0.00     0.004 C 
ENDBRANCH  23  25
ENDBRANCH  10  23
ENDBRANCH   7  10
ENDBRANCH   4   6
BRANCH   3  27
ATOM     27  C   UNL     1      -3.601   3.395   8.228  1.00  0.00     0.171 C 
BRANCH  27  28
ATOM     28  N   UNL     1      -4.264   4.145   9.290  1.00  0.00    -0.342 N 
ATOM     29  C   UNL     1      -4.413   3.656  10.568  1.00  0.00     0.245 C 
ATOM     30  O   UNL     1      -3.984   2.557  10.915  1.00  0.00    -0.273 OA
ATOM     31  H   UNL     1      -4.544   5.108   9.108  1.00  0.00     0.164 HD
BRANCH  29  32
ATOM     32  C   UNL     1      -5.025   4.643  11.585  1.00  0.00     0.200 C 
BRANCH  32  33
ATOM     33  N   UNL     1      -4.779   6.009  11.106  1.00  0.00    -0.340 N 
ATOM     34  C   UNL     1      -4.460   7.027  11.979  1.00  0.00     0.243 CG0
ATOM     35  O   UNL     1      -4.429   6.854  13.196  1.00  0.00    -0.273 OA
ATOM     36  H   UNL     1      -4.828   6.190  10.110  1.00  0.00     0.164 HD
ATOM     37  G   UNL     1      -4.365   8.431  11.360  1.00  0.00     0.000 G0
ENDBRANCH  32  33
BRANCH  32  38
ATOM     38  C   UNL     1      -6.524   4.349  11.826  1.00  0.00     0.143 C 
ATOM     39  C   UNL     1      -7.101   3.270  10.918  1.00  0.00     0.041 C 
BRANCH  38  40
ATOM     40  O   UNL     1      -6.736   3.968  13.199  1.00  0.00    -0.391 OA
ATOM     41  H   UNL     1      -6.986   3.024  13.191  1.00  0.00     0.211 HD
ENDBRANCH  38  40
ENDBRANCH  32  38
ENDBRANCH  29  32
ENDBRANCH  27  28
BRANCH  27  42
ATOM     42  C   UNL     1      -4.514   3.234   6.988  1.00  0.00     0.015 C 
ATOM     43  C   UNL     1      -4.481   1.856   6.317  1.00  0.00     0.010 C 
ATOM     44  C   UNL     1      -5.960   3.645   7.285  1.00  0.00     0.010 C 
ENDBRANCH  27  42
ENDBRANCH   3  27
TORSDOF 5
ENDMDL
MODEL 3
REMARK VINA RESULT:    -4.990     13.177     17.205
REMARK INTER + INTRA:         -11.313
REMARK INTER:                  -9.166
REMARK INTRA:                  -2.147
REMARK UNBOUND:                -2.385
REMARK SMILES CC[C@H](C)[C@H]1NC(=O)c2coc(n2)[C@H](C(C)C)NC(=O)[C@H]([C@@H](C)O)NC(=O)[C@H](C)NC(=O)c2csc1n2
REMARK SMILES IDX 11 1 13 2 12 3 9 4 10 5 7 6 6 7 8 8 5 10 36 11 35 12 34 13
REMARK SMILES IDX 37 14 33 15 31 16 32 17 30 18 28 20 29 21 3 23 4 24 2 25
REMARK SMILES IDX 1 26 14 27 18 28 19 29 20 30 21 32 25 33 26 34 27 35 22 38
REMARK SMILES IDX 23 39 24 40 15 42 16 43 17 44
REMARK H PARENT 6 9 30 19 18 31 25 36 24 41
REMARK Flexibility Score:   94.900
ROOT
ATOM      1  O   UNL     1      -3.118   5.926  -9.958  1.00  0.00    -0.446 OA
ATOM      2  N   UNL     1      -4.546   5.902  -8.215  1.00  0.00    -0.207 NA
ATOM      3  C   UNL     1      -4.136   5.282  -9.306  1.00  0.00     0.217 A 
ATOM      4  C   UNL     1      -3.727   7.014  -8.128  1.00  0.00     0.167 A 
ATOM      5  C   UNL     1      -2.859   7.022  -9.192  1.00  0.00     0.231 A 
ENDROOT
BRANCH   4   6
ATOM      6  C   UNL     1      -3.839   8.002  -7.068  1.00  0.00     0.273 C 
ATOM      7  N   UNL     1      -2.783   7.933  -6.194  1.00  0.00    -0.341 N 
ATOM      8  O   UNL     1      -4.779   8.780  -6.964  1.00  0.00    -0.267 OA
ATOM      9  H   UNL     1      -2.126   7.175  -6.356  1.00  0.00     0.164 HD
BRANCH   7  10
ATOM     10  C   UNL     1      -2.764   8.625  -4.920  1.00  0.00     0.145 C 
BRANCH  10  11
ATOM     11  C   UNL     1      -3.483   7.746  -3.908  1.00  0.00     0.116 A 
ATOM     12  S   UNL     1      -3.969   8.409  -2.393  1.00  0.00    -0.124 S 
ATOM     13  C   UNL     1      -4.656   6.904  -1.963  1.00  0.00     0.101 A 
ATOM     14  N   UNL     1      -3.794   6.474  -4.094  1.00  0.00    -0.234 NA
ATOM     15  C   UNL     1      -4.487   5.987  -2.983  1.00  0.00     0.139 A 
BRANCH  15  16
ATOM     16  C   UNL     1      -4.989   4.612  -2.930  1.00  0.00     0.271 C 
ATOM     17  O   UNL     1      -5.502   4.129  -1.927  1.00  0.00    -0.267 OA
ATOM     18  N   UNL     1      -4.831   3.922  -4.114  1.00  0.00    -0.339 N 
ATOM     19  H   UNL     1      -4.292   4.395  -4.835  1.00  0.00     0.164 HD
BRANCH  18  20
ATOM     20  C   UNL     1      -5.211   2.521  -4.227  1.00  0.00     0.168 CG0
ATOM     21  C   UNL     1      -6.669   2.374  -4.667  1.00  0.00     0.041 C 
ATOM     22  G   UNL     1      -4.338   1.747  -5.229  1.00  0.00     0.000 G0
ENDBRANCH  18  20
ENDBRANCH  15  16
ENDBRANCH  10  11
BRANCH  10  23
ATOM     23  C   UNL     1      -1.323   8.987  -4.472  1.00  0.00     0.015 C 
ATOM     24  C   UNL     1      -0.290   8.888  -5.607  1.00  0.00     0.010 C 
BRANCH  23  25
ATOM     25  C   UNL     1      -1.229  10.394  -3.839  1.00  0.00     0.002 C 
ATOM     26  C   UNL     1       0.068  11.127  -4.150  1.00  0.00     0.004 C 
ENDBRANCH  23  25
ENDBRANCH  10  23
ENDBRANCH   7  10
ENDBRANCH   4   6
BRANCH   3  27
ATOM     27  C   UNL     1      -4.699   4.019  -9.897  1.00  0.00     0.171 C 
BRANCH  27  28
ATOM     28  N   UNL     1      -4.762   3.019  -8.837  1.00  0.00    -0.342 N 
ATOM     29  C   UNL     1      -3.992   1.877  -8.839  1.00  0.00     0.245 C 
ATOM     30  O   UNL     1      -3.181   1.623  -9.729  1.00  0.00    -0.273 OA
ATOM     31  H   UNL     1      -5.325   3.216  -8.010  1.00  0.00     0.164 HD
BRANCH  29  32
ATOM     32  C   UNL     1      -4.102   1.005  -7.571  1.00  0.00     0.200 C 
BRANCH  32  33
ATOM     33  N   UNL     1      -4.784   1.786  -6.532  1.00  0.00    -0.340 N 
ATOM     34  C   UNL     1      -4.340   1.780  -5.226  1.00  0.00     0.243 CG0
ATOM     35  O   UNL     1      -3.401   1.076  -4.861  1.00  0.00    -0.273 OA
ATOM     36  H   UNL     1      -5.581   2.352  -6.796  1.00  0.00     0.164 HD
ATOM     37  G   UNL     1      -5.227   2.530  -4.218  1.00  0.00     0.000 G0
ENDBRANCH  32  33
BRANCH  32  38
ATOM     38  C   UNL     1      -4.801  -0.342  -7.870  1.00  0.00     0.143 C 
ATOM     39  C   UNL     1      -6.217  -0.444  -7.316  1.00  0.00     0.041 C 
BRANCH  38  40
ATOM     40  O   UNL     1      -4.839  -0.572  -9.292  1.00  0.00    -0.391 OA
ATOM     41  H   UNL     1      -5.727  -0.923  -9.495  1.00  0.00     0.211 HD
ENDBRANCH  38  40
ENDBRANCH  32  38
ENDBRANCH  29  32
ENDBRANCH  27  28
BRANCH  27  42
ATOM     42  C   UNL     1      -6.042   4.125 -10.660  1.00  0.00     0.015 C 
ATOM     43  C   UNL     1      -5.928   4.394 -12.165  1.00  0.00     0.010 C 
ATOM     44  C   UNL     1      -6.944   2.913 -10.404  1.00  0.00     0.010 C 
ENDBRANCH  27  42
ENDBRANCH   3  27
TORSDOF 5
ENDMDL
MODEL 4
REMARK VINA RESULT:    -4.840     12.789     16.531
REMARK INTER + INTRA:         -11.046
REMARK INTER:                  -9.860
REMARK INTRA:                  -1.186
REMARK UNBOUND:                -2.385
REMARK SMILES CC[C@H](C)[C@H]1NC(=O)c2coc(n2)[C@H](C(C)C)NC(=O)[C@H]([C@@H](C)O)NC(=O)[C@H](C)NC(=O)c2csc1n2
REMARK SMILES IDX 11 1 13 2 12 3 9 4 10 5 7 6 6 7 8 8 5 10 36 11 35 12 34 13
REMARK SMILES IDX 37 14 33 15 31 16 32 17 30 18 28 20 29 21 3 23 4 24 2 25
REMARK SMILES IDX 1 26 14 27 18 28 19 29 20 30 21 32 25 33 26 34 27 35 22 38
REMARK SMILES IDX 23 39 24 40 15 42 16 43 17 44
REMARK H PARENT 6 9 30 19 18 31 25 36 24 41
REMARK Flexibility Score:   94.900
ROOT
ATOM      1  O   UNL     1      -6.135   6.443  -1.643  1.00  0.00    -0.446 OA
ATOM      2  N   UNL     1      -5.833   5.114  -3.438  1.00  0.00    -0.207 NA
ATOM      3  C   UNL     1      -6.418   5.255  -2.262  1.00  0.00     0.217 A 
ATOM      4  C   UNL     1      -5.141   6.299  -3.617  1.00  0.00     0.167 A 
ATOM      5  C   UNL     1      -5.329   7.104  -2.520  1.00  0.00     0.231 A 
ENDROOT
BRANCH   4   6
ATOM      6  C   UNL     1      -4.330   6.575  -4.790  1.00  0.00     0.273 C 
ATOM      7  N   UNL     1      -5.098   6.717  -5.919  1.00  0.00    -0.341 N 
ATOM      8  O   UNL     1      -3.107   6.645  -4.768  1.00  0.00    -0.267 OA
ATOM      9  H   UNL     1      -6.091   6.540  -5.800  1.00  0.00     0.164 HD
BRANCH   7  10
ATOM     10  C   UNL     1      -4.541   6.750  -7.256  1.00  0.00     0.145 C 
BRANCH  10  11
ATOM     11  C   UNL     1      -4.915   5.445  -7.944  1.00  0.00     0.116 A 
ATOM     12  S   UNL     1      -4.493   5.198  -9.596  1.00  0.00    -0.124 S 
ATOM     13  C   UNL     1      -5.183   3.636  -9.531  1.00  0.00     0.101 A 
ATOM     14  N   UNL     1      -5.548   4.438  -7.365  1.00  0.00    -0.234 NA
ATOM     15  C   UNL     1      -5.691   3.384  -8.271  1.00  0.00     0.139 A 
BRANCH  15  16
ATOM     16  C   UNL     1      -6.324   2.120  -7.887  1.00  0.00     0.271 C 
ATOM     17  O   UNL     1      -6.346   1.138  -8.622  1.00  0.00    -0.267 OA
ATOM     18  N   UNL     1      -6.885   2.145  -6.628  1.00  0.00    -0.339 N 
ATOM     19  H   UNL     1      -6.898   3.050  -6.165  1.00  0.00     0.164 HD
BRANCH  18  20
ATOM     20  C   UNL     1      -7.617   0.999  -6.106  1.00  0.00     0.168 CG0
ATOM     21  C   UNL     1      -6.734   0.143  -5.195  1.00  0.00     0.041 C 
ATOM     22  G   UNL     1      -8.864   1.406  -5.304  1.00  0.00     0.000 G0
ENDBRANCH  18  20
ENDBRANCH  15  16
ENDBRANCH  10  11
BRANCH  10  23
ATOM     23  C   UNL     1      -5.009   7.995  -8.055  1.00  0.00     0.015 C 
ATOM     24  C   UNL     1      -6.040   8.851  -7.300  1.00  0.00     0.010 C 
BRANCH  23  25
ATOM     25  C   UNL     1      -3.836   8.903  -8.490  1.00  0.00     0.002 C 
ATOM     26  C   UNL     1      -2.522   8.595  -7.786  1.00  0.00     0.004 C 
ENDBRANCH  23  25
ENDBRANCH  10  23
ENDBRANCH   7  10
ENDBRANCH   4   6
BRANCH   3  27
ATOM     27  C   UNL     1      -7.283   4.249  -1.553  1.00  0.00     0.171 C 
BRANCH  27  28
ATOM     28  N   UNL     1      -8.106   3.582  -2.556  1.00  0.00    -0.342 N 
ATOM     29  C   UNL     1      -9.306   4.094  -2.999  1.00  0.00     0.245 C 
ATOM     30  O   UNL     1      -9.765   5.160  -2.592  1.00  0.00    -0.273 OA
ATOM     31  H   UNL     1      -7.737   2.755  -3.022  1.00  0.00     0.164 HD
BRANCH  29  32
ATOM     32  C   UNL     1      -9.969   3.314  -4.154  1.00  0.00     0.200 C 
BRANCH  32  33
ATOM     33  N   UNL     1      -8.909   2.776  -5.015  1.00  0.00    -0.340 N 
ATOM     34  C   UNL     1      -8.846   1.432  -5.318  1.00  0.00     0.243 CG0
ATOM     35  O   UNL     1      -9.631   0.619  -4.834  1.00  0.00    -0.273 OA
ATOM     36  H   UNL     1      -8.228   3.417  -5.405  1.00  0.00     0.164 HD
ATOM     37  G   UNL     1      -7.610   0.985  -6.115  1.00  0.00     0.000 G0
ENDBRANCH  32  33
BRANCH  32  38
ATOM     38  C   UNL     1     -10.927   2.223  -3.623  1.00  0.00     0.143 C 
ATOM     39  C   UNL     1     -11.346   2.416  -2.170  1.00  0.00     0.041 C 
BRANCH  38  40
ATOM     40  O   UNL     1     -12.108   2.161  -4.446  1.00  0.00    -0.391 OA
ATOM     41  H   UNL     1     -11.949   1.464  -5.111  1.00  0.00     0.211 HD
ENDBRANCH  38  40
ENDBRANCH  32  38
ENDBRANCH  29  32
ENDBRANCH  27  28
BRANCH  27  42
ATOM     42  C   UNL     1      -6.578   3.230  -0.626  1.00  0.00     0.015 C 
ATOM     43  C   UNL     1      -7.481   2.145  -0.028  1.00  0.00     0.010 C 
ATOM     44  C   UNL     1      -5.357   2.593  -1.298  1.00  0.00     0.010 C 
ENDBRANCH  27  42
ENDBRANCH   3  27
TORSDOF 5
ENDMDL
MODEL 5
REMARK VINA RESULT:    -4.744     12.056     15.466
REMARK INTER + INTRA:         -10.873
REMARK INTER:                  -8.456
REMARK INTRA:                  -2.417
REMARK UNBOUND:                -2.385
REMARK SMILES CC[C@H](C)[C@H]1NC(=O)c2coc(n2)[C@H](C(C)C)NC(=O)[C@H]([C@@H](C)O)NC(=O)[C@H](C)NC(=O)c2csc1n2
REMARK SMILES IDX 11 1 13 2 12 3 9 4 10 5 7 6 6 7 8 8 5 10 36 11 35 12 34 13
REMARK SMILES IDX 37 14 33 15 31 16 32 17 30 18 28 20 29 21 3 23 4 24 2 25
REMARK SMILES IDX 1 26 14 27 18 28 19 29 20 30 21 32 25 33 26 34 27 35 22 38
REMARK SMILES IDX 23 39 24 40 15 42 16 43 17 44
REMARK H PARENT 6 9 30 19 18 31 25 36 24 41
REMARK Flexibility Score:   94.900
ROOT
ATOM      1  O   UNL     1      -6.797   3.655  -8.061  1.00  0.00    -0.446 OA
ATOM      2  N   UNL     1      -5.649   4.359  -6.253  1.00  0.00    -0.207 NA
ATOM      3  C   UNL     1      -6.184   3.327  -6.881  1.00  0.00     0.217 A 
ATOM      4  C   UNL     1      -5.904   5.434  -7.087  1.00  0.00     0.167 A 
ATOM      5  C   UNL     1      -6.603   4.998  -8.187  1.00  0.00     0.231 A 
ENDROOT
BRANCH   4   6
ATOM      6  C   UNL     1      -5.499   6.794  -6.777  1.00  0.00     0.273 C 
ATOM      7  N   UNL     1      -4.991   6.896  -5.507  1.00  0.00    -0.341 N 
ATOM      8  O   UNL     1      -5.625   7.732  -7.554  1.00  0.00    -0.267 OA
ATOM      9  H   UNL     1      -5.035   6.051  -4.945  1.00  0.00     0.164 HD
BRANCH   7  10
ATOM     10  C   UNL     1      -4.743   8.166  -4.853  1.00  0.00     0.145 C 
BRANCH  10  11
ATOM     11  C   UNL     1      -5.701   8.273  -3.676  1.00  0.00     0.116 A 
ATOM     12  S   UNL     1      -6.440   9.786  -3.310  1.00  0.00    -0.124 S 
ATOM     13  C   UNL     1      -7.288   9.052  -2.020  1.00  0.00     0.101 A 
ATOM     14  N   UNL     1      -6.044   7.270  -2.884  1.00  0.00    -0.234 NA
ATOM     15  C   UNL     1      -6.973   7.709  -1.937  1.00  0.00     0.139 A 
BRANCH  15  16
ATOM     16  C   UNL     1      -7.556   6.797  -0.951  1.00  0.00     0.271 C 
ATOM     17  O   UNL     1      -7.499   6.999   0.257  1.00  0.00    -0.267 OA
ATOM     18  N   UNL     1      -8.172   5.699  -1.514  1.00  0.00    -0.339 N 
ATOM     19  H   UNL     1      -8.054   5.589  -2.517  1.00  0.00     0.164 HD
BRANCH  18  20
ATOM     20  C   UNL     1      -8.749   4.650  -0.684  1.00  0.00     0.168 CG0
ATOM     21  C   UNL     1     -10.271   4.785  -0.595  1.00  0.00     0.041 C 
ATOM     22  G   UNL     1      -8.432   3.239  -1.204  1.00  0.00     0.000 G0
ENDBRANCH  18  20
ENDBRANCH  15  16
ENDBRANCH  10  11
BRANCH  10  23
ATOM     23  C   UNL     1      -3.260   8.326  -4.425  1.00  0.00     0.015 C 
ATOM     24  C   UNL     1      -2.633   7.021  -3.906  1.00  0.00     0.010 C 
BRANCH  23  25
ATOM     25  C   UNL     1      -2.368   8.888  -5.556  1.00  0.00     0.002 C 
ATOM     26  C   UNL     1      -0.881   8.636  -5.353  1.00  0.00     0.004 C 
ENDBRANCH  23  25
ENDBRANCH  10  23
ENDBRANCH   7  10
ENDBRANCH   4   6
BRANCH   3  27
ATOM     27  C   UNL     1      -6.223   1.900  -6.409  1.00  0.00     0.171 C 
BRANCH  27  28
ATOM     28  N   UNL     1      -7.310   1.779  -5.443  1.00  0.00    -0.342 N 
ATOM     29  C   UNL     1      -7.106   1.808  -4.082  1.00  0.00     0.245 C 
ATOM     30  O   UNL     1      -5.993   1.953  -3.579  1.00  0.00    -0.273 OA
ATOM     31  H   UNL     1      -8.270   1.771  -5.784  1.00  0.00     0.164 HD
BRANCH  29  32
ATOM     32  C   UNL     1      -8.387   1.796  -3.222  1.00  0.00     0.200 C 
BRANCH  32  33
ATOM     33  N   UNL     1      -8.523   3.109  -2.579  1.00  0.00    -0.340 N 
ATOM     34  C   UNL     1      -8.448   3.246  -1.209  1.00  0.00     0.243 CG0
ATOM     35  O   UNL     1      -8.329   2.275  -0.464  1.00  0.00    -0.273 OA
ATOM     36  H   UNL     1      -8.653   3.925  -3.166  1.00  0.00     0.164 HD
ATOM     37  G   UNL     1      -8.744   4.652  -0.663  1.00  0.00     0.000 G0
ENDBRANCH  32  33
BRANCH  32  38
ATOM     38  C   UNL     1      -9.626   1.404  -4.060  1.00  0.00     0.143 C 
ATOM     39  C   UNL     1     -10.842   1.013  -3.228  1.00  0.00     0.041 C 
BRANCH  38  40
ATOM     40  O   UNL     1      -9.990   2.487  -4.938  1.00  0.00    -0.391 OA
ATOM     41  H   UNL     1     -10.089   2.102  -5.829  1.00  0.00     0.211 HD
ENDBRANCH  38  40
ENDBRANCH  32  38
ENDBRANCH  29  32
ENDBRANCH  27  28
BRANCH  27  42
ATOM     42  C   UNL     1      -6.296   0.793  -7.490  1.00  0.00     0.015 C 
ATOM     43  C   UNL     1      -5.172   0.811  -8.532  1.00  0.00     0.010 C 
ATOM     44  C   UNL     1      -6.425  -0.603  -6.872  1.00  0.00     0.010 C 
ENDBRANCH  27  42
ENDBRANCH   3  27
TORSDOF 5
ENDMDL
MODEL 6
REMARK VINA RESULT:    -4.721     12.397     15.473
REMARK INTER + INTRA:         -10.831
REMARK INTER:                  -8.598
REMARK INTRA:                  -2.233
REMARK UNBOUND:                -2.385
REMARK SMILES CC[C@H](C)[C@H]1NC(=O)c2coc(n2)[C@H](C(C)C)NC(=O)[C@H]([C@@H](C)O)NC(=O)[C@H](C)NC(=O)c2csc1n2
REMARK SMILES IDX 11 1 13 2 12 3 9 4 10 5 7 6 6 7 8 8 5 10 36 11 35 12 34 13
REMARK SMILES IDX 37 14 33 15 31 16 32 17 30 18 28 20 29 21 3 23 4 24 2 25
REMARK SMILES IDX 1 26 14 27 18 28 19 29 20 30 21 32 25 33 26 34 27 35 22 38
REMARK SMILES IDX 23 39 24 40 15 42 16 43 17 44
REMARK H PARENT 6 9 30 19 18 31 25 36 24 41
REMARK Flexibility Score:   94.900
ROOT
ATOM      1  O   UNL     1      -6.033   6.781  -1.175  1.00  0.00    -0.446 OA
ATOM      2  N   UNL     1      -4.568   5.715  -2.517  1.00  0.00    -0.207 NA
ATOM      3  C   UNL     1      -5.671   5.615  -1.796  1.00  0.00     0.217 A 
ATOM      4  C   UNL     1      -4.194   7.041  -2.382  1.00  0.00     0.167 A 
ATOM      5  C   UNL     1      -5.091   7.684  -1.565  1.00  0.00     0.231 A 
ENDROOT
BRANCH   4   6
ATOM      6  C   UNL     1      -3.007   7.598  -3.008  1.00  0.00     0.273 C 
ATOM      7  N   UNL     1      -3.322   8.564  -3.929  1.00  0.00    -0.341 N 
ATOM      8  O   UNL     1      -1.869   7.223  -2.754  1.00  0.00    -0.267 OA
ATOM      9  H   UNL     1      -4.314   8.703  -4.100  1.00  0.00     0.164 HD
BRANCH   7  10
ATOM     10  C   UNL     1      -2.361   9.106  -4.869  1.00  0.00     0.145 C 
BRANCH  10  11
ATOM     11  C   UNL     1      -2.736   8.599  -6.254  1.00  0.00     0.116 A 
ATOM     12  S   UNL     1      -2.054   9.345  -7.650  1.00  0.00    -0.124 S 
ATOM     13  C   UNL     1      -2.898   8.238  -8.643  1.00  0.00     0.101 A 
ATOM     14  N   UNL     1      -3.558   7.591  -6.496  1.00  0.00    -0.234 NA
ATOM     15  C   UNL     1      -3.643   7.367  -7.872  1.00  0.00     0.139 A 
BRANCH  15  16
ATOM     16  C   UNL     1      -4.456   6.283  -8.427  1.00  0.00     0.271 C 
ATOM     17  O   UNL     1      -4.381   5.928  -9.598  1.00  0.00    -0.267 OA
ATOM     18  N   UNL     1      -5.306   5.706  -7.507  1.00  0.00    -0.339 N 
ATOM     19  H   UNL     1      -5.355   6.163  -6.600  1.00  0.00     0.164 HD
BRANCH  18  20
ATOM     20  C   UNL     1      -6.239   4.657  -7.896  1.00  0.00     0.168 CG0
ATOM     21  C   UNL     1      -5.598   3.273  -7.784  1.00  0.00     0.041 C 
ATOM     22  G   UNL     1      -7.518   4.654  -7.043  1.00  0.00     0.000 G0
ENDBRANCH  18  20
ENDBRANCH  15  16
ENDBRANCH  10  11
BRANCH  10  23
ATOM     23  C   UNL     1      -2.287  10.654  -4.805  1.00  0.00     0.015 C 
ATOM     24  C   UNL     1      -3.669  11.329  -4.783  1.00  0.00     0.010 C 
BRANCH  23  25
ATOM     25  C   UNL     1      -1.467  11.165  -3.599  1.00  0.00     0.002 C 
ATOM     26  C   UNL     1      -0.199  10.367  -3.331  1.00  0.00     0.004 C 
ENDBRANCH  23  25
ENDBRANCH  10  23
ENDBRANCH   7  10
ENDBRANCH   4   6
BRANCH   3  27
ATOM     27  C   UNL     1      -6.494   4.378  -1.565  1.00  0.00     0.171 C 
BRANCH  27  28
ATOM     28  N   UNL     1      -7.067   3.977  -2.846  1.00  0.00    -0.342 N 
ATOM     29  C   UNL     1      -8.139   4.623  -3.420  1.00  0.00     0.245 C 
ATOM     30  O   UNL     1      -8.684   5.596  -2.903  1.00  0.00    -0.273 OA
ATOM     31  H   UNL     1      -6.597   3.252  -3.388  1.00  0.00     0.164 HD
BRANCH  29  32
ATOM     32  C   UNL     1      -8.520   4.138  -4.835  1.00  0.00     0.200 C 
BRANCH  32  33
ATOM     33  N   UNL     1      -7.358   4.321  -5.714  1.00  0.00    -0.340 N 
ATOM     34  C   UNL     1      -7.512   4.655  -7.044  1.00  0.00     0.243 CG0
ATOM     35  O   UNL     1      -8.621   4.751  -7.565  1.00  0.00    -0.273 OA
ATOM     36  H   UNL     1      -6.431   4.219  -5.319  1.00  0.00     0.164 HD
ATOM     37  G   UNL     1      -6.221   4.680  -7.878  1.00  0.00     0.000 G0
ENDBRANCH  32  33
BRANCH  32  38
ATOM     38  C   UNL     1      -9.036   2.680  -4.813  1.00  0.00     0.143 C 
ATOM     39  C   UNL     1      -8.037   1.659  -5.345  1.00  0.00     0.041 C 
BRANCH  38  40
ATOM     40  O   UNL     1      -9.413   2.311  -3.473  1.00  0.00    -0.391 OA
ATOM     41  H   UNL     1      -9.100   1.396  -3.336  1.00  0.00     0.211 HD
ENDBRANCH  38  40
ENDBRANCH  32  38
ENDBRANCH  29  32
ENDBRANCH  27  28
BRANCH  27  42
ATOM     42  C   UNL     1      -5.808   3.188  -0.851  1.00  0.00     0.015 C 
ATOM     43  C   UNL     1      -6.755   2.133  -0.266  1.00  0.00     0.010 C 
ATOM     44  C   UNL     1      -4.751   2.520  -1.736  1.00  0.00     0.010 C 
ENDBRANCH  27  42
ENDBRANCH   3  27
TORSDOF 5
ENDMDL
MODEL 7
REMARK VINA RESULT:    -4.620     13.022     16.533
REMARK INTER + INTRA:         -10.651
REMARK INTER:                  -8.470
REMARK INTRA:                  -2.181
REMARK UNBOUND:                -2.385
REMARK SMILES CC[C@H](C)[C@H]1NC(=O)c2coc(n2)[C@H](C(C)C)NC(=O)[C@H]([C@@H](C)O)NC(=O)[C@H](C)NC(=O)c2csc1n2
REMARK SMILES IDX 11 1 13 2 12 3 9 4 10 5 7 6 6 7 8 8 5 10 36 11 35 12 34 13
REMARK SMILES IDX 37 14 33 15 31 16 32 17 30 18 28 20 29 21 3 23 4 24 2 25
REMARK SMILES IDX 1 26 14 27 18 28 19 29 20 30 21 32 25 33 26 34 27 35 22 38
REMARK SMILES IDX 23 39 24 40 15 42 16 43 17 44
REMARK H PARENT 6 9 30 19 18 31 25 36 24 41
REMARK Flexibility Score:   94.900
ROOT
ATOM      1  O   UNL     1      -5.699   5.566  -1.724  1.00  0.00    -0.446 OA
ATOM      2  N   UNL     1      -4.858   5.135  -3.770  1.00  0.00    -0.207 NA
ATOM      3  C   UNL     1      -5.720   4.770  -2.838  1.00  0.00     0.217 A 
ATOM      4  C   UNL     1      -4.247   6.260  -3.245  1.00  0.00     0.167 A 
ATOM      5  C   UNL     1      -4.765   6.518  -1.999  1.00  0.00     0.231 A 
ENDROOT
BRANCH   4   6
ATOM      6  C   UNL     1      -3.203   6.994  -3.940  1.00  0.00     0.273 C 
ATOM      7  N   UNL     1      -3.687   7.642  -5.048  1.00  0.00    -0.341 N 
ATOM      8  O   UNL     1      -2.031   7.004  -3.584  1.00  0.00    -0.267 OA
ATOM      9  H   UNL     1      -4.662   7.467  -5.270  1.00  0.00     0.164 HD
BRANCH   7  10
ATOM     10  C   UNL     1      -2.829   8.239  -6.053  1.00  0.00     0.145 C 
BRANCH  10  11
ATOM     11  C   UNL     1      -3.423   7.913  -7.416  1.00  0.00     0.116 A 
ATOM     12  S   UNL     1      -3.727   9.183  -8.541  1.00  0.00    -0.124 S 
ATOM     13  C   UNL     1      -4.284   8.033  -9.677  1.00  0.00     0.101 A 
ATOM     14  N   UNL     1      -3.726   6.697  -7.840  1.00  0.00    -0.234 NA
ATOM     15  C   UNL     1      -4.208   6.758  -9.150  1.00  0.00     0.139 A 
BRANCH  15  16
ATOM     16  C   UNL     1      -4.586   5.550  -9.888  1.00  0.00     0.271 C 
ATOM     17  O   UNL     1      -4.855   5.559 -11.084  1.00  0.00    -0.267 OA
ATOM     18  N   UNL     1      -4.608   4.413  -9.108  1.00  0.00    -0.339 N 
ATOM     19  H   UNL     1      -4.475   4.556  -8.110  1.00  0.00     0.164 HD
BRANCH  18  20
ATOM     20  C   UNL     1      -5.028   3.130  -9.656  1.00  0.00     0.168 CG0
ATOM     21  C   UNL     1      -3.838   2.349 -10.217  1.00  0.00     0.041 C 
ATOM     22  G   UNL     1      -5.727   2.240  -8.617  1.00  0.00     0.000 G0
ENDBRANCH  18  20
ENDBRANCH  15  16
ENDBRANCH  10  11
BRANCH  10  23
ATOM     23  C   UNL     1      -2.646   9.764  -5.837  1.00  0.00     0.015 C 
ATOM     24  C   UNL     1      -3.492  10.321  -4.680  1.00  0.00     0.010 C 
BRANCH  23  25
ATOM     25  C   UNL     1      -1.171  10.163  -5.607  1.00  0.00     0.002 C 
ATOM     26  C   UNL     1      -0.993  11.420  -4.767  1.00  0.00     0.004 C 
ENDBRANCH  23  25
ENDBRANCH  10  23
ENDBRANCH   7  10
ENDBRANCH   4   6
BRANCH   3  27
ATOM     27  C   UNL     1      -6.641   3.581  -2.870  1.00  0.00     0.171 C 
BRANCH  27  28
ATOM     28  N   UNL     1      -6.190   2.696  -3.939  1.00  0.00    -0.342 N 
ATOM     29  C   UNL     1      -6.779   2.668  -5.184  1.00  0.00     0.245 C 
ATOM     30  O   UNL     1      -7.719   3.399  -5.492  1.00  0.00    -0.273 OA
ATOM     31  H   UNL     1      -5.345   2.145  -3.795  1.00  0.00     0.164 HD
BRANCH  29  32
ATOM     32  C   UNL     1      -6.083   1.762  -6.222  1.00  0.00     0.200 C 
BRANCH  32  33
ATOM     33  N   UNL     1      -5.583   2.610  -7.311  1.00  0.00    -0.340 N 
ATOM     34  C   UNL     1      -5.721   2.234  -8.632  1.00  0.00     0.243 CG0
ATOM     35  O   UNL     1      -6.208   1.151  -8.952  1.00  0.00    -0.273 OA
ATOM     36  H   UNL     1      -5.149   3.495  -7.077  1.00  0.00     0.164 HD
ATOM     37  G   UNL     1      -5.032   3.146  -9.659  1.00  0.00     0.000 G0
ENDBRANCH  32  33
BRANCH  32  38
ATOM     38  C   UNL     1      -4.976   0.902  -5.570  1.00  0.00     0.143 C 
ATOM     39  C   UNL     1      -4.760  -0.449  -6.242  1.00  0.00     0.041 C 
BRANCH  38  40
ATOM     40  O   UNL     1      -3.729   1.625  -5.564  1.00  0.00    -0.391 OA
ATOM     41  H   UNL     1      -3.592   1.937  -4.649  1.00  0.00     0.211 HD
ENDBRANCH  38  40
ENDBRANCH  32  38
ENDBRANCH  29  32
ENDBRANCH  27  28
BRANCH  27  42
ATOM     42  C   UNL     1      -6.857   2.810  -1.545  1.00  0.00     0.015 C 
ATOM     43  C   UNL     1      -7.719   1.547  -1.648  1.00  0.00     0.010 C 
ATOM     44  C   UNL     1      -5.531   2.492  -0.845  1.00  0.00     0.010 C 
ENDBRANCH  27  42
ENDBRANCH   3  27
TORSDOF 5
ENDMDL
MODEL 8
REMARK VINA RESULT:    -4.496     14.716     18.199
REMARK INTER + INTRA:         -10.430
REMARK INTER:                  -8.070
REMARK INTRA:                  -2.359
REMARK UNBOUND:                -2.385
REMARK SMILES CC[C@H](C)[C@H]1NC(=O)c2coc(n2)[C@H](C(C)C)NC(=O)[C@H]([C@@H](C)O)NC(=O)[C@H](C)NC(=O)c2csc1n2
REMARK SMILES IDX 11 1 13 2 12 3 9 4 10 5 7 6 6 7 8 8 5 10 36 11 35 12 34 13
REMARK SMILES IDX 37 14 33 15 31 16 32 17 30 18 28 20 29 21 3 23 4 24 2 25
REMARK SMILES IDX 1 26 14 27 18 28 19 29 20 30 21 32 25 33 26 34 27 35 22 38
REMARK SMILES IDX 23 39 24 40 15 42 16 43 17 44
REMARK H PARENT 6 9 30 19 18 31 25 36 24 41
REMARK Flexibility Score:   94.900
ROOT
ATOM      1  O   UNL     1      -4.937   5.089  -3.463  1.00  0.00    -0.446 OA
ATOM      2  N   UNL     1      -5.378   5.526  -5.630  1.00  0.00    -0.207 NA
ATOM      3  C   UNL     1      -5.684   4.795  -4.573  1.00  0.00     0.217 A 
ATOM      4  C   UNL     1      -4.382   6.375  -5.178  1.00  0.00     0.167 A 
ATOM      5  C   UNL     1      -4.119   6.104  -3.858  1.00  0.00     0.231 A 
ENDROOT
BRANCH   4   6
ATOM      6  C   UNL     1      -3.732   7.358  -6.028  1.00  0.00     0.273 C 
ATOM      7  N   UNL     1      -4.477   7.640  -7.144  1.00  0.00    -0.341 N 
ATOM      8  O   UNL     1      -2.638   7.850  -5.780  1.00  0.00    -0.267 OA
ATOM      9  H   UNL     1      -5.321   7.086  -7.263  1.00  0.00     0.164 HD
BRANCH   7  10
ATOM     10  C   UNL     1      -3.961   8.390  -8.273  1.00  0.00     0.145 C 
BRANCH  10  11
ATOM     11  C   UNL     1      -3.330   7.395  -9.236  1.00  0.00     0.116 A 
ATOM     12  S   UNL     1      -1.787   7.733  -9.925  1.00  0.00    -0.124 S 
ATOM     13  C   UNL     1      -1.834   6.235 -10.747  1.00  0.00     0.101 A 
ATOM     14  N   UNL     1      -3.871   6.243  -9.599  1.00  0.00    -0.234 NA
ATOM     15  C   UNL     1      -3.004   5.561 -10.457  1.00  0.00     0.139 A 
BRANCH  15  16
ATOM     16  C   UNL     1      -3.331   4.235 -10.987  1.00  0.00     0.271 C 
ATOM     17  O   UNL     1      -3.647   4.046 -12.156  1.00  0.00    -0.267 OA
ATOM     18  N   UNL     1      -3.248   3.231 -10.046  1.00  0.00    -0.339 N 
ATOM     19  H   UNL     1      -3.085   3.531  -9.088  1.00  0.00     0.164 HD
BRANCH  18  20
ATOM     20  C   UNL     1      -3.603   1.857 -10.376  1.00  0.00     0.168 CG0
ATOM     21  C   UNL     1      -2.408   0.917 -10.203  1.00  0.00     0.041 C 
ATOM     22  G   UNL     1      -4.754   1.318  -9.512  1.00  0.00     0.000 G0
ENDBRANCH  18  20
ENDBRANCH  15  16
ENDBRANCH  10  11
BRANCH  10  23
ATOM     23  C   UNL     1      -5.055   9.257  -8.950  1.00  0.00     0.015 C 
ATOM     24  C   UNL     1      -5.626  10.347  -8.028  1.00  0.00     0.010 C 
BRANCH  23  25
ATOM     25  C   UNL     1      -4.568   9.920 -10.258  1.00  0.00     0.002 C 
ATOM     26  C   UNL     1      -4.478  11.439 -10.185  1.00  0.00     0.004 C 
ENDBRANCH  23  25
ENDBRANCH  10  23
ENDBRANCH   7  10
ENDBRANCH   4   6
BRANCH   3  27
ATOM     27  C   UNL     1      -6.695   3.684  -4.501  1.00  0.00     0.171 C 
BRANCH  27  28
ATOM     28  N   UNL     1      -6.166   2.550  -5.252  1.00  0.00    -0.342 N 
ATOM     29  C   UNL     1      -6.457   2.332  -6.580  1.00  0.00     0.245 C 
ATOM     30  O   UNL     1      -7.173   3.086  -7.237  1.00  0.00    -0.273 OA
ATOM     31  H   UNL     1      -5.475   1.947  -4.806  1.00  0.00     0.164 HD
BRANCH  29  32
ATOM     32  C   UNL     1      -5.703   1.156  -7.236  1.00  0.00     0.200 C 
BRANCH  32  33
ATOM     33  N   UNL     1      -4.740   1.706  -8.198  1.00  0.00    -0.340 N 
ATOM     34  C   UNL     1      -4.756   1.326  -9.524  1.00  0.00     0.243 CG0
ATOM     35  O   UNL     1      -5.531   0.469  -9.945  1.00  0.00    -0.273 OA
ATOM     36  H   UNL     1      -4.069   2.392  -7.874  1.00  0.00     0.164 HD
ATOM     37  G   UNL     1      -3.609   1.872 -10.388  1.00  0.00     0.000 G0
ENDBRANCH  32  33
BRANCH  32  38
ATOM     38  C   UNL     1      -5.042   0.246  -6.175  1.00  0.00     0.143 C 
ATOM     39  C   UNL     1      -4.673  -1.141  -6.688  1.00  0.00     0.041 C 
BRANCH  38  40
ATOM     40  O   UNL     1      -3.860   0.879  -5.648  1.00  0.00    -0.391 OA
ATOM     41  H   UNL     1      -4.093   1.814  -5.487  1.00  0.00     0.211 HD
ENDBRANCH  38  40
ENDBRANCH  32  38
ENDBRANCH  29  32
ENDBRANCH  27  28
BRANCH  27  42
ATOM     42  C   UNL     1      -7.187   3.257  -3.096  1.00  0.00     0.015 C 
ATOM     43  C   UNL     1      -8.590   3.741  -2.713  1.00  0.00     0.010 C 
ATOM     44  C   UNL     1      -7.069   1.744  -2.883  1.00  0.00     0.010 C 
ENDBRANCH  27  42
ENDBRANCH   3  27
TORSDOF 5
ENDMDL
MODEL 9
REMARK VINA RESULT:    -4.415      1.806      2.330
REMARK INTER + INTRA:         -10.285
REMARK INTER:                  -7.868
REMARK INTRA:                  -2.417
REMARK UNBOUND:                -2.385
REMARK SMILES CC[C@H](C)[C@H]1NC(=O)c2coc(n2)[C@H](C(C)C)NC(=O)[C@H]([C@@H](C)O)NC(=O)[C@H](C)NC(=O)c2csc1n2
REMARK SMILES IDX 11 1 13 2 12 3 9 4 10 5 7 6 6 7 8 8 5 10 36 11 35 12 34 13
REMARK SMILES IDX 37 14 33 15 31 16 32 17 30 18 28 20 29 21 3 23 4 24 2 25
REMARK SMILES IDX 1 26 14 27 18 28 19 29 20 30 21 32 25 33 26 34 27 35 22 38
REMARK SMILES IDX 23 39 24 40 15 42 16 43 17 44
REMARK H PARENT 6 9 30 19 18 31 25 36 24 41
REMARK Flexibility Score:   94.900
ROOT
ATOM      1  O   UNL     1      -4.730   2.965  10.438  1.00  0.00    -0.446 OA
ATOM      2  N   UNL     1      -4.489   5.142   9.902  1.00  0.00    -0.207 NA
ATOM      3  C   UNL     1      -4.496   3.896   9.461  1.00  0.00     0.217 A 
ATOM      4  C   UNL     1      -4.761   5.024  11.254  1.00  0.00     0.167 A 
ATOM      5  C   UNL     1      -4.908   3.696  11.574  1.00  0.00     0.231 A 
ENDROOT
BRANCH   4   6
ATOM      6  C   UNL     1      -4.835   6.164  12.151  1.00  0.00     0.273 C 
ATOM      7  N   UNL     1      -5.687   7.130  11.678  1.00  0.00    -0.341 N 
ATOM      8  O   UNL     1      -4.190   6.253  13.189  1.00  0.00    -0.267 OA
ATOM      9  H   UNL     1      -6.081   6.958  10.758  1.00  0.00     0.164 HD
BRANCH   7  10
ATOM     10  C   UNL     1      -5.761   8.465  12.240  1.00  0.00     0.145 C 
BRANCH  10  11
ATOM     11  C   UNL     1      -5.085   9.414  11.261  1.00  0.00     0.116 A 
ATOM     12  S   UNL     1      -4.033  10.644  11.852  1.00  0.00    -0.124 S 
ATOM     13  C   UNL     1      -3.728  11.144  10.246  1.00  0.00     0.101 A 
ATOM     14  N   UNL     1      -5.223   9.372   9.946  1.00  0.00    -0.234 NA
ATOM     15  C   UNL     1      -4.429  10.357   9.353  1.00  0.00     0.139 A 
BRANCH  15  16
ATOM     16  C   UNL     1      -4.358  10.517   7.899  1.00  0.00     0.271 C 
ATOM     17  O   UNL     1      -5.096  11.271   7.276  1.00  0.00    -0.267 OA
ATOM     18  N   UNL     1      -3.384   9.741   7.308  1.00  0.00    -0.339 N 
ATOM     19  H   UNL     1      -2.914   9.076   7.917  1.00  0.00     0.164 HD
BRANCH  18  20
ATOM     20  C   UNL     1      -3.212   9.718   5.861  1.00  0.00     0.168 CG0
ATOM     21  C   UNL     1      -2.274  10.834   5.395  1.00  0.00     0.041 C 
ATOM     22  G   UNL     1      -2.646   8.383   5.351  1.00  0.00     0.000 G0
ENDBRANCH  18  20
ENDBRANCH  15  16
ENDBRANCH  10  11
BRANCH  10  23
ATOM     23  C   UNL     1      -7.220   8.886  12.560  1.00  0.00     0.015 C 
ATOM     24  C   UNL     1      -8.241   7.757  12.343  1.00  0.00     0.010 C 
BRANCH  23  25
ATOM     25  C   UNL     1      -7.383   9.432  13.997  1.00  0.00     0.002 C 
ATOM     26  C   UNL     1      -6.177   9.183  14.893  1.00  0.00     0.004 C 
ENDBRANCH  23  25
ENDBRANCH  10  23
ENDBRANCH   7  10
ENDBRANCH   4   6
BRANCH   3  27
ATOM     27  C   UNL     1      -4.229   3.431   8.056  1.00  0.00     0.171 C 
BRANCH  27  28
ATOM     28  N   UNL     1      -3.285   4.362   7.449  1.00  0.00    -0.342 N 
ATOM     29  C   UNL     1      -3.456   4.883   6.186  1.00  0.00     0.245 C 
ATOM     30  O   UNL     1      -4.427   4.613   5.481  1.00  0.00    -0.273 OA
ATOM     31  H   UNL     1      -2.517   4.720   8.016  1.00  0.00     0.164 HD
BRANCH  29  32
ATOM     32  C   UNL     1      -2.422   5.949   5.766  1.00  0.00     0.200 C 
BRANCH  32  33
ATOM     33  N   UNL     1      -2.969   7.273   6.089  1.00  0.00    -0.340 N 
ATOM     34  C   UNL     1      -2.658   8.381   5.328  1.00  0.00     0.243 CG0
ATOM     35  O   UNL     1      -1.864   8.323   4.391  1.00  0.00    -0.273 OA
ATOM     36  H   UNL     1      -3.603   7.358   6.875  1.00  0.00     0.164 HD
ATOM     37  G   UNL     1      -3.187   9.723   5.858  1.00  0.00     0.000 G0
ENDBRANCH  32  33
BRANCH  32  38
ATOM     38  C   UNL     1      -1.045   5.690   6.421  1.00  0.00     0.143 C 
ATOM     39  C   UNL     1       0.141   5.951   5.500  1.00  0.00     0.041 C 
BRANCH  38  40
ATOM     40  O   UNL     1      -0.903   6.497   7.606  1.00  0.00    -0.391 OA
ATOM     41  H   UNL     1      -0.207   7.154   7.415  1.00  0.00     0.211 HD
ENDBRANCH  38  40
ENDBRANCH  32  38
ENDBRANCH  29  32
ENDBRANCH  27  28
BRANCH  27  42
ATOM     42  C   UNL     1      -3.783   1.961   7.865  1.00  0.00     0.015 C 
ATOM     43  C   UNL     1      -4.198   1.311   6.540  1.00  0.00     0.010 C 
ATOM     44  C   UNL     1      -2.278   1.785   8.094  1.00  0.00     0.010 C 
ENDBRANCH  27  42
ENDBRANCH   3  27
TORSDOF 5
ENDMDL
MODEL 10
REMARK VINA RESULT:    -4.182      1.838      2.451
REMARK INTER + INTRA:          -9.867
REMARK INTER:                  -7.408
REMARK INTRA:                  -2.460
REMARK UNBOUND:                -2.385
REMARK SMILES CC[C@H](C)[C@H]1NC(=O)c2coc(n2)[C@H](C(C)C)NC(=O)[C@H]([C@@H](C)O)NC(=O)[C@H](C)NC(=O)c2csc1n2
REMARK SMILES IDX 11 1 13 2 12 3 9 4 10 5 7 6 6 7 8 8 5 10 36 11 35 12 34 13
REMARK SMILES IDX 37 14 33 15 31 16 32 17 30 18 28 20 29 21 3 23 4 24 2 25
REMARK SMILES IDX 1 26 14 27 18 28 19 29 20 30 21 32 25 33 26 34 27 35 22 38
REMARK SMILES IDX 23 39 24 40 15 42 16 43 17 44
REMARK H PARENT 6 9 30 19 18 31 25 36 24 41
REMARK Flexibility Score:   94.900
ROOT
ATOM      1  O   UNL     1      -4.728   3.662  10.442  1.00  0.00    -0.446 OA
ATOM      2  N   UNL     1      -4.721   5.886  10.071  1.00  0.00    -0.207 NA
ATOM      3  C   UNL     1      -4.657   4.682   9.531  1.00  0.00     0.217 A 
ATOM      4  C   UNL     1      -4.871   5.642  11.425  1.00  0.00     0.167 A 
ATOM      5  C   UNL     1      -4.874   4.287  11.645  1.00  0.00     0.231 A 
ENDROOT
BRANCH   4   6
ATOM      6  C   UNL     1      -4.970   6.701  12.415  1.00  0.00     0.273 C 
ATOM      7  N   UNL     1      -5.602   7.810  11.914  1.00  0.00    -0.341 N 
ATOM      8  O   UNL     1      -4.517   6.611  13.550  1.00  0.00    -0.267 OA
ATOM      9  H   UNL     1      -5.841   7.773  10.927  1.00  0.00     0.164 HD
BRANCH   7  10
ATOM     10  C   UNL     1      -5.618   9.089  12.597  1.00  0.00     0.145 C 
BRANCH  10  11
ATOM     11  C   UNL     1      -4.679  10.023  11.846  1.00  0.00     0.116 A 
ATOM     12  S   UNL     1      -5.006  11.714  11.810  1.00  0.00    -0.124 S 
ATOM     13  C   UNL     1      -3.584  11.962  10.894  1.00  0.00     0.101 A 
ATOM     14  N   UNL     1      -3.585   9.644  11.206  1.00  0.00    -0.234 NA
ATOM     15  C   UNL     1      -2.939  10.760  10.669  1.00  0.00     0.139 A 
BRANCH  15  16
ATOM     16  C   UNL     1      -1.677  10.641   9.936  1.00  0.00     0.271 C 
ATOM     17  O   UNL     1      -0.815  11.513   9.950  1.00  0.00    -0.267 OA
ATOM     18  N   UNL     1      -1.556   9.458   9.237  1.00  0.00    -0.339 N 
ATOM     19  H   UNL     1      -2.383   8.868   9.215  1.00  0.00     0.164 HD
BRANCH  18  20
ATOM     20  C   UNL     1      -0.396   9.194   8.396  1.00  0.00     0.168 CG0
ATOM     21  C   UNL     1       0.686   8.432   9.164  1.00  0.00     0.041 C 
ATOM     22  G   UNL     1      -0.745   8.378   7.141  1.00  0.00     0.000 G0
ENDBRANCH  18  20
ENDBRANCH  15  16
ENDBRANCH  10  11
BRANCH  10  23
ATOM     23  C   UNL     1      -7.051   9.668  12.724  1.00  0.00     0.015 C 
ATOM     24  C   UNL     1      -8.098   8.885  11.914  1.00  0.00     0.010 C 
BRANCH  23  25
ATOM     25  C   UNL     1      -7.530   9.764  14.190  1.00  0.00     0.002 C 
ATOM     26  C   UNL     1      -8.240  11.068  14.525  1.00  0.00     0.004 C 
ENDBRANCH  23  25
ENDBRANCH  10  23
ENDBRANCH   7  10
ENDBRANCH   4   6
BRANCH   3  27
ATOM     27  C   UNL     1      -4.467   4.350   8.076  1.00  0.00     0.171 C 
BRANCH  27  28
ATOM     28  N   UNL     1      -3.186   4.907   7.654  1.00  0.00    -0.342 N 
ATOM     29  C   UNL     1      -3.026   5.604   6.478  1.00  0.00     0.245 C 
ATOM     30  O   UNL     1      -3.955   5.821   5.701  1.00  0.00    -0.273 OA
ATOM     31  H   UNL     1      -2.398   4.866   8.299  1.00  0.00     0.164 HD
BRANCH  29  32
ATOM     32  C   UNL     1      -1.630   6.228   6.265  1.00  0.00     0.200 C 
BRANCH  32  33
ATOM     33  N   UNL     1      -1.375   7.171   7.361  1.00  0.00    -0.340 N 
ATOM     34  C   UNL     1      -0.730   8.369   7.138  1.00  0.00     0.243 CG0
ATOM     35  O   UNL     1      -0.284   8.672   6.033  1.00  0.00    -0.273 OA
ATOM     36  H   UNL     1      -1.703   6.935   8.290  1.00  0.00     0.164 HD
ATOM     37  G   UNL     1      -0.407   9.196   8.394  1.00  0.00     0.000 G0
ENDBRANCH  32  33
BRANCH  32  38
ATOM     38  C   UNL     1      -0.538   5.140   6.140  1.00  0.00     0.143 C 
ATOM     39  C   UNL     1       0.187   4.832   7.445  1.00  0.00     0.041 C 
BRANCH  38  40
ATOM     40  O   UNL     1      -1.112   3.922   5.626  1.00  0.00    -0.391 OA
ATOM     41  H   UNL     1      -0.671   3.187   6.092  1.00  0.00     0.211 HD
ENDBRANCH  38  40
ENDBRANCH  32  38
ENDBRANCH  29  32
ENDBRANCH  27  28
BRANCH  27  42
ATOM     42  C   UNL     1      -4.606   2.865   7.659  1.00  0.00     0.015 C 
ATOM     43  C   UNL     1      -5.358   2.615   6.347  1.00  0.00     0.010 C 
ATOM     44  C   UNL     1      -3.254   2.145   7.642  1.00  0.00     0.010 C 
ENDBRANCH  27  42
ENDBRANCH   3  27
TORSDOF 5
ENDMDL
