MODEL 1
REMARK VINA RESULT:    -6.433      0.000      0.000
REMARK INTER + INTRA:         -26.894
REMARK INTER:                 -19.218
REMARK INTRA:                  -7.676
REMARK UNBOUND:                -7.676
REMARK SMILES C=C1C(=O)N[C@H](C)C(=O)N[C@@H](CC(C)C)C(=O)N[C@@H](C(=O)O)[C@H](C)C(=O)N[C@@H](CCCN=C(N)N)C(=O)N[C@@H](/C=C/C(C)=C/[C@H](C)[C@H](Cc2ccccc2)OC)[C@H](C)C(=O)N[C@@H](C(=O)O)CCC(=O)N1C
REMARK SMILES IDX 39 1 38 2 37 3 36 4 28 6 27 7 25 8 26 9 23 11 24 12 19 13
REMARK SMILES IDX 18 14 16 15 17 16 11 18 10 19 8 20 9 21 12 24 13 25 14 26
REMARK SMILES IDX 15 27 20 28 21 29 22 30 29 32 30 33 31 34 32 35 33 36 34 37
REMARK SMILES IDX 35 38 57 43 58 44 59 45 60 46 61 47 62 49 66 50 67 51 68 52
REMARK SMILES IDX 69 53 70 54 71 55 2 56 1 57 3 58 4 59 5 60 6 62 7 63 63 65
REMARK SMILES IDX 64 66 65 67 40 69 41 70 42 71 44 72 43 73 45 74 46 75 47 76
REMARK SMILES IDX 55 77 56 78 48 79 49 80 50 81 54 82 51 83 53 84 52 85
REMARK H PARENT 38 5 27 10 18 17 10 22 22 31 34 39 34 40 35 41 35 42 61 48
REMARK H PARENT 5 61 65 68
REMARK Flexibility Score:  369.900
ROOT
ATOM      1  C   UNL     1      -3.085  -2.809  -3.689  1.00  0.00     0.117 C 
ENDROOT
BRANCH   1   2
ATOM      2  N   UNL     1      -2.736  -2.914  -5.106  1.00  0.00    -0.347 N 
ATOM      3  O   UNL     1      -2.751  -0.672  -5.599  1.00  0.00    -0.273 OA
ATOM      4  C   UNL     1      -2.507  -1.828  -5.929  1.00  0.00     0.243 C 
ATOM      5  H   UNL     1      -2.601  -3.826  -5.516  1.00  0.00     0.164 HD
BRANCH   4   6
ATOM      6  C   UNL     1      -2.068  -2.215  -7.364  1.00  0.00     0.171 C 
BRANCH   6   7
ATOM      7  N   UNL     1      -0.666  -1.830  -7.595  1.00  0.00    -0.344 N 
ATOM      8  C   UNL     1      -0.357  -0.629  -8.197  1.00  0.00     0.226 C 
ATOM      9  O   UNL     1      -1.215   0.155  -8.585  1.00  0.00    -0.275 OA
ATOM     10  H   UNL     1       0.068  -2.481  -7.349  1.00  0.00     0.164 HD
BRANCH   8  11
ATOM     11  C   UNL     1       1.131  -0.353  -8.314  1.00  0.00     0.109 C 
ATOM     12  C   UNL     1       1.901  -1.172  -7.278  1.00  0.00     0.021 C 
BRANCH  11  13
ATOM     13  C   UNL     1       1.587  -0.560  -9.773  1.00  0.00     0.204 C 
BRANCH  13  14
ATOM     14  N   UNL     1       0.645   0.024 -10.733  1.00  0.00    -0.340 N 
ATOM     15  C   UNL     1       0.108  -0.689 -11.783  1.00  0.00     0.243 C 
ATOM     16  O   UNL     1       0.335  -1.885 -11.953  1.00  0.00    -0.273 OA
ATOM     17  H   UNL     1       0.535   1.042 -10.739  1.00  0.00     0.164 HD
BRANCH  15  18
ATOM     18  C   UNL     1      -0.691   0.186 -12.780  1.00  0.00     0.171 C 
BRANCH  18  19
ATOM     19  N   UNL     1       0.133   0.312 -13.980  1.00  0.00    -0.343 N 
ATOM     20  C   UNL     1       1.237   1.141 -14.023  1.00  0.00     0.242 CG0
ATOM     21  O   UNL     1       1.500   1.910 -13.101  1.00  0.00    -0.273 OA
ATOM     22  H   UNL     1      -0.112  -0.218 -14.810  1.00  0.00     0.164 HD
ATOM     23  G   UNL     1       2.027   1.082 -15.347  1.00  0.00     0.000 G0
ENDBRANCH  18  19
BRANCH  18  24
ATOM     24  C   UNL     1      -2.048  -0.455 -13.095  1.00  0.00     0.038 C 
BRANCH  24  25
ATOM     25  C   UNL     1      -3.172  -0.107 -12.095  1.00  0.00    -0.015 C 
ATOM     26  C   UNL     1      -2.969   1.258 -11.438  1.00  0.00     0.007 C 
ATOM     27  C   UNL     1      -3.256  -1.191 -11.017  1.00  0.00     0.007 C 
ENDBRANCH  24  25
ENDBRANCH  18  24
ENDBRANCH  15  18
ENDBRANCH  13  14
BRANCH  13  28
ATOM     28  C   UNL     1       2.965   0.041 -10.066  1.00  0.00     0.327 C 
ATOM     29  O   UNL     1       4.045  -0.463  -9.796  1.00  0.00    -0.250 OA
BRANCH  28  30
ATOM     30  O   UNL     1       2.901   1.289 -10.571  1.00  0.00    -0.480 OA
ATOM     31  H   UNL     1       2.357   1.194 -11.380  1.00  0.00     0.296 HD
ENDBRANCH  28  30
ENDBRANCH  13  28
ENDBRANCH  11  13
ENDBRANCH   8  11
ENDBRANCH   6   7
BRANCH   6  32
ATOM     32  C   UNL     1      -2.261  -3.722  -7.560  1.00  0.00     0.037 C 
BRANCH  32  33
ATOM     33  C   UNL     1      -3.274  -4.037  -8.670  1.00  0.00     0.026 C 
BRANCH  33  34
ATOM     34  C   UNL     1      -2.635  -4.753  -9.860  1.00  0.00     0.146 C 
BRANCH  34  35
ATOM     35  N   UNL     1      -3.075  -6.142  -9.865  1.00  0.00    -0.254 NA
ATOM     36  C   UNL     1      -2.240  -7.052  -9.525  1.00  0.00     0.185 C 
ATOM     37  N   UNL     1      -2.636  -8.334  -9.521  1.00  0.00    -0.370 N 
ATOM     38  N   UNL     1      -0.956  -6.922  -9.148  1.00  0.00    -0.370 N 
ATOM     39  H   UNL     1      -3.597  -8.513  -9.783  1.00  0.00     0.159 HD
ATOM     40  H   UNL     1      -2.104  -9.079  -9.105  1.00  0.00     0.159 HD
ATOM     41  H   UNL     1      -0.361  -7.727  -9.039  1.00  0.00     0.159 HD
ATOM     42  H   UNL     1      -0.519  -6.014  -9.120  1.00  0.00     0.159 HD
ENDBRANCH  34  35
ENDBRANCH  33  34
ENDBRANCH  32  33
ENDBRANCH   6  32
ENDBRANCH   4   6
ENDBRANCH   1   2
BRANCH   1  43
ATOM     43  C   UNL     1      -2.335  -3.928  -2.910  1.00  0.00     0.102 C 
ATOM     44  C   UNL     1      -2.327  -5.282  -3.641  1.00  0.00     0.020 C 
BRANCH  43  45
ATOM     45  C   UNL     1      -2.820  -4.008  -1.460  1.00  0.00     0.225 C 
ATOM     46  O   UNL     1      -3.271  -5.034  -0.958  1.00  0.00    -0.275 OA
ATOM     47  N   UNL     1      -2.808  -2.820  -0.765  1.00  0.00    -0.342 N 
ATOM     48  H   UNL     1      -2.299  -2.030  -1.135  1.00  0.00     0.164 HD
BRANCH  47  49
ATOM     49  C   UNL     1      -3.210  -2.752   0.643  1.00  0.00     0.192 C 
BRANCH  49  50
ATOM     50  C   UNL     1      -4.509  -1.953   0.769  1.00  0.00     0.047 C 
BRANCH  50  51
ATOM     51  C   UNL     1      -5.753  -2.830   0.574  1.00  0.00     0.103 C 
BRANCH  51  52
ATOM     52  C   UNL     1      -5.814  -3.972   1.587  1.00  0.00     0.226 C 
ATOM     53  O   UNL     1      -5.660  -5.134   1.207  1.00  0.00    -0.275 OA
BRANCH  52  54
ATOM     54  N   UNL     1      -5.972  -3.605   2.937  1.00  0.00    -0.311 N 
ATOM     55  C   UNL     1      -6.941  -2.573   3.331  1.00  0.00     0.153 C 
BRANCH  54  56
ATOM     56  C   UNL     1      -5.218  -4.212   3.954  1.00  0.00     0.102 C 
ATOM     57  C   UNL     1      -4.004  -3.804   4.359  1.00  0.00     0.043 C 
BRANCH  56  58
ATOM     58  C   UNL     1      -5.764  -5.390   4.726  1.00  0.00     0.268 C 
ATOM     59  O   UNL     1      -6.918  -5.784   4.620  1.00  0.00    -0.268 OA
ATOM     60  N   UNL     1      -4.817  -6.011   5.505  1.00  0.00    -0.339 N 
ATOM     61  H   UNL     1      -3.885  -5.616   5.547  1.00  0.00     0.164 HD
BRANCH  60  62
ATOM     62  C   UNL     1      -5.117  -7.210   6.288  1.00  0.00     0.168 CG0
ATOM     63  C   UNL     1      -5.685  -6.844   7.653  1.00  0.00     0.041 C 
ATOM     64  G   UNL     1      -3.839  -8.061   6.438  1.00  0.00     0.000 G0
ENDBRANCH  60  62
ENDBRANCH  56  58
ENDBRANCH  54  56
ENDBRANCH  52  54
ENDBRANCH  51  52
ENDBRANCH  50  51
ENDBRANCH  49  50
BRANCH  49  65
ATOM     65  C   UNL     1      -2.124  -2.097   1.512  1.00  0.00     0.326 C 
ATOM     66  O   UNL     1      -2.310  -1.215   2.337  1.00  0.00    -0.250 OA
BRANCH  65  67
ATOM     67  O   UNL     1      -0.868  -2.530   1.265  1.00  0.00    -0.480 OA
ATOM     68  H   UNL     1      -0.493  -1.835   0.683  1.00  0.00     0.296 HD
ENDBRANCH  65  67
ENDBRANCH  49  65
ENDBRANCH  47  49
ENDBRANCH  43  45
ENDBRANCH   1  43
BRANCH   1  69
ATOM     69  C   UNL     1      -4.601  -2.763  -3.628  1.00  0.00    -0.001 C 
ATOM     70  C   UNL     1      -5.367  -1.828  -3.038  1.00  0.00     0.001 C 
BRANCH  70  71
ATOM     71  C   UNL     1      -6.830  -1.782  -3.005  1.00  0.00    -0.055 C 
ATOM     72  C   UNL     1      -7.503  -2.712  -3.713  1.00  0.00    -0.018 C 
ATOM     73  C   UNL     1      -7.480  -0.706  -2.175  1.00  0.00     0.044 C 
BRANCH  72  74
ATOM     74  C   UNL     1      -9.005  -2.910  -3.861  1.00  0.00     0.038 C 
ATOM     75  C   UNL     1      -9.328  -4.322  -3.357  1.00  0.00     0.015 C 
BRANCH  74  76
ATOM     76  C   UNL     1      -9.403  -2.639  -5.342  1.00  0.00     0.128 C 
BRANCH  76  77
ATOM     77  O   UNL     1     -10.833  -2.685  -5.483  1.00  0.00    -0.381 OA
ATOM     78  C   UNL     1     -11.517  -1.744  -4.667  1.00  0.00     0.195 C 
ENDBRANCH  76  77
BRANCH  76  79
ATOM     79  C   UNL     1      -8.783  -1.348  -5.934  1.00  0.00     0.068 C 
BRANCH  79  80
ATOM     80  C   UNL     1      -7.867  -1.485  -7.126  1.00  0.00    -0.045 A 
ATOM     81  C   UNL     1      -8.344  -1.971  -8.351  1.00  0.00     0.004 A 
ATOM     82  C   UNL     1      -6.508  -1.154  -7.015  1.00  0.00     0.004 A 
ATOM     83  C   UNL     1      -7.486  -2.108  -9.444  1.00  0.00     0.000 A 
ATOM     84  C   UNL     1      -5.652  -1.292  -8.109  1.00  0.00     0.000 A 
ATOM     85  C   UNL     1      -6.141  -1.768  -9.324  1.00  0.00     0.000 A 
ENDBRANCH  79  80
ENDBRANCH  76  79
ENDBRANCH  74  76
ENDBRANCH  72  74
ENDBRANCH  70  71
ENDBRANCH   1  69
TORSDOF 17
ENDMDL
MODEL 2
REMARK VINA RESULT:    -6.192      6.838     13.273
REMARK INTER + INTRA:         -26.176
REMARK INTER:                 -16.925
REMARK INTRA:                  -9.251
REMARK UNBOUND:                -7.676
REMARK SMILES C=C1C(=O)N[C@H](C)C(=O)N[C@@H](CC(C)C)C(=O)N[C@@H](C(=O)O)[C@H](C)C(=O)N[C@@H](CCCN=C(N)N)C(=O)N[C@@H](/C=C/C(C)=C/[C@H](C)[C@H](Cc2ccccc2)OC)[C@H](C)C(=O)N[C@@H](C(=O)O)CCC(=O)N1C
REMARK SMILES IDX 39 1 38 2 37 3 36 4 28 6 27 7 25 8 26 9 23 11 24 12 19 13
REMARK SMILES IDX 18 14 16 15 17 16 11 18 10 19 8 20 9 21 12 24 13 25 14 26
REMARK SMILES IDX 15 27 20 28 21 29 22 30 29 32 30 33 31 34 32 35 33 36 34 37
REMARK SMILES IDX 35 38 57 43 58 44 59 45 60 46 61 47 62 49 66 50 67 51 68 52
REMARK SMILES IDX 69 53 70 54 71 55 2 56 1 57 3 58 4 59 5 60 6 62 7 63 63 65
REMARK SMILES IDX 64 66 65 67 40 69 41 70 42 71 44 72 43 73 45 74 46 75 47 76
REMARK SMILES IDX 55 77 56 78 48 79 49 80 50 81 54 82 51 83 53 84 52 85
REMARK H PARENT 38 5 27 10 18 17 10 22 22 31 34 39 34 40 35 41 35 42 61 48
REMARK H PARENT 5 61 65 68
REMARK Flexibility Score:  369.900
ROOT
ATOM      1  C   UNL     1      -4.500   3.951 -10.592  1.00  0.00     0.117 C 
ENDROOT
BRANCH   1   2
ATOM      2  N   UNL     1      -4.958   2.649 -10.105  1.00  0.00    -0.347 N 
ATOM      3  O   UNL     1      -4.549   2.989  -7.872  1.00  0.00    -0.273 OA
ATOM      4  C   UNL     1      -5.031   2.306  -8.769  1.00  0.00     0.243 C 
ATOM      5  H   UNL     1      -5.292   1.964 -10.765  1.00  0.00     0.164 HD
BRANCH   4   6
ATOM      6  C   UNL     1      -5.632   0.899  -8.519  1.00  0.00     0.171 C 
BRANCH   6   7
ATOM      7  N   UNL     1      -5.112  -0.065  -9.502  1.00  0.00    -0.344 N 
ATOM      8  C   UNL     1      -5.971  -0.784 -10.304  1.00  0.00     0.226 C 
ATOM      9  O   UNL     1      -7.189  -0.678 -10.228  1.00  0.00    -0.275 OA
ATOM     10  H   UNL     1      -4.114  -0.229  -9.548  1.00  0.00     0.164 HD
BRANCH   8  11
ATOM     11  C   UNL     1      -5.279  -1.694 -11.304  1.00  0.00     0.109 C 
ATOM     12  C   UNL     1      -4.137  -0.948 -11.993  1.00  0.00     0.021 C 
BRANCH  11  13
ATOM     13  C   UNL     1      -4.870  -3.011 -10.613  1.00  0.00     0.204 C 
BRANCH  13  14
ATOM     14  N   UNL     1      -3.453  -3.019 -10.237  1.00  0.00    -0.340 N 
ATOM     15  C   UNL     1      -2.676  -4.157 -10.272  1.00  0.00     0.243 C 
ATOM     16  O   UNL     1      -3.103  -5.236 -10.679  1.00  0.00    -0.273 OA
ATOM     17  H   UNL     1      -3.080  -2.200  -9.750  1.00  0.00     0.164 HD
BRANCH  15  18
ATOM     18  C   UNL     1      -1.277  -3.970  -9.636  1.00  0.00     0.171 C 
BRANCH  18  19
ATOM     19  N   UNL     1      -0.586  -5.252  -9.760  1.00  0.00    -0.343 N 
ATOM     20  C   UNL     1      -0.432  -6.104  -8.684  1.00  0.00     0.242 CG0
ATOM     21  O   UNL     1      -0.749  -5.767  -7.546  1.00  0.00    -0.273 OA
ATOM     22  H   UNL     1      -0.202  -5.525 -10.658  1.00  0.00     0.164 HD
ATOM     23  G   UNL     1       0.253  -7.444  -9.026  1.00  0.00     0.000 G0
ENDBRANCH  18  19
BRANCH  18  24
ATOM     24  C   UNL     1      -0.508  -2.846 -10.341  1.00  0.00     0.038 C 
BRANCH  24  25
ATOM     25  C   UNL     1      -0.110  -1.667  -9.429  1.00  0.00    -0.015 C 
ATOM     26  C   UNL     1       0.369  -2.127  -8.052  1.00  0.00     0.007 C 
ATOM     27  C   UNL     1      -1.299  -0.716  -9.270  1.00  0.00     0.007 C 
ENDBRANCH  24  25
ENDBRANCH  18  24
ENDBRANCH  15  18
ENDBRANCH  13  14
BRANCH  13  28
ATOM     28  C   UNL     1      -5.678  -3.304  -9.345  1.00  0.00     0.327 C 
ATOM     29  O   UNL     1      -5.293  -3.162  -8.194  1.00  0.00    -0.250 OA
BRANCH  28  30
ATOM     30  O   UNL     1      -6.876  -3.868  -9.600  1.00  0.00    -0.480 OA
ATOM     31  H   UNL     1      -6.810  -4.762  -9.205  1.00  0.00     0.296 HD
ENDBRANCH  28  30
ENDBRANCH  13  28
ENDBRANCH  11  13
ENDBRANCH   8  11
ENDBRANCH   6   7
BRANCH   6  32
ATOM     32  C   UNL     1      -5.300   0.456  -7.090  1.00  0.00     0.037 C 
BRANCH  32  33
ATOM     33  C   UNL     1      -6.422   0.800  -6.101  1.00  0.00     0.026 C 
BRANCH  33  34
ATOM     34  C   UNL     1      -7.288  -0.412  -5.754  1.00  0.00     0.146 C 
BRANCH  34  35
ATOM     35  N   UNL     1      -8.091  -0.764  -6.917  1.00  0.00    -0.254 NA
ATOM     36  C   UNL     1      -8.289  -2.003  -7.175  1.00  0.00     0.185 C 
ATOM     37  N   UNL     1      -9.032  -2.338  -8.241  1.00  0.00    -0.370 N 
ATOM     38  N   UNL     1      -7.847  -3.085  -6.510  1.00  0.00    -0.370 N 
ATOM     39  H   UNL     1      -9.411  -1.576  -8.789  1.00  0.00     0.159 HD
ATOM     40  H   UNL     1      -9.375  -3.268  -8.410  1.00  0.00     0.159 HD
ATOM     41  H   UNL     1      -7.954  -4.011  -6.893  1.00  0.00     0.159 HD
ATOM     42  H   UNL     1      -7.262  -2.983  -5.696  1.00  0.00     0.159 HD
ENDBRANCH  34  35
ENDBRANCH  33  34
ENDBRANCH  32  33
ENDBRANCH   6  32
ENDBRANCH   4   6
ENDBRANCH   1   2
BRANCH   1  43
ATOM     43  C   UNL     1      -5.695   4.670 -11.281  1.00  0.00     0.102 C 
ATOM     44  C   UNL     1      -5.550   6.201 -11.317  1.00  0.00     0.020 C 
BRANCH  43  45
ATOM     45  C   UNL     1      -7.032   4.186 -10.711  1.00  0.00     0.225 C 
ATOM     46  O   UNL     1      -7.627   3.202 -11.140  1.00  0.00    -0.275 OA
ATOM     47  N   UNL     1      -7.583   4.985  -9.735  1.00  0.00    -0.342 N 
ATOM     48  H   UNL     1      -7.018   5.695  -9.291  1.00  0.00     0.164 HD
BRANCH  47  49
ATOM     49  C   UNL     1      -8.841   4.627  -9.073  1.00  0.00     0.192 C 
BRANCH  49  50
ATOM     50  C   UNL     1      -9.813   5.808  -9.144  1.00  0.00     0.047 C 
BRANCH  50  51
ATOM     51  C   UNL     1      -9.216   7.009  -9.889  1.00  0.00     0.103 C 
BRANCH  51  52
ATOM     52  C   UNL     1     -10.236   8.130 -10.080  1.00  0.00     0.226 C 
ATOM     53  O   UNL     1     -11.317   8.078  -9.490  1.00  0.00    -0.275 OA
BRANCH  52  54
ATOM     54  N   UNL     1      -9.833   9.215 -10.879  1.00  0.00    -0.311 N 
ATOM     55  C   UNL     1      -8.721  10.084 -10.470  1.00  0.00     0.153 C 
BRANCH  54  56
ATOM     56  C   UNL     1     -10.470   9.505 -12.097  1.00  0.00     0.102 C 
ATOM     57  C   UNL     1     -10.187   8.917 -13.271  1.00  0.00     0.043 C 
BRANCH  56  58
ATOM     58  C   UNL     1     -11.597  10.508 -12.163  1.00  0.00     0.268 C 
ATOM     59  O   UNL     1     -12.292  10.798 -11.199  1.00  0.00    -0.268 OA
ATOM     60  N   UNL     1     -11.716  11.107 -13.395  1.00  0.00    -0.339 N 
ATOM     61  H   UNL     1     -11.107  10.803 -14.145  1.00  0.00     0.164 HD
BRANCH  60  62
ATOM     62  C   UNL     1     -12.702  12.154 -13.660  1.00  0.00     0.168 CG0
ATOM     63  C   UNL     1     -12.096  13.538 -13.461  1.00  0.00     0.041 C 
ATOM     64  G   UNL     1     -13.925  11.956 -12.741  1.00  0.00     0.000 G0
ENDBRANCH  60  62
ENDBRANCH  56  58
ENDBRANCH  54  56
ENDBRANCH  52  54
ENDBRANCH  51  52
ENDBRANCH  50  51
ENDBRANCH  49  50
BRANCH  49  65
ATOM     65  C   UNL     1      -8.618   4.238  -7.603  1.00  0.00     0.326 C 
ATOM     66  O   UNL     1      -9.499   4.038  -6.780  1.00  0.00    -0.250 OA
BRANCH  65  67
ATOM     67  O   UNL     1      -7.322   4.181  -7.226  1.00  0.00    -0.480 OA
ATOM     68  H   UNL     1      -6.850   4.651  -7.946  1.00  0.00     0.296 HD
ENDBRANCH  65  67
ENDBRANCH  49  65
ENDBRANCH  47  49
ENDBRANCH  43  45
ENDBRANCH   1  43
BRANCH   1  69
ATOM     69  C   UNL     1      -3.241   3.684 -11.397  1.00  0.00    -0.001 C 
ATOM     70  C   UNL     1      -2.738   2.489 -11.752  1.00  0.00     0.001 C 
BRANCH  70  71
ATOM     71  C   UNL     1      -1.533   2.243 -12.548  1.00  0.00    -0.055 C 
ATOM     72  C   UNL     1      -0.949   1.031 -12.446  1.00  0.00    -0.018 C 
ATOM     73  C   UNL     1      -1.036   3.358 -13.431  1.00  0.00     0.044 C 
BRANCH  72  74
ATOM     74  C   UNL     1       0.293   0.498 -13.146  1.00  0.00     0.038 C 
ATOM     75  C   UNL     1      -0.090  -0.840 -13.791  1.00  0.00     0.015 C 
BRANCH  74  76
ATOM     76  C   UNL     1       1.454   0.415 -12.111  1.00  0.00     0.128 C 
BRANCH  76  77
ATOM     77  O   UNL     1       2.642  -0.087 -12.746  1.00  0.00    -0.381 OA
ATOM     78  C   UNL     1       3.157   0.772 -13.754  1.00  0.00     0.195 C 
ENDBRANCH  76  77
BRANCH  76  79
ATOM     79  C   UNL     1       1.701   1.734 -11.335  1.00  0.00     0.068 C 
BRANCH  79  80
ATOM     80  C   UNL     1       1.486   1.725  -9.841  1.00  0.00    -0.045 A 
ATOM     81  C   UNL     1       0.415   2.419  -9.262  1.00  0.00     0.004 A 
ATOM     82  C   UNL     1       2.379   1.041  -9.002  1.00  0.00     0.004 A 
ATOM     83  C   UNL     1       0.232   2.418  -7.877  1.00  0.00     0.000 A 
ATOM     84  C   UNL     1       2.195   1.041  -7.618  1.00  0.00     0.000 A 
ATOM     85  C   UNL     1       1.121   1.728  -7.056  1.00  0.00     0.000 A 
ENDBRANCH  79  80
ENDBRANCH  76  79
ENDBRANCH  74  76
ENDBRANCH  72  74
ENDBRANCH  70  71
ENDBRANCH   1  69
TORSDOF 17
ENDMDL
MODEL 3
REMARK VINA RESULT:    -6.158      3.693      7.400
REMARK INTER + INTRA:         -26.073
REMARK INTER:                 -18.096
REMARK INTRA:                  -7.977
REMARK UNBOUND:                -7.676
REMARK SMILES C=C1C(=O)N[C@H](C)C(=O)N[C@@H](CC(C)C)C(=O)N[C@@H](C(=O)O)[C@H](C)C(=O)N[C@@H](CCCN=C(N)N)C(=O)N[C@@H](/C=C/C(C)=C/[C@H](C)[C@H](Cc2ccccc2)OC)[C@H](C)C(=O)N[C@@H](C(=O)O)CCC(=O)N1C
REMARK SMILES IDX 39 1 38 2 37 3 36 4 28 6 27 7 25 8 26 9 23 11 24 12 19 13
REMARK SMILES IDX 18 14 16 15 17 16 11 18 10 19 8 20 9 21 12 24 13 25 14 26
REMARK SMILES IDX 15 27 20 28 21 29 22 30 29 32 30 33 31 34 32 35 33 36 34 37
REMARK SMILES IDX 35 38 57 43 58 44 59 45 60 46 61 47 62 49 66 50 67 51 68 52
REMARK SMILES IDX 69 53 70 54 71 55 2 56 1 57 3 58 4 59 5 60 6 62 7 63 63 65
REMARK SMILES IDX 64 66 65 67 40 69 41 70 42 71 44 72 43 73 45 74 46 75 47 76
REMARK SMILES IDX 55 77 56 78 48 79 49 80 50 81 54 82 51 83 53 84 52 85
REMARK H PARENT 38 5 27 10 18 17 10 22 22 31 34 39 34 40 35 41 35 42 61 48
REMARK H PARENT 5 61 65 68
REMARK Flexibility Score:  369.900
ROOT
ATOM      1  C   UNL     1      -3.854  -3.631  -0.718  1.00  0.00     0.117 C 
ENDROOT
BRANCH   1   2
ATOM      2  N   UNL     1      -4.991  -3.203  -1.533  1.00  0.00    -0.347 N 
ATOM      3  O   UNL     1      -6.651  -4.214  -0.311  1.00  0.00    -0.273 OA
ATOM      4  C   UNL     1      -6.311  -3.454  -1.211  1.00  0.00     0.243 C 
ATOM      5  H   UNL     1      -4.826  -2.647  -2.358  1.00  0.00     0.164 HD
BRANCH   4   6
ATOM      6  C   UNL     1      -7.325  -2.816  -2.195  1.00  0.00     0.171 C 
BRANCH   6   7
ATOM      7  N   UNL     1      -6.698  -2.598  -3.509  1.00  0.00    -0.344 N 
ATOM      8  C   UNL     1      -6.927  -1.435  -4.212  1.00  0.00     0.226 C 
ATOM      9  O   UNL     1      -7.667  -0.549  -3.800  1.00  0.00    -0.275 OA
ATOM     10  H   UNL     1      -6.134  -3.336  -3.912  1.00  0.00     0.164 HD
BRANCH   8  11
ATOM     11  C   UNL     1      -6.166  -1.337  -5.523  1.00  0.00     0.109 C 
ATOM     12  C   UNL     1      -4.999  -2.324  -5.529  1.00  0.00     0.021 C 
BRANCH  11  13
ATOM     13  C   UNL     1      -7.145  -1.482  -6.705  1.00  0.00     0.204 C 
BRANCH  13  14
ATOM     14  N   UNL     1      -6.605  -0.908  -7.942  1.00  0.00    -0.340 N 
ATOM     15  C   UNL     1      -6.787   0.411  -8.297  1.00  0.00     0.243 C 
ATOM     16  O   UNL     1      -7.365   1.216  -7.570  1.00  0.00    -0.273 OA
ATOM     17  H   UNL     1      -6.250  -1.551  -8.655  1.00  0.00     0.164 HD
BRANCH  15  18
ATOM     18  C   UNL     1      -6.310   0.736  -9.734  1.00  0.00     0.171 C 
BRANCH  18  19
ATOM     19  N   UNL     1      -4.934   1.213  -9.621  1.00  0.00    -0.343 N 
ATOM     20  C   UNL     1      -4.551   2.454 -10.094  1.00  0.00     0.242 CG0
ATOM     21  O   UNL     1      -5.317   3.156 -10.750  1.00  0.00    -0.273 OA
ATOM     22  H   UNL     1      -4.235   0.619  -9.188  1.00  0.00     0.164 HD
ATOM     23  G   UNL     1      -3.078   2.815  -9.814  1.00  0.00     0.000 G0
ENDBRANCH  18  19
BRANCH  18  24
ATOM     24  C   UNL     1      -6.403  -0.506 -10.629  1.00  0.00     0.038 C 
BRANCH  24  25
ATOM     25  C   UNL     1      -5.065  -1.245 -10.845  1.00  0.00    -0.015 C 
ATOM     26  C   UNL     1      -4.375  -0.838 -12.148  1.00  0.00     0.007 C 
ATOM     27  C   UNL     1      -5.306  -2.757 -10.840  1.00  0.00     0.007 C 
ENDBRANCH  24  25
ENDBRANCH  18  24
ENDBRANCH  15  18
ENDBRANCH  13  14
BRANCH  13  28
ATOM     28  C   UNL     1      -7.518  -2.937  -7.005  1.00  0.00     0.327 C 
ATOM     29  O   UNL     1      -7.152  -3.593  -7.968  1.00  0.00    -0.250 OA
BRANCH  28  30
ATOM     30  O   UNL     1      -8.422  -3.440  -6.140  1.00  0.00    -0.480 OA
ATOM     31  H   UNL     1      -9.160  -2.796  -6.160  1.00  0.00     0.296 HD
ENDBRANCH  28  30
ENDBRANCH  13  28
ENDBRANCH  11  13
ENDBRANCH   8  11
ENDBRANCH   6   7
BRANCH   6  32
ATOM     32  C   UNL     1      -8.549  -3.730  -2.318  1.00  0.00     0.037 C 
BRANCH  32  33
ATOM     33  C   UNL     1      -9.838  -3.035  -1.856  1.00  0.00     0.026 C 
BRANCH  33  34
ATOM     34  C   UNL     1      -9.605  -2.099  -0.670  1.00  0.00     0.146 C 
BRANCH  34  35
ATOM     35  N   UNL     1      -9.597  -2.885   0.556  1.00  0.00    -0.254 NA
ATOM     36  C   UNL     1     -10.535  -2.703   1.409  1.00  0.00     0.185 C 
ATOM     37  N   UNL     1     -10.540  -3.427   2.539  1.00  0.00    -0.370 N 
ATOM     38  N   UNL     1     -11.577  -1.855   1.351  1.00  0.00    -0.370 N 
ATOM     39  H   UNL     1      -9.790  -4.097   2.653  1.00  0.00     0.159 HD
ATOM     40  H   UNL     1     -11.323  -3.469   3.169  1.00  0.00     0.159 HD
ATOM     41  H   UNL     1     -12.171  -1.705   2.150  1.00  0.00     0.159 HD
ATOM     42  H   UNL     1     -11.691  -1.237   0.563  1.00  0.00     0.159 HD
ENDBRANCH  34  35
ENDBRANCH  33  34
ENDBRANCH  32  33
ENDBRANCH   6  32
ENDBRANCH   4   6
ENDBRANCH   1   2
BRANCH   1  43
ATOM     43  C   UNL     1      -3.368  -2.420   0.130  1.00  0.00     0.102 C 
ATOM     44  C   UNL     1      -1.841  -2.375   0.313  1.00  0.00     0.020 C 
BRANCH  43  45
ATOM     45  C   UNL     1      -4.155  -2.314   1.440  1.00  0.00     0.225 C 
ATOM     46  O   UNL     1      -4.496  -1.243   1.932  1.00  0.00    -0.275 OA
ATOM     47  N   UNL     1      -4.380  -3.504   2.093  1.00  0.00    -0.342 N 
ATOM     48  H   UNL     1      -4.230  -4.378   1.608  1.00  0.00     0.164 HD
BRANCH  47  49
ATOM     49  C   UNL     1      -5.150  -3.560   3.339  1.00  0.00     0.192 C 
BRANCH  49  50
ATOM     50  C   UNL     1      -4.520  -4.583   4.288  1.00  0.00     0.047 C 
BRANCH  50  51
ATOM     51  C   UNL     1      -5.338  -4.765   5.574  1.00  0.00     0.103 C 
BRANCH  51  52
ATOM     52  C   UNL     1      -5.274  -6.199   6.096  1.00  0.00     0.226 C 
ATOM     53  O   UNL     1      -4.181  -6.752   6.230  1.00  0.00    -0.275 OA
BRANCH  52  54
ATOM     54  N   UNL     1      -6.498  -6.785   6.470  1.00  0.00    -0.311 N 
ATOM     55  C   UNL     1      -7.565  -7.002   5.484  1.00  0.00     0.153 C 
BRANCH  54  56
ATOM     56  C   UNL     1      -6.743  -7.188   7.793  1.00  0.00     0.102 C 
ATOM     57  C   UNL     1      -6.737  -6.371   8.859  1.00  0.00     0.043 C 
BRANCH  56  58
ATOM     58  C   UNL     1      -7.088  -8.623   8.115  1.00  0.00     0.268 C 
ATOM     59  O   UNL     1      -8.101  -8.948   8.720  1.00  0.00    -0.268 OA
ATOM     60  N   UNL     1      -6.186  -9.524   7.602  1.00  0.00    -0.339 N 
ATOM     61  H   UNL     1      -5.367  -9.173   7.121  1.00  0.00     0.164 HD
BRANCH  60  62
ATOM     62  C   UNL     1      -6.362 -10.969   7.743  1.00  0.00     0.168 CG0
ATOM     63  C   UNL     1      -5.683 -11.717   6.602  1.00  0.00     0.041 C 
ATOM     64  G   UNL     1      -7.867 -11.303   7.795  1.00  0.00     0.000 G0
ENDBRANCH  60  62
ENDBRANCH  56  58
ENDBRANCH  54  56
ENDBRANCH  52  54
ENDBRANCH  51  52
ENDBRANCH  50  51
ENDBRANCH  49  50
BRANCH  49  65
ATOM     65  C   UNL     1      -6.617  -3.940   3.082  1.00  0.00     0.326 C 
ATOM     66  O   UNL     1      -7.592  -3.303   3.455  1.00  0.00    -0.250 OA
BRANCH  65  67
ATOM     67  O   UNL     1      -6.790  -5.113   2.435  1.00  0.00    -0.480 OA
ATOM     68  H   UNL     1      -7.021  -5.742   3.152  1.00  0.00     0.296 HD
ENDBRANCH  65  67
ENDBRANCH  49  65
ENDBRANCH  47  49
ENDBRANCH  43  45
ENDBRANCH   1  43
BRANCH   1  69
ATOM     69  C   UNL     1      -2.878  -4.299  -1.669  1.00  0.00    -0.001 C 
ATOM     70  C   UNL     1      -2.981  -4.402  -3.006  1.00  0.00     0.001 C 
BRANCH  70  71
ATOM     71  C   UNL     1      -2.022  -5.031  -3.917  1.00  0.00    -0.055 C 
ATOM     72  C   UNL     1      -2.182  -4.820  -5.240  1.00  0.00    -0.018 C 
ATOM     73  C   UNL     1      -0.920  -5.860  -3.312  1.00  0.00     0.044 C 
BRANCH  72  74
ATOM     74  C   UNL     1      -1.350  -5.336  -6.405  1.00  0.00     0.038 C 
ATOM     75  C   UNL     1      -0.119  -4.428  -6.519  1.00  0.00     0.015 C 
BRANCH  74  76
ATOM     76  C   UNL     1      -2.245  -5.384  -7.678  1.00  0.00     0.128 C 
BRANCH  76  77
ATOM     77  O   UNL     1      -3.062  -6.567  -7.659  1.00  0.00    -0.381 OA
ATOM     78  C   UNL     1      -3.934  -6.677  -8.776  1.00  0.00     0.195 C 
ENDBRANCH  76  77
BRANCH  76  79
ATOM     79  C   UNL     1      -3.066  -4.093  -7.920  1.00  0.00     0.068 C 
BRANCH  79  80
ATOM     80  C   UNL     1      -2.424  -2.986  -8.720  1.00  0.00    -0.045 A 
ATOM     81  C   UNL     1      -1.761  -3.257  -9.924  1.00  0.00     0.004 A 
ATOM     82  C   UNL     1      -2.457  -1.663  -8.252  1.00  0.00     0.004 A 
ATOM     83  C   UNL     1      -1.157  -2.229 -10.652  1.00  0.00     0.000 A 
ATOM     84  C   UNL     1      -1.852  -0.636  -8.980  1.00  0.00     0.000 A 
ATOM     85  C   UNL     1      -1.204  -0.919 -10.180  1.00  0.00     0.000 A 
ENDBRANCH  79  80
ENDBRANCH  76  79
ENDBRANCH  74  76
ENDBRANCH  72  74
ENDBRANCH  70  71
ENDBRANCH   1  69
TORSDOF 17
ENDMDL
MODEL 4
REMARK VINA RESULT:    -6.050      4.440      7.271
REMARK INTER + INTRA:         -25.751
REMARK INTER:                 -17.628
REMARK INTRA:                  -8.123
REMARK UNBOUND:                -7.676
REMARK SMILES C=C1C(=O)N[C@H](C)C(=O)N[C@@H](CC(C)C)C(=O)N[C@@H](C(=O)O)[C@H](C)C(=O)N[C@@H](CCCN=C(N)N)C(=O)N[C@@H](/C=C/C(C)=C/[C@H](C)[C@H](Cc2ccccc2)OC)[C@H](C)C(=O)N[C@@H](C(=O)O)CCC(=O)N1C
REMARK SMILES IDX 39 1 38 2 37 3 36 4 28 6 27 7 25 8 26 9 23 11 24 12 19 13
REMARK SMILES IDX 18 14 16 15 17 16 11 18 10 19 8 20 9 21 12 24 13 25 14 26
REMARK SMILES IDX 15 27 20 28 21 29 22 30 29 32 30 33 31 34 32 35 33 36 34 37
REMARK SMILES IDX 35 38 57 43 58 44 59 45 60 46 61 47 62 49 66 50 67 51 68 52
REMARK SMILES IDX 69 53 70 54 71 55 2 56 1 57 3 58 4 59 5 60 6 62 7 63 63 65
REMARK SMILES IDX 64 66 65 67 40 69 41 70 42 71 44 72 43 73 45 74 46 75 47 76
REMARK SMILES IDX 55 77 56 78 48 79 49 80 50 81 54 82 51 83 53 84 52 85
REMARK H PARENT 38 5 27 10 18 17 10 22 22 31 34 39 34 40 35 41 35 42 61 48
REMARK H PARENT 5 61 65 68
REMARK Flexibility Score:  369.900
ROOT
ATOM      1  C   UNL     1      -3.995  -2.222  -2.724  1.00  0.00     0.117 C 
ENDROOT
BRANCH   1   2
ATOM      2  N   UNL     1      -3.730  -2.392  -4.153  1.00  0.00    -0.347 N 
ATOM      3  O   UNL     1      -3.747  -0.173  -4.741  1.00  0.00    -0.273 OA
ATOM      4  C   UNL     1      -3.536  -1.345  -5.034  1.00  0.00     0.243 C 
ATOM      5  H   UNL     1      -3.631  -3.322  -4.530  1.00  0.00     0.164 HD
BRANCH   4   6
ATOM      6  C   UNL     1      -3.186  -1.799  -6.474  1.00  0.00     0.171 C 
BRANCH   6   7
ATOM      7  N   UNL     1      -2.791  -3.217  -6.484  1.00  0.00    -0.344 N 
ATOM      8  C   UNL     1      -1.534  -3.593  -6.905  1.00  0.00     0.226 C 
ATOM      9  O   UNL     1      -0.703  -2.786  -7.306  1.00  0.00    -0.275 OA
ATOM     10  H   UNL     1      -3.473  -3.918  -6.224  1.00  0.00     0.164 HD
BRANCH   8  11
ATOM     11  C   UNL     1      -1.260  -5.083  -6.805  1.00  0.00     0.109 C 
ATOM     12  C   UNL     1      -2.166  -5.714  -5.748  1.00  0.00     0.021 C 
BRANCH  11  13
ATOM     13  C   UNL     1      -1.352  -5.725  -8.204  1.00  0.00     0.204 C 
BRANCH  13  14
ATOM     14  N   UNL     1      -0.461  -6.881  -8.341  1.00  0.00    -0.340 N 
ATOM     15  C   UNL     1       0.487  -6.982  -9.335  1.00  0.00     0.243 C 
ATOM     16  O   UNL     1       0.694  -6.079 -10.144  1.00  0.00    -0.273 OA
ATOM     17  H   UNL     1      -0.680  -7.723  -7.801  1.00  0.00     0.164 HD
BRANCH  15  18
ATOM     18  C   UNL     1       1.163  -8.373  -9.407  1.00  0.00     0.171 C 
BRANCH  18  19
ATOM     19  N   UNL     1       0.314  -9.207 -10.255  1.00  0.00    -0.343 N 
ATOM     20  C   UNL     1      -0.130 -10.449  -9.843  1.00  0.00     0.242 CG0
ATOM     21  O   UNL     1       0.275 -10.966  -8.805  1.00  0.00    -0.273 OA
ATOM     22  H   UNL     1       0.046  -8.873 -11.173  1.00  0.00     0.164 HD
ATOM     23  G   UNL     1      -1.080 -11.148 -10.839  1.00  0.00     0.000 G0
ENDBRANCH  18  19
BRANCH  18  24
ATOM     24  C   UNL     1       2.583  -8.256  -9.975  1.00  0.00     0.038 C 
BRANCH  24  25
ATOM     25  C   UNL     1       3.652  -9.066  -9.210  1.00  0.00    -0.015 C 
ATOM     26  C   UNL     1       4.998  -8.344  -9.148  1.00  0.00     0.007 C 
ATOM     27  C   UNL     1       3.831 -10.435  -9.870  1.00  0.00     0.007 C 
ENDBRANCH  24  25
ENDBRANCH  18  24
ENDBRANCH  15  18
ENDBRANCH  13  14
BRANCH  13  28
ATOM     28  C   UNL     1      -2.765  -6.197  -8.560  1.00  0.00     0.327 C 
ATOM     29  O   UNL     1      -3.775  -5.510  -8.571  1.00  0.00    -0.250 OA
BRANCH  28  30
ATOM     30  O   UNL     1      -2.843  -7.527  -8.764  1.00  0.00    -0.480 OA
ATOM     31  H   UNL     1      -3.060  -7.894  -7.882  1.00  0.00     0.296 HD
ENDBRANCH  28  30
ENDBRANCH  13  28
ENDBRANCH  11  13
ENDBRANCH   8  11
ENDBRANCH   6   7
BRANCH   6  32
ATOM     32  C   UNL     1      -4.396  -1.561  -7.384  1.00  0.00     0.037 C 
BRANCH  32  33
ATOM     33  C   UNL     1      -4.027  -0.759  -8.640  1.00  0.00     0.026 C 
BRANCH  33  34
ATOM     34  C   UNL     1      -4.063  -1.610  -9.910  1.00  0.00     0.146 C 
BRANCH  34  35
ATOM     35  N   UNL     1      -2.962  -2.562  -9.868  1.00  0.00    -0.254 NA
ATOM     36  C   UNL     1      -1.903  -2.308 -10.543  1.00  0.00     0.185 C 
ATOM     37  N   UNL     1      -0.881  -3.177 -10.508  1.00  0.00    -0.370 N 
ATOM     38  N   UNL     1      -1.635  -1.248 -11.326  1.00  0.00    -0.370 N 
ATOM     39  H   UNL     1      -1.002  -3.998  -9.929  1.00  0.00     0.159 HD
ATOM     40  H   UNL     1       0.037  -2.970 -10.862  1.00  0.00     0.159 HD
ATOM     41  H   UNL     1      -0.819  -1.230 -11.916  1.00  0.00     0.159 HD
ATOM     42  H   UNL     1      -2.321  -0.522 -11.458  1.00  0.00     0.159 HD
ENDBRANCH  34  35
ENDBRANCH  33  34
ENDBRANCH  32  33
ENDBRANCH   6  32
ENDBRANCH   4   6
ENDBRANCH   1   2
BRANCH   1  43
ATOM     43  C   UNL     1      -2.896  -2.977  -1.923  1.00  0.00     0.102 C 
ATOM     44  C   UNL     1      -2.304  -4.178  -2.680  1.00  0.00     0.020 C 
BRANCH  43  45
ATOM     45  C   UNL     1      -3.378  -3.311  -0.508  1.00  0.00     0.225 C 
ATOM     46  O   UNL     1      -3.671  -4.449  -0.150  1.00  0.00    -0.275 OA
ATOM     47  N   UNL     1      -3.556  -2.232   0.327  1.00  0.00    -0.342 N 
ATOM     48  H   UNL     1      -3.171  -1.334   0.072  1.00  0.00     0.164 HD
BRANCH  47  49
ATOM     49  C   UNL     1      -3.979  -2.403   1.720  1.00  0.00     0.192 C 
BRANCH  49  50
ATOM     50  C   UNL     1      -5.191  -1.512   2.003  1.00  0.00     0.047 C 
BRANCH  50  51
ATOM     51  C   UNL     1      -5.499  -0.562   0.838  1.00  0.00     0.103 C 
BRANCH  51  52
ATOM     52  C   UNL     1      -5.250   0.899   1.207  1.00  0.00     0.226 C 
ATOM     53  O   UNL     1      -4.548   1.170   2.183  1.00  0.00    -0.275 OA
BRANCH  52  54
ATOM     54  N   UNL     1      -5.793   1.866   0.340  1.00  0.00    -0.311 N 
ATOM     55  C   UNL     1      -4.956   2.534  -0.666  1.00  0.00     0.153 C 
BRANCH  54  56
ATOM     56  C   UNL     1      -7.150   2.224   0.400  1.00  0.00     0.102 C 
ATOM     57  C   UNL     1      -8.046   2.003  -0.575  1.00  0.00     0.043 C 
BRANCH  56  58
ATOM     58  C   UNL     1      -7.727   2.869   1.638  1.00  0.00     0.268 C 
ATOM     59  O   UNL     1      -8.379   2.255   2.471  1.00  0.00    -0.268 OA
ATOM     60  N   UNL     1      -7.389   4.196   1.763  1.00  0.00    -0.339 N 
ATOM     61  H   UNL     1      -6.854   4.634   1.023  1.00  0.00     0.164 HD
BRANCH  60  62
ATOM     62  C   UNL     1      -7.791   4.996   2.919  1.00  0.00     0.168 CG0
ATOM     63  C   UNL     1      -9.109   5.715   2.655  1.00  0.00     0.041 C 
ATOM     64  G   UNL     1      -6.677   6.007   3.260  1.00  0.00     0.000 G0
ENDBRANCH  60  62
ENDBRANCH  56  58
ENDBRANCH  54  56
ENDBRANCH  52  54
ENDBRANCH  51  52
ENDBRANCH  50  51
ENDBRANCH  49  50
BRANCH  49  65
ATOM     65  C   UNL     1      -2.850  -2.054   2.702  1.00  0.00     0.326 C 
ATOM     66  O   UNL     1      -1.837  -2.714   2.884  1.00  0.00    -0.250 OA
BRANCH  65  67
ATOM     67  O   UNL     1      -3.069  -0.945   3.443  1.00  0.00    -0.480 OA
ATOM     68  H   UNL     1      -2.688  -0.224   2.897  1.00  0.00     0.296 HD
ENDBRANCH  65  67
ENDBRANCH  49  65
ENDBRANCH  47  49
ENDBRANCH  43  45
ENDBRANCH   1  43
BRANCH   1  69
ATOM     69  C   UNL     1      -5.449  -2.603  -2.514  1.00  0.00    -0.001 C 
ATOM     70  C   UNL     1      -6.509  -1.778  -2.446  1.00  0.00     0.001 C 
BRANCH  70  71
ATOM     71  C   UNL     1      -7.911  -2.160  -2.264  1.00  0.00    -0.055 C 
ATOM     72  C   UNL     1      -8.850  -1.212  -2.462  1.00  0.00    -0.018 C 
ATOM     73  C   UNL     1      -8.205  -3.586  -1.877  1.00  0.00     0.044 C 
BRANCH  72  74
ATOM     74  C   UNL     1     -10.364  -1.318  -2.350  1.00  0.00     0.038 C 
ATOM     75  C   UNL     1     -10.901  -1.637  -3.751  1.00  0.00     0.015 C 
BRANCH  74  76
ATOM     76  C   UNL     1     -10.914  -0.003  -1.724  1.00  0.00     0.128 C 
BRANCH  76  77
ATOM     77  O   UNL     1     -12.068   0.444  -2.455  1.00  0.00    -0.381 OA
ATOM     78  C   UNL     1     -13.185   0.748  -1.630  1.00  0.00     0.195 C 
ENDBRANCH  76  77
BRANCH  76  79
ATOM     79  C   UNL     1     -11.168  -0.090  -0.198  1.00  0.00     0.068 C 
BRANCH  79  80
ATOM     80  C   UNL     1     -10.584  -1.263   0.550  1.00  0.00    -0.045 A 
ATOM     81  C   UNL     1      -9.269  -1.231   1.032  1.00  0.00     0.004 A 
ATOM     82  C   UNL     1     -11.347  -2.424   0.751  1.00  0.00     0.004 A 
ATOM     83  C   UNL     1      -8.731  -2.326   1.711  1.00  0.00     0.000 A 
ATOM     84  C   UNL     1     -10.808  -3.520   1.429  1.00  0.00     0.000 A 
ATOM     85  C   UNL     1      -9.501  -3.470   1.910  1.00  0.00     0.000 A 
ENDBRANCH  79  80
ENDBRANCH  76  79
ENDBRANCH  74  76
ENDBRANCH  72  74
ENDBRANCH  70  71
ENDBRANCH   1  69
TORSDOF 17
ENDMDL
MODEL 5
REMARK VINA RESULT:    -6.024      2.715      6.128
REMARK INTER + INTRA:         -25.674
REMARK INTER:                 -18.769
REMARK INTRA:                  -6.905
REMARK UNBOUND:                -7.676
REMARK SMILES C=C1C(=O)N[C@H](C)C(=O)N[C@@H](CC(C)C)C(=O)N[C@@H](C(=O)O)[C@H](C)C(=O)N[C@@H](CCCN=C(N)N)C(=O)N[C@@H](/C=C/C(C)=C/[C@H](C)[C@H](Cc2ccccc2)OC)[C@H](C)C(=O)N[C@@H](C(=O)O)CCC(=O)N1C
REMARK SMILES IDX 39 1 38 2 37 3 36 4 28 6 27 7 25 8 26 9 23 11 24 12 19 13
REMARK SMILES IDX 18 14 16 15 17 16 11 18 10 19 8 20 9 21 12 24 13 25 14 26
REMARK SMILES IDX 15 27 20 28 21 29 22 30 29 32 30 33 31 34 32 35 33 36 34 37
REMARK SMILES IDX 35 38 57 43 58 44 59 45 60 46 61 47 62 49 66 50 67 51 68 52
REMARK SMILES IDX 69 53 70 54 71 55 2 56 1 57 3 58 4 59 5 60 6 62 7 63 63 65
REMARK SMILES IDX 64 66 65 67 40 69 41 70 42 71 44 72 43 73 45 74 46 75 47 76
REMARK SMILES IDX 55 77 56 78 48 79 49 80 50 81 54 82 51 83 53 84 52 85
REMARK H PARENT 38 5 27 10 18 17 10 22 22 31 34 39 34 40 35 41 35 42 61 48
REMARK H PARENT 5 61 65 68
REMARK Flexibility Score:  369.900
ROOT
ATOM      1  C   UNL     1      -7.121  -2.547  -6.195  1.00  0.00     0.117 C 
ENDROOT
BRANCH   1   2
ATOM      2  N   UNL     1      -6.021  -2.329  -7.134  1.00  0.00    -0.347 N 
ATOM      3  O   UNL     1      -6.618  -3.911  -8.687  1.00  0.00    -0.273 OA
ATOM      4  C   UNL     1      -5.908  -2.969  -8.354  1.00  0.00     0.243 C 
ATOM      5  H   UNL     1      -5.317  -1.639  -6.920  1.00  0.00     0.164 HD
BRANCH   4   6
ATOM      6  C   UNL     1      -4.696  -2.495  -9.196  1.00  0.00     0.171 C 
BRANCH   6   7
ATOM      7  N   UNL     1      -3.493  -2.395  -8.354  1.00  0.00    -0.344 N 
ATOM      8  C   UNL     1      -2.926  -1.168  -8.082  1.00  0.00     0.226 C 
ATOM      9  O   UNL     1      -3.370  -0.120  -8.536  1.00  0.00    -0.275 OA
ATOM     10  H   UNL     1      -3.058  -3.244  -8.016  1.00  0.00     0.164 HD
BRANCH   8  11
ATOM     11  C   UNL     1      -1.724  -1.227  -7.156  1.00  0.00     0.109 C 
ATOM     12  C   UNL     1      -1.247  -2.671  -7.002  1.00  0.00     0.021 C 
BRANCH  11  13
ATOM     13  C   UNL     1      -0.645  -0.236  -7.638  1.00  0.00     0.204 C 
BRANCH  13  14
ATOM     14  N   UNL     1      -0.634  -0.100  -9.098  1.00  0.00    -0.340 N 
ATOM     15  C   UNL     1       0.410  -0.538  -9.883  1.00  0.00     0.243 C 
ATOM     16  O   UNL     1       1.382  -1.131  -9.419  1.00  0.00    -0.273 OA
ATOM     17  H   UNL     1      -1.333   0.513  -9.528  1.00  0.00     0.164 HD
BRANCH  15  18
ATOM     18  C   UNL     1       0.295  -0.102 -11.365  1.00  0.00     0.171 C 
BRANCH  18  19
ATOM     19  N   UNL     1       1.654  -0.091 -11.904  1.00  0.00    -0.343 N 
ATOM     20  C   UNL     1       2.320   1.088 -12.177  1.00  0.00     0.242 CG0
ATOM     21  O   UNL     1       1.756   2.177 -12.105  1.00  0.00    -0.273 OA
ATOM     22  H   UNL     1       2.122  -0.971 -12.090  1.00  0.00     0.164 HD
ATOM     23  G   UNL     1       3.772   0.900 -12.665  1.00  0.00     0.000 G0
ENDBRANCH  18  19
BRANCH  18  24
ATOM     24  C   UNL     1      -0.611  -1.063 -12.144  1.00  0.00     0.038 C 
BRANCH  24  25
ATOM     25  C   UNL     1      -1.758  -0.381 -12.918  1.00  0.00    -0.015 C 
ATOM     26  C   UNL     1      -1.451   1.078 -13.255  1.00  0.00     0.007 C 
ATOM     27  C   UNL     1      -3.050  -0.460 -12.100  1.00  0.00     0.007 C 
ENDBRANCH  24  25
ENDBRANCH  18  24
ENDBRANCH  15  18
ENDBRANCH  13  14
BRANCH  13  28
ATOM     28  C   UNL     1      -0.811   1.169  -7.052  1.00  0.00     0.327 C 
ATOM     29  O   UNL     1      -0.665   2.224  -7.652  1.00  0.00    -0.250 OA
BRANCH  28  30
ATOM     30  O   UNL     1      -1.032   1.165  -5.722  1.00  0.00    -0.480 OA
ATOM     31  H   UNL     1      -2.008   1.132  -5.640  1.00  0.00     0.296 HD
ENDBRANCH  28  30
ENDBRANCH  13  28
ENDBRANCH  11  13
ENDBRANCH   8  11
ENDBRANCH   6   7
BRANCH   6  32
ATOM     32  C   UNL     1      -4.473  -3.475 -10.353  1.00  0.00     0.037 C 
BRANCH  32  33
ATOM     33  C   UNL     1      -3.004  -3.900 -10.478  1.00  0.00     0.026 C 
BRANCH  33  34
ATOM     34  C   UNL     1      -2.826  -5.418 -10.412  1.00  0.00     0.146 C 
BRANCH  34  35
ATOM     35  N   UNL     1      -2.312  -5.774  -9.097  1.00  0.00    -0.254 NA
ATOM     36  C   UNL     1      -1.056  -5.989  -8.965  1.00  0.00     0.185 C 
ATOM     37  N   UNL     1      -0.571  -6.313  -7.757  1.00  0.00    -0.370 N 
ATOM     38  N   UNL     1      -0.089  -5.938  -9.898  1.00  0.00    -0.370 N 
ATOM     39  H   UNL     1      -1.239  -6.361  -6.998  1.00  0.00     0.159 HD
ATOM     40  H   UNL     1       0.410  -6.325  -7.536  1.00  0.00     0.159 HD
ATOM     41  H   UNL     1       0.843  -6.264  -9.700  1.00  0.00     0.159 HD
ATOM     42  H   UNL     1      -0.311  -5.721 -10.857  1.00  0.00     0.159 HD
ENDBRANCH  34  35
ENDBRANCH  33  34
ENDBRANCH  32  33
ENDBRANCH   6  32
ENDBRANCH   4   6
ENDBRANCH   1   2
BRANCH   1  43
ATOM     43  C   UNL     1      -8.306  -1.622  -6.598  1.00  0.00     0.102 C 
ATOM     44  C   UNL     1      -7.906  -0.145  -6.749  1.00  0.00     0.020 C 
BRANCH  43  45
ATOM     45  C   UNL     1      -9.515  -1.847  -5.685  1.00  0.00     0.225 C 
ATOM     46  O   UNL     1      -9.896  -1.022  -4.860  1.00  0.00    -0.275 OA
ATOM     47  N   UNL     1     -10.104  -3.088  -5.778  1.00  0.00    -0.342 N 
ATOM     48  H   UNL     1      -9.880  -3.691  -6.557  1.00  0.00     0.164 HD
BRANCH  47  49
ATOM     49  C   UNL     1     -11.292  -3.432  -4.991  1.00  0.00     0.192 C 
BRANCH  49  50
ATOM     50  C   UNL     1     -10.865  -4.109  -3.686  1.00  0.00     0.047 C 
BRANCH  50  51
ATOM     51  C   UNL     1     -11.029  -3.186  -2.471  1.00  0.00     0.103 C 
BRANCH  51  52
ATOM     52  C   UNL     1     -11.738  -3.883  -1.312  1.00  0.00     0.226 C 
ATOM     53  O   UNL     1     -12.950  -4.097  -1.378  1.00  0.00    -0.275 OA
BRANCH  52  54
ATOM     54  N   UNL     1     -10.925  -4.315  -0.247  1.00  0.00    -0.311 N 
ATOM     55  C   UNL     1     -10.184  -5.581  -0.327  1.00  0.00     0.153 C 
BRANCH  54  56
ATOM     56  C   UNL     1     -10.786  -3.552   0.924  1.00  0.00     0.102 C 
ATOM     57  C   UNL     1     -10.448  -2.252   0.959  1.00  0.00     0.043 C 
BRANCH  56  58
ATOM     58  C   UNL     1     -11.062  -4.157   2.280  1.00  0.00     0.268 C 
ATOM     59  O   UNL     1     -12.167  -4.557   2.622  1.00  0.00    -0.268 OA
ATOM     60  N   UNL     1      -9.937  -4.270   3.061  1.00  0.00    -0.339 N 
ATOM     61  H   UNL     1      -9.060  -3.905   2.708  1.00  0.00     0.164 HD
BRANCH  60  62
ATOM     62  C   UNL     1      -9.967  -4.886   4.387  1.00  0.00     0.168 CG0
ATOM     63  C   UNL     1     -10.147  -3.834   5.474  1.00  0.00     0.041 C 
ATOM     64  G   UNL     1      -8.671  -5.690   4.614  1.00  0.00     0.000 G0
ENDBRANCH  60  62
ENDBRANCH  56  58
ENDBRANCH  54  56
ENDBRANCH  52  54
ENDBRANCH  51  52
ENDBRANCH  50  51
ENDBRANCH  49  50
BRANCH  49  65
ATOM     65  C   UNL     1     -12.233  -4.368  -5.765  1.00  0.00     0.326 C 
ATOM     66  O   UNL     1     -12.488  -5.526  -5.467  1.00  0.00    -0.250 OA
BRANCH  65  67
ATOM     67  O   UNL     1     -12.755  -3.836  -6.893  1.00  0.00    -0.480 OA
ATOM     68  H   UNL     1     -12.087  -4.049  -7.579  1.00  0.00     0.296 HD
ENDBRANCH  65  67
ENDBRANCH  49  65
ENDBRANCH  47  49
ENDBRANCH  43  45
ENDBRANCH   1  43
BRANCH   1  69
ATOM     69  C   UNL     1      -6.526  -2.412  -4.805  1.00  0.00    -0.001 C 
ATOM     70  C   UNL     1      -7.116  -2.699  -3.632  1.00  0.00     0.001 C 
BRANCH  70  71
ATOM     71  C   UNL     1      -6.523  -2.586  -2.298  1.00  0.00    -0.055 C 
ATOM     72  C   UNL     1      -5.192  -2.375  -2.218  1.00  0.00    -0.018 C 
ATOM     73  C   UNL     1      -7.441  -2.704  -1.109  1.00  0.00     0.044 C 
BRANCH  72  74
ATOM     74  C   UNL     1      -4.314  -2.214  -0.985  1.00  0.00     0.038 C 
ATOM     75  C   UNL     1      -3.452  -0.965  -1.203  1.00  0.00     0.015 C 
BRANCH  74  76
ATOM     76  C   UNL     1      -3.513  -3.531  -0.767  1.00  0.00     0.128 C 
BRANCH  76  77
ATOM     77  O   UNL     1      -3.813  -4.079   0.528  1.00  0.00    -0.381 OA
ATOM     78  C   UNL     1      -4.920  -4.971   0.528  1.00  0.00     0.195 C 
ENDBRANCH  76  77
BRANCH  76  79
ATOM     79  C   UNL     1      -3.678  -4.566  -1.908  1.00  0.00     0.068 C 
BRANCH  79  80
ATOM     80  C   UNL     1      -2.428  -5.083  -2.580  1.00  0.00    -0.045 A 
ATOM     81  C   UNL     1      -2.099  -4.699  -3.886  1.00  0.00     0.004 A 
ATOM     82  C   UNL     1      -1.587  -5.985  -1.910  1.00  0.00     0.004 A 
ATOM     83  C   UNL     1      -0.949  -5.193  -4.505  1.00  0.00     0.000 A 
ATOM     84  C   UNL     1      -0.438  -6.479  -2.530  1.00  0.00     0.000 A 
ATOM     85  C   UNL     1      -0.118  -6.082  -3.826  1.00  0.00     0.000 A 
ENDBRANCH  79  80
ENDBRANCH  76  79
ENDBRANCH  74  76
ENDBRANCH  72  74
ENDBRANCH  70  71
ENDBRANCH   1  69
TORSDOF 17
ENDMDL
MODEL 6
REMARK VINA RESULT:    -6.014      1.468      2.838
REMARK INTER + INTRA:         -25.645
REMARK INTER:                 -19.064
REMARK INTRA:                  -6.580
REMARK UNBOUND:                -7.676
REMARK SMILES C=C1C(=O)N[C@H](C)C(=O)N[C@@H](CC(C)C)C(=O)N[C@@H](C(=O)O)[C@H](C)C(=O)N[C@@H](CCCN=C(N)N)C(=O)N[C@@H](/C=C/C(C)=C/[C@H](C)[C@H](Cc2ccccc2)OC)[C@H](C)C(=O)N[C@@H](C(=O)O)CCC(=O)N1C
REMARK SMILES IDX 39 1 38 2 37 3 36 4 28 6 27 7 25 8 26 9 23 11 24 12 19 13
REMARK SMILES IDX 18 14 16 15 17 16 11 18 10 19 8 20 9 21 12 24 13 25 14 26
REMARK SMILES IDX 15 27 20 28 21 29 22 30 29 32 30 33 31 34 32 35 33 36 34 37
REMARK SMILES IDX 35 38 57 43 58 44 59 45 60 46 61 47 62 49 66 50 67 51 68 52
REMARK SMILES IDX 69 53 70 54 71 55 2 56 1 57 3 58 4 59 5 60 6 62 7 63 63 65
REMARK SMILES IDX 64 66 65 67 40 69 41 70 42 71 44 72 43 73 45 74 46 75 47 76
REMARK SMILES IDX 55 77 56 78 48 79 49 80 50 81 54 82 51 83 53 84 52 85
REMARK H PARENT 38 5 27 10 18 17 10 22 22 31 34 39 34 40 35 41 35 42 61 48
REMARK H PARENT 5 61 65 68
REMARK Flexibility Score:  369.900
ROOT
ATOM      1  C   UNL     1      -3.112  -3.044  -3.265  1.00  0.00     0.117 C 
ENDROOT
BRANCH   1   2
ATOM      2  N   UNL     1      -2.784  -3.472  -4.626  1.00  0.00    -0.347 N 
ATOM      3  O   UNL     1      -2.893  -1.413  -5.636  1.00  0.00    -0.273 OA
ATOM      4  C   UNL     1      -2.611  -2.606  -5.688  1.00  0.00     0.243 C 
ATOM      5  H   UNL     1      -2.623  -4.450  -4.811  1.00  0.00     0.164 HD
BRANCH   4   6
ATOM      6  C   UNL     1      -2.183  -3.308  -7.001  1.00  0.00     0.171 C 
BRANCH   6   7
ATOM      7  N   UNL     1      -1.852  -2.313  -8.033  1.00  0.00    -0.344 N 
ATOM      8  C   UNL     1      -2.214  -2.516  -9.347  1.00  0.00     0.226 C 
ATOM      9  O   UNL     1      -2.797  -3.525  -9.723  1.00  0.00    -0.275 OA
ATOM     10  H   UNL     1      -1.311  -1.497  -7.773  1.00  0.00     0.164 HD
BRANCH   8  11
ATOM     11  C   UNL     1      -1.850  -1.374 -10.280  1.00  0.00     0.109 C 
ATOM     12  C   UNL     1      -3.117  -0.697 -10.802  1.00  0.00     0.021 C 
BRANCH  11  13
ATOM     13  C   UNL     1      -0.851  -0.429  -9.583  1.00  0.00     0.204 C 
BRANCH  13  14
ATOM     14  N   UNL     1       0.217   0.009 -10.487  1.00  0.00    -0.340 N 
ATOM     15  C   UNL     1       1.538   0.087 -10.102  1.00  0.00     0.243 C 
ATOM     16  O   UNL     1       1.924  -0.265  -8.989  1.00  0.00    -0.273 OA
ATOM     17  H   UNL     1      -0.052   0.456 -11.367  1.00  0.00     0.164 HD
BRANCH  15  18
ATOM     18  C   UNL     1       2.449   0.770 -11.152  1.00  0.00     0.171 C 
BRANCH  18  19
ATOM     19  N   UNL     1       1.650   0.915 -12.368  1.00  0.00    -0.343 N 
ATOM     20  C   UNL     1       2.153   0.589 -13.613  1.00  0.00     0.242 CG0
ATOM     21  O   UNL     1       3.334   0.289 -13.771  1.00  0.00    -0.273 OA
ATOM     22  H   UNL     1       0.703   1.270 -12.301  1.00  0.00     0.164 HD
ATOM     23  G   UNL     1       1.139   0.733 -14.766  1.00  0.00     0.000 G0
ENDBRANCH  18  19
BRANCH  18  24
ATOM     24  C   UNL     1       2.942   2.129 -10.638  1.00  0.00     0.038 C 
BRANCH  24  25
ATOM     25  C   UNL     1       4.441   2.173 -10.271  1.00  0.00    -0.015 C 
ATOM     26  C   UNL     1       5.091   3.510 -10.625  1.00  0.00     0.007 C 
ATOM     27  C   UNL     1       5.179   1.036 -10.983  1.00  0.00     0.007 C 
ENDBRANCH  24  25
ENDBRANCH  18  24
ENDBRANCH  15  18
ENDBRANCH  13  14
BRANCH  13  28
ATOM     28  C   UNL     1      -1.509   0.831  -9.012  1.00  0.00     0.327 C 
ATOM     29  O   UNL     1      -1.423   1.961  -9.469  1.00  0.00    -0.250 OA
BRANCH  28  30
ATOM     30  O   UNL     1      -2.136   0.615  -7.838  1.00  0.00    -0.480 OA
ATOM     31  H   UNL     1      -2.848  -0.021  -8.059  1.00  0.00     0.296 HD
ENDBRANCH  28  30
ENDBRANCH  13  28
ENDBRANCH  11  13
ENDBRANCH   8  11
ENDBRANCH   6   7
BRANCH   6  32
ATOM     32  C   UNL     1      -0.985  -4.221  -6.717  1.00  0.00     0.037 C 
BRANCH  32  33
ATOM     33  C   UNL     1      -1.219  -5.655  -7.211  1.00  0.00     0.026 C 
BRANCH  33  34
ATOM     34  C   UNL     1      -0.773  -5.855  -8.660  1.00  0.00     0.146 C 
BRANCH  34  35
ATOM     35  N   UNL     1      -1.310  -7.118  -9.147  1.00  0.00    -0.254 NA
ATOM     36  C   UNL     1      -2.555  -7.182  -9.442  1.00  0.00     0.185 C 
ATOM     37  N   UNL     1      -3.061  -8.339  -9.897  1.00  0.00    -0.370 N 
ATOM     38  N   UNL     1      -3.493  -6.221  -9.366  1.00  0.00    -0.370 N 
ATOM     39  H   UNL     1      -2.413  -9.111  -9.992  1.00  0.00     0.159 HD
ATOM     40  H   UNL     1      -3.974  -8.424 -10.309  1.00  0.00     0.159 HD
ATOM     41  H   UNL     1      -4.468  -6.433  -9.494  1.00  0.00     0.159 HD
ATOM     42  H   UNL     1      -3.258  -5.302  -9.024  1.00  0.00     0.159 HD
ENDBRANCH  34  35
ENDBRANCH  33  34
ENDBRANCH  32  33
ENDBRANCH   6  32
ENDBRANCH   4   6
ENDBRANCH   1   2
BRANCH   1  43
ATOM     43  C   UNL     1      -2.309  -3.922  -2.263  1.00  0.00     0.102 C 
ATOM     44  C   UNL     1      -1.923  -5.299  -2.829  1.00  0.00     0.020 C 
BRANCH  43  45
ATOM     45  C   UNL     1      -3.009  -3.983  -0.902  1.00  0.00     0.225 C 
ATOM     46  O   UNL     1      -3.589  -4.984  -0.490  1.00  0.00    -0.275 OA
ATOM     47  N   UNL     1      -3.030  -2.804  -0.193  1.00  0.00    -0.342 N 
ATOM     48  H   UNL     1      -2.426  -2.043  -0.470  1.00  0.00     0.164 HD
BRANCH  47  49
ATOM     49  C   UNL     1      -3.634  -2.722   1.140  1.00  0.00     0.192 C 
BRANCH  49  50
ATOM     50  C   UNL     1      -5.000  -2.037   1.046  1.00  0.00     0.047 C 
BRANCH  50  51
ATOM     51  C   UNL     1      -6.155  -2.996   1.365  1.00  0.00     0.103 C 
BRANCH  51  52
ATOM     52  C   UNL     1      -6.286  -3.257   2.864  1.00  0.00     0.226 C 
ATOM     53  O   UNL     1      -6.709  -2.366   3.604  1.00  0.00    -0.275 OA
BRANCH  52  54
ATOM     54  N   UNL     1      -5.977  -4.558   3.303  1.00  0.00    -0.311 N 
ATOM     55  C   UNL     1      -6.224  -5.724   2.445  1.00  0.00     0.153 C 
BRANCH  54  56
ATOM     56  C   UNL     1      -5.416  -4.789   4.570  1.00  0.00     0.102 C 
ATOM     57  C   UNL     1      -4.184  -4.410   4.947  1.00  0.00     0.043 C 
BRANCH  56  58
ATOM     58  C   UNL     1      -6.214  -5.470   5.658  1.00  0.00     0.268 C 
ATOM     59  O   UNL     1      -7.407  -5.268   5.840  1.00  0.00    -0.268 OA
ATOM     60  N   UNL     1      -5.479  -6.385   6.374  1.00  0.00    -0.339 N 
ATOM     61  H   UNL     1      -4.493  -6.487   6.167  1.00  0.00     0.164 HD
BRANCH  60  62
ATOM     62  C   UNL     1      -6.071  -7.203   7.432  1.00  0.00     0.168 CG0
ATOM     63  C   UNL     1      -6.060  -6.464   8.764  1.00  0.00     0.041 C 
ATOM     64  G   UNL     1      -5.308  -8.539   7.541  1.00  0.00     0.000 G0
ENDBRANCH  60  62
ENDBRANCH  56  58
ENDBRANCH  54  56
ENDBRANCH  52  54
ENDBRANCH  51  52
ENDBRANCH  50  51
ENDBRANCH  49  50
BRANCH  49  65
ATOM     65  C   UNL     1      -2.741  -1.944   2.119  1.00  0.00     0.326 C 
ATOM     66  O   UNL     1      -2.688  -0.727   2.219  1.00  0.00    -0.250 OA
BRANCH  65  67
ATOM     67  O   UNL     1      -1.925  -2.714   2.873  1.00  0.00    -0.480 OA
ATOM     68  H   UNL     1      -1.031  -2.520   2.518  1.00  0.00     0.296 HD
ENDBRANCH  65  67
ENDBRANCH  49  65
ENDBRANCH  47  49
ENDBRANCH  43  45
ENDBRANCH   1  43
BRANCH   1  69
ATOM     69  C   UNL     1      -4.627  -3.031  -3.178  1.00  0.00    -0.001 C 
ATOM     70  C   UNL     1      -5.413  -2.024  -2.757  1.00  0.00     0.001 C 
BRANCH  70  71
ATOM     71  C   UNL     1      -6.876  -2.016  -2.698  1.00  0.00    -0.055 C 
ATOM     72  C   UNL     1      -7.546  -2.712  -3.640  1.00  0.00    -0.018 C 
ATOM     73  C   UNL     1      -7.530  -1.238  -1.586  1.00  0.00     0.044 C 
BRANCH  72  74
ATOM     74  C   UNL     1      -9.047  -2.885  -3.825  1.00  0.00     0.038 C 
ATOM     75  C   UNL     1      -9.390  -4.325  -3.425  1.00  0.00     0.015 C 
BRANCH  74  76
ATOM     76  C   UNL     1      -9.419  -2.507  -5.289  1.00  0.00     0.128 C 
BRANCH  76  77
ATOM     77  O   UNL     1     -10.788  -2.074  -5.352  1.00  0.00    -0.381 OA
ATOM     78  C   UNL     1     -11.689  -3.088  -5.773  1.00  0.00     0.195 C 
ENDBRANCH  76  77
BRANCH  76  79
ATOM     79  C   UNL     1      -8.440  -1.502  -5.947  1.00  0.00     0.068 C 
BRANCH  79  80
ATOM     80  C   UNL     1      -7.682  -1.952  -7.173  1.00  0.00    -0.045 A 
ATOM     81  C   UNL     1      -6.338  -2.338  -7.089  1.00  0.00     0.004 A 
ATOM     82  C   UNL     1      -8.310  -1.963  -8.428  1.00  0.00     0.004 A 
ATOM     83  C   UNL     1      -5.640  -2.740  -8.230  1.00  0.00     0.000 A 
ATOM     84  C   UNL     1      -7.611  -2.365  -9.568  1.00  0.00     0.000 A 
ATOM     85  C   UNL     1      -6.277  -2.754  -9.469  1.00  0.00     0.000 A 
ENDBRANCH  79  80
ENDBRANCH  76  79
ENDBRANCH  74  76
ENDBRANCH  72  74
ENDBRANCH  70  71
ENDBRANCH   1  69
TORSDOF 17
ENDMDL
MODEL 7
REMARK VINA RESULT:    -5.995      3.469      6.768
REMARK INTER + INTRA:         -25.587
REMARK INTER:                 -16.486
REMARK INTRA:                  -9.100
REMARK UNBOUND:                -7.676
REMARK SMILES C=C1C(=O)N[C@H](C)C(=O)N[C@@H](CC(C)C)C(=O)N[C@@H](C(=O)O)[C@H](C)C(=O)N[C@@H](CCCN=C(N)N)C(=O)N[C@@H](/C=C/C(C)=C/[C@H](C)[C@H](Cc2ccccc2)OC)[C@H](C)C(=O)N[C@@H](C(=O)O)CCC(=O)N1C
REMARK SMILES IDX 39 1 38 2 37 3 36 4 28 6 27 7 25 8 26 9 23 11 24 12 19 13
REMARK SMILES IDX 18 14 16 15 17 16 11 18 10 19 8 20 9 21 12 24 13 25 14 26
REMARK SMILES IDX 15 27 20 28 21 29 22 30 29 32 30 33 31 34 32 35 33 36 34 37
REMARK SMILES IDX 35 38 57 43 58 44 59 45 60 46 61 47 62 49 66 50 67 51 68 52
REMARK SMILES IDX 69 53 70 54 71 55 2 56 1 57 3 58 4 59 5 60 6 62 7 63 63 65
REMARK SMILES IDX 64 66 65 67 40 69 41 70 42 71 44 72 43 73 45 74 46 75 47 76
REMARK SMILES IDX 55 77 56 78 48 79 49 80 50 81 54 82 51 83 53 84 52 85
REMARK H PARENT 38 5 27 10 18 17 10 22 22 31 34 39 34 40 35 41 35 42 61 48
REMARK H PARENT 5 61 65 68
REMARK Flexibility Score:  369.900
ROOT
ATOM      1  C   UNL     1      -3.538  -2.419  -0.046  1.00  0.00     0.117 C 
ENDROOT
BRANCH   1   2
ATOM      2  N   UNL     1      -4.143  -1.395  -0.899  1.00  0.00    -0.347 N 
ATOM      3  O   UNL     1      -6.114  -1.153   0.254  1.00  0.00    -0.273 OA
ATOM      4  C   UNL     1      -5.348  -0.777  -0.628  1.00  0.00     0.243 C 
ATOM      5  H   UNL     1      -3.644  -1.072  -1.714  1.00  0.00     0.164 HD
BRANCH   4   6
ATOM      6  C   UNL     1      -5.722   0.333  -1.643  1.00  0.00     0.171 C 
BRANCH   6   7
ATOM      7  N   UNL     1      -5.962  -0.248  -2.974  1.00  0.00    -0.344 N 
ATOM      8  C   UNL     1      -4.928  -0.393  -3.874  1.00  0.00     0.226 C 
ATOM      9  O   UNL     1      -3.783  -0.033  -3.628  1.00  0.00    -0.275 OA
ATOM     10  H   UNL     1      -6.907  -0.495  -3.239  1.00  0.00     0.164 HD
BRANCH   8  11
ATOM     11  C   UNL     1      -5.325  -1.058  -5.181  1.00  0.00     0.109 C 
ATOM     12  C   UNL     1      -6.382  -2.133  -4.924  1.00  0.00     0.021 C 
BRANCH  11  13
ATOM     13  C   UNL     1      -5.729   0.016  -6.210  1.00  0.00     0.204 C 
BRANCH  13  14
ATOM     14  N   UNL     1      -5.276  -0.318  -7.564  1.00  0.00    -0.340 N 
ATOM     15  C   UNL     1      -4.242   0.342  -8.191  1.00  0.00     0.243 C 
ATOM     16  O   UNL     1      -3.586   1.221  -7.635  1.00  0.00    -0.273 OA
ATOM     17  H   UNL     1      -5.870  -0.928  -8.133  1.00  0.00     0.164 HD
BRANCH  15  18
ATOM     18  C   UNL     1      -4.079  -0.039  -9.683  1.00  0.00     0.171 C 
BRANCH  18  19
ATOM     19  N   UNL     1      -4.709   1.027 -10.459  1.00  0.00    -0.343 N 
ATOM     20  C   UNL     1      -6.078   1.086 -10.639  1.00  0.00     0.242 CG0
ATOM     21  O   UNL     1      -6.815   0.175 -10.269  1.00  0.00    -0.273 OA
ATOM     22  H   UNL     1      -4.130   1.742 -10.884  1.00  0.00     0.164 HD
ATOM     23  G   UNL     1      -6.564   2.325 -11.419  1.00  0.00     0.000 G0
ENDBRANCH  18  19
BRANCH  18  24
ATOM     24  C   UNL     1      -2.596  -0.195 -10.043  1.00  0.00     0.038 C 
BRANCH  24  25
ATOM     25  C   UNL     1      -2.314  -1.177 -11.201  1.00  0.00    -0.015 C 
ATOM     26  C   UNL     1      -0.998  -1.933 -11.020  1.00  0.00     0.007 C 
ATOM     27  C   UNL     1      -2.292  -0.414 -12.528  1.00  0.00     0.007 C 
ENDBRANCH  24  25
ENDBRANCH  18  24
ENDBRANCH  15  18
ENDBRANCH  13  14
BRANCH  13  28
ATOM     28  C   UNL     1      -7.242   0.244  -6.282  1.00  0.00     0.327 C 
ATOM     29  O   UNL     1      -7.938   0.757  -5.419  1.00  0.00    -0.250 OA
BRANCH  28  30
ATOM     30  O   UNL     1      -7.806  -0.293  -7.383  1.00  0.00    -0.480 OA
ATOM     31  H   UNL     1      -8.276  -1.086  -7.051  1.00  0.00     0.296 HD
ENDBRANCH  28  30
ENDBRANCH  13  28
ENDBRANCH  11  13
ENDBRANCH   8  11
ENDBRANCH   6   7
BRANCH   6  32
ATOM     32  C   UNL     1      -6.963   1.079  -1.140  1.00  0.00     0.037 C 
BRANCH  32  33
ATOM     33  C   UNL     1      -8.116   1.034  -2.153  1.00  0.00     0.026 C 
BRANCH  33  34
ATOM     34  C   UNL     1      -9.217   0.056  -1.742  1.00  0.00     0.146 C 
BRANCH  34  35
ATOM     35  N   UNL     1      -8.968  -1.228  -2.383  1.00  0.00    -0.254 NA
ATOM     36  C   UNL     1      -8.773  -2.256  -1.644  1.00  0.00     0.185 C 
ATOM     37  N   UNL     1      -8.548  -3.445  -2.224  1.00  0.00    -0.370 N 
ATOM     38  N   UNL     1      -8.757  -2.340  -0.302  1.00  0.00    -0.370 N 
ATOM     39  H   UNL     1      -8.554  -3.465  -3.236  1.00  0.00     0.159 HD
ATOM     40  H   UNL     1      -8.559  -4.318  -1.726  1.00  0.00     0.159 HD
ATOM     41  H   UNL     1      -8.454  -3.180   0.163  1.00  0.00     0.159 HD
ATOM     42  H   UNL     1      -8.897  -1.519   0.265  1.00  0.00     0.159 HD
ENDBRANCH  34  35
ENDBRANCH  33  34
ENDBRANCH  32  33
ENDBRANCH   6  32
ENDBRANCH   4   6
ENDBRANCH   1   2
BRANCH   1  43
ATOM     43  C   UNL     1      -2.634  -1.715   1.007  1.00  0.00     0.102 C 
ATOM     44  C   UNL     1      -1.236  -2.342   1.131  1.00  0.00     0.020 C 
BRANCH  43  45
ATOM     45  C   UNL     1      -3.366  -1.559   2.344  1.00  0.00     0.225 C 
ATOM     46  O   UNL     1      -2.961  -0.838   3.251  1.00  0.00    -0.275 OA
ATOM     47  N   UNL     1      -4.474  -2.359   2.508  1.00  0.00    -0.342 N 
ATOM     48  H   UNL     1      -4.878  -2.825   1.708  1.00  0.00     0.164 HD
BRANCH  47  49
ATOM     49  C   UNL     1      -5.294  -2.291   3.722  1.00  0.00     0.192 C 
BRANCH  49  50
ATOM     50  C   UNL     1      -4.722  -3.235   4.782  1.00  0.00     0.047 C 
BRANCH  50  51
ATOM     51  C   UNL     1      -4.530  -4.662   4.249  1.00  0.00     0.103 C 
BRANCH  51  52
ATOM     52  C   UNL     1      -5.034  -5.715   5.234  1.00  0.00     0.226 C 
ATOM     53  O   UNL     1      -4.249  -6.227   6.034  1.00  0.00    -0.275 OA
BRANCH  52  54
ATOM     54  N   UNL     1      -6.415  -5.983   5.212  1.00  0.00    -0.311 N 
ATOM     55  C   UNL     1      -7.121  -6.212   3.944  1.00  0.00     0.153 C 
BRANCH  54  56
ATOM     56  C   UNL     1      -7.167  -6.049   6.397  1.00  0.00     0.102 C 
ATOM     57  C   UNL     1      -7.562  -4.986   7.116  1.00  0.00     0.043 C 
BRANCH  56  58
ATOM     58  C   UNL     1      -7.641  -7.376   6.942  1.00  0.00     0.268 C 
ATOM     59  O   UNL     1      -8.774  -7.559   7.367  1.00  0.00    -0.268 OA
ATOM     60  N   UNL     1      -6.693  -8.367   6.850  1.00  0.00    -0.339 N 
ATOM     61  H   UNL     1      -5.774  -8.131   6.495  1.00  0.00     0.164 HD
BRANCH  60  62
ATOM     62  C   UNL     1      -6.964  -9.744   7.262  1.00  0.00     0.168 CG0
ATOM     63  C   UNL     1      -5.685 -10.442   7.708  1.00  0.00     0.041 C 
ATOM     64  G   UNL     1      -7.627 -10.510   6.099  1.00  0.00     0.000 G0
ENDBRANCH  60  62
ENDBRANCH  56  58
ENDBRANCH  54  56
ENDBRANCH  52  54
ENDBRANCH  51  52
ENDBRANCH  50  51
ENDBRANCH  49  50
BRANCH  49  65
ATOM     65  C   UNL     1      -6.757  -2.669   3.440  1.00  0.00     0.326 C 
ATOM     66  O   UNL     1      -7.653  -2.708   4.270  1.00  0.00    -0.250 OA
BRANCH  65  67
ATOM     67  O   UNL     1      -7.009  -3.033   2.163  1.00  0.00    -0.480 OA
ATOM     68  H   UNL     1      -6.571  -2.334   1.632  1.00  0.00     0.296 HD
ENDBRANCH  65  67
ENDBRANCH  49  65
ENDBRANCH  47  49
ENDBRANCH  43  45
ENDBRANCH   1  43
BRANCH   1  69
ATOM     69  C   UNL     1      -2.914  -3.437  -0.983  1.00  0.00    -0.001 C 
ATOM     70  C   UNL     1      -3.110  -3.555  -2.308  1.00  0.00     0.001 C 
BRANCH  70  71
ATOM     71  C   UNL     1      -2.486  -4.529  -3.207  1.00  0.00    -0.055 C 
ATOM     72  C   UNL     1      -2.309  -4.170  -4.495  1.00  0.00    -0.018 C 
ATOM     73  C   UNL     1      -2.080  -5.859  -2.627  1.00  0.00     0.044 C 
BRANCH  72  74
ATOM     74  C   UNL     1      -1.693  -4.963  -5.640  1.00  0.00     0.038 C 
ATOM     75  C   UNL     1      -0.221  -5.203  -5.284  1.00  0.00     0.015 C 
BRANCH  74  76
ATOM     76  C   UNL     1      -1.926  -4.186  -6.969  1.00  0.00     0.128 C 
BRANCH  76  77
ATOM     77  O   UNL     1      -0.704  -3.555  -7.389  1.00  0.00    -0.381 OA
ATOM     78  C   UNL     1      -0.772  -2.136  -7.412  1.00  0.00     0.195 C 
ENDBRANCH  76  77
BRANCH  76  79
ATOM     79  C   UNL     1      -2.577  -5.035  -8.089  1.00  0.00     0.068 C 
BRANCH  79  80
ATOM     80  C   UNL     1      -3.725  -4.429  -8.859  1.00  0.00    -0.045 A 
ATOM     81  C   UNL     1      -3.728  -4.415 -10.260  1.00  0.00     0.004 A 
ATOM     82  C   UNL     1      -4.801  -3.840  -8.178  1.00  0.00     0.004 A 
ATOM     83  C   UNL     1      -4.787  -3.840 -10.965  1.00  0.00     0.000 A 
ATOM     84  C   UNL     1      -5.860  -3.264  -8.884  1.00  0.00     0.000 A 
ATOM     85  C   UNL     1      -5.853  -3.265 -10.277  1.00  0.00     0.000 A 
ENDBRANCH  79  80
ENDBRANCH  76  79
ENDBRANCH  74  76
ENDBRANCH  72  74
ENDBRANCH  70  71
ENDBRANCH   1  69
TORSDOF 17
ENDMDL
MODEL 8
REMARK VINA RESULT:    -5.983      2.880      6.026
REMARK INTER + INTRA:         -25.551
REMARK INTER:                 -16.659
REMARK INTRA:                  -8.893
REMARK UNBOUND:                -7.676
REMARK SMILES C=C1C(=O)N[C@H](C)C(=O)N[C@@H](CC(C)C)C(=O)N[C@@H](C(=O)O)[C@H](C)C(=O)N[C@@H](CCCN=C(N)N)C(=O)N[C@@H](/C=C/C(C)=C/[C@H](C)[C@H](Cc2ccccc2)OC)[C@H](C)C(=O)N[C@@H](C(=O)O)CCC(=O)N1C
REMARK SMILES IDX 39 1 38 2 37 3 36 4 28 6 27 7 25 8 26 9 23 11 24 12 19 13
REMARK SMILES IDX 18 14 16 15 17 16 11 18 10 19 8 20 9 21 12 24 13 25 14 26
REMARK SMILES IDX 15 27 20 28 21 29 22 30 29 32 30 33 31 34 32 35 33 36 34 37
REMARK SMILES IDX 35 38 57 43 58 44 59 45 60 46 61 47 62 49 66 50 67 51 68 52
REMARK SMILES IDX 69 53 70 54 71 55 2 56 1 57 3 58 4 59 5 60 6 62 7 63 63 65
REMARK SMILES IDX 64 66 65 67 40 69 41 70 42 71 44 72 43 73 45 74 46 75 47 76
REMARK SMILES IDX 55 77 56 78 48 79 49 80 50 81 54 82 51 83 53 84 52 85
REMARK H PARENT 38 5 27 10 18 17 10 22 22 31 34 39 34 40 35 41 35 42 61 48
REMARK H PARENT 5 61 65 68
REMARK Flexibility Score:  369.900
ROOT
ATOM      1  C   UNL     1      -2.933  -4.660  -3.403  1.00  0.00     0.117 C 
ENDROOT
BRANCH   1   2
ATOM      2  N   UNL     1      -4.085  -3.765  -3.293  1.00  0.00    -0.347 N 
ATOM      3  O   UNL     1      -2.943  -1.774  -3.351  1.00  0.00    -0.273 OA
ATOM      4  C   UNL     1      -4.005  -2.387  -3.368  1.00  0.00     0.243 C 
ATOM      5  H   UNL     1      -5.010  -4.158  -3.205  1.00  0.00     0.164 HD
BRANCH   4   6
ATOM      6  C   UNL     1      -5.382  -1.679  -3.309  1.00  0.00     0.171 C 
BRANCH   6   7
ATOM      7  N   UNL     1      -5.656  -0.981  -4.576  1.00  0.00    -0.344 N 
ATOM      8  C   UNL     1      -6.074   0.332  -4.578  1.00  0.00     0.226 C 
ATOM      9  O   UNL     1      -6.259   0.968  -3.547  1.00  0.00    -0.275 OA
ATOM     10  H   UNL     1      -5.580  -1.494  -5.445  1.00  0.00     0.164 HD
BRANCH   8  11
ATOM     11  C   UNL     1      -6.262   0.926  -5.963  1.00  0.00     0.109 C 
ATOM     12  C   UNL     1      -7.554   1.740  -6.016  1.00  0.00     0.021 C 
BRANCH  11  13
ATOM     13  C   UNL     1      -4.992   1.698  -6.376  1.00  0.00     0.204 C 
BRANCH  13  14
ATOM     14  N   UNL     1      -4.898   1.869  -7.829  1.00  0.00    -0.340 N 
ATOM     15  C   UNL     1      -3.889   1.313  -8.584  1.00  0.00     0.243 C 
ATOM     16  O   UNL     1      -3.027   0.581  -8.099  1.00  0.00    -0.273 OA
ATOM     17  H   UNL     1      -5.487   2.582  -8.268  1.00  0.00     0.164 HD
BRANCH  15  18
ATOM     18  C   UNL     1      -3.877   1.798 -10.054  1.00  0.00     0.171 C 
BRANCH  18  19
ATOM     19  N   UNL     1      -2.664   1.256 -10.664  1.00  0.00    -0.343 N 
ATOM     20  C   UNL     1      -1.921   1.980 -11.577  1.00  0.00     0.242 CG0
ATOM     21  O   UNL     1      -2.316   3.056 -12.019  1.00  0.00    -0.273 OA
ATOM     22  H   UNL     1      -2.358   0.321 -10.418  1.00  0.00     0.164 HD
ATOM     23  G   UNL     1      -0.633   1.275 -12.051  1.00  0.00     0.000 G0
ENDBRANCH  18  19
BRANCH  18  24
ATOM     24  C   UNL     1      -5.136   1.325 -10.791  1.00  0.00     0.038 C 
BRANCH  24  25
ATOM     25  C   UNL     1      -5.337  -0.205 -10.806  1.00  0.00    -0.015 C 
ATOM     26  C   UNL     1      -4.900  -0.840 -12.127  1.00  0.00     0.007 C 
ATOM     27  C   UNL     1      -6.808  -0.534 -10.539  1.00  0.00     0.007 C 
ENDBRANCH  24  25
ENDBRANCH  18  24
ENDBRANCH  15  18
ENDBRANCH  13  14
BRANCH  13  28
ATOM     28  C   UNL     1      -4.903   3.092  -5.748  1.00  0.00     0.327 C 
ATOM     29  O   UNL     1      -5.176   4.150  -6.295  1.00  0.00    -0.250 OA
BRANCH  28  30
ATOM     30  O   UNL     1      -4.363   3.082  -4.512  1.00  0.00    -0.480 OA
ATOM     31  H   UNL     1      -4.083   2.153  -4.379  1.00  0.00     0.296 HD
ENDBRANCH  28  30
ENDBRANCH  13  28
ENDBRANCH  11  13
ENDBRANCH   8  11
ENDBRANCH   6   7
BRANCH   6  32
ATOM     32  C   UNL     1      -6.470  -2.716  -3.009  1.00  0.00     0.037 C 
BRANCH  32  33
ATOM     33  C   UNL     1      -7.750  -2.071  -2.460  1.00  0.00     0.026 C 
BRANCH  33  34
ATOM     34  C   UNL     1      -8.976  -2.379  -3.320  1.00  0.00     0.146 C 
BRANCH  34  35
ATOM     35  N   UNL     1      -8.674  -2.047  -4.705  1.00  0.00    -0.254 NA
ATOM     36  C   UNL     1      -9.326  -2.640  -5.635  1.00  0.00     0.185 C 
ATOM     37  N   UNL     1      -9.060  -2.338  -6.915  1.00  0.00    -0.370 N 
ATOM     38  N   UNL     1     -10.293  -3.569  -5.529  1.00  0.00    -0.370 N 
ATOM     39  H   UNL     1      -8.349  -1.636  -7.078  1.00  0.00     0.159 HD
ATOM     40  H   UNL     1      -9.638  -2.623  -7.686  1.00  0.00     0.159 HD
ATOM     41  H   UNL     1     -10.632  -4.062  -6.339  1.00  0.00     0.159 HD
ATOM     42  H   UNL     1     -10.585  -3.904  -4.624  1.00  0.00     0.159 HD
ENDBRANCH  34  35
ENDBRANCH  33  34
ENDBRANCH  32  33
ENDBRANCH   6  32
ENDBRANCH   4   6
ENDBRANCH   1   2
BRANCH   1  43
ATOM     43  C   UNL     1      -2.103  -4.562  -2.091  1.00  0.00     0.102 C 
ATOM     44  C   UNL     1      -1.137  -5.742  -1.889  1.00  0.00     0.020 C 
BRANCH  43  45
ATOM     45  C   UNL     1      -3.008  -4.288  -0.886  1.00  0.00     0.225 C 
ATOM     46  O   UNL     1      -3.953  -5.009  -0.579  1.00  0.00    -0.275 OA
ATOM     47  N   UNL     1      -2.756  -3.116  -0.211  1.00  0.00    -0.342 N 
ATOM     48  H   UNL     1      -1.893  -2.618  -0.378  1.00  0.00     0.164 HD
BRANCH  47  49
ATOM     49  C   UNL     1      -3.519  -2.740   0.983  1.00  0.00     0.192 C 
BRANCH  49  50
ATOM     50  C   UNL     1      -4.631  -1.761   0.596  1.00  0.00     0.047 C 
BRANCH  50  51
ATOM     51  C   UNL     1      -6.012  -2.229   1.074  1.00  0.00     0.103 C 
BRANCH  51  52
ATOM     52  C   UNL     1      -6.432  -1.544   2.372  1.00  0.00     0.226 C 
ATOM     53  O   UNL     1      -7.265  -0.636   2.341  1.00  0.00    -0.275 OA
BRANCH  52  54
ATOM     54  N   UNL     1      -5.881  -2.060   3.560  1.00  0.00    -0.311 N 
ATOM     55  C   UNL     1      -5.232  -1.177   4.538  1.00  0.00     0.153 C 
BRANCH  54  56
ATOM     56  C   UNL     1      -5.935  -3.432   3.857  1.00  0.00     0.102 C 
ATOM     57  C   UNL     1      -4.866  -4.209   4.097  1.00  0.00     0.043 C 
BRANCH  56  58
ATOM     58  C   UNL     1      -7.260  -4.147   3.977  1.00  0.00     0.268 C 
ATOM     59  O   UNL     1      -7.800  -4.719   3.039  1.00  0.00    -0.268 OA
ATOM     60  N   UNL     1      -7.762  -4.145   5.257  1.00  0.00    -0.339 N 
ATOM     61  H   UNL     1      -7.259  -3.639   5.976  1.00  0.00     0.164 HD
BRANCH  60  62
ATOM     62  C   UNL     1      -9.002  -4.834   5.608  1.00  0.00     0.168 CG0
ATOM     63  C   UNL     1     -10.184  -3.872   5.598  1.00  0.00     0.041 C 
ATOM     64  G   UNL     1      -8.851  -5.498   6.992  1.00  0.00     0.000 G0
ENDBRANCH  60  62
ENDBRANCH  56  58
ENDBRANCH  54  56
ENDBRANCH  52  54
ENDBRANCH  51  52
ENDBRANCH  50  51
ENDBRANCH  49  50
BRANCH  49  65
ATOM     65  C   UNL     1      -2.622  -2.094   2.050  1.00  0.00     0.326 C 
ATOM     66  O   UNL     1      -1.925  -2.698   2.853  1.00  0.00    -0.250 OA
BRANCH  65  67
ATOM     67  O   UNL     1      -2.685  -0.745   2.100  1.00  0.00    -0.480 OA
ATOM     68  H   UNL     1      -3.302  -0.570   2.843  1.00  0.00     0.296 HD
ENDBRANCH  65  67
ENDBRANCH  49  65
ENDBRANCH  47  49
ENDBRANCH  43  45
ENDBRANCH   1  43
BRANCH   1  69
ATOM     69  C   UNL     1      -2.261  -4.325  -4.722  1.00  0.00    -0.001 C 
ATOM     70  C   UNL     1      -1.824  -5.186  -5.658  1.00  0.00     0.001 C 
BRANCH  70  71
ATOM     71  C   UNL     1      -1.196  -4.851  -6.938  1.00  0.00    -0.055 C 
ATOM     72  C   UNL     1      -0.948  -3.549  -7.193  1.00  0.00    -0.018 C 
ATOM     73  C   UNL     1      -0.864  -5.982  -7.875  1.00  0.00     0.044 C 
BRANCH  72  74
ATOM     74  C   UNL     1      -0.312  -2.912  -8.420  1.00  0.00     0.038 C 
ATOM     75  C   UNL     1       0.775  -1.952  -7.919  1.00  0.00     0.015 C 
BRANCH  74  76
ATOM     76  C   UNL     1      -1.429  -2.244  -9.274  1.00  0.00     0.128 C 
BRANCH  76  77
ATOM     77  O   UNL     1      -0.866  -1.203 -10.091  1.00  0.00    -0.381 OA
ATOM     78  C   UNL     1      -0.650  -1.590 -11.441  1.00  0.00     0.195 C 
ENDBRANCH  76  77
BRANCH  76  79
ATOM     79  C   UNL     1      -2.284  -3.248 -10.088  1.00  0.00     0.068 C 
BRANCH  79  80
ATOM     80  C   UNL     1      -3.729  -3.430  -9.692  1.00  0.00    -0.045 A 
ATOM     81  C   UNL     1      -4.634  -4.079 -10.542  1.00  0.00     0.004 A 
ATOM     82  C   UNL     1      -4.196  -2.924  -8.470  1.00  0.00     0.004 A 
ATOM     83  C   UNL     1      -5.973  -4.231 -10.174  1.00  0.00     0.000 A 
ATOM     84  C   UNL     1      -5.535  -3.075  -8.103  1.00  0.00     0.000 A 
ATOM     85  C   UNL     1      -6.423  -3.730  -8.954  1.00  0.00     0.000 A 
ENDBRANCH  79  80
ENDBRANCH  76  79
ENDBRANCH  74  76
ENDBRANCH  72  74
ENDBRANCH  70  71
ENDBRANCH   1  69
TORSDOF 17
ENDMDL
MODEL 9
REMARK VINA RESULT:    -5.961      3.332      7.299
REMARK INTER + INTRA:         -25.484
REMARK INTER:                 -18.711
REMARK INTRA:                  -6.773
REMARK UNBOUND:                -7.676
REMARK SMILES C=C1C(=O)N[C@H](C)C(=O)N[C@@H](CC(C)C)C(=O)N[C@@H](C(=O)O)[C@H](C)C(=O)N[C@@H](CCCN=C(N)N)C(=O)N[C@@H](/C=C/C(C)=C/[C@H](C)[C@H](Cc2ccccc2)OC)[C@H](C)C(=O)N[C@@H](C(=O)O)CCC(=O)N1C
REMARK SMILES IDX 39 1 38 2 37 3 36 4 28 6 27 7 25 8 26 9 23 11 24 12 19 13
REMARK SMILES IDX 18 14 16 15 17 16 11 18 10 19 8 20 9 21 12 24 13 25 14 26
REMARK SMILES IDX 15 27 20 28 21 29 22 30 29 32 30 33 31 34 32 35 33 36 34 37
REMARK SMILES IDX 35 38 57 43 58 44 59 45 60 46 61 47 62 49 66 50 67 51 68 52
REMARK SMILES IDX 69 53 70 54 71 55 2 56 1 57 3 58 4 59 5 60 6 62 7 63 63 65
REMARK SMILES IDX 64 66 65 67 40 69 41 70 42 71 44 72 43 73 45 74 46 75 47 76
REMARK SMILES IDX 55 77 56 78 48 79 49 80 50 81 54 82 51 83 53 84 52 85
REMARK H PARENT 38 5 27 10 18 17 10 22 22 31 34 39 34 40 35 41 35 42 61 48
REMARK H PARENT 5 61 65 68
REMARK Flexibility Score:  369.900
ROOT
ATOM      1  C   UNL     1      -3.957  -1.509  -6.342  1.00  0.00     0.117 C 
ENDROOT
BRANCH   1   2
ATOM      2  N   UNL     1      -2.816  -2.149  -6.997  1.00  0.00    -0.347 N 
ATOM      3  O   UNL     1      -3.956  -3.106  -8.745  1.00  0.00    -0.273 OA
ATOM      4  C   UNL     1      -2.894  -2.823  -8.201  1.00  0.00     0.243 C 
ATOM      5  H   UNL     1      -1.899  -2.064  -6.587  1.00  0.00     0.164 HD
BRANCH   4   6
ATOM      6  C   UNL     1      -1.525  -3.333  -8.719  1.00  0.00     0.171 C 
BRANCH   6   7
ATOM      7  N   UNL     1      -0.809  -2.258  -9.424  1.00  0.00    -0.344 N 
ATOM      8  C   UNL     1      -0.353  -2.444 -10.711  1.00  0.00     0.226 C 
ATOM      9  O   UNL     1      -0.497  -3.500 -11.316  1.00  0.00    -0.275 OA
ATOM     10  H   UNL     1      -0.612  -1.395  -8.933  1.00  0.00     0.164 HD
BRANCH   8  11
ATOM     11  C   UNL     1       0.316  -1.225 -11.320  1.00  0.00     0.109 C 
ATOM     12  C   UNL     1      -0.250  -0.955 -12.714  1.00  0.00     0.021 C 
BRANCH  11  13
ATOM     13  C   UNL     1       0.225  -0.037 -10.342  1.00  0.00     0.204 C 
BRANCH  13  14
ATOM     14  N   UNL     1       1.379   0.860 -10.454  1.00  0.00    -0.340 N 
ATOM     15  C   UNL     1       2.622   0.547  -9.947  1.00  0.00     0.243 C 
ATOM     16  O   UNL     1       2.865  -0.535  -9.417  1.00  0.00    -0.273 OA
ATOM     17  H   UNL     1       1.210   1.827 -10.744  1.00  0.00     0.164 HD
BRANCH  15  18
ATOM     18  C   UNL     1       3.625   1.726  -9.997  1.00  0.00     0.171 C 
BRANCH  18  19
ATOM     19  N   UNL     1       3.844   2.029 -11.410  1.00  0.00    -0.343 N 
ATOM     20  C   UNL     1       4.831   1.402 -12.146  1.00  0.00     0.242 CG0
ATOM     21  O   UNL     1       5.655   0.661 -11.617  1.00  0.00    -0.273 OA
ATOM     22  H   UNL     1       3.261   2.723 -11.866  1.00  0.00     0.164 HD
ATOM     23  G   UNL     1       4.858   1.794 -13.638  1.00  0.00     0.000 G0
ENDBRANCH  18  19
BRANCH  18  24
ATOM     24  C   UNL     1       3.073   2.940  -9.240  1.00  0.00     0.038 C 
BRANCH  24  25
ATOM     25  C   UNL     1       3.316   2.914  -7.716  1.00  0.00    -0.015 C 
ATOM     26  C   UNL     1       2.101   2.407  -6.939  1.00  0.00     0.007 C 
ATOM     27  C   UNL     1       3.690   4.317  -7.231  1.00  0.00     0.007 C 
ENDBRANCH  24  25
ENDBRANCH  18  24
ENDBRANCH  15  18
ENDBRANCH  13  14
BRANCH  13  28
ATOM     28  C   UNL     1      -1.032   0.815 -10.543  1.00  0.00     0.327 C 
ATOM     29  O   UNL     1      -2.175   0.497 -10.248  1.00  0.00    -0.250 OA
BRANCH  28  30
ATOM     30  O   UNL     1      -0.793   1.963 -11.209  1.00  0.00    -0.480 OA
ATOM     31  H   UNL     1      -1.171   1.808 -12.099  1.00  0.00     0.296 HD
ENDBRANCH  28  30
ENDBRANCH  13  28
ENDBRANCH  11  13
ENDBRANCH   8  11
ENDBRANCH   6   7
BRANCH   6  32
ATOM     32  C   UNL     1      -0.702  -3.854  -7.536  1.00  0.00     0.037 C 
BRANCH  32  33
ATOM     33  C   UNL     1      -0.816  -5.377  -7.377  1.00  0.00     0.026 C 
BRANCH  33  34
ATOM     34  C   UNL     1      -0.986  -6.094  -8.717  1.00  0.00     0.146 C 
BRANCH  34  35
ATOM     35  N   UNL     1       0.320  -6.540  -9.180  1.00  0.00    -0.254 NA
ATOM     36  C   UNL     1       0.464  -7.766  -9.525  1.00  0.00     0.185 C 
ATOM     37  N   UNL     1       1.663  -8.186  -9.958  1.00  0.00    -0.370 N 
ATOM     38  N   UNL     1      -0.445  -8.756  -9.523  1.00  0.00    -0.370 N 
ATOM     39  H   UNL     1       2.400  -7.494  -9.999  1.00  0.00     0.159 HD
ATOM     40  H   UNL     1       1.812  -9.074 -10.406  1.00  0.00     0.159 HD
ATOM     41  H   UNL     1      -0.174  -9.712  -9.685  1.00  0.00     0.159 HD
ATOM     42  H   UNL     1      -1.387  -8.587  -9.206  1.00  0.00     0.159 HD
ENDBRANCH  34  35
ENDBRANCH  33  34
ENDBRANCH  32  33
ENDBRANCH   6  32
ENDBRANCH   4   6
ENDBRANCH   1   2
BRANCH   1  43
ATOM     43  C   UNL     1      -4.127  -0.079  -6.931  1.00  0.00     0.102 C 
ATOM     44  C   UNL     1      -3.761   1.039  -5.940  1.00  0.00     0.020 C 
BRANCH  43  45
ATOM     45  C   UNL     1      -5.506   0.090  -7.576  1.00  0.00     0.225 C 
ATOM     46  O   UNL     1      -5.972   1.183  -7.889  1.00  0.00    -0.275 OA
ATOM     47  N   UNL     1      -6.246  -1.063  -7.703  1.00  0.00    -0.342 N 
ATOM     48  H   UNL     1      -5.797  -1.961  -7.586  1.00  0.00     0.164 HD
BRANCH  47  49
ATOM     49  C   UNL     1      -7.569  -1.059  -8.335  1.00  0.00     0.192 C 
BRANCH  49  50
ATOM     50  C   UNL     1      -8.520  -1.959  -7.542  1.00  0.00     0.047 C 
BRANCH  50  51
ATOM     51  C   UNL     1      -7.830  -2.621  -6.342  1.00  0.00     0.103 C 
BRANCH  51  52
ATOM     52  C   UNL     1      -8.377  -2.108  -5.011  1.00  0.00     0.226 C 
ATOM     53  O   UNL     1      -8.117  -0.960  -4.647  1.00  0.00    -0.275 OA
BRANCH  52  54
ATOM     54  N   UNL     1      -9.226  -2.979  -4.304  1.00  0.00    -0.311 N 
ATOM     55  C   UNL     1      -9.684  -4.240  -4.904  1.00  0.00     0.153 C 
BRANCH  54  56
ATOM     56  C   UNL     1      -9.663  -2.682  -3.003  1.00  0.00     0.102 C 
ATOM     57  C   UNL     1      -9.038  -3.062  -1.877  1.00  0.00     0.043 C 
BRANCH  56  58
ATOM     58  C   UNL     1     -10.895  -1.838  -2.773  1.00  0.00     0.268 C 
ATOM     59  O   UNL     1     -12.008  -2.314  -2.595  1.00  0.00    -0.268 OA
ATOM     60  N   UNL     1     -10.625  -0.492  -2.718  1.00  0.00    -0.339 N 
ATOM     61  H   UNL     1      -9.677  -0.177  -2.886  1.00  0.00     0.164 HD
BRANCH  60  62
ATOM     62  C   UNL     1     -11.664   0.500  -2.442  1.00  0.00     0.168 CG0
ATOM     63  C   UNL     1     -11.312   1.847  -3.061  1.00  0.00     0.041 C 
ATOM     64  G   UNL     1     -11.859   0.634  -0.917  1.00  0.00     0.000 G0
ENDBRANCH  60  62
ENDBRANCH  56  58
ENDBRANCH  54  56
ENDBRANCH  52  54
ENDBRANCH  51  52
ENDBRANCH  50  51
ENDBRANCH  49  50
BRANCH  49  65
ATOM     65  C   UNL     1      -7.503  -1.546  -9.791  1.00  0.00     0.326 C 
ATOM     66  O   UNL     1      -6.508  -1.533 -10.500  1.00  0.00    -0.250 OA
BRANCH  65  67
ATOM     67  O   UNL     1      -8.684  -1.963 -10.300  1.00  0.00    -0.480 OA
ATOM     68  H   UNL     1      -9.097  -2.452  -9.556  1.00  0.00     0.296 HD
ENDBRANCH  65  67
ENDBRANCH  49  65
ENDBRANCH  47  49
ENDBRANCH  43  45
ENDBRANCH   1  43
BRANCH   1  69
ATOM     69  C   UNL     1      -3.732  -1.665  -4.849  1.00  0.00    -0.001 C 
ATOM     70  C   UNL     1      -4.667  -1.781  -3.890  1.00  0.00     0.001 C 
BRANCH  70  71
ATOM     71  C   UNL     1      -4.437  -1.953  -2.454  1.00  0.00    -0.055 C 
ATOM     72  C   UNL     1      -5.366  -2.629  -1.746  1.00  0.00    -0.018 C 
ATOM     73  C   UNL     1      -3.176  -1.371  -1.870  1.00  0.00     0.044 C 
BRANCH  72  74
ATOM     74  C   UNL     1      -5.392  -2.960  -0.261  1.00  0.00     0.038 C 
ATOM     75  C   UNL     1      -5.347  -1.630   0.501  1.00  0.00     0.015 C 
BRANCH  74  76
ATOM     76  C   UNL     1      -4.219  -3.934   0.056  1.00  0.00     0.128 C 
BRANCH  76  77
ATOM     77  O   UNL     1      -4.186  -4.221   1.465  1.00  0.00    -0.381 OA
ATOM     78  C   UNL     1      -5.308  -4.963   1.923  1.00  0.00     0.195 C 
ENDBRANCH  76  77
BRANCH  76  79
ATOM     79  C   UNL     1      -4.211  -5.214  -0.817  1.00  0.00     0.068 C 
BRANCH  79  80
ATOM     80  C   UNL     1      -3.029  -5.440  -1.729  1.00  0.00    -0.045 A 
ATOM     81  C   UNL     1      -1.876  -6.089  -1.270  1.00  0.00     0.004 A 
ATOM     82  C   UNL     1      -3.059  -4.974  -3.053  1.00  0.00     0.004 A 
ATOM     83  C   UNL     1      -0.782  -6.281  -2.116  1.00  0.00     0.000 A 
ATOM     84  C   UNL     1      -1.964  -5.167  -3.898  1.00  0.00     0.000 A 
ATOM     85  C   UNL     1      -0.827  -5.821  -3.431  1.00  0.00     0.000 A 
ENDBRANCH  79  80
ENDBRANCH  76  79
ENDBRANCH  74  76
ENDBRANCH  72  74
ENDBRANCH  70  71
ENDBRANCH   1  69
TORSDOF 17
ENDMDL
MODEL 10
REMARK VINA RESULT:    -5.945      3.457      6.597
REMARK INTER + INTRA:         -25.436
REMARK INTER:                 -15.819
REMARK INTRA:                  -9.617
REMARK UNBOUND:                -7.676
REMARK SMILES C=C1C(=O)N[C@H](C)C(=O)N[C@@H](CC(C)C)C(=O)N[C@@H](C(=O)O)[C@H](C)C(=O)N[C@@H](CCCN=C(N)N)C(=O)N[C@@H](/C=C/C(C)=C/[C@H](C)[C@H](Cc2ccccc2)OC)[C@H](C)C(=O)N[C@@H](C(=O)O)CCC(=O)N1C
REMARK SMILES IDX 39 1 38 2 37 3 36 4 28 6 27 7 25 8 26 9 23 11 24 12 19 13
REMARK SMILES IDX 18 14 16 15 17 16 11 18 10 19 8 20 9 21 12 24 13 25 14 26
REMARK SMILES IDX 15 27 20 28 21 29 22 30 29 32 30 33 31 34 32 35 33 36 34 37
REMARK SMILES IDX 35 38 57 43 58 44 59 45 60 46 61 47 62 49 66 50 67 51 68 52
REMARK SMILES IDX 69 53 70 54 71 55 2 56 1 57 3 58 4 59 5 60 6 62 7 63 63 65
REMARK SMILES IDX 64 66 65 67 40 69 41 70 42 71 44 72 43 73 45 74 46 75 47 76
REMARK SMILES IDX 55 77 56 78 48 79 49 80 50 81 54 82 51 83 53 84 52 85
REMARK H PARENT 38 5 27 10 18 17 10 22 22 31 34 39 34 40 35 41 35 42 61 48
REMARK H PARENT 5 61 65 68
REMARK Flexibility Score:  369.900
ROOT
ATOM      1  C   UNL     1      -1.749  -0.735  -7.155  1.00  0.00     0.117 C 
ENDROOT
BRANCH   1   2
ATOM      2  N   UNL     1      -2.309  -0.331  -8.445  1.00  0.00    -0.347 N 
ATOM      3  O   UNL     1      -3.824   1.206  -7.662  1.00  0.00    -0.273 OA
ATOM      4  C   UNL     1      -3.241   0.677  -8.603  1.00  0.00     0.243 C 
ATOM      5  H   UNL     1      -1.971  -0.768  -9.289  1.00  0.00     0.164 HD
BRANCH   4   6
ATOM      6  C   UNL     1      -3.603   0.965 -10.082  1.00  0.00     0.171 C 
BRANCH   6   7
ATOM      7  N   UNL     1      -2.872   0.055 -10.977  1.00  0.00    -0.344 N 
ATOM      8  C   UNL     1      -1.862   0.527 -11.788  1.00  0.00     0.226 C 
ATOM      9  O   UNL     1      -1.542   1.710 -11.823  1.00  0.00    -0.275 OA
ATOM     10  H   UNL     1      -3.153  -0.916 -11.026  1.00  0.00     0.164 HD
BRANCH   8  11
ATOM     11  C   UNL     1      -1.169  -0.543 -12.612  1.00  0.00     0.109 C 
ATOM     12  C   UNL     1      -0.892  -0.024 -14.023  1.00  0.00     0.021 C 
BRANCH  11  13
ATOM     13  C   UNL     1       0.072  -1.060 -11.856  1.00  0.00     0.204 C 
BRANCH  13  14
ATOM     14  N   UNL     1       0.916   0.035 -11.367  1.00  0.00    -0.340 N 
ATOM     15  C   UNL     1       2.084   0.415 -11.990  1.00  0.00     0.243 C 
ATOM     16  O   UNL     1       2.472  -0.099 -13.038  1.00  0.00    -0.273 OA
ATOM     17  H   UNL     1       0.734   0.398 -10.427  1.00  0.00     0.164 HD
BRANCH  15  18
ATOM     18  C   UNL     1       2.909   1.447 -11.182  1.00  0.00     0.171 C 
BRANCH  18  19
ATOM     19  N   UNL     1       3.636   2.258 -12.157  1.00  0.00    -0.343 N 
ATOM     20  C   UNL     1       4.982   2.536 -12.014  1.00  0.00     0.242 CG0
ATOM     21  O   UNL     1       5.598   2.228 -10.997  1.00  0.00    -0.273 OA
ATOM     22  H   UNL     1       3.142   2.634 -12.958  1.00  0.00     0.164 HD
ATOM     23  G   UNL     1       5.593   3.338 -13.182  1.00  0.00     0.000 G0
ENDBRANCH  18  19
BRANCH  18  24
ATOM     24  C   UNL     1       1.990   2.309 -10.308  1.00  0.00     0.038 C 
BRANCH  24  25
ATOM     25  C   UNL     1       2.312   2.270  -8.799  1.00  0.00    -0.015 C 
ATOM     26  C   UNL     1       3.350   3.317  -8.394  1.00  0.00     0.007 C 
ATOM     27  C   UNL     1       2.813   0.874  -8.416  1.00  0.00     0.007 C 
ENDBRANCH  24  25
ENDBRANCH  18  24
ENDBRANCH  15  18
ENDBRANCH  13  14
BRANCH  13  28
ATOM     28  C   UNL     1      -0.278  -1.937 -10.651  1.00  0.00     0.327 C 
ATOM     29  O   UNL     1      -1.243  -2.680 -10.552  1.00  0.00    -0.250 OA
BRANCH  28  30
ATOM     30  O   UNL     1       0.541  -1.739  -9.597  1.00  0.00    -0.480 OA
ATOM     31  H   UNL     1       0.491  -0.775  -9.432  1.00  0.00     0.296 HD
ENDBRANCH  28  30
ENDBRANCH  13  28
ENDBRANCH  11  13
ENDBRANCH   8  11
ENDBRANCH   6   7
BRANCH   6  32
ATOM     32  C   UNL     1      -5.117   0.815 -10.267  1.00  0.00     0.037 C 
BRANCH  32  33
ATOM     33  C   UNL     1      -5.471  -0.290 -11.272  1.00  0.00     0.026 C 
BRANCH  33  34
ATOM     34  C   UNL     1      -5.801  -1.618 -10.588  1.00  0.00     0.146 C 
BRANCH  34  35
ATOM     35  N   UNL     1      -4.695  -2.542 -10.797  1.00  0.00    -0.254 NA
ATOM     36  C   UNL     1      -4.648  -3.613 -10.097  1.00  0.00     0.185 C 
ATOM     37  N   UNL     1      -3.636  -4.474 -10.285  1.00  0.00    -0.370 N 
ATOM     38  N   UNL     1      -5.500  -4.039  -9.147  1.00  0.00    -0.370 N 
ATOM     39  H   UNL     1      -2.956  -4.227 -10.993  1.00  0.00     0.159 HD
ATOM     40  H   UNL     1      -3.621  -5.405  -9.906  1.00  0.00     0.159 HD
ATOM     41  H   UNL     1      -5.280  -4.833  -8.568  1.00  0.00     0.159 HD
ATOM     42  H   UNL     1      -6.301  -3.483  -8.890  1.00  0.00     0.159 HD
ENDBRANCH  34  35
ENDBRANCH  33  34
ENDBRANCH  32  33
ENDBRANCH   6  32
ENDBRANCH   4   6
ENDBRANCH   1   2
BRANCH   1  43
ATOM     43  C   UNL     1      -2.861  -1.452  -6.336  1.00  0.00     0.102 C 
ATOM     44  C   UNL     1      -3.068  -0.856  -4.933  1.00  0.00     0.020 C 
BRANCH  43  45
ATOM     45  C   UNL     1      -2.657  -2.969  -6.342  1.00  0.00     0.225 C 
ATOM     46  O   UNL     1      -2.834  -3.666  -7.337  1.00  0.00    -0.275 OA
ATOM     47  N   UNL     1      -2.347  -3.530  -5.124  1.00  0.00    -0.342 N 
ATOM     48  H   UNL     1      -2.058  -2.937  -4.359  1.00  0.00     0.164 HD
BRANCH  47  49
ATOM     49  C   UNL     1      -2.089  -4.967  -4.986  1.00  0.00     0.192 C 
BRANCH  49  50
ATOM     50  C   UNL     1      -2.324  -5.395  -3.535  1.00  0.00     0.047 C 
BRANCH  50  51
ATOM     51  C   UNL     1      -2.271  -4.208  -2.563  1.00  0.00     0.103 C 
BRANCH  51  52
ATOM     52  C   UNL     1      -3.141  -4.439  -1.329  1.00  0.00     0.226 C 
ATOM     53  O   UNL     1      -3.060  -5.505  -0.716  1.00  0.00    -0.275 OA
BRANCH  52  54
ATOM     54  N   UNL     1      -3.946  -3.360  -0.919  1.00  0.00    -0.311 N 
ATOM     55  C   UNL     1      -5.128  -2.960  -1.696  1.00  0.00     0.153 C 
BRANCH  54  56
ATOM     56  C   UNL     1      -3.656  -2.630   0.245  1.00  0.00     0.102 C 
ATOM     57  C   UNL     1      -2.710  -1.682   0.342  1.00  0.00     0.043 C 
BRANCH  56  58
ATOM     58  C   UNL     1      -4.453  -2.841   1.511  1.00  0.00     0.268 C 
ATOM     59  O   UNL     1      -5.233  -2.011   1.957  1.00  0.00    -0.268 OA
ATOM     60  N   UNL     1      -4.261  -4.082   2.070  1.00  0.00    -0.339 N 
ATOM     61  H   UNL     1      -3.589  -4.709   1.644  1.00  0.00     0.164 HD
BRANCH  60  62
ATOM     62  C   UNL     1      -4.983  -4.519   3.264  1.00  0.00     0.168 CG0
ATOM     63  C   UNL     1      -4.185  -4.215   4.526  1.00  0.00     0.041 C 
ATOM     64  G   UNL     1      -5.288  -6.027   3.162  1.00  0.00     0.000 G0
ENDBRANCH  60  62
ENDBRANCH  56  58
ENDBRANCH  54  56
ENDBRANCH  52  54
ENDBRANCH  51  52
ENDBRANCH  50  51
ENDBRANCH  49  50
BRANCH  49  65
ATOM     65  C   UNL     1      -0.652  -5.326  -5.396  1.00  0.00     0.326 C 
ATOM     66  O   UNL     1       0.316  -5.345  -4.650  1.00  0.00    -0.250 OA
BRANCH  65  67
ATOM     67  O   UNL     1      -0.488  -5.581  -6.713  1.00  0.00    -0.480 OA
ATOM     68  H   UNL     1      -0.653  -6.546  -6.785  1.00  0.00     0.296 HD
ENDBRANCH  65  67
ENDBRANCH  49  65
ENDBRANCH  47  49
ENDBRANCH  43  45
ENDBRANCH   1  43
BRANCH   1  69
ATOM     69  C   UNL     1      -1.091   0.503  -6.572  1.00  0.00    -0.001 C 
ATOM     70  C   UNL     1      -0.102   0.550  -5.662  1.00  0.00     0.001 C 
BRANCH  70  71
ATOM     71  C   UNL     1       0.540   1.751  -5.123  1.00  0.00    -0.055 C 
ATOM     72  C   UNL     1      -0.259   2.730  -4.648  1.00  0.00    -0.018 C 
ATOM     73  C   UNL     1       2.045   1.805  -5.128  1.00  0.00     0.044 C 
BRANCH  72  74
ATOM     74  C   UNL     1       0.121   4.070  -4.034  1.00  0.00     0.038 C 
ATOM     75  C   UNL     1      -0.450   4.093  -2.611  1.00  0.00     0.015 C 
BRANCH  74  76
ATOM     76  C   UNL     1      -0.391   5.210  -4.962  1.00  0.00     0.128 C 
BRANCH  76  77
ATOM     77  O   UNL     1      -0.719   6.370  -4.179  1.00  0.00    -0.381 OA
ATOM     78  C   UNL     1      -1.803   7.125  -4.704  1.00  0.00     0.195 C 
ENDBRANCH  76  77
BRANCH  76  79
ATOM     79  C   UNL     1       0.556   5.533  -6.145  1.00  0.00     0.068 C 
BRANCH  79  80
ATOM     80  C   UNL     1       0.075   5.222  -7.542  1.00  0.00    -0.045 A 
ATOM     81  C   UNL     1      -0.940   4.282  -7.763  1.00  0.00     0.004 A 
ATOM     82  C   UNL     1       0.660   5.856  -8.648  1.00  0.00     0.004 A 
ATOM     83  C   UNL     1      -1.369   3.990  -9.060  1.00  0.00     0.000 A 
ATOM     84  C   UNL     1       0.230   5.563  -9.944  1.00  0.00     0.000 A 
ATOM     85  C   UNL     1      -0.785   4.632 -10.150  1.00  0.00     0.000 A 
ENDBRANCH  79  80
ENDBRANCH  76  79
ENDBRANCH  74  76
ENDBRANCH  72  74
ENDBRANCH  70  71
ENDBRANCH   1  69
TORSDOF 17
ENDMDL
MODEL 11
REMARK VINA RESULT:    -5.924      2.718      6.048
REMARK INTER + INTRA:         -25.374
REMARK INTER:                 -19.031
REMARK INTRA:                  -6.343
REMARK UNBOUND:                -7.676
REMARK SMILES C=C1C(=O)N[C@H](C)C(=O)N[C@@H](CC(C)C)C(=O)N[C@@H](C(=O)O)[C@H](C)C(=O)N[C@@H](CCCN=C(N)N)C(=O)N[C@@H](/C=C/C(C)=C/[C@H](C)[C@H](Cc2ccccc2)OC)[C@H](C)C(=O)N[C@@H](C(=O)O)CCC(=O)N1C
REMARK SMILES IDX 39 1 38 2 37 3 36 4 28 6 27 7 25 8 26 9 23 11 24 12 19 13
REMARK SMILES IDX 18 14 16 15 17 16 11 18 10 19 8 20 9 21 12 24 13 25 14 26
REMARK SMILES IDX 15 27 20 28 21 29 22 30 29 32 30 33 31 34 32 35 33 36 34 37
REMARK SMILES IDX 35 38 57 43 58 44 59 45 60 46 61 47 62 49 66 50 67 51 68 52
REMARK SMILES IDX 69 53 70 54 71 55 2 56 1 57 3 58 4 59 5 60 6 62 7 63 63 65
REMARK SMILES IDX 64 66 65 67 40 69 41 70 42 71 44 72 43 73 45 74 46 75 47 76
REMARK SMILES IDX 55 77 56 78 48 79 49 80 50 81 54 82 51 83 53 84 52 85
REMARK H PARENT 38 5 27 10 18 17 10 22 22 31 34 39 34 40 35 41 35 42 61 48
REMARK H PARENT 5 61 65 68
REMARK Flexibility Score:  369.900
ROOT
ATOM      1  C   UNL     1      -3.785  -3.658  -2.510  1.00  0.00     0.117 C 
ENDROOT
BRANCH   1   2
ATOM      2  N   UNL     1      -4.831  -2.843  -3.128  1.00  0.00    -0.347 N 
ATOM      3  O   UNL     1      -3.473  -1.246  -4.063  1.00  0.00    -0.273 OA
ATOM      4  C   UNL     1      -4.584  -1.749  -3.935  1.00  0.00     0.243 C 
ATOM      5  H   UNL     1      -5.797  -3.108  -3.011  1.00  0.00     0.164 HD
BRANCH   4   6
ATOM      6  C   UNL     1      -5.865  -1.114  -4.534  1.00  0.00     0.171 C 
BRANCH   6   7
ATOM      7  N   UNL     1      -5.937  -1.370  -5.981  1.00  0.00    -0.344 N 
ATOM      8  C   UNL     1      -5.432  -0.459  -6.882  1.00  0.00     0.226 C 
ATOM      9  O   UNL     1      -4.925   0.602  -6.535  1.00  0.00    -0.275 OA
ATOM     10  H   UNL     1      -6.409  -2.204  -6.309  1.00  0.00     0.164 HD
BRANCH   8  11
ATOM     11  C   UNL     1      -5.533  -0.892  -8.334  1.00  0.00     0.109 C 
ATOM     12  C   UNL     1      -7.000  -1.006  -8.748  1.00  0.00     0.021 C 
BRANCH  11  13
ATOM     13  C   UNL     1      -4.681   0.041  -9.217  1.00  0.00     0.204 C 
BRANCH  13  14
ATOM     14  N   UNL     1      -3.321  -0.473  -9.412  1.00  0.00    -0.340 N 
ATOM     15  C   UNL     1      -2.203   0.330  -9.355  1.00  0.00     0.243 C 
ATOM     16  O   UNL     1      -2.261   1.526  -9.076  1.00  0.00    -0.273 OA
ATOM     17  H   UNL     1      -3.215  -1.416  -9.794  1.00  0.00     0.164 HD
BRANCH  15  18
ATOM     18  C   UNL     1      -0.903  -0.388  -9.796  1.00  0.00     0.171 C 
BRANCH  18  19
ATOM     19  N   UNL     1      -0.803  -0.219 -11.244  1.00  0.00    -0.343 N 
ATOM     20  C   UNL     1      -0.442  -1.261 -12.076  1.00  0.00     0.242 CG0
ATOM     21  O   UNL     1      -0.060  -2.340 -11.628  1.00  0.00    -0.273 OA
ATOM     22  H   UNL     1      -0.997   0.688 -11.654  1.00  0.00     0.164 HD
ATOM     23  G   UNL     1      -0.466  -0.914 -13.579  1.00  0.00     0.000 G0
ENDBRANCH  18  19
BRANCH  18  24
ATOM     24  C   UNL     1       0.314   0.204  -9.075  1.00  0.00     0.038 C 
BRANCH  24  25
ATOM     25  C   UNL     1       0.507  -0.288  -7.625  1.00  0.00    -0.015 C 
ATOM     26  C   UNL     1       0.494   0.857  -6.612  1.00  0.00     0.007 C 
ATOM     27  C   UNL     1       1.824  -1.059  -7.514  1.00  0.00     0.007 C 
ENDBRANCH  24  25
ENDBRANCH  18  24
ENDBRANCH  15  18
ENDBRANCH  13  14
BRANCH  13  28
ATOM     28  C   UNL     1      -5.282   0.272 -10.607  1.00  0.00     0.327 C 
ATOM     29  O   UNL     1      -6.172   1.060 -10.888  1.00  0.00    -0.250 OA
BRANCH  28  30
ATOM     30  O   UNL     1      -4.811  -0.585 -11.536  1.00  0.00    -0.480 OA
ATOM     31  H   UNL     1      -4.239  -1.198 -11.030  1.00  0.00     0.296 HD
ENDBRANCH  28  30
ENDBRANCH  13  28
ENDBRANCH  11  13
ENDBRANCH   8  11
ENDBRANCH   6   7
BRANCH   6  32
ATOM     32  C   UNL     1      -7.092  -1.685  -3.815  1.00  0.00     0.037 C 
BRANCH  32  33
ATOM     33  C   UNL     1      -8.384  -0.951  -4.203  1.00  0.00     0.026 C 
BRANCH  33  34
ATOM     34  C   UNL     1      -9.640  -1.705  -3.763  1.00  0.00     0.146 C 
BRANCH  34  35
ATOM     35  N   UNL     1      -9.446  -3.127  -4.011  1.00  0.00    -0.254 NA
ATOM     36  C   UNL     1     -10.028  -3.660  -5.020  1.00  0.00     0.185 C 
ATOM     37  N   UNL     1      -9.852  -4.968  -5.261  1.00  0.00    -0.370 N 
ATOM     38  N   UNL     1     -10.835  -3.086  -5.930  1.00  0.00    -0.370 N 
ATOM     39  H   UNL     1      -9.248  -5.470  -4.623  1.00  0.00     0.159 HD
ATOM     40  H   UNL     1     -10.128  -5.418  -6.117  1.00  0.00     0.159 HD
ATOM     41  H   UNL     1     -11.345  -3.640  -6.598  1.00  0.00     0.159 HD
ATOM     42  H   UNL     1     -11.068  -2.107  -5.864  1.00  0.00     0.159 HD
ENDBRANCH  34  35
ENDBRANCH  33  34
ENDBRANCH  32  33
ENDBRANCH   6  32
ENDBRANCH   4   6
ENDBRANCH   1   2
BRANCH   1  43
ATOM     43  C   UNL     1      -3.347  -2.978  -1.181  1.00  0.00     0.102 C 
ATOM     44  C   UNL     1      -1.987  -3.472  -0.659  1.00  0.00     0.020 C 
BRANCH  43  45
ATOM     45  C   UNL     1      -4.470  -3.033  -0.140  1.00  0.00     0.225 C 
ATOM     46  O   UNL     1      -5.522  -2.412  -0.255  1.00  0.00    -0.275 OA
ATOM     47  N   UNL     1      -4.189  -3.757   0.996  1.00  0.00    -0.342 N 
ATOM     48  H   UNL     1      -3.392  -4.379   1.009  1.00  0.00     0.164 HD
BRANCH  47  49
ATOM     49  C   UNL     1      -5.181  -3.927   2.062  1.00  0.00     0.192 C 
BRANCH  49  50
ATOM     50  C   UNL     1      -4.469  -4.131   3.401  1.00  0.00     0.047 C 
BRANCH  50  51
ATOM     51  C   UNL     1      -5.401  -3.900   4.598  1.00  0.00     0.103 C 
BRANCH  51  52
ATOM     52  C   UNL     1      -5.475  -5.121   5.512  1.00  0.00     0.226 C 
ATOM     53  O   UNL     1      -4.601  -5.987   5.445  1.00  0.00    -0.275 OA
BRANCH  52  54
ATOM     54  N   UNL     1      -6.526  -5.141   6.447  1.00  0.00    -0.311 N 
ATOM     55  C   UNL     1      -7.616  -4.158   6.381  1.00  0.00     0.153 C 
BRANCH  54  56
ATOM     56  C   UNL     1      -6.577  -6.101   7.472  1.00  0.00     0.102 C 
ATOM     57  C   UNL     1      -6.433  -5.836   8.780  1.00  0.00     0.043 C 
BRANCH  56  58
ATOM     58  C   UNL     1      -6.853  -7.553   7.160  1.00  0.00     0.268 C 
ATOM     59  O   UNL     1      -7.941  -7.961   6.777  1.00  0.00    -0.268 OA
ATOM     60  N   UNL     1      -5.743  -8.354   7.287  1.00  0.00    -0.339 N 
ATOM     61  H   UNL     1      -4.880  -7.940   7.620  1.00  0.00     0.164 HD
BRANCH  60  62
ATOM     62  C   UNL     1      -5.772  -9.782   6.974  1.00  0.00     0.168 CG0
ATOM     63  C   UNL     1      -5.678 -10.622   8.242  1.00  0.00     0.041 C 
ATOM     64  G   UNL     1      -4.620 -10.122   6.006  1.00  0.00     0.000 G0
ENDBRANCH  60  62
ENDBRANCH  56  58
ENDBRANCH  54  56
ENDBRANCH  52  54
ENDBRANCH  51  52
ENDBRANCH  50  51
ENDBRANCH  49  50
BRANCH  49  65
ATOM     65  C   UNL     1      -6.106  -5.124   1.789  1.00  0.00     0.326 C 
ATOM     66  O   UNL     1      -7.173  -5.077   1.194  1.00  0.00    -0.250 OA
BRANCH  65  67
ATOM     67  O   UNL     1      -5.686  -6.293   2.321  1.00  0.00    -0.480 OA
ATOM     68  H   UNL     1      -5.810  -6.937   1.591  1.00  0.00     0.296 HD
ENDBRANCH  65  67
ENDBRANCH  49  65
ENDBRANCH  47  49
ENDBRANCH  43  45
ENDBRANCH   1  43
BRANCH   1  69
ATOM     69  C   UNL     1      -2.743  -3.899  -3.588  1.00  0.00    -0.001 C 
ATOM     70  C   UNL     1      -2.311  -5.083  -4.056  1.00  0.00     0.001 C 
BRANCH  70  71
ATOM     71  C   UNL     1      -1.321  -5.303  -5.112  1.00  0.00    -0.055 C 
ATOM     72  C   UNL     1      -1.714  -5.117  -6.390  1.00  0.00    -0.018 C 
ATOM     73  C   UNL     1       0.068  -5.713  -4.698  1.00  0.00     0.044 C 
BRANCH  72  74
ATOM     74  C   UNL     1      -0.913  -5.267  -7.675  1.00  0.00     0.038 C 
ATOM     75  C   UNL     1      -0.550  -3.855  -8.150  1.00  0.00     0.015 C 
BRANCH  74  76
ATOM     76  C   UNL     1      -1.746  -6.103  -8.691  1.00  0.00     0.128 C 
BRANCH  76  77
ATOM     77  O   UNL     1      -1.078  -7.345  -8.970  1.00  0.00    -0.381 OA
ATOM     78  C   UNL     1       0.326  -7.211  -9.147  1.00  0.00     0.195 C 
ENDBRANCH  76  77
BRANCH  76  79
ATOM     79  C   UNL     1      -3.227  -6.298  -8.279  1.00  0.00     0.068 C 
BRANCH  79  80
ATOM     80  C   UNL     1      -4.276  -5.494  -9.010  1.00  0.00    -0.045 A 
ATOM     81  C   UNL     1      -5.641  -5.717  -8.786  1.00  0.00     0.004 A 
ATOM     82  C   UNL     1      -3.896  -4.526  -9.951  1.00  0.00     0.004 A 
ATOM     83  C   UNL     1      -6.605  -4.979  -9.476  1.00  0.00     0.000 A 
ATOM     84  C   UNL     1      -4.861  -3.789 -10.641  1.00  0.00     0.000 A 
ATOM     85  C   UNL     1      -6.215  -4.014 -10.403  1.00  0.00     0.000 A 
ENDBRANCH  79  80
ENDBRANCH  76  79
ENDBRANCH  74  76
ENDBRANCH  72  74
ENDBRANCH  70  71
ENDBRANCH   1  69
TORSDOF 17
ENDMDL
MODEL 12
REMARK VINA RESULT:    -5.902      3.670     13.486
REMARK INTER + INTRA:         -25.308
REMARK INTER:                 -18.766
REMARK INTRA:                  -6.542
REMARK UNBOUND:                -7.676
REMARK SMILES C=C1C(=O)N[C@H](C)C(=O)N[C@@H](CC(C)C)C(=O)N[C@@H](C(=O)O)[C@H](C)C(=O)N[C@@H](CCCN=C(N)N)C(=O)N[C@@H](/C=C/C(C)=C/[C@H](C)[C@H](Cc2ccccc2)OC)[C@H](C)C(=O)N[C@@H](C(=O)O)CCC(=O)N1C
REMARK SMILES IDX 39 1 38 2 37 3 36 4 28 6 27 7 25 8 26 9 23 11 24 12 19 13
REMARK SMILES IDX 18 14 16 15 17 16 11 18 10 19 8 20 9 21 12 24 13 25 14 26
REMARK SMILES IDX 15 27 20 28 21 29 22 30 29 32 30 33 31 34 32 35 33 36 34 37
REMARK SMILES IDX 35 38 57 43 58 44 59 45 60 46 61 47 62 49 66 50 67 51 68 52
REMARK SMILES IDX 69 53 70 54 71 55 2 56 1 57 3 58 4 59 5 60 6 62 7 63 63 65
REMARK SMILES IDX 64 66 65 67 40 69 41 70 42 71 44 72 43 73 45 74 46 75 47 76
REMARK SMILES IDX 55 77 56 78 48 79 49 80 50 81 54 82 51 83 53 84 52 85
REMARK H PARENT 38 5 27 10 18 17 10 22 22 31 34 39 34 40 35 41 35 42 61 48
REMARK H PARENT 5 61 65 68
REMARK Flexibility Score:  369.900
ROOT
ATOM      1  C   UNL     1      -5.318  -2.705  -0.120  1.00  0.00     0.117 C 
ENDROOT
BRANCH   1   2
ATOM      2  N   UNL     1      -5.235  -2.598   1.337  1.00  0.00    -0.347 N 
ATOM      3  O   UNL     1      -4.560  -4.749   1.771  1.00  0.00    -0.273 OA
ATOM      4  C   UNL     1      -4.773  -3.606   2.161  1.00  0.00     0.243 C 
ATOM      5  H   UNL     1      -5.479  -1.727   1.784  1.00  0.00     0.164 HD
BRANCH   4   6
ATOM      6  C   UNL     1      -4.705  -3.205   3.657  1.00  0.00     0.171 C 
BRANCH   6   7
ATOM      7  N   UNL     1      -5.439  -1.951   3.888  1.00  0.00    -0.344 N 
ATOM      8  C   UNL     1      -4.773  -0.809   4.279  1.00  0.00     0.226 C 
ATOM      9  O   UNL     1      -3.564  -0.784   4.473  1.00  0.00    -0.275 OA
ATOM     10  H   UNL     1      -6.448  -1.950   3.803  1.00  0.00     0.164 HD
BRANCH   8  11
ATOM     11  C   UNL     1      -5.661   0.414   4.422  1.00  0.00     0.109 C 
ATOM     12  C   UNL     1      -6.983   0.194   3.686  1.00  0.00     0.021 C 
BRANCH  11  13
ATOM     13  C   UNL     1      -5.803   0.784   5.912  1.00  0.00     0.204 C 
BRANCH  13  14
ATOM     14  N   UNL     1      -6.069  -0.390   6.749  1.00  0.00    -0.340 N 
ATOM     15  C   UNL     1      -6.837  -0.336   7.892  1.00  0.00     0.243 C 
ATOM     16  O   UNL     1      -7.404   0.692   8.258  1.00  0.00    -0.273 OA
ATOM     17  H   UNL     1      -5.509  -1.232   6.588  1.00  0.00     0.164 HD
BRANCH  15  18
ATOM     18  C   UNL     1      -6.806  -1.644   8.721  1.00  0.00     0.171 C 
BRANCH  18  19
ATOM     19  N   UNL     1      -8.014  -1.646   9.544  1.00  0.00    -0.343 N 
ATOM     20  C   UNL     1      -8.013  -1.172  10.841  1.00  0.00     0.242 CG0
ATOM     21  O   UNL     1      -6.971  -0.851  11.408  1.00  0.00    -0.273 OA
ATOM     22  H   UNL     1      -8.878  -2.010   9.158  1.00  0.00     0.164 HD
ATOM     23  G   UNL     1      -9.396  -1.182  11.524  1.00  0.00     0.000 G0
ENDBRANCH  18  19
BRANCH  18  24
ATOM     24  C   UNL     1      -6.752  -2.868   7.798  1.00  0.00     0.038 C 
BRANCH  24  25
ATOM     25  C   UNL     1      -7.706  -4.015   8.193  1.00  0.00    -0.015 C 
ATOM     26  C   UNL     1      -6.974  -5.184   8.853  1.00  0.00     0.007 C 
ATOM     27  C   UNL     1      -8.456  -4.511   6.954  1.00  0.00     0.007 C 
ENDBRANCH  24  25
ENDBRANCH  18  24
ENDBRANCH  15  18
ENDBRANCH  13  14
BRANCH  13  28
ATOM     28  C   UNL     1      -4.561   1.476   6.483  1.00  0.00     0.327 C 
ATOM     29  O   UNL     1      -4.184   2.610   6.229  1.00  0.00    -0.250 OA
BRANCH  28  30
ATOM     30  O   UNL     1      -3.804   0.661   7.245  1.00  0.00    -0.480 OA
ATOM     31  H   UNL     1      -3.732  -0.163   6.719  1.00  0.00     0.296 HD
ENDBRANCH  28  30
ENDBRANCH  13  28
ENDBRANCH  11  13
ENDBRANCH   8  11
ENDBRANCH   6   7
BRANCH   6  32
ATOM     32  C   UNL     1      -5.282  -4.342   4.509  1.00  0.00     0.037 C 
BRANCH  32  33
ATOM     33  C   UNL     1      -4.193  -5.093   5.287  1.00  0.00     0.026 C 
BRANCH  33  34
ATOM     34  C   UNL     1      -4.744  -6.300   6.048  1.00  0.00     0.146 C 
BRANCH  34  35
ATOM     35  N   UNL     1      -6.030  -6.671   5.473  1.00  0.00    -0.254 NA
ATOM     36  C   UNL     1      -6.695  -7.620   6.017  1.00  0.00     0.185 C 
ATOM     37  N   UNL     1      -7.883  -7.967   5.498  1.00  0.00    -0.370 N 
ATOM     38  N   UNL     1      -6.377  -8.369   7.087  1.00  0.00    -0.370 N 
ATOM     39  H   UNL     1      -8.199  -7.440   4.693  1.00  0.00     0.159 HD
ATOM     40  H   UNL     1      -8.537  -8.573   5.963  1.00  0.00     0.159 HD
ATOM     41  H   UNL     1      -6.919  -9.180   7.335  1.00  0.00     0.159 HD
ATOM     42  H   UNL     1      -5.503  -8.229   7.569  1.00  0.00     0.159 HD
ENDBRANCH  34  35
ENDBRANCH  33  34
ENDBRANCH  32  33
ENDBRANCH   6  32
ENDBRANCH   4   6
ENDBRANCH   1   2
BRANCH   1  43
ATOM     43  C   UNL     1      -4.079  -1.998  -0.740  1.00  0.00     0.102 C 
ATOM     44  C   UNL     1      -4.409  -1.175  -1.997  1.00  0.00     0.020 C 
BRANCH  43  45
ATOM     45  C   UNL     1      -2.921  -2.982  -0.928  1.00  0.00     0.225 C 
ATOM     46  O   UNL     1      -1.944  -3.018  -0.185  1.00  0.00    -0.275 OA
ATOM     47  N   UNL     1      -2.994  -3.775  -2.050  1.00  0.00    -0.342 N 
ATOM     48  H   UNL     1      -3.863  -3.842  -2.560  1.00  0.00     0.164 HD
BRANCH  47  49
ATOM     49  C   UNL     1      -1.974  -4.789  -2.340  1.00  0.00     0.192 C 
BRANCH  49  50
ATOM     50  C   UNL     1      -2.304  -5.487  -3.661  1.00  0.00     0.047 C 
BRANCH  50  51
ATOM     51  C   UNL     1      -1.453  -4.962  -4.825  1.00  0.00     0.103 C 
BRANCH  51  52
ATOM     52  C   UNL     1      -2.280  -4.150  -5.820  1.00  0.00     0.226 C 
ATOM     53  O   UNL     1      -3.060  -3.290  -5.407  1.00  0.00    -0.275 OA
BRANCH  52  54
ATOM     54  N   UNL     1      -2.034  -4.392  -7.184  1.00  0.00    -0.311 N 
ATOM     55  C   UNL     1      -1.595  -5.714  -7.651  1.00  0.00     0.153 C 
BRANCH  54  56
ATOM     56  C   UNL     1      -2.203  -3.385  -8.149  1.00  0.00     0.102 C 
ATOM     57  C   UNL     1      -1.317  -2.408  -8.404  1.00  0.00     0.043 C 
BRANCH  56  58
ATOM     58  C   UNL     1      -3.427  -3.357  -9.034  1.00  0.00     0.268 C 
ATOM     59  O   UNL     1      -3.388  -3.065 -10.222  1.00  0.00    -0.268 OA
ATOM     60  N   UNL     1      -4.571  -3.758  -8.387  1.00  0.00    -0.339 N 
ATOM     61  H   UNL     1      -4.521  -3.974  -7.398  1.00  0.00     0.164 HD
BRANCH  60  62
ATOM     62  C   UNL     1      -5.858  -3.865  -9.073  1.00  0.00     0.168 CG0
ATOM     63  C   UNL     1      -6.318  -5.315  -9.149  1.00  0.00     0.041 C 
ATOM     64  G   UNL     1      -5.743  -3.254 -10.485  1.00  0.00     0.000 G0
ENDBRANCH  60  62
ENDBRANCH  56  58
ENDBRANCH  54  56
ENDBRANCH  52  54
ENDBRANCH  51  52
ENDBRANCH  50  51
ENDBRANCH  49  50
BRANCH  49  65
ATOM     65  C   UNL     1      -1.883  -5.837  -1.219  1.00  0.00     0.326 C 
ATOM     66  O   UNL     1      -0.879  -6.464  -0.914  1.00  0.00    -0.250 OA
BRANCH  65  67
ATOM     67  O   UNL     1      -3.050  -6.089  -0.587  1.00  0.00    -0.480 OA
ATOM     68  H   UNL     1      -3.002  -5.530   0.219  1.00  0.00     0.296 HD
ENDBRANCH  65  67
ENDBRANCH  49  65
ENDBRANCH  47  49
ENDBRANCH  43  45
ENDBRANCH   1  43
BRANCH   1  69
ATOM     69  C   UNL     1      -6.706  -2.222  -0.502  1.00  0.00    -0.001 C 
ATOM     70  C   UNL     1      -7.723  -1.923   0.325  1.00  0.00     0.001 C 
BRANCH  70  71
ATOM     71  C   UNL     1      -9.051  -1.437  -0.055  1.00  0.00    -0.055 C 
ATOM     72  C   UNL     1      -9.834  -2.258  -0.787  1.00  0.00    -0.018 C 
ATOM     73  C   UNL     1      -9.453  -0.060   0.404  1.00  0.00     0.044 C 
BRANCH  72  74
ATOM     74  C   UNL     1     -11.243  -2.026  -1.316  1.00  0.00     0.038 C 
ATOM     75  C   UNL     1     -12.131  -3.134  -0.736  1.00  0.00     0.015 C 
BRANCH  74  76
ATOM     76  C   UNL     1     -11.191  -1.977  -2.871  1.00  0.00     0.128 C 
BRANCH  76  77
ATOM     77  O   UNL     1     -10.799  -0.665  -3.308  1.00  0.00    -0.381 OA
ATOM     78  C   UNL     1     -11.893   0.216  -3.524  1.00  0.00     0.195 C 
ENDBRANCH  76  77
BRANCH  76  79
ATOM     79  C   UNL     1     -10.337  -3.102  -3.509  1.00  0.00     0.068 C 
BRANCH  79  80
ATOM     80  C   UNL     1      -9.198  -2.698  -4.413  1.00  0.00    -0.045 A 
ATOM     81  C   UNL     1      -9.423  -2.377  -5.758  1.00  0.00     0.004 A 
ATOM     82  C   UNL     1      -7.884  -2.665  -3.923  1.00  0.00     0.004 A 
ATOM     83  C   UNL     1      -8.361  -2.018  -6.592  1.00  0.00     0.000 A 
ATOM     84  C   UNL     1      -6.823  -2.307  -4.757  1.00  0.00     0.000 A 
ATOM     85  C   UNL     1      -7.062  -1.982  -6.091  1.00  0.00     0.000 A 
ENDBRANCH  79  80
ENDBRANCH  76  79
ENDBRANCH  74  76
ENDBRANCH  72  74
ENDBRANCH  70  71
ENDBRANCH   1  69
TORSDOF 17
ENDMDL
MODEL 13
REMARK VINA RESULT:    -5.901      3.046     12.220
REMARK INTER + INTRA:         -25.305
REMARK INTER:                 -17.561
REMARK INTRA:                  -7.744
REMARK UNBOUND:                -7.676
REMARK SMILES C=C1C(=O)N[C@H](C)C(=O)N[C@@H](CC(C)C)C(=O)N[C@@H](C(=O)O)[C@H](C)C(=O)N[C@@H](CCCN=C(N)N)C(=O)N[C@@H](/C=C/C(C)=C/[C@H](C)[C@H](Cc2ccccc2)OC)[C@H](C)C(=O)N[C@@H](C(=O)O)CCC(=O)N1C
REMARK SMILES IDX 39 1 38 2 37 3 36 4 28 6 27 7 25 8 26 9 23 11 24 12 19 13
REMARK SMILES IDX 18 14 16 15 17 16 11 18 10 19 8 20 9 21 12 24 13 25 14 26
REMARK SMILES IDX 15 27 20 28 21 29 22 30 29 32 30 33 31 34 32 35 33 36 34 37
REMARK SMILES IDX 35 38 57 43 58 44 59 45 60 46 61 47 62 49 66 50 67 51 68 52
REMARK SMILES IDX 69 53 70 54 71 55 2 56 1 57 3 58 4 59 5 60 6 62 7 63 63 65
REMARK SMILES IDX 64 66 65 67 40 69 41 70 42 71 44 72 43 73 45 74 46 75 47 76
REMARK SMILES IDX 55 77 56 78 48 79 49 80 50 81 54 82 51 83 53 84 52 85
REMARK H PARENT 38 5 27 10 18 17 10 22 22 31 34 39 34 40 35 41 35 42 61 48
REMARK H PARENT 5 61 65 68
REMARK Flexibility Score:  369.900
ROOT
ATOM      1  C   UNL     1      -6.924  -2.224  -5.771  1.00  0.00     0.117 C 
ENDROOT
BRANCH   1   2
ATOM      2  N   UNL     1      -5.699  -2.233  -4.970  1.00  0.00    -0.347 N 
ATOM      3  O   UNL     1      -6.279  -0.574  -3.494  1.00  0.00    -0.273 OA
ATOM      4  C   UNL     1      -5.512  -1.468  -3.835  1.00  0.00     0.243 C 
ATOM      5  H   UNL     1      -4.952  -2.866  -5.215  1.00  0.00     0.164 HD
BRANCH   4   6
ATOM      6  C   UNL     1      -4.160  -1.729  -3.124  1.00  0.00     0.171 C 
BRANCH   6   7
ATOM      7  N   UNL     1      -4.384  -2.319  -1.794  1.00  0.00    -0.344 N 
ATOM      8  C   UNL     1      -4.243  -1.558  -0.655  1.00  0.00     0.226 C 
ATOM      9  O   UNL     1      -3.908  -0.379  -0.685  1.00  0.00    -0.275 OA
ATOM     10  H   UNL     1      -4.596  -3.307  -1.725  1.00  0.00     0.164 HD
BRANCH   8  11
ATOM     11  C   UNL     1      -4.562  -2.296   0.634  1.00  0.00     0.109 C 
ATOM     12  C   UNL     1      -4.203  -3.775   0.495  1.00  0.00     0.021 C 
BRANCH  11  13
ATOM     13  C   UNL     1      -3.897  -1.576   1.825  1.00  0.00     0.204 C 
BRANCH  13  14
ATOM     14  N   UNL     1      -4.574  -1.867   3.092  1.00  0.00    -0.340 N 
ATOM     15  C   UNL     1      -4.828  -0.902   4.043  1.00  0.00     0.243 C 
ATOM     16  O   UNL     1      -4.559   0.285   3.868  1.00  0.00    -0.273 OA
ATOM     17  H   UNL     1      -4.686  -2.847   3.364  1.00  0.00     0.164 HD
BRANCH  15  18
ATOM     18  C   UNL     1      -5.360  -1.476   5.379  1.00  0.00     0.171 C 
BRANCH  18  19
ATOM     19  N   UNL     1      -6.206  -0.441   5.972  1.00  0.00    -0.343 N 
ATOM     20  C   UNL     1      -6.119  -0.106   7.310  1.00  0.00     0.242 CG0
ATOM     21  O   UNL     1      -5.424  -0.752   8.090  1.00  0.00    -0.273 OA
ATOM     22  H   UNL     1      -6.880   0.043   5.391  1.00  0.00     0.164 HD
ATOM     23  G   UNL     1      -7.033   1.061   7.735  1.00  0.00     0.000 G0
ENDBRANCH  18  19
BRANCH  18  24
ATOM     24  C   UNL     1      -6.144  -2.772   5.139  1.00  0.00     0.038 C 
BRANCH  24  25
ATOM     25  C   UNL     1      -5.670  -3.977   5.979  1.00  0.00    -0.015 C 
ATOM     26  C   UNL     1      -5.043  -5.077   5.123  1.00  0.00     0.007 C 
ATOM     27  C   UNL     1      -6.850  -4.548   6.769  1.00  0.00     0.007 C 
ENDBRANCH  24  25
ENDBRANCH  18  24
ENDBRANCH  15  18
ENDBRANCH  13  14
BRANCH  13  28
ATOM     28  C   UNL     1      -2.421  -1.943   2.004  1.00  0.00     0.327 C 
ATOM     29  O   UNL     1      -1.963  -2.715   2.834  1.00  0.00    -0.250 OA
BRANCH  28  30
ATOM     30  O   UNL     1      -1.598  -1.229   1.209  1.00  0.00    -0.480 OA
ATOM     31  H   UNL     1      -0.994  -0.775   1.833  1.00  0.00     0.296 HD
ENDBRANCH  28  30
ENDBRANCH  13  28
ENDBRANCH  11  13
ENDBRANCH   8  11
ENDBRANCH   6   7
BRANCH   6  32
ATOM     32  C   UNL     1      -3.302  -2.653  -3.995  1.00  0.00     0.037 C 
BRANCH  32  33
ATOM     33  C   UNL     1      -2.368  -3.537  -3.157  1.00  0.00     0.026 C 
BRANCH  33  34
ATOM     34  C   UNL     1      -2.687  -5.026  -3.301  1.00  0.00     0.146 C 
BRANCH  34  35
ATOM     35  N   UNL     1      -2.312  -5.708  -2.070  1.00  0.00    -0.254 NA
ATOM     36  C   UNL     1      -1.193  -6.330  -2.029  1.00  0.00     0.185 C 
ATOM     37  N   UNL     1      -0.835  -6.958  -0.898  1.00  0.00    -0.370 N 
ATOM     38  N   UNL     1      -0.265  -6.464  -2.993  1.00  0.00    -0.370 N 
ATOM     39  H   UNL     1      -1.479  -6.894  -0.120  1.00  0.00     0.159 HD
ATOM     40  H   UNL     1       0.090  -7.315  -0.729  1.00  0.00     0.159 HD
ATOM     41  H   UNL     1       0.511  -7.097  -2.885  1.00  0.00     0.159 HD
ATOM     42  H   UNL     1      -0.409  -6.057  -3.904  1.00  0.00     0.159 HD
ENDBRANCH  34  35
ENDBRANCH  33  34
ENDBRANCH  32  33
ENDBRANCH   6  32
ENDBRANCH   4   6
ENDBRANCH   1   2
BRANCH   1  43
ATOM     43  C   UNL     1      -6.881  -0.997  -6.727  1.00  0.00     0.102 C 
ATOM     44  C   UNL     1      -7.927   0.079  -6.388  1.00  0.00     0.020 C 
BRANCH  43  45
ATOM     45  C   UNL     1      -6.898  -1.440  -8.193  1.00  0.00     0.225 C 
ATOM     46  O   UNL     1      -7.922  -1.488  -8.868  1.00  0.00    -0.275 OA
ATOM     47  N   UNL     1      -5.693  -1.879  -8.693  1.00  0.00    -0.342 N 
ATOM     48  H   UNL     1      -4.842  -1.692  -8.182  1.00  0.00     0.164 HD
BRANCH  47  49
ATOM     49  C   UNL     1      -5.551  -2.300 -10.090  1.00  0.00     0.192 C 
BRANCH  49  50
ATOM     50  C   UNL     1      -5.092  -3.759 -10.143  1.00  0.00     0.047 C 
BRANCH  50  51
ATOM     51  C   UNL     1      -4.645  -4.279  -8.770  1.00  0.00     0.103 C 
BRANCH  51  52
ATOM     52  C   UNL     1      -3.408  -5.169  -8.869  1.00  0.00     0.226 C 
ATOM     53  O   UNL     1      -3.365  -6.064  -9.716  1.00  0.00    -0.275 OA
BRANCH  52  54
ATOM     54  N   UNL     1      -2.337  -4.852  -8.012  1.00  0.00    -0.311 N 
ATOM     55  C   UNL     1      -2.007  -5.708  -6.865  1.00  0.00     0.153 C 
BRANCH  54  56
ATOM     56  C   UNL     1      -1.543  -3.712  -8.223  1.00  0.00     0.102 C 
ATOM     57  C   UNL     1      -1.355  -2.731  -7.326  1.00  0.00     0.043 C 
BRANCH  56  58
ATOM     58  C   UNL     1      -0.779  -3.528  -9.513  1.00  0.00     0.268 C 
ATOM     59  O   UNL     1      -0.063  -4.394  -9.996  1.00  0.00    -0.268 OA
ATOM     60  N   UNL     1      -1.023  -2.318 -10.117  1.00  0.00    -0.339 N 
ATOM     61  H   UNL     1      -1.621  -1.650  -9.646  1.00  0.00     0.164 HD
BRANCH  60  62
ATOM     62  C   UNL     1      -0.434  -1.958 -11.406  1.00  0.00     0.168 CG0
ATOM     63  C   UNL     1       0.385  -0.679 -11.296  1.00  0.00     0.041 C 
ATOM     64  G   UNL     1      -1.551  -1.803 -12.459  1.00  0.00     0.000 G0
ENDBRANCH  60  62
ENDBRANCH  56  58
ENDBRANCH  54  56
ENDBRANCH  52  54
ENDBRANCH  51  52
ENDBRANCH  50  51
ENDBRANCH  49  50
BRANCH  49  65
ATOM     65  C   UNL     1      -4.543  -1.421 -10.847  1.00  0.00     0.326 C 
ATOM     66  O   UNL     1      -3.563  -0.878 -10.355  1.00  0.00    -0.250 OA
BRANCH  65  67
ATOM     67  O   UNL     1      -4.839  -1.217 -12.149  1.00  0.00    -0.480 OA
ATOM     68  H   UNL     1      -5.692  -1.687 -12.269  1.00  0.00     0.296 HD
ENDBRANCH  65  67
ENDBRANCH  49  65
ENDBRANCH  47  49
ENDBRANCH  43  45
ENDBRANCH   1  43
BRANCH   1  69
ATOM     69  C   UNL     1      -8.074  -2.350  -4.789  1.00  0.00    -0.001 C 
ATOM     70  C   UNL     1      -8.744  -3.466  -4.454  1.00  0.00     0.001 C 
BRANCH  70  71
ATOM     71  C   UNL     1      -9.839  -3.579  -3.488  1.00  0.00    -0.055 C 
ATOM     72  C   UNL     1     -10.174  -2.474  -2.788  1.00  0.00    -0.018 C 
ATOM     73  C   UNL     1     -10.518  -4.916  -3.349  1.00  0.00     0.044 C 
BRANCH  72  74
ATOM     74  C   UNL     1     -11.257  -2.294  -1.734  1.00  0.00     0.038 C 
ATOM     75  C   UNL     1     -12.062  -1.047  -2.120  1.00  0.00     0.015 C 
BRANCH  74  76
ATOM     76  C   UNL     1     -10.584  -2.229  -0.331  1.00  0.00     0.128 C 
BRANCH  76  77
ATOM     77  O   UNL     1     -11.178  -3.203   0.543  1.00  0.00    -0.381 OA
ATOM     78  C   UNL     1     -12.138  -4.034  -0.095  1.00  0.00     0.195 C 
ENDBRANCH  76  77
BRANCH  76  79
ATOM     79  C   UNL     1      -9.038  -2.321  -0.370  1.00  0.00     0.068 C 
BRANCH  79  80
ATOM     80  C   UNL     1      -8.382  -3.495   0.316  1.00  0.00    -0.045 A 
ATOM     81  C   UNL     1      -7.994  -3.421   1.660  1.00  0.00     0.004 A 
ATOM     82  C   UNL     1      -8.125  -4.676  -0.396  1.00  0.00     0.004 A 
ATOM     83  C   UNL     1      -7.375  -4.507   2.283  1.00  0.00     0.000 A 
ATOM     84  C   UNL     1      -7.506  -5.761   0.228  1.00  0.00     0.000 A 
ATOM     85  C   UNL     1      -7.132  -5.677   1.567  1.00  0.00     0.000 A 
ENDBRANCH  79  80
ENDBRANCH  76  79
ENDBRANCH  74  76
ENDBRANCH  72  74
ENDBRANCH  70  71
ENDBRANCH   1  69
TORSDOF 17
ENDMDL
MODEL 14
REMARK VINA RESULT:    -5.890      3.367      6.278
REMARK INTER + INTRA:         -25.274
REMARK INTER:                 -16.538
REMARK INTRA:                  -8.736
REMARK UNBOUND:                -7.676
REMARK SMILES C=C1C(=O)N[C@H](C)C(=O)N[C@@H](CC(C)C)C(=O)N[C@@H](C(=O)O)[C@H](C)C(=O)N[C@@H](CCCN=C(N)N)C(=O)N[C@@H](/C=C/C(C)=C/[C@H](C)[C@H](Cc2ccccc2)OC)[C@H](C)C(=O)N[C@@H](C(=O)O)CCC(=O)N1C
REMARK SMILES IDX 39 1 38 2 37 3 36 4 28 6 27 7 25 8 26 9 23 11 24 12 19 13
REMARK SMILES IDX 18 14 16 15 17 16 11 18 10 19 8 20 9 21 12 24 13 25 14 26
REMARK SMILES IDX 15 27 20 28 21 29 22 30 29 32 30 33 31 34 32 35 33 36 34 37
REMARK SMILES IDX 35 38 57 43 58 44 59 45 60 46 61 47 62 49 66 50 67 51 68 52
REMARK SMILES IDX 69 53 70 54 71 55 2 56 1 57 3 58 4 59 5 60 6 62 7 63 63 65
REMARK SMILES IDX 64 66 65 67 40 69 41 70 42 71 44 72 43 73 45 74 46 75 47 76
REMARK SMILES IDX 55 77 56 78 48 79 49 80 50 81 54 82 51 83 53 84 52 85
REMARK H PARENT 38 5 27 10 18 17 10 22 22 31 34 39 34 40 35 41 35 42 61 48
REMARK H PARENT 5 61 65 68
REMARK Flexibility Score:  369.900
ROOT
ATOM      1  C   UNL     1      -2.187  -1.170  -6.774  1.00  0.00     0.117 C 
ENDROOT
BRANCH   1   2
ATOM      2  N   UNL     1      -2.429  -1.140  -8.217  1.00  0.00    -0.347 N 
ATOM      3  O   UNL     1      -4.593  -0.379  -8.156  1.00  0.00    -0.273 OA
ATOM      4  C   UNL     1      -3.586  -0.658  -8.797  1.00  0.00     0.243 C 
ATOM      5  H   UNL     1      -1.699  -1.439  -8.846  1.00  0.00     0.164 HD
BRANCH   4   6
ATOM      6  C   UNL     1      -3.553  -0.659 -10.347  1.00  0.00     0.171 C 
BRANCH   6   7
ATOM      7  N   UNL     1      -2.306  -1.269 -10.834  1.00  0.00    -0.344 N 
ATOM      8  C   UNL     1      -1.340  -0.500 -11.448  1.00  0.00     0.226 C 
ATOM      9  O   UNL     1      -1.475   0.703 -11.637  1.00  0.00    -0.275 OA
ATOM     10  H   UNL     1      -2.187  -2.271 -10.757  1.00  0.00     0.164 HD
BRANCH   8  11
ATOM     11  C   UNL     1      -0.090  -1.266 -11.845  1.00  0.00     0.109 C 
ATOM     12  C   UNL     1       0.352  -0.858 -13.250  1.00  0.00     0.021 C 
BRANCH  11  13
ATOM     13  C   UNL     1       0.988  -1.106 -10.754  1.00  0.00     0.204 C 
BRANCH  13  14
ATOM     14  N   UNL     1       1.270   0.303 -10.460  1.00  0.00    -0.340 N 
ATOM     15  C   UNL     1       2.492   0.889 -10.711  1.00  0.00     0.243 C 
ATOM     16  O   UNL     1       3.414   0.286 -11.257  1.00  0.00    -0.273 OA
ATOM     17  H   UNL     1       0.606   0.813  -9.872  1.00  0.00     0.164 HD
BRANCH  15  18
ATOM     18  C   UNL     1       2.623   2.318 -10.130  1.00  0.00     0.171 C 
BRANCH  18  19
ATOM     19  N   UNL     1       2.315   3.243 -11.219  1.00  0.00    -0.343 N 
ATOM     20  C   UNL     1       3.309   3.845 -11.966  1.00  0.00     0.242 CG0
ATOM     21  O   UNL     1       4.496   3.736 -11.666  1.00  0.00    -0.273 OA
ATOM     22  H   UNL     1       1.348   3.457 -11.432  1.00  0.00     0.164 HD
ATOM     23  G   UNL     1       2.792   4.726 -13.122  1.00  0.00     0.000 G0
ENDBRANCH  18  19
BRANCH  18  24
ATOM     24  C   UNL     1       1.670   2.510  -8.944  1.00  0.00     0.038 C 
BRANCH  24  25
ATOM     25  C   UNL     1       2.349   2.978  -7.640  1.00  0.00    -0.015 C 
ATOM     26  C   UNL     1       3.689   3.669  -7.894  1.00  0.00     0.007 C 
ATOM     27  C   UNL     1       2.555   1.781  -6.708  1.00  0.00     0.007 C 
ENDBRANCH  24  25
ENDBRANCH  18  24
ENDBRANCH  15  18
ENDBRANCH  13  14
BRANCH  13  28
ATOM     28  C   UNL     1       0.612  -1.779  -9.431  1.00  0.00     0.327 C 
ATOM     29  O   UNL     1       0.039  -2.850  -9.302  1.00  0.00    -0.250 OA
BRANCH  28  30
ATOM     30  O   UNL     1       0.872  -1.010  -8.354  1.00  0.00    -0.480 OA
ATOM     31  H   UNL     1       1.401  -0.267  -8.710  1.00  0.00     0.296 HD
ENDBRANCH  28  30
ENDBRANCH  13  28
ENDBRANCH  11  13
ENDBRANCH   8  11
ENDBRANCH   6   7
BRANCH   6  32
ATOM     32  C   UNL     1      -4.776  -1.415 -10.876  1.00  0.00     0.037 C 
BRANCH  32  33
ATOM     33  C   UNL     1      -4.522  -2.926 -10.982  1.00  0.00     0.026 C 
BRANCH  33  34
ATOM     34  C   UNL     1      -5.272  -3.721  -9.913  1.00  0.00     0.146 C 
BRANCH  34  35
ATOM     35  N   UNL     1      -6.643  -3.234  -9.840  1.00  0.00    -0.254 NA
ATOM     36  C   UNL     1      -7.081  -2.797  -8.719  1.00  0.00     0.185 C 
ATOM     37  N   UNL     1      -8.341  -2.341  -8.641  1.00  0.00    -0.370 N 
ATOM     38  N   UNL     1      -6.445  -2.717  -7.537  1.00  0.00    -0.370 N 
ATOM     39  H   UNL     1      -8.883  -2.359  -9.495  1.00  0.00     0.159 HD
ATOM     40  H   UNL     1      -8.699  -1.827  -7.855  1.00  0.00     0.159 HD
ATOM     41  H   UNL     1      -6.941  -2.485  -6.692  1.00  0.00     0.159 HD
ATOM     42  H   UNL     1      -5.494  -3.040  -7.443  1.00  0.00     0.159 HD
ENDBRANCH  34  35
ENDBRANCH  33  34
ENDBRANCH  32  33
ENDBRANCH   6  32
ENDBRANCH   4   6
ENDBRANCH   1   2
BRANCH   1  43
ATOM     43  C   UNL     1      -3.235  -2.112  -6.115  1.00  0.00     0.102 C 
ATOM     44  C   UNL     1      -3.794  -1.574  -4.787  1.00  0.00     0.020 C 
BRANCH  43  45
ATOM     45  C   UNL     1      -2.708  -3.548  -6.031  1.00  0.00     0.225 C 
ATOM     46  O   UNL     1      -2.685  -4.311  -6.993  1.00  0.00    -0.275 OA
ATOM     47  N   UNL     1      -2.342  -3.972  -4.774  1.00  0.00    -0.342 N 
ATOM     48  H   UNL     1      -2.223  -3.295  -4.033  1.00  0.00     0.164 HD
BRANCH  47  49
ATOM     49  C   UNL     1      -1.786  -5.309  -4.549  1.00  0.00     0.192 C 
BRANCH  49  50
ATOM     50  C   UNL     1      -2.071  -5.749  -3.110  1.00  0.00     0.047 C 
BRANCH  50  51
ATOM     51  C   UNL     1      -2.074  -4.567  -2.131  1.00  0.00     0.103 C 
BRANCH  51  52
ATOM     52  C   UNL     1      -3.215  -4.664  -1.120  1.00  0.00     0.226 C 
ATOM     53  O   UNL     1      -3.432  -5.732  -0.544  1.00  0.00    -0.275 OA
BRANCH  52  54
ATOM     54  N   UNL     1      -3.915  -3.473  -0.849  1.00  0.00    -0.311 N 
ATOM     55  C   UNL     1      -5.062  -3.067  -1.672  1.00  0.00     0.153 C 
BRANCH  54  56
ATOM     56  C   UNL     1      -3.549  -2.634   0.216  1.00  0.00     0.102 C 
ATOM     57  C   UNL     1      -2.577  -1.709   0.166  1.00  0.00     0.043 C 
BRANCH  56  58
ATOM     58  C   UNL     1      -4.286  -2.687   1.534  1.00  0.00     0.268 C 
ATOM     59  O   UNL     1      -4.909  -1.739   1.991  1.00  0.00    -0.268 OA
ATOM     60  N   UNL     1      -4.239  -3.925   2.129  1.00  0.00    -0.339 N 
ATOM     61  H   UNL     1      -3.692  -4.656   1.691  1.00  0.00     0.164 HD
BRANCH  60  62
ATOM     62  C   UNL     1      -4.938  -4.215   3.380  1.00  0.00     0.168 CG0
ATOM     63  C   UNL     1      -3.993  -4.114   4.571  1.00  0.00     0.041 C 
ATOM     64  G   UNL     1      -5.573  -5.619   3.305  1.00  0.00     0.000 G0
ENDBRANCH  60  62
ENDBRANCH  56  58
ENDBRANCH  54  56
ENDBRANCH  52  54
ENDBRANCH  51  52
ENDBRANCH  50  51
ENDBRANCH  49  50
BRANCH  49  65
ATOM     65  C   UNL     1      -0.270  -5.343  -4.801  1.00  0.00     0.326 C 
ATOM     66  O   UNL     1       0.315  -4.747  -5.693  1.00  0.00    -0.250 OA
BRANCH  65  67
ATOM     67  O   UNL     1       0.420  -6.159  -3.974  1.00  0.00    -0.480 OA
ATOM     68  H   UNL     1       1.060  -5.557  -3.536  1.00  0.00     0.296 HD
ENDBRANCH  65  67
ENDBRANCH  49  65
ENDBRANCH  47  49
ENDBRANCH  43  45
ENDBRANCH   1  43
BRANCH   1  69
ATOM     69  C   UNL     1      -2.119   0.279  -6.325  1.00  0.00    -0.001 C 
ATOM     70  C   UNL     1      -1.018   1.035  -6.169  1.00  0.00     0.001 C 
BRANCH  70  71
ATOM     71  C   UNL     1      -0.967   2.439  -5.757  1.00  0.00    -0.055 C 
ATOM     72  C   UNL     1      -0.626   2.705  -4.478  1.00  0.00    -0.018 C 
ATOM     73  C   UNL     1      -1.291   3.487  -6.789  1.00  0.00     0.044 C 
BRANCH  72  74
ATOM     74  C   UNL     1      -0.489   4.049  -3.778  1.00  0.00     0.038 C 
ATOM     75  C   UNL     1       1.001   4.411  -3.778  1.00  0.00     0.015 C 
BRANCH  74  76
ATOM     76  C   UNL     1      -1.135   3.946  -2.365  1.00  0.00     0.128 C 
BRANCH  76  77
ATOM     77  O   UNL     1      -2.421   4.589  -2.365  1.00  0.00    -0.381 OA
ATOM     78  C   UNL     1      -2.535   5.638  -3.317  1.00  0.00     0.195 C 
ENDBRANCH  76  77
BRANCH  76  79
ATOM     79  C   UNL     1      -1.186   2.504  -1.800  1.00  0.00     0.068 C 
BRANCH  79  80
ATOM     80  C   UNL     1      -2.535   1.934  -1.437  1.00  0.00    -0.045 A 
ATOM     81  C   UNL     1      -3.302   1.238  -2.380  1.00  0.00     0.004 A 
ATOM     82  C   UNL     1      -3.057   2.118  -0.147  1.00  0.00     0.004 A 
ATOM     83  C   UNL     1      -4.556   0.726  -2.040  1.00  0.00     0.000 A 
ATOM     84  C   UNL     1      -4.312   1.606   0.191  1.00  0.00     0.000 A 
ATOM     85  C   UNL     1      -5.060   0.909  -0.755  1.00  0.00     0.000 A 
ENDBRANCH  79  80
ENDBRANCH  76  79
ENDBRANCH  74  76
ENDBRANCH  72  74
ENDBRANCH  70  71
ENDBRANCH   1  69
TORSDOF 17
ENDMDL
MODEL 15
REMARK VINA RESULT:    -5.873      1.671      2.053
REMARK INTER + INTRA:         -25.222
REMARK INTER:                 -17.225
REMARK INTRA:                  -7.998
REMARK UNBOUND:                -7.676
REMARK SMILES C=C1C(=O)N[C@H](C)C(=O)N[C@@H](CC(C)C)C(=O)N[C@@H](C(=O)O)[C@H](C)C(=O)N[C@@H](CCCN=C(N)N)C(=O)N[C@@H](/C=C/C(C)=C/[C@H](C)[C@H](Cc2ccccc2)OC)[C@H](C)C(=O)N[C@@H](C(=O)O)CCC(=O)N1C
REMARK SMILES IDX 39 1 38 2 37 3 36 4 28 6 27 7 25 8 26 9 23 11 24 12 19 13
REMARK SMILES IDX 18 14 16 15 17 16 11 18 10 19 8 20 9 21 12 24 13 25 14 26
REMARK SMILES IDX 15 27 20 28 21 29 22 30 29 32 30 33 31 34 32 35 33 36 34 37
REMARK SMILES IDX 35 38 57 43 58 44 59 45 60 46 61 47 62 49 66 50 67 51 68 52
REMARK SMILES IDX 69 53 70 54 71 55 2 56 1 57 3 58 4 59 5 60 6 62 7 63 63 65
REMARK SMILES IDX 64 66 65 67 40 69 41 70 42 71 44 72 43 73 45 74 46 75 47 76
REMARK SMILES IDX 55 77 56 78 48 79 49 80 50 81 54 82 51 83 53 84 52 85
REMARK H PARENT 38 5 27 10 18 17 10 22 22 31 34 39 34 40 35 41 35 42 61 48
REMARK H PARENT 5 61 65 68
REMARK Flexibility Score:  369.900
ROOT
ATOM      1  C   UNL     1      -3.314  -2.541  -3.548  1.00  0.00     0.117 C 
ENDROOT
BRANCH   1   2
ATOM      2  N   UNL     1      -2.914  -2.474  -4.954  1.00  0.00    -0.347 N 
ATOM      3  O   UNL     1      -2.797  -0.189  -5.137  1.00  0.00    -0.273 OA
ATOM      4  C   UNL     1      -2.598  -1.302  -5.613  1.00  0.00     0.243 C 
ATOM      5  H   UNL     1      -2.809  -3.329  -5.479  1.00  0.00     0.164 HD
BRANCH   4   6
ATOM      6  C   UNL     1      -2.123  -1.516  -7.072  1.00  0.00     0.171 C 
BRANCH   6   7
ATOM      7  N   UNL     1      -0.802  -0.900  -7.279  1.00  0.00    -0.344 N 
ATOM      8  C   UNL     1      -0.694   0.381  -7.773  1.00  0.00     0.226 C 
ATOM      9  O   UNL     1      -1.670   1.054  -8.082  1.00  0.00    -0.275 OA
ATOM     10  H   UNL     1       0.029  -1.449  -7.098  1.00  0.00     0.164 HD
BRANCH   8  11
ATOM     11  C   UNL     1       0.732   0.894  -7.877  1.00  0.00     0.109 C 
ATOM     12  C   UNL     1       1.536   0.462  -6.651  1.00  0.00     0.021 C 
BRANCH  11  13
ATOM     13  C   UNL     1       1.339   0.475  -9.231  1.00  0.00     0.204 C 
BRANCH  13  14
ATOM     14  N   UNL     1       0.373   0.591 -10.328  1.00  0.00    -0.340 N 
ATOM     15  C   UNL     1       0.021  -0.473 -11.130  1.00  0.00     0.243 C 
ATOM     16  O   UNL     1       0.448  -1.611 -10.944  1.00  0.00    -0.273 OA
ATOM     17  H   UNL     1       0.100   1.530 -10.631  1.00  0.00     0.164 HD
BRANCH  15  18
ATOM     18  C   UNL     1      -0.850  -0.069 -12.346  1.00  0.00     0.171 C 
BRANCH  18  19
ATOM     19  N   UNL     1      -0.097  -0.442 -13.542  1.00  0.00    -0.343 N 
ATOM     20  C   UNL     1       0.996   0.287 -13.971  1.00  0.00     0.242 CG0
ATOM     21  O   UNL     1       1.305   1.353 -13.445  1.00  0.00    -0.273 OA
ATOM     22  H   UNL     1      -0.384  -1.252 -14.079  1.00  0.00     0.164 HD
ATOM     23  G   UNL     1       1.710  -0.303 -15.205  1.00  0.00     0.000 G0
ENDBRANCH  18  19
BRANCH  18  24
ATOM     24  C   UNL     1      -2.210  -0.776 -12.296  1.00  0.00     0.038 C 
BRANCH  24  25
ATOM     25  C   UNL     1      -3.376   0.106 -11.800  1.00  0.00    -0.015 C 
ATOM     26  C   UNL     1      -2.916   1.502 -11.380  1.00  0.00     0.007 C 
ATOM     27  C   UNL     1      -4.077  -0.581 -10.626  1.00  0.00     0.007 C 
ENDBRANCH  24  25
ENDBRANCH  18  24
ENDBRANCH  15  18
ENDBRANCH  13  14
BRANCH  13  28
ATOM     28  C   UNL     1       2.570   1.299  -9.621  1.00  0.00     0.327 C 
ATOM     29  O   UNL     1       2.570   2.455 -10.017  1.00  0.00    -0.250 OA
BRANCH  28  30
ATOM     30  O   UNL     1       3.712   0.583  -9.604  1.00  0.00    -0.480 OA
ATOM     31  H   UNL     1       3.568  -0.118 -10.272  1.00  0.00     0.296 HD
ENDBRANCH  28  30
ENDBRANCH  13  28
ENDBRANCH  11  13
ENDBRANCH   8  11
ENDBRANCH   6   7
BRANCH   6  32
ATOM     32  C   UNL     1      -2.079  -3.019  -7.372  1.00  0.00     0.037 C 
BRANCH  32  33
ATOM     33  C   UNL     1      -3.013  -3.407  -8.527  1.00  0.00     0.026 C 
BRANCH  33  34
ATOM     34  C   UNL     1      -3.679  -4.766  -8.309  1.00  0.00     0.146 C 
BRANCH  34  35
ATOM     35  N   UNL     1      -2.643  -5.783  -8.190  1.00  0.00    -0.254 NA
ATOM     36  C   UNL     1      -2.259  -6.395  -9.247  1.00  0.00     0.185 C 
ATOM     37  N   UNL     1      -1.302  -7.331  -9.149  1.00  0.00    -0.370 N 
ATOM     38  N   UNL     1      -2.684  -6.242 -10.514  1.00  0.00    -0.370 N 
ATOM     39  H   UNL     1      -0.922  -7.498  -8.226  1.00  0.00     0.159 HD
ATOM     40  H   UNL     1      -0.828  -7.727  -9.943  1.00  0.00     0.159 HD
ATOM     41  H   UNL     1      -2.403  -6.882 -11.238  1.00  0.00     0.159 HD
ATOM     42  H   UNL     1      -3.414  -5.583 -10.733  1.00  0.00     0.159 HD
ENDBRANCH  34  35
ENDBRANCH  33  34
ENDBRANCH  32  33
ENDBRANCH   6  32
ENDBRANCH   4   6
ENDBRANCH   1   2
BRANCH   1  43
ATOM     43  C   UNL     1      -2.504  -3.676  -2.856  1.00  0.00     0.102 C 
ATOM     44  C   UNL     1      -2.481  -4.988  -3.659  1.00  0.00     0.020 C 
BRANCH  43  45
ATOM     45  C   UNL     1      -2.934  -3.848  -1.396  1.00  0.00     0.225 C 
ATOM     46  O   UNL     1      -3.239  -4.933  -0.910  1.00  0.00    -0.275 OA
ATOM     47  N   UNL     1      -3.051  -2.683  -0.672  1.00  0.00    -0.342 N 
ATOM     48  H   UNL     1      -2.656  -1.827  -1.034  1.00  0.00     0.164 HD
BRANCH  47  49
ATOM     49  C   UNL     1      -3.420  -2.698   0.747  1.00  0.00     0.192 C 
BRANCH  49  50
ATOM     50  C   UNL     1      -4.787  -2.034   0.930  1.00  0.00     0.047 C 
BRANCH  50  51
ATOM     51  C   UNL     1      -5.940  -3.044   0.853  1.00  0.00     0.103 C 
BRANCH  51  52
ATOM     52  C   UNL     1      -5.840  -4.111   1.941  1.00  0.00     0.226 C 
ATOM     53  O   UNL     1      -5.458  -5.246   1.649  1.00  0.00    -0.275 OA
BRANCH  52  54
ATOM     54  N   UNL     1      -6.127  -3.696   3.254  1.00  0.00    -0.311 N 
ATOM     55  C   UNL     1      -7.501  -3.730   3.775  1.00  0.00     0.153 C 
BRANCH  54  56
ATOM     56  C   UNL     1      -5.116  -3.241   4.116  1.00  0.00     0.102 C 
ATOM     57  C   UNL     1      -3.997  -3.922   4.415  1.00  0.00     0.043 C 
BRANCH  56  58
ATOM     58  C   UNL     1      -5.200  -1.876   4.758  1.00  0.00     0.268 C 
ATOM     59  O   UNL     1      -5.228  -0.835   4.115  1.00  0.00    -0.268 OA
ATOM     60  N   UNL     1      -5.309  -1.928   6.127  1.00  0.00    -0.339 N 
ATOM     61  H   UNL     1      -5.268  -2.831   6.585  1.00  0.00     0.164 HD
BRANCH  60  62
ATOM     62  C   UNL     1      -5.466  -0.725   6.942  1.00  0.00     0.168 CG0
ATOM     63  C   UNL     1      -6.933  -0.471   7.267  1.00  0.00     0.041 C 
ATOM     64  G   UNL     1      -4.854   0.483   6.204  1.00  0.00     0.000 G0
ENDBRANCH  60  62
ENDBRANCH  56  58
ENDBRANCH  54  56
ENDBRANCH  52  54
ENDBRANCH  51  52
ENDBRANCH  50  51
ENDBRANCH  49  50
BRANCH  49  65
ATOM     65  C   UNL     1      -2.379  -1.966   1.610  1.00  0.00     0.326 C 
ATOM     66  O   UNL     1      -2.533  -0.873   2.134  1.00  0.00    -0.250 OA
BRANCH  65  67
ATOM     67  O   UNL     1      -1.192  -2.602   1.721  1.00  0.00    -0.480 OA
ATOM     68  H   UNL     1      -0.533  -1.888   1.582  1.00  0.00     0.296 HD
ENDBRANCH  65  67
ENDBRANCH  49  65
ENDBRANCH  47  49
ENDBRANCH  43  45
ENDBRANCH   1  43
BRANCH   1  69
ATOM     69  C   UNL     1      -4.830  -2.613  -3.540  1.00  0.00    -0.001 C 
ATOM     70  C   UNL     1      -5.683  -1.802  -2.890  1.00  0.00     0.001 C 
BRANCH  70  71
ATOM     71  C   UNL     1      -7.146  -1.868  -2.908  1.00  0.00    -0.055 C 
ATOM     72  C   UNL     1      -7.717  -3.027  -3.299  1.00  0.00    -0.018 C 
ATOM     73  C   UNL     1      -7.909  -0.642  -2.481  1.00  0.00     0.044 C 
BRANCH  72  74
ATOM     74  C   UNL     1      -9.192  -3.383  -3.412  1.00  0.00     0.038 C 
ATOM     75  C   UNL     1      -9.439  -4.587  -2.494  1.00  0.00     0.015 C 
BRANCH  74  76
ATOM     76  C   UNL     1      -9.536  -3.625  -4.912  1.00  0.00     0.128 C 
BRANCH  76  77
ATOM     77  O   UNL     1     -10.737  -4.407  -5.021  1.00  0.00    -0.381 OA
ATOM     78  C   UNL     1     -11.878  -3.651  -5.402  1.00  0.00     0.195 C 
ENDBRANCH  76  77
BRANCH  76  79
ATOM     79  C   UNL     1      -9.584  -2.331  -5.763  1.00  0.00     0.068 C 
BRANCH  79  80
ATOM     80  C   UNL     1      -8.290  -1.820  -6.348  1.00  0.00    -0.045 A 
ATOM     81  C   UNL     1      -7.400  -2.686  -6.998  1.00  0.00     0.004 A 
ATOM     82  C   UNL     1      -7.943  -0.466  -6.223  1.00  0.00     0.004 A 
ATOM     83  C   UNL     1      -6.198  -2.208  -7.524  1.00  0.00     0.000 A 
ATOM     84  C   UNL     1      -6.740   0.010  -6.749  1.00  0.00     0.000 A 
ATOM     85  C   UNL     1      -5.869  -0.860  -7.400  1.00  0.00     0.000 A 
ENDBRANCH  79  80
ENDBRANCH  76  79
ENDBRANCH  74  76
ENDBRANCH  72  74
ENDBRANCH  70  71
ENDBRANCH   1  69
TORSDOF 17
ENDMDL
MODEL 16
REMARK VINA RESULT:    -5.858      4.055     13.771
REMARK INTER + INTRA:         -25.178
REMARK INTER:                 -17.256
REMARK INTRA:                  -7.922
REMARK UNBOUND:                -7.676
REMARK SMILES C=C1C(=O)N[C@H](C)C(=O)N[C@@H](CC(C)C)C(=O)N[C@@H](C(=O)O)[C@H](C)C(=O)N[C@@H](CCCN=C(N)N)C(=O)N[C@@H](/C=C/C(C)=C/[C@H](C)[C@H](Cc2ccccc2)OC)[C@H](C)C(=O)N[C@@H](C(=O)O)CCC(=O)N1C
REMARK SMILES IDX 39 1 38 2 37 3 36 4 28 6 27 7 25 8 26 9 23 11 24 12 19 13
REMARK SMILES IDX 18 14 16 15 17 16 11 18 10 19 8 20 9 21 12 24 13 25 14 26
REMARK SMILES IDX 15 27 20 28 21 29 22 30 29 32 30 33 31 34 32 35 33 36 34 37
REMARK SMILES IDX 35 38 57 43 58 44 59 45 60 46 61 47 62 49 66 50 67 51 68 52
REMARK SMILES IDX 69 53 70 54 71 55 2 56 1 57 3 58 4 59 5 60 6 62 7 63 63 65
REMARK SMILES IDX 64 66 65 67 40 69 41 70 42 71 44 72 43 73 45 74 46 75 47 76
REMARK SMILES IDX 55 77 56 78 48 79 49 80 50 81 54 82 51 83 53 84 52 85
REMARK H PARENT 38 5 27 10 18 17 10 22 22 31 34 39 34 40 35 41 35 42 61 48
REMARK H PARENT 5 61 65 68
REMARK Flexibility Score:  369.900
ROOT
ATOM      1  C   UNL     1      -4.247  -1.405  -2.324  1.00  0.00     0.117 C 
ENDROOT
BRANCH   1   2
ATOM      2  N   UNL     1      -4.363  -2.515  -1.378  1.00  0.00    -0.347 N 
ATOM      3  O   UNL     1      -3.448  -1.466   0.448  1.00  0.00    -0.273 OA
ATOM      4  C   UNL     1      -4.037  -2.426  -0.038  1.00  0.00     0.243 C 
ATOM      5  H   UNL     1      -4.750  -3.393  -1.690  1.00  0.00     0.164 HD
BRANCH   4   6
ATOM      6  C   UNL     1      -4.336  -3.719   0.763  1.00  0.00     0.171 C 
BRANCH   6   7
ATOM      7  N   UNL     1      -5.000  -3.393   2.036  1.00  0.00    -0.344 N 
ATOM      8  C   UNL     1      -4.271  -3.280   3.200  1.00  0.00     0.226 C 
ATOM      9  O   UNL     1      -3.060  -3.463   3.241  1.00  0.00    -0.275 OA
ATOM     10  H   UNL     1      -6.008  -3.302   2.054  1.00  0.00     0.164 HD
BRANCH   8  11
ATOM     11  C   UNL     1      -5.091  -2.886   4.416  1.00  0.00     0.109 C 
ATOM     12  C   UNL     1      -5.214  -1.365   4.497  1.00  0.00     0.021 C 
BRANCH  11  13
ATOM     13  C   UNL     1      -6.433  -3.645   4.407  1.00  0.00     0.204 C 
BRANCH  13  14
ATOM     14  N   UNL     1      -6.575  -4.529   5.569  1.00  0.00    -0.340 N 
ATOM     15  C   UNL     1      -6.219  -5.860   5.545  1.00  0.00     0.243 C 
ATOM     16  O   UNL     1      -5.699  -6.387   4.562  1.00  0.00    -0.273 OA
ATOM     17  H   UNL     1      -7.134  -4.197   6.359  1.00  0.00     0.164 HD
BRANCH  15  18
ATOM     18  C   UNL     1      -6.650  -6.639   6.812  1.00  0.00     0.171 C 
BRANCH  18  19
ATOM     19  N   UNL     1      -5.686  -7.723   6.984  1.00  0.00    -0.343 N 
ATOM     20  C   UNL     1      -6.072  -9.050   6.979  1.00  0.00     0.242 CG0
ATOM     21  O   UNL     1      -7.257  -9.374   6.962  1.00  0.00    -0.273 OA
ATOM     22  H   UNL     1      -4.706  -7.501   7.118  1.00  0.00     0.164 HD
ATOM     23  G   UNL     1      -4.907 -10.053   7.095  1.00  0.00     0.000 G0
ENDBRANCH  18  19
BRANCH  18  24
ATOM     24  C   UNL     1      -6.678  -5.712   8.033  1.00  0.00     0.038 C 
BRANCH  24  25
ATOM     25  C   UNL     1      -8.089  -5.415   8.584  1.00  0.00    -0.015 C 
ATOM     26  C   UNL     1      -8.092  -4.273   9.601  1.00  0.00     0.007 C 
ATOM     27  C   UNL     1      -8.666  -6.678   9.228  1.00  0.00     0.007 C 
ENDBRANCH  24  25
ENDBRANCH  18  24
ENDBRANCH  15  18
ENDBRANCH  13  14
BRANCH  13  28
ATOM     28  C   UNL     1      -7.651  -2.717   4.392  1.00  0.00     0.327 C 
ATOM     29  O   UNL     1      -8.284  -2.339   5.366  1.00  0.00    -0.250 OA
BRANCH  28  30
ATOM     30  O   UNL     1      -8.072  -2.417   3.146  1.00  0.00    -0.480 OA
ATOM     31  H   UNL     1      -8.887  -2.948   3.032  1.00  0.00     0.296 HD
ENDBRANCH  28  30
ENDBRANCH  13  28
ENDBRANCH  11  13
ENDBRANCH   8  11
ENDBRANCH   6   7
BRANCH   6  32
ATOM     32  C   UNL     1      -5.209  -4.648  -0.088  1.00  0.00     0.037 C 
BRANCH  32  33
ATOM     33  C   UNL     1      -4.934  -6.130   0.205  1.00  0.00     0.026 C 
BRANCH  33  34
ATOM     34  C   UNL     1      -6.056  -6.784   1.012  1.00  0.00     0.146 C 
BRANCH  34  35
ATOM     35  N   UNL     1      -7.121  -5.811   1.212  1.00  0.00    -0.254 NA
ATOM     36  C   UNL     1      -8.065  -6.093   2.031  1.00  0.00     0.185 C 
ATOM     37  N   UNL     1      -9.048  -5.201   2.226  1.00  0.00    -0.370 N 
ATOM     38  N   UNL     1      -8.239  -7.203   2.769  1.00  0.00    -0.370 N 
ATOM     39  H   UNL     1      -8.982  -4.332   1.712  1.00  0.00     0.159 HD
ATOM     40  H   UNL     1      -9.721  -5.269   2.970  1.00  0.00     0.159 HD
ATOM     41  H   UNL     1      -9.097  -7.365   3.271  1.00  0.00     0.159 HD
ATOM     42  H   UNL     1      -7.583  -7.966   2.710  1.00  0.00     0.159 HD
ENDBRANCH  34  35
ENDBRANCH  33  34
ENDBRANCH  32  33
ENDBRANCH   6  32
ENDBRANCH   4   6
ENDBRANCH   1   2
BRANCH   1  43
ATOM     43  C   UNL     1      -5.655  -0.774  -2.523  1.00  0.00     0.102 C 
ATOM     44  C   UNL     1      -6.120   0.072  -1.326  1.00  0.00     0.020 C 
BRANCH  43  45
ATOM     45  C   UNL     1      -6.672  -1.827  -2.973  1.00  0.00     0.225 C 
ATOM     46  O   UNL     1      -7.052  -2.743  -2.250  1.00  0.00    -0.275 OA
ATOM     47  N   UNL     1      -7.072  -1.740  -4.286  1.00  0.00    -0.342 N 
ATOM     48  H   UNL     1      -6.873  -0.904  -4.816  1.00  0.00     0.164 HD
BRANCH  47  49
ATOM     49  C   UNL     1      -8.068  -2.659  -4.845  1.00  0.00     0.192 C 
BRANCH  49  50
ATOM     50  C   UNL     1      -7.894  -2.746  -6.364  1.00  0.00     0.047 C 
BRANCH  50  51
ATOM     51  C   UNL     1      -6.590  -2.089  -6.838  1.00  0.00     0.103 C 
BRANCH  51  52
ATOM     52  C   UNL     1      -6.830  -0.706  -7.439  1.00  0.00     0.226 C 
ATOM     53  O   UNL     1      -7.624   0.065  -6.897  1.00  0.00    -0.275 OA
BRANCH  52  54
ATOM     54  N   UNL     1      -6.050  -0.366  -8.560  1.00  0.00    -0.311 N 
ATOM     55  C   UNL     1      -4.594  -0.561  -8.556  1.00  0.00     0.153 C 
BRANCH  54  56
ATOM     56  C   UNL     1      -6.633   0.165  -9.723  1.00  0.00     0.102 C 
ATOM     57  C   UNL     1      -7.179  -0.564 -10.710  1.00  0.00     0.043 C 
BRANCH  56  58
ATOM     58  C   UNL     1      -6.728   1.658  -9.930  1.00  0.00     0.268 C 
ATOM     59  O   UNL     1      -6.882   2.173 -11.030  1.00  0.00    -0.268 OA
ATOM     60  N   UNL     1      -6.690   2.370  -8.755  1.00  0.00    -0.339 N 
ATOM     61  H   UNL     1      -6.549   1.869  -7.886  1.00  0.00     0.164 HD
BRANCH  60  62
ATOM     62  C   UNL     1      -6.829   3.825  -8.721  1.00  0.00     0.168 CG0
ATOM     63  C   UNL     1      -8.274   4.230  -8.453  1.00  0.00     0.041 C 
ATOM     64  G   UNL     1      -6.333   4.423 -10.054  1.00  0.00     0.000 G0
ENDBRANCH  60  62
ENDBRANCH  56  58
ENDBRANCH  54  56
ENDBRANCH  52  54
ENDBRANCH  51  52
ENDBRANCH  50  51
ENDBRANCH  49  50
BRANCH  49  65
ATOM     65  C   UNL     1      -9.501  -2.207  -4.523  1.00  0.00     0.326 C 
ATOM     66  O   UNL     1     -10.244  -1.603  -5.284  1.00  0.00    -0.250 OA
BRANCH  65  67
ATOM     67  O   UNL     1      -9.906  -2.473  -3.262  1.00  0.00    -0.480 OA
ATOM     68  H   UNL     1     -10.466  -3.274  -3.363  1.00  0.00     0.296 HD
ENDBRANCH  65  67
ENDBRANCH  49  65
ENDBRANCH  47  49
ENDBRANCH  43  45
ENDBRANCH   1  43
BRANCH   1  69
ATOM     69  C   UNL     1      -3.512  -1.955  -3.534  1.00  0.00    -0.001 C 
ATOM     70  C   UNL     1      -3.446  -1.417  -4.764  1.00  0.00     0.001 C 
BRANCH  70  71
ATOM     71  C   UNL     1      -2.716  -1.946  -5.918  1.00  0.00    -0.055 C 
ATOM     72  C   UNL     1      -3.068  -3.166  -6.377  1.00  0.00    -0.018 C 
ATOM     73  C   UNL     1      -1.631  -1.089  -6.516  1.00  0.00     0.044 C 
BRANCH  72  74
ATOM     74  C   UNL     1      -2.496  -3.956  -7.545  1.00  0.00     0.038 C 
ATOM     75  C   UNL     1      -3.648  -4.215  -8.524  1.00  0.00     0.015 C 
BRANCH  74  76
ATOM     76  C   UNL     1      -1.808  -5.239  -6.992  1.00  0.00     0.128 C 
BRANCH  76  77
ATOM     77  O   UNL     1      -1.282  -6.021  -8.078  1.00  0.00    -0.381 OA
ATOM     78  C   UNL     1      -0.592  -5.252  -9.053  1.00  0.00     0.195 C 
ENDBRANCH  76  77
BRANCH  76  79
ATOM     79  C   UNL     1      -0.757  -4.964  -5.888  1.00  0.00     0.068 C 
BRANCH  79  80
ATOM     80  C   UNL     1      -1.087  -5.387  -4.477  1.00  0.00    -0.045 A 
ATOM     81  C   UNL     1      -2.323  -5.071  -3.899  1.00  0.00     0.004 A 
ATOM     82  C   UNL     1      -0.142  -6.083  -3.708  1.00  0.00     0.004 A 
ATOM     83  C   UNL     1      -2.615  -5.453  -2.588  1.00  0.00     0.000 A 
ATOM     84  C   UNL     1      -0.435  -6.464  -2.396  1.00  0.00     0.000 A 
ATOM     85  C   UNL     1      -1.671  -6.151  -1.838  1.00  0.00     0.000 A 
ENDBRANCH  79  80
ENDBRANCH  76  79
ENDBRANCH  74  76
ENDBRANCH  72  74
ENDBRANCH  70  71
ENDBRANCH   1  69
TORSDOF 17
ENDMDL
MODEL 17
REMARK VINA RESULT:    -5.854      3.958      7.738
REMARK INTER + INTRA:         -25.166
REMARK INTER:                 -16.756
REMARK INTRA:                  -8.410
REMARK UNBOUND:                -7.676
REMARK SMILES C=C1C(=O)N[C@H](C)C(=O)N[C@@H](CC(C)C)C(=O)N[C@@H](C(=O)O)[C@H](C)C(=O)N[C@@H](CCCN=C(N)N)C(=O)N[C@@H](/C=C/C(C)=C/[C@H](C)[C@H](Cc2ccccc2)OC)[C@H](C)C(=O)N[C@@H](C(=O)O)CCC(=O)N1C
REMARK SMILES IDX 39 1 38 2 37 3 36 4 28 6 27 7 25 8 26 9 23 11 24 12 19 13
REMARK SMILES IDX 18 14 16 15 17 16 11 18 10 19 8 20 9 21 12 24 13 25 14 26
REMARK SMILES IDX 15 27 20 28 21 29 22 30 29 32 30 33 31 34 32 35 33 36 34 37
REMARK SMILES IDX 35 38 57 43 58 44 59 45 60 46 61 47 62 49 66 50 67 51 68 52
REMARK SMILES IDX 69 53 70 54 71 55 2 56 1 57 3 58 4 59 5 60 6 62 7 63 63 65
REMARK SMILES IDX 64 66 65 67 40 69 41 70 42 71 44 72 43 73 45 74 46 75 47 76
REMARK SMILES IDX 55 77 56 78 48 79 49 80 50 81 54 82 51 83 53 84 52 85
REMARK H PARENT 38 5 27 10 18 17 10 22 22 31 34 39 34 40 35 41 35 42 61 48
REMARK H PARENT 5 61 65 68
REMARK Flexibility Score:  369.900
ROOT
ATOM      1  C   UNL     1      -3.523  -2.794  -0.029  1.00  0.00     0.117 C 
ENDROOT
BRANCH   1   2
ATOM      2  N   UNL     1      -4.637  -2.420  -0.901  1.00  0.00    -0.347 N 
ATOM      3  O   UNL     1      -6.318  -3.437   0.285  1.00  0.00    -0.273 OA
ATOM      4  C   UNL     1      -5.962  -2.695  -0.624  1.00  0.00     0.243 C 
ATOM      5  H   UNL     1      -4.453  -1.884  -1.736  1.00  0.00     0.164 HD
BRANCH   4   6
ATOM      6  C   UNL     1      -6.951  -2.114  -1.666  1.00  0.00     0.171 C 
BRANCH   6   7
ATOM      7  N   UNL     1      -6.217  -1.480  -2.773  1.00  0.00    -0.344 N 
ATOM      8  C   UNL     1      -6.507  -0.190  -3.160  1.00  0.00     0.226 C 
ATOM      9  O   UNL     1      -7.388   0.477  -2.630  1.00  0.00    -0.275 OA
ATOM     10  H   UNL     1      -5.529  -2.022  -3.280  1.00  0.00     0.164 HD
BRANCH   8  11
ATOM     11  C   UNL     1      -5.627   0.340  -4.279  1.00  0.00     0.109 C 
ATOM     12  C   UNL     1      -4.812   1.536  -3.786  1.00  0.00     0.021 C 
BRANCH  11  13
ATOM     13  C   UNL     1      -4.793  -0.811  -4.876  1.00  0.00     0.204 C 
BRANCH  13  14
ATOM     14  N   UNL     1      -4.928  -0.892  -6.334  1.00  0.00    -0.340 N 
ATOM     15  C   UNL     1      -5.954  -1.572  -6.953  1.00  0.00     0.243 C 
ATOM     16  O   UNL     1      -6.865  -2.109  -6.325  1.00  0.00    -0.273 OA
ATOM     17  H   UNL     1      -4.132  -0.601  -6.907  1.00  0.00     0.164 HD
BRANCH  15  18
ATOM     18  C   UNL     1      -5.776  -1.697  -8.486  1.00  0.00     0.171 C 
BRANCH  18  19
ATOM     19  N   UNL     1      -6.874  -0.950  -9.098  1.00  0.00    -0.343 N 
ATOM     20  C   UNL     1      -7.933  -1.586  -9.716  1.00  0.00     0.242 CG0
ATOM     21  O   UNL     1      -7.936  -2.801  -9.898  1.00  0.00    -0.273 OA
ATOM     22  H   UNL     1      -6.859   0.063  -9.075  1.00  0.00     0.164 HD
ATOM     23  G   UNL     1      -9.033  -0.636 -10.232  1.00  0.00     0.000 G0
ENDBRANCH  18  19
BRANCH  18  24
ATOM     24  C   UNL     1      -4.412  -1.147  -8.920  1.00  0.00     0.038 C 
BRANCH  24  25
ATOM     25  C   UNL     1      -3.895  -1.694 -10.268  1.00  0.00    -0.015 C 
ATOM     26  C   UNL     1      -4.282  -0.802 -11.448  1.00  0.00     0.007 C 
ATOM     27  C   UNL     1      -4.437  -3.108 -10.491  1.00  0.00     0.007 C 
ENDBRANCH  24  25
ENDBRANCH  18  24
ENDBRANCH  15  18
ENDBRANCH  13  14
BRANCH  13  28
ATOM     28  C   UNL     1      -3.297  -0.697  -4.565  1.00  0.00     0.327 C 
ATOM     29  O   UNL     1      -2.429  -0.300  -5.327  1.00  0.00    -0.250 OA
BRANCH  28  30
ATOM     30  O   UNL     1      -2.969  -1.199  -3.358  1.00  0.00    -0.480 OA
ATOM     31  H   UNL     1      -3.472  -2.038  -3.301  1.00  0.00     0.296 HD
ENDBRANCH  28  30
ENDBRANCH  13  28
ENDBRANCH  11  13
ENDBRANCH   8  11
ENDBRANCH   6   7
BRANCH   6  32
ATOM     32  C   UNL     1      -7.856  -3.238  -2.182  1.00  0.00     0.037 C 
BRANCH  32  33
ATOM     33  C   UNL     1      -9.298  -2.762  -2.409  1.00  0.00     0.026 C 
BRANCH  33  34
ATOM     34  C   UNL     1     -10.090  -2.653  -1.106  1.00  0.00     0.146 C 
BRANCH  34  35
ATOM     35  N   UNL     1      -9.727  -1.410  -0.438  1.00  0.00    -0.254 NA
ATOM     36  C   UNL     1      -9.774  -1.364   0.841  1.00  0.00     0.185 C 
ATOM     37  N   UNL     1      -9.436  -0.226   1.467  1.00  0.00    -0.370 N 
ATOM     38  N   UNL     1     -10.126  -2.329   1.709  1.00  0.00    -0.370 N 
ATOM     39  H   UNL     1      -9.148   0.547   0.880  1.00  0.00     0.159 HD
ATOM     40  H   UNL     1      -9.280  -0.161   2.458  1.00  0.00     0.159 HD
ATOM     41  H   UNL     1     -10.256  -2.127   2.687  1.00  0.00     0.159 HD
ATOM     42  H   UNL     1     -10.419  -3.235   1.377  1.00  0.00     0.159 HD
ENDBRANCH  34  35
ENDBRANCH  33  34
ENDBRANCH  32  33
ENDBRANCH   6  32
ENDBRANCH   4   6
ENDBRANCH   1   2
BRANCH   1  43
ATOM     43  C   UNL     1      -2.948  -1.502   0.621  1.00  0.00     0.102 C 
ATOM     44  C   UNL     1      -1.449  -1.598   0.951  1.00  0.00     0.020 C 
BRANCH  43  45
ATOM     45  C   UNL     1      -3.815  -1.047   1.799  1.00  0.00     0.225 C 
ATOM     46  O   UNL     1      -3.987   0.134   2.089  1.00  0.00    -0.275 OA
ATOM     47  N   UNL     1      -4.323  -2.056   2.585  1.00  0.00    -0.342 N 
ATOM     48  H   UNL     1      -4.301  -3.009   2.252  1.00  0.00     0.164 HD
BRANCH  47  49
ATOM     49  C   UNL     1      -5.199  -1.771   3.726  1.00  0.00     0.192 C 
BRANCH  49  50
ATOM     50  C   UNL     1      -5.162  -2.943   4.709  1.00  0.00     0.047 C 
BRANCH  50  51
ATOM     51  C   UNL     1      -5.739  -2.571   6.081  1.00  0.00     0.103 C 
BRANCH  51  52
ATOM     52  C   UNL     1      -6.817  -3.553   6.536  1.00  0.00     0.226 C 
ATOM     53  O   UNL     1      -7.219  -4.421   5.758  1.00  0.00    -0.275 OA
BRANCH  52  54
ATOM     54  N   UNL     1      -7.237  -3.447   7.875  1.00  0.00    -0.311 N 
ATOM     55  C   UNL     1      -7.179  -4.603   8.779  1.00  0.00     0.153 C 
BRANCH  54  56
ATOM     56  C   UNL     1      -7.721  -2.236   8.397  1.00  0.00     0.102 C 
ATOM     57  C   UNL     1      -8.881  -1.658   8.047  1.00  0.00     0.043 C 
BRANCH  56  58
ATOM     58  C   UNL     1      -6.956  -1.493   9.467  1.00  0.00     0.268 C 
ATOM     59  O   UNL     1      -5.737  -1.393   9.471  1.00  0.00    -0.268 OA
ATOM     60  N   UNL     1      -7.772  -0.888  10.392  1.00  0.00    -0.339 N 
ATOM     61  H   UNL     1      -8.773  -1.027  10.324  1.00  0.00     0.164 HD
BRANCH  60  62
ATOM     62  C   UNL     1      -7.242  -0.065  11.478  1.00  0.00     0.168 CG0
ATOM     63  C   UNL     1      -7.263   1.413  11.106  1.00  0.00     0.041 C 
ATOM     64  G   UNL     1      -5.809  -0.521  11.820  1.00  0.00     0.000 G0
ENDBRANCH  60  62
ENDBRANCH  56  58
ENDBRANCH  54  56
ENDBRANCH  52  54
ENDBRANCH  51  52
ENDBRANCH  50  51
ENDBRANCH  49  50
BRANCH  49  65
ATOM     65  C   UNL     1      -6.649  -1.527   3.279  1.00  0.00     0.326 C 
ATOM     66  O   UNL     1      -7.492  -2.394   3.095  1.00  0.00    -0.250 OA
BRANCH  65  67
ATOM     67  O   UNL     1      -6.953  -0.234   3.030  1.00  0.00    -0.480 OA
ATOM     68  H   UNL     1      -7.844  -0.125   3.427  1.00  0.00     0.296 HD
ENDBRANCH  65  67
ENDBRANCH  49  65
ENDBRANCH  47  49
ENDBRANCH  43  45
ENDBRANCH   1  43
BRANCH   1  69
ATOM     69  C   UNL     1      -2.604  -3.665  -0.866  1.00  0.00    -0.001 C 
ATOM     70  C   UNL     1      -2.911  -4.327  -1.995  1.00  0.00     0.001 C 
BRANCH  70  71
ATOM     71  C   UNL     1      -2.009  -5.148  -2.806  1.00  0.00    -0.055 C 
ATOM     72  C   UNL     1      -1.967  -4.910  -4.134  1.00  0.00    -0.018 C 
ATOM     73  C   UNL     1      -1.187  -6.195  -2.100  1.00  0.00     0.044 C 
BRANCH  72  74
ATOM     74  C   UNL     1      -1.134  -5.594  -5.209  1.00  0.00     0.038 C 
ATOM     75  C   UNL     1       0.315  -5.128  -5.023  1.00  0.00     0.015 C 
BRANCH  74  76
ATOM     76  C   UNL     1      -1.751  -5.270  -6.602  1.00  0.00     0.128 C 
BRANCH  76  77
ATOM     77  O   UNL     1      -2.911  -6.089  -6.828  1.00  0.00    -0.381 OA
ATOM     78  C   UNL     1      -3.090  -6.461  -8.187  1.00  0.00     0.195 C 
ENDBRANCH  76  77
BRANCH  76  79
ATOM     79  C   UNL     1      -2.028  -3.763  -6.832  1.00  0.00     0.068 C 
BRANCH  79  80
ATOM     80  C   UNL     1      -1.339  -3.087  -7.992  1.00  0.00    -0.045 A 
ATOM     81  C   UNL     1      -1.088  -3.777  -9.185  1.00  0.00     0.004 A 
ATOM     82  C   UNL     1      -0.910  -1.755  -7.882  1.00  0.00     0.004 A 
ATOM     83  C   UNL     1      -0.437  -3.149 -10.249  1.00  0.00     0.000 A 
ATOM     84  C   UNL     1      -0.258  -1.128  -8.946  1.00  0.00     0.000 A 
ATOM     85  C   UNL     1      -0.024  -1.824 -10.129  1.00  0.00     0.000 A 
ENDBRANCH  79  80
ENDBRANCH  76  79
ENDBRANCH  74  76
ENDBRANCH  72  74
ENDBRANCH  70  71
ENDBRANCH   1  69
TORSDOF 17
ENDMDL
MODEL 18
REMARK VINA RESULT:    -5.849      3.664     13.212
REMARK INTER + INTRA:         -25.149
REMARK INTER:                 -18.104
REMARK INTRA:                  -7.045
REMARK UNBOUND:                -7.676
REMARK SMILES C=C1C(=O)N[C@H](C)C(=O)N[C@@H](CC(C)C)C(=O)N[C@@H](C(=O)O)[C@H](C)C(=O)N[C@@H](CCCN=C(N)N)C(=O)N[C@@H](/C=C/C(C)=C/[C@H](C)[C@H](Cc2ccccc2)OC)[C@H](C)C(=O)N[C@@H](C(=O)O)CCC(=O)N1C
REMARK SMILES IDX 39 1 38 2 37 3 36 4 28 6 27 7 25 8 26 9 23 11 24 12 19 13
REMARK SMILES IDX 18 14 16 15 17 16 11 18 10 19 8 20 9 21 12 24 13 25 14 26
REMARK SMILES IDX 15 27 20 28 21 29 22 30 29 32 30 33 31 34 32 35 33 36 34 37
REMARK SMILES IDX 35 38 57 43 58 44 59 45 60 46 61 47 62 49 66 50 67 51 68 52
REMARK SMILES IDX 69 53 70 54 71 55 2 56 1 57 3 58 4 59 5 60 6 62 7 63 63 65
REMARK SMILES IDX 64 66 65 67 40 69 41 70 42 71 44 72 43 73 45 74 46 75 47 76
REMARK SMILES IDX 55 77 56 78 48 79 49 80 50 81 54 82 51 83 53 84 52 85
REMARK H PARENT 38 5 27 10 18 17 10 22 22 31 34 39 34 40 35 41 35 42 61 48
REMARK H PARENT 5 61 65 68
REMARK Flexibility Score:  369.900
ROOT
ATOM      1  C   UNL     1      -4.586  -1.664  -2.727  1.00  0.00     0.117 C 
ENDROOT
BRANCH   1   2
ATOM      2  N   UNL     1      -4.566  -2.796  -1.799  1.00  0.00    -0.347 N 
ATOM      3  O   UNL     1      -2.610  -2.277  -0.714  1.00  0.00    -0.273 OA
ATOM      4  C   UNL     1      -3.624  -2.962  -0.803  1.00  0.00     0.243 C 
ATOM      5  H   UNL     1      -5.304  -3.482  -1.841  1.00  0.00     0.164 HD
BRANCH   4   6
ATOM      6  C   UNL     1      -3.880  -4.199   0.096  1.00  0.00     0.171 C 
BRANCH   6   7
ATOM      7  N   UNL     1      -4.186  -3.779   1.473  1.00  0.00    -0.344 N 
ATOM      8  C   UNL     1      -5.300  -3.014   1.744  1.00  0.00     0.226 C 
ATOM      9  O   UNL     1      -6.067  -2.632   0.868  1.00  0.00    -0.275 OA
ATOM     10  H   UNL     1      -3.539  -4.019   2.214  1.00  0.00     0.164 HD
BRANCH   8  11
ATOM     11  C   UNL     1      -5.507  -2.710   3.217  1.00  0.00     0.109 C 
ATOM     12  C   UNL     1      -4.799  -3.759   4.075  1.00  0.00     0.021 C 
BRANCH  11  13
ATOM     13  C   UNL     1      -5.101  -1.252   3.510  1.00  0.00     0.204 C 
BRANCH  13  14
ATOM     14  N   UNL     1      -4.946  -1.000   4.946  1.00  0.00    -0.340 N 
ATOM     15  C   UNL     1      -5.075   0.253   5.505  1.00  0.00     0.243 C 
ATOM     16  O   UNL     1      -5.391   1.241   4.845  1.00  0.00    -0.273 OA
ATOM     17  H   UNL     1      -4.538  -1.741   5.522  1.00  0.00     0.164 HD
BRANCH  15  18
ATOM     18  C   UNL     1      -4.664   0.311   6.997  1.00  0.00     0.171 C 
BRANCH  18  19
ATOM     19  N   UNL     1      -5.097   1.613   7.500  1.00  0.00    -0.343 N 
ATOM     20  C   UNL     1      -4.569   2.161   8.653  1.00  0.00     0.242 CG0
ATOM     21  O   UNL     1      -3.810   1.523   9.380  1.00  0.00    -0.273 OA
ATOM     22  H   UNL     1      -5.809   2.129   6.996  1.00  0.00     0.164 HD
ATOM     23  G   UNL     1      -5.090   3.575   8.983  1.00  0.00     0.000 G0
ENDBRANCH  18  19
BRANCH  18  24
ATOM     24  C   UNL     1      -5.310  -0.838   7.781  1.00  0.00     0.038 C 
BRANCH  24  25
ATOM     25  C   UNL     1      -6.836  -0.707   7.978  1.00  0.00    -0.015 C 
ATOM     26  C   UNL     1      -7.228  -0.587   9.451  1.00  0.00     0.007 C 
ATOM     27  C   UNL     1      -7.541  -1.913   7.353  1.00  0.00     0.007 C 
ENDBRANCH  24  25
ENDBRANCH  18  24
ENDBRANCH  15  18
ENDBRANCH  13  14
BRANCH  13  28
ATOM     28  C   UNL     1      -3.790  -0.842   2.833  1.00  0.00     0.327 C 
ATOM     29  O   UNL     1      -3.668  -0.041   1.919  1.00  0.00    -0.250 OA
BRANCH  28  30
ATOM     30  O   UNL     1      -2.728  -1.550   3.266  1.00  0.00    -0.480 OA
ATOM     31  H   UNL     1      -2.499  -1.141   4.126  1.00  0.00     0.296 HD
ENDBRANCH  28  30
ENDBRANCH  13  28
ENDBRANCH  11  13
ENDBRANCH   8  11
ENDBRANCH   6   7
BRANCH   6  32
ATOM     32  C   UNL     1      -5.031  -5.020  -0.494  1.00  0.00     0.037 C 
BRANCH  32  33
ATOM     33  C   UNL     1      -5.355  -6.257   0.356  1.00  0.00     0.026 C 
BRANCH  33  34
ATOM     34  C   UNL     1      -6.836  -6.339   0.730  1.00  0.00     0.146 C 
BRANCH  34  35
ATOM     35  N   UNL     1      -7.592  -5.456  -0.148  1.00  0.00    -0.254 NA
ATOM     36  C   UNL     1      -8.842  -5.290   0.076  1.00  0.00     0.185 C 
ATOM     37  N   UNL     1      -9.547  -4.475  -0.724  1.00  0.00    -0.370 N 
ATOM     38  N   UNL     1      -9.606  -5.830   1.042  1.00  0.00    -0.370 N 
ATOM     39  H   UNL     1      -9.038  -4.020  -1.471  1.00  0.00     0.159 HD
ATOM     40  H   UNL     1     -10.478  -4.158  -0.513  1.00  0.00     0.159 HD
ATOM     41  H   UNL     1     -10.608  -5.731   1.030  1.00  0.00     0.159 HD
ATOM     42  H   UNL     1      -9.211  -6.476   1.707  1.00  0.00     0.159 HD
ENDBRANCH  34  35
ENDBRANCH  33  34
ENDBRANCH  32  33
ENDBRANCH   6  32
ENDBRANCH   4   6
ENDBRANCH   1   2
BRANCH   1  43
ATOM     43  C   UNL     1      -6.041  -1.118  -2.811  1.00  0.00     0.102 C 
ATOM     44  C   UNL     1      -6.524  -0.461  -1.508  1.00  0.00     0.020 C 
BRANCH  43  45
ATOM     45  C   UNL     1      -6.995  -2.182  -3.362  1.00  0.00     0.225 C 
ATOM     46  O   UNL     1      -7.349  -3.165  -2.718  1.00  0.00    -0.275 OA
ATOM     47  N   UNL     1      -7.368  -2.018  -4.677  1.00  0.00    -0.342 N 
ATOM     48  H   UNL     1      -7.196  -1.137  -5.140  1.00  0.00     0.164 HD
BRANCH  47  49
ATOM     49  C   UNL     1      -8.306  -2.939  -5.327  1.00  0.00     0.192 C 
BRANCH  49  50
ATOM     50  C   UNL     1      -7.937  -3.090  -6.805  1.00  0.00     0.047 C 
BRANCH  50  51
ATOM     51  C   UNL     1      -6.712  -2.248  -7.188  1.00  0.00     0.103 C 
BRANCH  51  52
ATOM     52  C   UNL     1      -6.820  -1.689  -8.606  1.00  0.00     0.226 C 
ATOM     53  O   UNL     1      -7.599  -2.208  -9.408  1.00  0.00    -0.275 OA
BRANCH  52  54
ATOM     54  N   UNL     1      -6.058  -0.540  -8.887  1.00  0.00    -0.311 N 
ATOM     55  C   UNL     1      -5.473   0.262  -7.804  1.00  0.00     0.153 C 
BRANCH  54  56
ATOM     56  C   UNL     1      -5.822  -0.122 -10.207  1.00  0.00     0.102 C 
ATOM     57  C   UNL     1      -6.439   0.908 -10.808  1.00  0.00     0.043 C 
BRANCH  56  58
ATOM     58  C   UNL     1      -4.782  -0.806 -11.063  1.00  0.00     0.268 C 
ATOM     59  O   UNL     1      -4.935  -1.923 -11.539  1.00  0.00    -0.268 OA
ATOM     60  N   UNL     1      -3.680  -0.021 -11.304  1.00  0.00    -0.339 N 
ATOM     61  H   UNL     1      -3.624   0.889 -10.863  1.00  0.00     0.164 HD
BRANCH  60  62
ATOM     62  C   UNL     1      -2.580  -0.464 -12.160  1.00  0.00     0.168 CG0
ATOM     63  C   UNL     1      -1.386  -0.916 -11.327  1.00  0.00     0.041 C 
ATOM     64  G   UNL     1      -2.177   0.678 -13.116  1.00  0.00     0.000 G0
ENDBRANCH  60  62
ENDBRANCH  56  58
ENDBRANCH  54  56
ENDBRANCH  52  54
ENDBRANCH  51  52
ENDBRANCH  50  51
ENDBRANCH  49  50
BRANCH  49  65
ATOM     65  C   UNL     1      -9.756  -2.445  -5.213  1.00  0.00     0.326 C 
ATOM     66  O   UNL     1     -10.168  -1.634  -4.396  1.00  0.00    -0.250 OA
BRANCH  65  67
ATOM     67  O   UNL     1     -10.620  -3.027  -6.074  1.00  0.00    -0.480 OA
ATOM     68  H   UNL     1     -10.145  -2.999  -6.932  1.00  0.00     0.296 HD
ENDBRANCH  65  67
ENDBRANCH  49  65
ENDBRANCH  47  49
ENDBRANCH  43  45
ENDBRANCH   1  43
BRANCH   1  69
ATOM     69  C   UNL     1      -3.908  -2.144  -3.996  1.00  0.00    -0.001 C 
ATOM     70  C   UNL     1      -3.540  -1.403  -5.057  1.00  0.00     0.001 C 
BRANCH  70  71
ATOM     71  C   UNL     1      -2.866  -1.875  -6.268  1.00  0.00    -0.055 C 
ATOM     72  C   UNL     1      -3.212  -3.089  -6.747  1.00  0.00    -0.018 C 
ATOM     73  C   UNL     1      -1.841  -0.969  -6.900  1.00  0.00     0.044 C 
BRANCH  72  74
ATOM     74  C   UNL     1      -2.690  -3.826  -7.972  1.00  0.00     0.038 C 
ATOM     75  C   UNL     1      -3.867  -3.982  -8.942  1.00  0.00     0.015 C 
BRANCH  74  76
ATOM     76  C   UNL     1      -2.041  -5.165  -7.512  1.00  0.00     0.128 C 
BRANCH  76  77
ATOM     77  O   UNL     1      -1.722  -5.974  -8.657  1.00  0.00    -0.381 OA
ATOM     78  C   UNL     1      -0.435  -5.714  -9.199  1.00  0.00     0.195 C 
ENDBRANCH  76  77
BRANCH  76  79
ATOM     79  C   UNL     1      -0.838  -4.984  -6.552  1.00  0.00     0.068 C 
BRANCH  79  80
ATOM     80  C   UNL     1      -1.031  -5.351  -5.100  1.00  0.00    -0.045 A 
ATOM     81  C   UNL     1       0.054  -5.737  -4.303  1.00  0.00     0.004 A 
ATOM     82  C   UNL     1      -2.314  -5.338  -4.532  1.00  0.00     0.004 A 
ATOM     83  C   UNL     1      -0.135  -6.089  -2.965  1.00  0.00     0.000 A 
ATOM     84  C   UNL     1      -2.502  -5.691  -3.194  1.00  0.00     0.000 A 
ATOM     85  C   UNL     1      -1.413  -6.065  -2.410  1.00  0.00     0.000 A 
ENDBRANCH  79  80
ENDBRANCH  76  79
ENDBRANCH  74  76
ENDBRANCH  72  74
ENDBRANCH  70  71
ENDBRANCH   1  69
TORSDOF 17
ENDMDL
MODEL 19
REMARK VINA RESULT:    -5.841      6.406     12.025
REMARK INTER + INTRA:         -25.125
REMARK INTER:                 -16.860
REMARK INTRA:                  -8.266
REMARK UNBOUND:                -7.676
REMARK SMILES C=C1C(=O)N[C@H](C)C(=O)N[C@@H](CC(C)C)C(=O)N[C@@H](C(=O)O)[C@H](C)C(=O)N[C@@H](CCCN=C(N)N)C(=O)N[C@@H](/C=C/C(C)=C/[C@H](C)[C@H](Cc2ccccc2)OC)[C@H](C)C(=O)N[C@@H](C(=O)O)CCC(=O)N1C
REMARK SMILES IDX 39 1 38 2 37 3 36 4 28 6 27 7 25 8 26 9 23 11 24 12 19 13
REMARK SMILES IDX 18 14 16 15 17 16 11 18 10 19 8 20 9 21 12 24 13 25 14 26
REMARK SMILES IDX 15 27 20 28 21 29 22 30 29 32 30 33 31 34 32 35 33 36 34 37
REMARK SMILES IDX 35 38 57 43 58 44 59 45 60 46 61 47 62 49 66 50 67 51 68 52
REMARK SMILES IDX 69 53 70 54 71 55 2 56 1 57 3 58 4 59 5 60 6 62 7 63 63 65
REMARK SMILES IDX 64 66 65 67 40 69 41 70 42 71 44 72 43 73 45 74 46 75 47 76
REMARK SMILES IDX 55 77 56 78 48 79 49 80 50 81 54 82 51 83 53 84 52 85
REMARK H PARENT 38 5 27 10 18 17 10 22 22 31 34 39 34 40 35 41 35 42 61 48
REMARK H PARENT 5 61 65 68
REMARK Flexibility Score:  369.900
ROOT
ATOM      1  C   UNL     1       2.190  -0.494  -9.977  1.00  0.00     0.117 C 
ENDROOT
BRANCH   1   2
ATOM      2  N   UNL     1       0.830  -0.328 -10.490  1.00  0.00    -0.347 N 
ATOM      3  O   UNL     1       0.203  -2.535 -10.435  1.00  0.00    -0.273 OA
ATOM      4  C   UNL     1      -0.089  -1.354 -10.592  1.00  0.00     0.243 C 
ATOM      5  H   UNL     1       0.507   0.593 -10.745  1.00  0.00     0.164 HD
BRANCH   4   6
ATOM      6  C   UNL     1      -1.485  -0.895 -11.085  1.00  0.00     0.171 C 
BRANCH   6   7
ATOM      7  N   UNL     1      -2.539  -1.411 -10.197  1.00  0.00    -0.344 N 
ATOM      8  C   UNL     1      -3.830  -1.564 -10.654  1.00  0.00     0.226 C 
ATOM      9  O   UNL     1      -4.167  -1.264 -11.793  1.00  0.00    -0.275 OA
ATOM     10  H   UNL     1      -2.313  -1.607  -9.229  1.00  0.00     0.164 HD
BRANCH   8  11
ATOM     11  C   UNL     1      -4.787  -2.158  -9.636  1.00  0.00     0.109 C 
ATOM     12  C   UNL     1      -6.073  -1.333  -9.579  1.00  0.00     0.021 C 
BRANCH  11  13
ATOM     13  C   UNL     1      -4.993  -3.658  -9.926  1.00  0.00     0.204 C 
BRANCH  13  14
ATOM     14  N   UNL     1      -4.130  -4.504  -9.096  1.00  0.00    -0.340 N 
ATOM     15  C   UNL     1      -2.896  -4.952  -9.514  1.00  0.00     0.243 C 
ATOM     16  O   UNL     1      -2.404  -4.623 -10.592  1.00  0.00    -0.273 OA
ATOM     17  H   UNL     1      -4.538  -4.935  -8.262  1.00  0.00     0.164 HD
BRANCH  15  18
ATOM     18  C   UNL     1      -2.261  -5.995  -8.562  1.00  0.00     0.171 C 
BRANCH  18  19
ATOM     19  N   UNL     1      -2.266  -7.271  -9.275  1.00  0.00    -0.343 N 
ATOM     20  C   UNL     1      -3.436  -7.963  -9.523  1.00  0.00     0.242 CG0
ATOM     21  O   UNL     1      -4.509  -7.606  -9.041  1.00  0.00    -0.273 OA
ATOM     22  H   UNL     1      -1.389  -7.667  -9.593  1.00  0.00     0.164 HD
ATOM     23  G   UNL     1      -3.251  -9.248 -10.356  1.00  0.00     0.000 G0
ENDBRANCH  18  19
BRANCH  18  24
ATOM     24  C   UNL     1      -0.839  -5.576  -8.170  1.00  0.00     0.038 C 
BRANCH  24  25
ATOM     25  C   UNL     1      -0.740  -4.792  -6.844  1.00  0.00    -0.015 C 
ATOM     26  C   UNL     1      -1.699  -5.322  -5.778  1.00  0.00     0.007 C 
ATOM     27  C   UNL     1      -1.024  -3.309  -7.101  1.00  0.00     0.007 C 
ENDBRANCH  24  25
ENDBRANCH  18  24
ENDBRANCH  15  18
ENDBRANCH  13  14
BRANCH  13  28
ATOM     28  C   UNL     1      -6.435  -4.124  -9.704  1.00  0.00     0.327 C 
ATOM     29  O   UNL     1      -7.445  -3.465  -9.895  1.00  0.00    -0.250 OA
BRANCH  28  30
ATOM     30  O   UNL     1      -6.515  -5.348  -9.143  1.00  0.00    -0.480 OA
ATOM     31  H   UNL     1      -6.624  -5.167  -8.186  1.00  0.00     0.296 HD
ENDBRANCH  28  30
ENDBRANCH  13  28
ENDBRANCH  11  13
ENDBRANCH   8  11
ENDBRANCH   6   7
BRANCH   6  32
ATOM     32  C   UNL     1      -1.519   0.636 -11.143  1.00  0.00     0.037 C 
BRANCH  32  33
ATOM     33  C   UNL     1      -1.776   1.156 -12.564  1.00  0.00     0.026 C 
BRANCH  33  34
ATOM     34  C   UNL     1      -0.883   2.345 -12.922  1.00  0.00     0.146 C 
BRANCH  34  35
ATOM     35  N   UNL     1       0.233   2.392 -11.988  1.00  0.00    -0.254 NA
ATOM     36  C   UNL     1       0.763   3.528 -11.722  1.00  0.00     0.185 C 
ATOM     37  N   UNL     1       1.789   3.584 -10.859  1.00  0.00    -0.370 N 
ATOM     38  N   UNL     1       0.438   4.744 -12.194  1.00  0.00    -0.370 N 
ATOM     39  H   UNL     1       2.088   2.707 -10.450  1.00  0.00     0.159 HD
ATOM     40  H   UNL     1       2.141   4.441 -10.468  1.00  0.00     0.159 HD
ATOM     41  H   UNL     1       1.021   5.545 -12.016  1.00  0.00     0.159 HD
ATOM     42  H   UNL     1      -0.307   4.851 -12.866  1.00  0.00     0.159 HD
ENDBRANCH  34  35
ENDBRANCH  33  34
ENDBRANCH  32  33
ENDBRANCH   6  32
ENDBRANCH   4   6
ENDBRANCH   1   2
BRANCH   1  43
ATOM     43  C   UNL     1       2.169  -0.275  -8.437  1.00  0.00     0.102 C 
ATOM     44  C   UNL     1       2.142  -1.586  -7.633  1.00  0.00     0.020 C 
BRANCH  43  45
ATOM     45  C   UNL     1       1.075   0.720  -8.038  1.00  0.00     0.225 C 
ATOM     46  O   UNL     1       0.947   1.823  -8.563  1.00  0.00    -0.275 OA
ATOM     47  N   UNL     1       0.288   0.341  -6.975  1.00  0.00    -0.342 N 
ATOM     48  H   UNL     1       0.304  -0.618  -6.658  1.00  0.00     0.164 HD
BRANCH  47  49
ATOM     49  C   UNL     1      -0.821   1.177  -6.506  1.00  0.00     0.192 C 
BRANCH  49  50
ATOM     50  C   UNL     1      -0.554   1.627  -5.067  1.00  0.00     0.047 C 
BRANCH  50  51
ATOM     51  C   UNL     1       0.811   2.312  -4.916  1.00  0.00     0.103 C 
BRANCH  51  52
ATOM     52  C   UNL     1       0.674   3.803  -4.616  1.00  0.00     0.226 C 
ATOM     53  O   UNL     1      -0.382   4.384  -4.877  1.00  0.00    -0.275 OA
BRANCH  52  54
ATOM     54  N   UNL     1       1.766   4.417  -3.974  1.00  0.00    -0.311 N 
ATOM     55  C   UNL     1       3.128   3.889  -4.130  1.00  0.00     0.153 C 
BRANCH  54  56
ATOM     56  C   UNL     1       1.597   5.555  -3.169  1.00  0.00     0.102 C 
ATOM     57  C   UNL     1       1.178   5.538  -1.893  1.00  0.00     0.043 C 
BRANCH  56  58
ATOM     58  C   UNL     1       1.933   6.932  -3.692  1.00  0.00     0.268 C 
ATOM     59  O   UNL     1       1.164   7.595  -4.374  1.00  0.00    -0.268 OA
ATOM     60  N   UNL     1       3.160   7.386  -3.270  1.00  0.00    -0.339 N 
ATOM     61  H   UNL     1       3.743   6.770  -2.715  1.00  0.00     0.164 HD
BRANCH  60  62
ATOM     62  C   UNL     1       3.656   8.719  -3.609  1.00  0.00     0.168 CG0
ATOM     63  C   UNL     1       4.603   8.663  -4.801  1.00  0.00     0.041 C 
ATOM     64  G   UNL     1       4.359   9.336  -2.382  1.00  0.00     0.000 G0
ENDBRANCH  60  62
ENDBRANCH  56  58
ENDBRANCH  54  56
ENDBRANCH  52  54
ENDBRANCH  51  52
ENDBRANCH  50  51
ENDBRANCH  49  50
BRANCH  49  65
ATOM     65  C   UNL     1      -2.161   0.427  -6.564  1.00  0.00     0.326 C 
ATOM     66  O   UNL     1      -2.826   0.236  -7.572  1.00  0.00    -0.250 OA
BRANCH  65  67
ATOM     67  O   UNL     1      -2.626   0.010  -5.365  1.00  0.00    -0.480 OA
ATOM     68  H   UNL     1      -3.553  -0.252  -5.555  1.00  0.00     0.296 HD
ENDBRANCH  65  67
ENDBRANCH  49  65
ENDBRANCH  47  49
ENDBRANCH  43  45
ENDBRANCH   1  43
BRANCH   1  69
ATOM     69  C   UNL     1       3.077   0.394 -10.831  1.00  0.00    -0.001 C 
ATOM     70  C   UNL     1       4.325   0.811 -10.554  1.00  0.00     0.001 C 
BRANCH  70  71
ATOM     71  C   UNL     1       5.179   1.650 -11.397  1.00  0.00    -0.055 C 
ATOM     72  C   UNL     1       5.398   2.922 -10.999  1.00  0.00    -0.018 C 
ATOM     73  C   UNL     1       5.760   1.034 -12.643  1.00  0.00     0.044 C 
BRANCH  72  74
ATOM     74  C   UNL     1       6.233   4.008 -11.662  1.00  0.00     0.038 C 
ATOM     75  C   UNL     1       7.476   4.218 -10.791  1.00  0.00     0.015 C 
BRANCH  74  76
ATOM     76  C   UNL     1       5.347   5.274 -11.853  1.00  0.00     0.128 C 
BRANCH  76  77
ATOM     77  O   UNL     1       4.041   4.894 -12.319  1.00  0.00    -0.381 OA
ATOM     78  C   UNL     1       3.876   5.025 -13.724  1.00  0.00     0.195 C 
ENDBRANCH  76  77
BRANCH  76  79
ATOM     79  C   UNL     1       5.295   6.199 -10.611  1.00  0.00     0.068 C 
BRANCH  79  80
ATOM     80  C   UNL     1       4.241   5.920  -9.566  1.00  0.00    -0.045 A 
ATOM     81  C   UNL     1       3.064   6.679  -9.508  1.00  0.00     0.004 A 
ATOM     82  C   UNL     1       4.439   4.909  -8.614  1.00  0.00     0.004 A 
ATOM     83  C   UNL     1       2.101   6.424  -8.529  1.00  0.00     0.000 A 
ATOM     84  C   UNL     1       3.475   4.656  -7.635  1.00  0.00     0.000 A 
ATOM     85  C   UNL     1       2.306   5.412  -7.594  1.00  0.00     0.000 A 
ENDBRANCH  79  80
ENDBRANCH  76  79
ENDBRANCH  74  76
ENDBRANCH  72  74
ENDBRANCH  70  71
ENDBRANCH   1  69
TORSDOF 17
ENDMDL
MODEL 20
REMARK VINA RESULT:    -5.819      3.939      7.564
REMARK INTER + INTRA:         -25.063
REMARK INTER:                 -17.031
REMARK INTRA:                  -8.032
REMARK UNBOUND:                -7.676
REMARK SMILES C=C1C(=O)N[C@H](C)C(=O)N[C@@H](CC(C)C)C(=O)N[C@@H](C(=O)O)[C@H](C)C(=O)N[C@@H](CCCN=C(N)N)C(=O)N[C@@H](/C=C/C(C)=C/[C@H](C)[C@H](Cc2ccccc2)OC)[C@H](C)C(=O)N[C@@H](C(=O)O)CCC(=O)N1C
REMARK SMILES IDX 39 1 38 2 37 3 36 4 28 6 27 7 25 8 26 9 23 11 24 12 19 13
REMARK SMILES IDX 18 14 16 15 17 16 11 18 10 19 8 20 9 21 12 24 13 25 14 26
REMARK SMILES IDX 15 27 20 28 21 29 22 30 29 32 30 33 31 34 32 35 33 36 34 37
REMARK SMILES IDX 35 38 57 43 58 44 59 45 60 46 61 47 62 49 66 50 67 51 68 52
REMARK SMILES IDX 69 53 70 54 71 55 2 56 1 57 3 58 4 59 5 60 6 62 7 63 63 65
REMARK SMILES IDX 64 66 65 67 40 69 41 70 42 71 44 72 43 73 45 74 46 75 47 76
REMARK SMILES IDX 55 77 56 78 48 79 49 80 50 81 54 82 51 83 53 84 52 85
REMARK H PARENT 38 5 27 10 18 17 10 22 22 31 34 39 34 40 35 41 35 42 61 48
REMARK H PARENT 5 61 65 68
REMARK Flexibility Score:  369.900
ROOT
ATOM      1  C   UNL     1      -4.821  -3.280  -1.143  1.00  0.00     0.117 C 
ENDROOT
BRANCH   1   2
ATOM      2  N   UNL     1      -5.860  -2.878  -2.091  1.00  0.00    -0.347 N 
ATOM      3  O   UNL     1      -7.657  -3.795  -0.995  1.00  0.00    -0.273 OA
ATOM      4  C   UNL     1      -7.211  -3.089  -1.894  1.00  0.00     0.243 C 
ATOM      5  H   UNL     1      -5.600  -2.370  -2.923  1.00  0.00     0.164 HD
BRANCH   4   6
ATOM      6  C   UNL     1      -8.105  -2.489  -3.009  1.00  0.00     0.171 C 
BRANCH   6   7
ATOM      7  N   UNL     1      -7.317  -2.253  -4.229  1.00  0.00    -0.344 N 
ATOM      8  C   UNL     1      -7.520  -1.122  -4.989  1.00  0.00     0.226 C 
ATOM      9  O   UNL     1      -8.366  -0.281  -4.708  1.00  0.00    -0.275 OA
ATOM     10  H   UNL     1      -6.656  -2.958  -4.530  1.00  0.00     0.164 HD
BRANCH   8  11
ATOM     11  C   UNL     1      -6.592  -0.997  -6.185  1.00  0.00     0.109 C 
ATOM     12  C   UNL     1      -5.686  -2.225  -6.279  1.00  0.00     0.021 C 
BRANCH  11  13
ATOM     13  C   UNL     1      -7.415  -0.700  -7.454  1.00  0.00     0.204 C 
BRANCH  13  14
ATOM     14  N   UNL     1      -6.566  -0.300  -8.581  1.00  0.00    -0.340 N 
ATOM     15  C   UNL     1      -6.444   1.007  -8.999  1.00  0.00     0.243 C 
ATOM     16  O   UNL     1      -6.993   1.941  -8.417  1.00  0.00    -0.273 OA
ATOM     17  H   UNL     1      -6.207  -1.035  -9.197  1.00  0.00     0.164 HD
BRANCH  15  18
ATOM     18  C   UNL     1      -5.664   1.161 -10.328  1.00  0.00     0.171 C 
BRANCH  18  19
ATOM     19  N   UNL     1      -4.273   1.429  -9.968  1.00  0.00    -0.343 N 
ATOM     20  C   UNL     1      -3.658   2.627 -10.276  1.00  0.00     0.242 CG0
ATOM     21  O   UNL     1      -4.207   3.470 -10.981  1.00  0.00    -0.273 OA
ATOM     22  H   UNL     1      -3.738   0.716  -9.485  1.00  0.00     0.164 HD
ATOM     23  G   UNL     1      -2.214   2.756  -9.747  1.00  0.00     0.000 G0
ENDBRANCH  18  19
BRANCH  18  24
ATOM     24  C   UNL     1      -5.791  -0.107 -11.180  1.00  0.00     0.038 C 
BRANCH  24  25
ATOM     25  C   UNL     1      -4.531  -0.999 -11.199  1.00  0.00    -0.015 C 
ATOM     26  C   UNL     1      -3.720  -0.839 -12.485  1.00  0.00     0.007 C 
ATOM     27  C   UNL     1      -4.936  -2.465 -11.025  1.00  0.00     0.007 C 
ENDBRANCH  24  25
ENDBRANCH  18  24
ENDBRANCH  15  18
ENDBRANCH  13  14
BRANCH  13  28
ATOM     28  C   UNL     1      -8.257  -1.891  -7.921  1.00  0.00     0.327 C 
ATOM     29  O   UNL     1      -8.308  -2.340  -9.056  1.00  0.00    -0.250 OA
BRANCH  28  30
ATOM     30  O   UNL     1      -9.073  -2.371  -6.960  1.00  0.00    -0.480 OA
ATOM     31  H   UNL     1      -9.924  -1.912  -7.116  1.00  0.00     0.296 HD
ENDBRANCH  28  30
ENDBRANCH  13  28
ENDBRANCH  11  13
ENDBRANCH   8  11
ENDBRANCH   6   7
BRANCH   6  32
ATOM     32  C   UNL     1      -9.272  -3.443  -3.287  1.00  0.00     0.037 C 
BRANCH  32  33
ATOM     33  C   UNL     1     -10.633  -2.789  -3.013  1.00  0.00     0.026 C 
BRANCH  33  34
ATOM     34  C   UNL     1     -10.538  -1.636  -2.013  1.00  0.00     0.146 C 
BRANCH  34  35
ATOM     35  N   UNL     1     -11.060  -2.083  -0.729  1.00  0.00    -0.254 NA
ATOM     36  C   UNL     1     -10.345  -1.910   0.319  1.00  0.00     0.185 C 
ATOM     37  N   UNL     1     -10.819  -2.314   1.508  1.00  0.00    -0.370 N 
ATOM     38  N   UNL     1      -9.124  -1.356   0.427  1.00  0.00    -0.370 N 
ATOM     39  H   UNL     1     -11.740  -2.733   1.511  1.00  0.00     0.159 HD
ATOM     40  H   UNL     1     -10.403  -2.060   2.388  1.00  0.00     0.159 HD
ATOM     41  H   UNL     1      -8.605  -1.403   1.289  1.00  0.00     0.159 HD
ATOM     42  H   UNL     1      -8.639  -1.022  -0.391  1.00  0.00     0.159 HD
ENDBRANCH  34  35
ENDBRANCH  33  34
ENDBRANCH  32  33
ENDBRANCH   6  32
ENDBRANCH   4   6
ENDBRANCH   1   2
BRANCH   1  43
ATOM     43  C   UNL     1      -4.287  -2.008  -0.423  1.00  0.00     0.102 C 
ATOM     44  C   UNL     1      -2.817  -2.124   0.014  1.00  0.00     0.020 C 
BRANCH  43  45
ATOM     45  C   UNL     1      -5.236  -1.570   0.696  1.00  0.00     0.225 C 
ATOM     46  O   UNL     1      -6.145  -0.762   0.528  1.00  0.00    -0.275 OA
ATOM     47  N   UNL     1      -4.950  -2.072   1.945  1.00  0.00    -0.342 N 
ATOM     48  H   UNL     1      -4.305  -2.843   2.039  1.00  0.00     0.164 HD
BRANCH  47  49
ATOM     49  C   UNL     1      -5.794  -1.767   3.105  1.00  0.00     0.192 C 
BRANCH  49  50
ATOM     50  C   UNL     1      -4.943  -1.778   4.377  1.00  0.00     0.047 C 
BRANCH  50  51
ATOM     51  C   UNL     1      -5.561  -0.931   5.498  1.00  0.00     0.103 C 
BRANCH  51  52
ATOM     52  C   UNL     1      -6.066  -1.791   6.655  1.00  0.00     0.226 C 
ATOM     53  O   UNL     1      -5.907  -3.012   6.622  1.00  0.00    -0.275 OA
BRANCH  52  54
ATOM     54  N   UNL     1      -6.628  -1.104   7.747  1.00  0.00    -0.311 N 
ATOM     55  C   UNL     1      -8.044  -0.712   7.746  1.00  0.00     0.153 C 
BRANCH  54  56
ATOM     56  C   UNL     1      -5.862  -0.774   8.878  1.00  0.00     0.102 C 
ATOM     57  C   UNL     1      -4.556  -0.462   8.856  1.00  0.00     0.043 C 
BRANCH  56  58
ATOM     58  C   UNL     1      -6.494  -0.701  10.248  1.00  0.00     0.268 C 
ATOM     59  O   UNL     1      -6.445   0.295  10.956  1.00  0.00    -0.268 OA
ATOM     60  N   UNL     1      -7.183  -1.842  10.586  1.00  0.00    -0.339 N 
ATOM     61  H   UNL     1      -7.167  -2.628   9.948  1.00  0.00     0.164 HD
BRANCH  60  62
ATOM     62  C   UNL     1      -7.923  -1.961  11.842  1.00  0.00     0.168 CG0
ATOM     63  C   UNL     1      -9.394  -1.618  11.645  1.00  0.00     0.041 C 
ATOM     64  G   UNL     1      -7.286  -1.044  12.906  1.00  0.00     0.000 G0
ENDBRANCH  60  62
ENDBRANCH  56  58
ENDBRANCH  54  56
ENDBRANCH  52  54
ENDBRANCH  51  52
ENDBRANCH  50  51
ENDBRANCH  49  50
BRANCH  49  65
ATOM     65  C   UNL     1      -6.942  -2.778   3.252  1.00  0.00     0.326 C 
ATOM     66  O   UNL     1      -8.103  -2.588   2.918  1.00  0.00    -0.250 OA
BRANCH  65  67
ATOM     67  O   UNL     1      -6.599  -3.936   3.857  1.00  0.00    -0.480 OA
ATOM     68  H   UNL     1      -6.538  -3.692   4.806  1.00  0.00     0.296 HD
ENDBRANCH  65  67
ENDBRANCH  49  65
ENDBRANCH  47  49
ENDBRANCH  43  45
ENDBRANCH   1  43
BRANCH   1  69
ATOM     69  C   UNL     1      -3.847  -4.145  -1.922  1.00  0.00    -0.001 C 
ATOM     70  C   UNL     1      -3.283  -3.871  -3.112  1.00  0.00     0.001 C 
BRANCH  70  71
ATOM     71  C   UNL     1      -2.328  -4.704  -3.845  1.00  0.00    -0.055 C 
ATOM     72  C   UNL     1      -2.306  -4.599  -5.190  1.00  0.00    -0.018 C 
ATOM     73  C   UNL     1      -1.431  -5.613  -3.045  1.00  0.00     0.044 C 
BRANCH  72  74
ATOM     74  C   UNL     1      -1.430  -5.328  -6.199  1.00  0.00     0.038 C 
ATOM     75  C   UNL     1      -0.064  -4.632  -6.198  1.00  0.00     0.015 C 
BRANCH  74  76
ATOM     76  C   UNL     1      -2.156  -5.339  -7.577  1.00  0.00     0.128 C 
BRANCH  76  77
ATOM     77  O   UNL     1      -3.038  -6.471  -7.658  1.00  0.00    -0.381 OA
ATOM     78  C   UNL     1      -3.516  -6.730  -8.971  1.00  0.00     0.195 C 
ENDBRANCH  76  77
BRANCH  76  79
ATOM     79  C   UNL     1      -2.860  -4.004  -7.928  1.00  0.00     0.068 C 
BRANCH  79  80
ATOM     80  C   UNL     1      -2.114  -3.018  -8.794  1.00  0.00    -0.045 A 
ATOM     81  C   UNL     1      -2.042  -1.662  -8.448  1.00  0.00     0.004 A 
ATOM     82  C   UNL     1      -1.501  -3.443  -9.983  1.00  0.00     0.004 A 
ATOM     83  C   UNL     1      -1.362  -0.754  -9.262  1.00  0.00     0.000 A 
ATOM     84  C   UNL     1      -0.822  -2.534 -10.797  1.00  0.00     0.000 A 
ATOM     85  C   UNL     1      -0.751  -1.190 -10.435  1.00  0.00     0.000 A 
ENDBRANCH  79  80
ENDBRANCH  76  79
ENDBRANCH  74  76
ENDBRANCH  72  74
ENDBRANCH  70  71
ENDBRANCH   1  69
TORSDOF 17
ENDMDL
MODEL 21
REMARK VINA RESULT:    -5.803      2.594      4.636
REMARK INTER + INTRA:         -25.014
REMARK INTER:                 -16.098
REMARK INTRA:                  -8.916
REMARK UNBOUND:                -7.676
REMARK SMILES C=C1C(=O)N[C@H](C)C(=O)N[C@@H](CC(C)C)C(=O)N[C@@H](C(=O)O)[C@H](C)C(=O)N[C@@H](CCCN=C(N)N)C(=O)N[C@@H](/C=C/C(C)=C/[C@H](C)[C@H](Cc2ccccc2)OC)[C@H](C)C(=O)N[C@@H](C(=O)O)CCC(=O)N1C
REMARK SMILES IDX 39 1 38 2 37 3 36 4 28 6 27 7 25 8 26 9 23 11 24 12 19 13
REMARK SMILES IDX 18 14 16 15 17 16 11 18 10 19 8 20 9 21 12 24 13 25 14 26
REMARK SMILES IDX 15 27 20 28 21 29 22 30 29 32 30 33 31 34 32 35 33 36 34 37
REMARK SMILES IDX 35 38 57 43 58 44 59 45 60 46 61 47 62 49 66 50 67 51 68 52
REMARK SMILES IDX 69 53 70 54 71 55 2 56 1 57 3 58 4 59 5 60 6 62 7 63 63 65
REMARK SMILES IDX 64 66 65 67 40 69 41 70 42 71 44 72 43 73 45 74 46 75 47 76
REMARK SMILES IDX 55 77 56 78 48 79 49 80 50 81 54 82 51 83 53 84 52 85
REMARK H PARENT 38 5 27 10 18 17 10 22 22 31 34 39 34 40 35 41 35 42 61 48
REMARK H PARENT 5 61 65 68
REMARK Flexibility Score:  369.900
ROOT
ATOM      1  C   UNL     1      -3.923  -2.165  -3.064  1.00  0.00     0.117 C 
ENDROOT
BRANCH   1   2
ATOM      2  N   UNL     1      -3.856  -2.053  -4.521  1.00  0.00    -0.347 N 
ATOM      3  O   UNL     1      -2.701  -0.072  -4.630  1.00  0.00    -0.273 OA
ATOM      4  C   UNL     1      -3.168  -1.059  -5.190  1.00  0.00     0.243 C 
ATOM      5  H   UNL     1      -4.290  -2.763  -5.092  1.00  0.00     0.164 HD
BRANCH   4   6
ATOM      6  C   UNL     1      -3.183  -1.219  -6.731  1.00  0.00     0.171 C 
BRANCH   6   7
ATOM      7  N   UNL     1      -1.909  -1.784  -7.202  1.00  0.00    -0.344 N 
ATOM      8  C   UNL     1      -0.857  -0.960  -7.539  1.00  0.00     0.226 C 
ATOM      9  O   UNL     1      -0.932   0.262  -7.488  1.00  0.00    -0.275 OA
ATOM     10  H   UNL     1      -1.831  -2.786  -7.322  1.00  0.00     0.164 HD
BRANCH   8  11
ATOM     11  C   UNL     1       0.406  -1.695  -7.954  1.00  0.00     0.109 C 
ATOM     12  C   UNL     1       0.212  -3.203  -7.793  1.00  0.00     0.021 C 
BRANCH  11  13
ATOM     13  C   UNL     1       0.833  -1.243  -9.364  1.00  0.00     0.204 C 
BRANCH  13  14
ATOM     14  N   UNL     1      -0.283  -0.668 -10.122  1.00  0.00    -0.340 N 
ATOM     15  C   UNL     1      -0.695  -1.165 -11.339  1.00  0.00     0.243 C 
ATOM     16  O   UNL     1      -0.193  -2.165 -11.849  1.00  0.00    -0.273 OA
ATOM     17  H   UNL     1      -0.640   0.246  -9.832  1.00  0.00     0.164 HD
BRANCH  15  18
ATOM     18  C   UNL     1      -1.747  -0.275 -12.046  1.00  0.00     0.171 C 
BRANCH  18  19
ATOM     19  N   UNL     1      -1.340  -0.176 -13.446  1.00  0.00    -0.343 N 
ATOM     20  C   UNL     1      -0.991   1.031 -14.020  1.00  0.00     0.242 CG0
ATOM     21  O   UNL     1      -1.134   2.094 -13.421  1.00  0.00    -0.273 OA
ATOM     22  H   UNL     1      -1.318  -1.013 -14.017  1.00  0.00     0.164 HD
ATOM     23  G   UNL     1      -0.514   0.925 -15.483  1.00  0.00     0.000 G0
ENDBRANCH  18  19
BRANCH  18  24
ATOM     24  C   UNL     1      -3.149  -0.882 -11.909  1.00  0.00     0.038 C 
BRANCH  24  25
ATOM     25  C   UNL     1      -4.231   0.099 -11.410  1.00  0.00    -0.015 C 
ATOM     26  C   UNL     1      -4.119   0.381  -9.912  1.00  0.00     0.007 C 
ATOM     27  C   UNL     1      -5.620  -0.461 -11.727  1.00  0.00     0.007 C 
ENDBRANCH  24  25
ENDBRANCH  18  24
ENDBRANCH  15  18
ENDBRANCH  13  14
BRANCH  13  28
ATOM     28  C   UNL     1       1.956  -0.201  -9.349  1.00  0.00     0.327 C 
ATOM     29  O   UNL     1       3.141  -0.412  -9.558  1.00  0.00    -0.250 OA
BRANCH  28  30
ATOM     30  O   UNL     1       1.539   1.020  -8.957  1.00  0.00    -0.480 OA
ATOM     31  H   UNL     1       0.562   0.967  -9.003  1.00  0.00     0.296 HD
ENDBRANCH  28  30
ENDBRANCH  13  28
ENDBRANCH  11  13
ENDBRANCH   8  11
ENDBRANCH   6   7
BRANCH   6  32
ATOM     32  C   UNL     1      -4.361  -2.114  -7.133  1.00  0.00     0.037 C 
BRANCH  32  33
ATOM     33  C   UNL     1      -3.897  -3.481  -7.655  1.00  0.00     0.026 C 
BRANCH  33  34
ATOM     34  C   UNL     1      -4.124  -3.640  -9.159  1.00  0.00     0.146 C 
BRANCH  34  35
ATOM     35  N   UNL     1      -2.831  -3.644  -9.831  1.00  0.00    -0.254 NA
ATOM     36  C   UNL     1      -2.324  -4.768 -10.179  1.00  0.00     0.185 C 
ATOM     37  N   UNL     1      -1.136  -4.783 -10.804  1.00  0.00    -0.370 N 
ATOM     38  N   UNL     1      -2.819  -6.007 -10.012  1.00  0.00    -0.370 N 
ATOM     39  H   UNL     1      -0.702  -3.885 -10.976  1.00  0.00     0.159 HD
ATOM     40  H   UNL     1      -0.757  -5.595 -11.259  1.00  0.00     0.159 HD
ATOM     41  H   UNL     1      -2.259  -6.822 -10.204  1.00  0.00     0.159 HD
ATOM     42  H   UNL     1      -3.699  -6.148  -9.542  1.00  0.00     0.159 HD
ENDBRANCH  34  35
ENDBRANCH  33  34
ENDBRANCH  32  33
ENDBRANCH   6  32
ENDBRANCH   4   6
ENDBRANCH   1   2
BRANCH   1  43
ATOM     43  C   UNL     1      -2.871  -3.214  -2.599  1.00  0.00     0.102 C 
ATOM     44  C   UNL     1      -2.822  -4.467  -3.490  1.00  0.00     0.020 C 
BRANCH  43  45
ATOM     45  C   UNL     1      -3.021  -3.519  -1.106  1.00  0.00     0.225 C 
ATOM     46  O   UNL     1      -3.085  -4.660  -0.657  1.00  0.00    -0.275 OA
ATOM     47  N   UNL     1      -3.175  -2.421  -0.290  1.00  0.00    -0.342 N 
ATOM     48  H   UNL     1      -2.970  -1.499  -0.648  1.00  0.00     0.164 HD
BRANCH  47  49
ATOM     49  C   UNL     1      -3.294  -2.559   1.165  1.00  0.00     0.192 C 
BRANCH  49  50
ATOM     50  C   UNL     1      -4.205  -1.458   1.713  1.00  0.00     0.047 C 
BRANCH  50  51
ATOM     51  C   UNL     1      -3.762  -0.058   1.265  1.00  0.00     0.103 C 
BRANCH  51  52
ATOM     52  C   UNL     1      -4.872   0.685   0.525  1.00  0.00     0.226 C 
ATOM     53  O   UNL     1      -5.254   0.276  -0.573  1.00  0.00    -0.275 OA
BRANCH  52  54
ATOM     54  N   UNL     1      -5.453   1.776   1.199  1.00  0.00    -0.311 N 
ATOM     55  C   UNL     1      -4.769   3.074   1.267  1.00  0.00     0.153 C 
BRANCH  54  56
ATOM     56  C   UNL     1      -6.706   1.667   1.824  1.00  0.00     0.102 C 
ATOM     57  C   UNL     1      -7.864   2.111   1.308  1.00  0.00     0.043 C 
BRANCH  56  58
ATOM     58  C   UNL     1      -6.849   0.972   3.158  1.00  0.00     0.268 C 
ATOM     59  O   UNL     1      -7.820   0.291   3.458  1.00  0.00    -0.268 OA
ATOM     60  N   UNL     1      -5.751   1.129   3.969  1.00  0.00    -0.339 N 
ATOM     61  H   UNL     1      -4.990   1.718   3.651  1.00  0.00     0.164 HD
BRANCH  60  62
ATOM     62  C   UNL     1      -5.652   0.489   5.280  1.00  0.00     0.168 CG0
ATOM     63  C   UNL     1      -4.922  -0.845   5.184  1.00  0.00     0.041 C 
ATOM     64  G   UNL     1      -7.065   0.297   5.869  1.00  0.00     0.000 G0
ENDBRANCH  60  62
ENDBRANCH  56  58
ENDBRANCH  54  56
ENDBRANCH  52  54
ENDBRANCH  51  52
ENDBRANCH  50  51
ENDBRANCH  49  50
BRANCH  49  65
ATOM     65  C   UNL     1      -1.923  -2.476   1.855  1.00  0.00     0.326 C 
ATOM     66  O   UNL     1      -0.851  -2.316   1.290  1.00  0.00    -0.250 OA
BRANCH  65  67
ATOM     67  O   UNL     1      -1.954  -2.657   3.194  1.00  0.00    -0.480 OA
ATOM     68  H   UNL     1      -1.355  -1.959   3.536  1.00  0.00     0.296 HD
ENDBRANCH  65  67
ENDBRANCH  49  65
ENDBRANCH  47  49
ENDBRANCH  43  45
ENDBRANCH   1  43
BRANCH   1  69
ATOM     69  C   UNL     1      -5.384  -2.392  -2.722  1.00  0.00    -0.001 C 
ATOM     70  C   UNL     1      -6.431  -2.384  -3.566  1.00  0.00     0.001 C 
BRANCH  70  71
ATOM     71  C   UNL     1      -7.835  -2.624  -3.228  1.00  0.00    -0.055 C 
ATOM     72  C   UNL     1      -8.313  -2.067  -2.096  1.00  0.00    -0.018 C 
ATOM     73  C   UNL     1      -8.650  -3.470  -4.173  1.00  0.00     0.044 C 
BRANCH  72  74
ATOM     74  C   UNL     1      -9.712  -2.142  -1.501  1.00  0.00     0.038 C 
ATOM     75  C   UNL     1     -10.521  -0.986  -2.101  1.00  0.00     0.015 C 
BRANCH  74  76
ATOM     76  C   UNL     1      -9.598  -2.122   0.052  1.00  0.00     0.128 C 
BRANCH  76  77
ATOM     77  O   UNL     1     -10.173  -3.320   0.601  1.00  0.00    -0.381 OA
ATOM     78  C   UNL     1     -11.382  -3.098   1.313  1.00  0.00     0.195 C 
ENDBRANCH  76  77
BRANCH  76  79
ATOM     79  C   UNL     1      -8.165  -1.851   0.574  1.00  0.00     0.068 C 
BRANCH  79  80
ATOM     80  C   UNL     1      -7.445  -2.974   1.280  1.00  0.00    -0.045 A 
ATOM     81  C   UNL     1      -7.429  -3.055   2.679  1.00  0.00     0.004 A 
ATOM     82  C   UNL     1      -6.752  -3.945   0.541  1.00  0.00     0.004 A 
ATOM     83  C   UNL     1      -6.749  -4.090   3.325  1.00  0.00     0.000 A 
ATOM     84  C   UNL     1      -6.071  -4.978   1.188  1.00  0.00     0.000 A 
ATOM     85  C   UNL     1      -6.071  -5.052   2.579  1.00  0.00     0.000 A 
ENDBRANCH  79  80
ENDBRANCH  76  79
ENDBRANCH  74  76
ENDBRANCH  72  74
ENDBRANCH  70  71
ENDBRANCH   1  69
TORSDOF 17
ENDMDL
MODEL 22
REMARK VINA RESULT:    -5.803      3.782      7.327
REMARK INTER + INTRA:         -25.014
REMARK INTER:                 -16.500
REMARK INTRA:                  -8.514
REMARK UNBOUND:                -7.676
REMARK SMILES C=C1C(=O)N[C@H](C)C(=O)N[C@@H](CC(C)C)C(=O)N[C@@H](C(=O)O)[C@H](C)C(=O)N[C@@H](CCCN=C(N)N)C(=O)N[C@@H](/C=C/C(C)=C/[C@H](C)[C@H](Cc2ccccc2)OC)[C@H](C)C(=O)N[C@@H](C(=O)O)CCC(=O)N1C
REMARK SMILES IDX 39 1 38 2 37 3 36 4 28 6 27 7 25 8 26 9 23 11 24 12 19 13
REMARK SMILES IDX 18 14 16 15 17 16 11 18 10 19 8 20 9 21 12 24 13 25 14 26
REMARK SMILES IDX 15 27 20 28 21 29 22 30 29 32 30 33 31 34 32 35 33 36 34 37
REMARK SMILES IDX 35 38 57 43 58 44 59 45 60 46 61 47 62 49 66 50 67 51 68 52
REMARK SMILES IDX 69 53 70 54 71 55 2 56 1 57 3 58 4 59 5 60 6 62 7 63 63 65
REMARK SMILES IDX 64 66 65 67 40 69 41 70 42 71 44 72 43 73 45 74 46 75 47 76
REMARK SMILES IDX 55 77 56 78 48 79 49 80 50 81 54 82 51 83 53 84 52 85
REMARK H PARENT 38 5 27 10 18 17 10 22 22 31 34 39 34 40 35 41 35 42 61 48
REMARK H PARENT 5 61 65 68
REMARK Flexibility Score:  369.900
ROOT
ATOM      1  C   UNL     1      -2.451   0.072  -4.922  1.00  0.00     0.117 C 
ENDROOT
BRANCH   1   2
ATOM      2  N   UNL     1      -3.053   0.341  -6.229  1.00  0.00    -0.347 N 
ATOM      3  O   UNL     1      -1.545  -0.819  -7.513  1.00  0.00    -0.273 OA
ATOM      4  C   UNL     1      -2.601  -0.204  -7.415  1.00  0.00     0.243 C 
ATOM      5  H   UNL     1      -3.878   0.918  -6.284  1.00  0.00     0.164 HD
BRANCH   4   6
ATOM      6  C   UNL     1      -3.468   0.172  -8.644  1.00  0.00     0.171 C 
BRANCH   6   7
ATOM      7  N   UNL     1      -3.018  -0.564  -9.836  1.00  0.00    -0.344 N 
ATOM      8  C   UNL     1      -2.154   0.019 -10.737  1.00  0.00     0.226 C 
ATOM      9  O   UNL     1      -1.741   1.165 -10.609  1.00  0.00    -0.275 OA
ATOM     10  H   UNL     1      -3.390  -1.489 -10.011  1.00  0.00     0.164 HD
BRANCH   8  11
ATOM     11  C   UNL     1      -1.741  -0.888 -11.884  1.00  0.00     0.109 C 
ATOM     12  C   UNL     1      -1.667  -0.089 -13.185  1.00  0.00     0.021 C 
BRANCH  11  13
ATOM     13  C   UNL     1      -0.449  -1.642 -11.512  1.00  0.00     0.204 C 
BRANCH  13  14
ATOM     14  N   UNL     1       0.469  -0.811 -10.727  1.00  0.00    -0.340 N 
ATOM     15  C   UNL     1       1.540  -0.146 -11.285  1.00  0.00     0.243 C 
ATOM     16  O   UNL     1       1.765  -0.155 -12.494  1.00  0.00    -0.273 OA
ATOM     17  H   UNL     1       0.430  -0.883  -9.707  1.00  0.00     0.164 HD
BRANCH  15  18
ATOM     18  C   UNL     1       2.485   0.494 -10.239  1.00  0.00     0.171 C 
BRANCH  18  19
ATOM     19  N   UNL     1       3.137   1.623 -10.899  1.00  0.00    -0.343 N 
ATOM     20  C   UNL     1       4.486   1.611 -11.200  1.00  0.00     0.242 CG0
ATOM     21  O   UNL     1       5.224   0.710 -10.809  1.00  0.00    -0.273 OA
ATOM     22  H   UNL     1       2.591   2.442 -11.139  1.00  0.00     0.164 HD
ATOM     23  G   UNL     1       4.978   2.856 -11.966  1.00  0.00     0.000 G0
ENDBRANCH  18  19
BRANCH  18  24
ATOM     24  C   UNL     1       1.697   0.944  -9.002  1.00  0.00     0.038 C 
BRANCH  24  25
ATOM     25  C   UNL     1       2.175   0.324  -7.672  1.00  0.00    -0.015 C 
ATOM     26  C   UNL     1       2.019  -1.197  -7.647  1.00  0.00     0.007 C 
ATOM     27  C   UNL     1       1.397   0.941  -6.507  1.00  0.00     0.007 C 
ENDBRANCH  24  25
ENDBRANCH  18  24
ENDBRANCH  15  18
ENDBRANCH  13  14
BRANCH  13  28
ATOM     28  C   UNL     1      -0.706  -2.919 -10.706  1.00  0.00     0.327 C 
ATOM     29  O   UNL     1      -1.021  -2.979  -9.528  1.00  0.00    -0.250 OA
BRANCH  28  30
ATOM     30  O   UNL     1      -0.435  -4.044 -11.398  1.00  0.00    -0.480 OA
ATOM     31  H   UNL     1      -0.180  -4.695 -10.711  1.00  0.00     0.296 HD
ENDBRANCH  28  30
ENDBRANCH  13  28
ENDBRANCH  11  13
ENDBRANCH   8  11
ENDBRANCH   6   7
BRANCH   6  32
ATOM     32  C   UNL     1      -4.938  -0.133  -8.335  1.00  0.00     0.037 C 
BRANCH  32  33
ATOM     33  C   UNL     1      -5.879   0.374  -9.437  1.00  0.00     0.026 C 
BRANCH  33  34
ATOM     34  C   UNL     1      -6.595  -0.765 -10.164  1.00  0.00     0.146 C 
BRANCH  34  35
ATOM     35  N   UNL     1      -5.884  -2.009  -9.904  1.00  0.00    -0.254 NA
ATOM     36  C   UNL     1      -6.539  -3.004  -9.433  1.00  0.00     0.185 C 
ATOM     37  N   UNL     1      -5.895  -4.157  -9.194  1.00  0.00    -0.370 N 
ATOM     38  N   UNL     1      -7.845  -3.085  -9.122  1.00  0.00    -0.370 N 
ATOM     39  H   UNL     1      -4.908  -4.179  -9.413  1.00  0.00     0.159 HD
ATOM     40  H   UNL     1      -6.363  -5.024  -8.994  1.00  0.00     0.159 HD
ATOM     41  H   UNL     1      -8.215  -3.880  -8.628  1.00  0.00     0.159 HD
ATOM     42  H   UNL     1      -8.450  -2.286  -9.236  1.00  0.00     0.159 HD
ENDBRANCH  34  35
ENDBRANCH  33  34
ENDBRANCH  32  33
ENDBRANCH   6  32
ENDBRANCH   4   6
ENDBRANCH   1   2
BRANCH   1  43
ATOM     43  C   UNL     1      -3.422  -0.827  -4.105  1.00  0.00     0.102 C 
ATOM     44  C   UNL     1      -3.210  -0.733  -2.585  1.00  0.00     0.020 C 
BRANCH  43  45
ATOM     45  C   UNL     1      -3.430  -2.261  -4.644  1.00  0.00     0.225 C 
ATOM     46  O   UNL     1      -4.254  -2.667  -5.458  1.00  0.00    -0.275 OA
ATOM     47  N   UNL     1      -2.500  -3.108  -4.085  1.00  0.00    -0.342 N 
ATOM     48  H   UNL     1      -1.741  -2.727  -3.538  1.00  0.00     0.164 HD
BRANCH  47  49
ATOM     49  C   UNL     1      -2.368  -4.499  -4.528  1.00  0.00     0.192 C 
BRANCH  49  50
ATOM     50  C   UNL     1      -1.914  -5.372  -3.355  1.00  0.00     0.047 C 
BRANCH  50  51
ATOM     51  C   UNL     1      -3.061  -5.684  -2.385  1.00  0.00     0.103 C 
BRANCH  51  52
ATOM     52  C   UNL     1      -3.167  -4.647  -1.269  1.00  0.00     0.226 C 
ATOM     53  O   UNL     1      -2.159  -4.037  -0.905  1.00  0.00    -0.275 OA
BRANCH  52  54
ATOM     54  N   UNL     1      -4.457  -4.395  -0.767  1.00  0.00    -0.311 N 
ATOM     55  C   UNL     1      -5.357  -3.446  -1.436  1.00  0.00     0.153 C 
BRANCH  54  56
ATOM     56  C   UNL     1      -4.934  -5.042   0.386  1.00  0.00     0.102 C 
ATOM     57  C   UNL     1      -4.934  -4.512   1.620  1.00  0.00     0.043 C 
BRANCH  56  58
ATOM     58  C   UNL     1      -5.546  -6.420   0.303  1.00  0.00     0.268 C 
ATOM     59  O   UNL     1      -4.882  -7.445   0.227  1.00  0.00    -0.268 OA
ATOM     60  N   UNL     1      -6.918  -6.407   0.388  1.00  0.00    -0.339 N 
ATOM     61  H   UNL     1      -7.395  -5.515   0.439  1.00  0.00     0.164 HD
BRANCH  60  62
ATOM     62  C   UNL     1      -7.710  -7.637   0.392  1.00  0.00     0.168 CG0
ATOM     63  C   UNL     1      -9.201  -7.327   0.358  1.00  0.00     0.041 C 
ATOM     64  G   UNL     1      -7.355  -8.477   1.636  1.00  0.00     0.000 G0
ENDBRANCH  60  62
ENDBRANCH  56  58
ENDBRANCH  54  56
ENDBRANCH  52  54
ENDBRANCH  51  52
ENDBRANCH  50  51
ENDBRANCH  49  50
BRANCH  49  65
ATOM     65  C   UNL     1      -1.361  -4.633  -5.681  1.00  0.00     0.326 C 
ATOM     66  O   UNL     1      -0.330  -5.289  -5.652  1.00  0.00    -0.250 OA
BRANCH  65  67
ATOM     67  O   UNL     1      -1.658  -3.900  -6.777  1.00  0.00    -0.480 OA
ATOM     68  H   UNL     1      -1.166  -4.350  -7.497  1.00  0.00     0.296 HD
ENDBRANCH  65  67
ENDBRANCH  49  65
ENDBRANCH  47  49
ENDBRANCH  43  45
ENDBRANCH   1  43
BRANCH   1  69
ATOM     69  C   UNL     1      -2.048   1.422  -4.356  1.00  0.00    -0.001 C 
ATOM     70  C   UNL     1      -0.836   1.789  -3.903  1.00  0.00     0.001 C 
BRANCH  70  71
ATOM     71  C   UNL     1      -0.454   3.101  -3.378  1.00  0.00    -0.055 C 
ATOM     72  C   UNL     1       0.464   3.811  -4.069  1.00  0.00    -0.018 C 
ATOM     73  C   UNL     1      -1.117   3.571  -2.110  1.00  0.00     0.044 C 
BRANCH  72  74
ATOM     74  C   UNL     1       1.043   5.186  -3.769  1.00  0.00     0.038 C 
ATOM     75  C   UNL     1       0.098   6.221  -4.392  1.00  0.00     0.015 C 
BRANCH  74  76
ATOM     76  C   UNL     1       2.508   5.238  -4.295  1.00  0.00     0.128 C 
BRANCH  76  77
ATOM     77  O   UNL     1       3.420   5.379  -3.193  1.00  0.00    -0.381 OA
ATOM     78  C   UNL     1       4.684   5.913  -3.563  1.00  0.00     0.195 C 
ENDBRANCH  76  77
BRANCH  76  79
ATOM     79  C   UNL     1       2.880   4.065  -5.236  1.00  0.00     0.068 C 
BRANCH  79  80
ATOM     80  C   UNL     1       2.870   4.322  -6.724  1.00  0.00    -0.045 A 
ATOM     81  C   UNL     1       4.065   4.406  -7.450  1.00  0.00     0.004 A 
ATOM     82  C   UNL     1       1.655   4.508  -7.400  1.00  0.00     0.004 A 
ATOM     83  C   UNL     1       4.046   4.658  -8.824  1.00  0.00     0.000 A 
ATOM     84  C   UNL     1       1.638   4.761  -8.774  1.00  0.00     0.000 A 
ATOM     85  C   UNL     1       2.833   4.834  -9.485  1.00  0.00     0.000 A 
ENDBRANCH  79  80
ENDBRANCH  76  79
ENDBRANCH  74  76
ENDBRANCH  72  74
ENDBRANCH  70  71
ENDBRANCH   1  69
TORSDOF 17
ENDMDL
MODEL 23
REMARK VINA RESULT:    -5.799      3.463      5.098
REMARK INTER + INTRA:         -25.001
REMARK INTER:                 -17.732
REMARK INTRA:                  -7.269
REMARK UNBOUND:                -7.676
REMARK SMILES C=C1C(=O)N[C@H](C)C(=O)N[C@@H](CC(C)C)C(=O)N[C@@H](C(=O)O)[C@H](C)C(=O)N[C@@H](CCCN=C(N)N)C(=O)N[C@@H](/C=C/C(C)=C/[C@H](C)[C@H](Cc2ccccc2)OC)[C@H](C)C(=O)N[C@@H](C(=O)O)CCC(=O)N1C
REMARK SMILES IDX 39 1 38 2 37 3 36 4 28 6 27 7 25 8 26 9 23 11 24 12 19 13
REMARK SMILES IDX 18 14 16 15 17 16 11 18 10 19 8 20 9 21 12 24 13 25 14 26
REMARK SMILES IDX 15 27 20 28 21 29 22 30 29 32 30 33 31 34 32 35 33 36 34 37
REMARK SMILES IDX 35 38 57 43 58 44 59 45 60 46 61 47 62 49 66 50 67 51 68 52
REMARK SMILES IDX 69 53 70 54 71 55 2 56 1 57 3 58 4 59 5 60 6 62 7 63 63 65
REMARK SMILES IDX 64 66 65 67 40 69 41 70 42 71 44 72 43 73 45 74 46 75 47 76
REMARK SMILES IDX 55 77 56 78 48 79 49 80 50 81 54 82 51 83 53 84 52 85
REMARK H PARENT 38 5 27 10 18 17 10 22 22 31 34 39 34 40 35 41 35 42 61 48
REMARK H PARENT 5 61 65 68
REMARK Flexibility Score:  369.900
ROOT
ATOM      1  C   UNL     1      -4.007  -2.476  -2.884  1.00  0.00     0.117 C 
ENDROOT
BRANCH   1   2
ATOM      2  N   UNL     1      -3.382  -3.105  -4.048  1.00  0.00    -0.347 N 
ATOM      3  O   UNL     1      -4.348  -1.796  -5.667  1.00  0.00    -0.273 OA
ATOM      4  C   UNL     1      -3.532  -2.654  -5.345  1.00  0.00     0.243 C 
ATOM      5  H   UNL     1      -2.759  -3.888  -3.913  1.00  0.00     0.164 HD
BRANCH   4   6
ATOM      6  C   UNL     1      -2.694  -3.444  -6.381  1.00  0.00     0.171 C 
BRANCH   6   7
ATOM      7  N   UNL     1      -2.029  -2.523  -7.316  1.00  0.00    -0.344 N 
ATOM      8  C   UNL     1      -2.412  -2.466  -8.639  1.00  0.00     0.226 C 
ATOM      9  O   UNL     1      -3.292  -3.181  -9.103  1.00  0.00    -0.275 OA
ATOM     10  H   UNL     1      -1.252  -1.965  -6.985  1.00  0.00     0.164 HD
BRANCH   8  11
ATOM     11  C   UNL     1      -1.669  -1.427  -9.461  1.00  0.00     0.109 C 
ATOM     12  C   UNL     1      -0.350  -2.007  -9.972  1.00  0.00     0.021 C 
BRANCH  11  13
ATOM     13  C   UNL     1      -2.598  -0.866 -10.556  1.00  0.00     0.204 C 
BRANCH  13  14
ATOM     14  N   UNL     1      -3.957  -0.632 -10.059  1.00  0.00    -0.340 N 
ATOM     15  C   UNL     1      -5.075  -0.743 -10.857  1.00  0.00     0.243 C 
ATOM     16  O   UNL     1      -5.015  -1.106 -12.030  1.00  0.00    -0.273 OA
ATOM     17  H   UNL     1      -4.064  -0.184  -9.145  1.00  0.00     0.164 HD
BRANCH  15  18
ATOM     18  C   UNL     1      -6.374  -0.249 -10.174  1.00  0.00     0.171 C 
BRANCH  18  19
ATOM     19  N   UNL     1      -6.604   1.115 -10.648  1.00  0.00    -0.343 N 
ATOM     20  C   UNL     1      -5.964   2.200 -10.082  1.00  0.00     0.242 CG0
ATOM     21  O   UNL     1      -5.276   2.086  -9.070  1.00  0.00    -0.273 OA
ATOM     22  H   UNL     1      -7.254   1.274 -11.410  1.00  0.00     0.164 HD
ATOM     23  G   UNL     1      -6.271   3.548 -10.766  1.00  0.00     0.000 G0
ENDBRANCH  18  19
BRANCH  18  24
ATOM     24  C   UNL     1      -7.551  -1.169 -10.519  1.00  0.00     0.038 C 
BRANCH  24  25
ATOM     25  C   UNL     1      -7.934  -2.170  -9.409  1.00  0.00    -0.015 C 
ATOM     26  C   UNL     1      -7.795  -1.572  -8.009  1.00  0.00     0.007 C 
ATOM     27  C   UNL     1      -7.061  -3.423  -9.522  1.00  0.00     0.007 C 
ENDBRANCH  24  25
ENDBRANCH  18  24
ENDBRANCH  15  18
ENDBRANCH  13  14
BRANCH  13  28
ATOM     28  C   UNL     1      -2.099   0.453 -11.152  1.00  0.00     0.327 C 
ATOM     29  O   UNL     1      -1.757   0.639 -12.310  1.00  0.00    -0.250 OA
BRANCH  28  30
ATOM     30  O   UNL     1      -1.949   1.427 -10.232  1.00  0.00    -0.480 OA
ATOM     31  H   UNL     1      -2.006   2.258 -10.747  1.00  0.00     0.296 HD
ENDBRANCH  28  30
ENDBRANCH  13  28
ENDBRANCH  11  13
ENDBRANCH   8  11
ENDBRANCH   6   7
BRANCH   6  32
ATOM     32  C   UNL     1      -1.668  -4.311  -5.643  1.00  0.00     0.037 C 
BRANCH  32  33
ATOM     33  C   UNL     1      -0.434  -4.608  -6.506  1.00  0.00     0.026 C 
BRANCH  33  34
ATOM     34  C   UNL     1      -0.503  -5.983  -7.172  1.00  0.00     0.146 C 
BRANCH  34  35
ATOM     35  N   UNL     1      -0.987  -5.821  -8.536  1.00  0.00    -0.254 NA
ATOM     36  C   UNL     1      -2.163  -6.240  -8.825  1.00  0.00     0.185 C 
ATOM     37  N   UNL     1      -2.621  -6.091 -10.078  1.00  0.00    -0.370 N 
ATOM     38  N   UNL     1      -3.065  -6.841  -8.029  1.00  0.00    -0.370 N 
ATOM     39  H   UNL     1      -2.001  -5.636 -10.737  1.00  0.00     0.159 HD
ATOM     40  H   UNL     1      -3.581  -6.232 -10.339  1.00  0.00     0.159 HD
ATOM     41  H   UNL     1      -3.903  -7.251  -8.408  1.00  0.00     0.159 HD
ATOM     42  H   UNL     1      -2.849  -7.032  -7.063  1.00  0.00     0.159 HD
ENDBRANCH  34  35
ENDBRANCH  33  34
ENDBRANCH  32  33
ENDBRANCH   6  32
ENDBRANCH   4   6
ENDBRANCH   1   2
BRANCH   1  43
ATOM     43  C   UNL     1      -3.024  -2.573  -1.681  1.00  0.00     0.102 C 
ATOM     44  C   UNL     1      -2.242  -3.897  -1.634  1.00  0.00     0.020 C 
BRANCH  43  45
ATOM     45  C   UNL     1      -3.727  -2.219  -0.367  1.00  0.00     0.225 C 
ATOM     46  O   UNL     1      -4.139  -1.092  -0.109  1.00  0.00    -0.275 OA
ATOM     47  N   UNL     1      -3.789  -3.232   0.563  1.00  0.00    -0.342 N 
ATOM     48  H   UNL     1      -3.586  -4.181   0.282  1.00  0.00     0.164 HD
BRANCH  47  49
ATOM     49  C   UNL     1      -4.463  -3.049   1.851  1.00  0.00     0.192 C 
BRANCH  49  50
ATOM     50  C   UNL     1      -3.441  -2.631   2.912  1.00  0.00     0.047 C 
BRANCH  50  51
ATOM     51  C   UNL     1      -3.701  -1.216   3.445  1.00  0.00     0.103 C 
BRANCH  51  52
ATOM     52  C   UNL     1      -4.667  -1.217   4.628  1.00  0.00     0.226 C 
ATOM     53  O   UNL     1      -4.935  -2.278   5.196  1.00  0.00    -0.275 OA
BRANCH  52  54
ATOM     54  N   UNL     1      -5.143   0.038   5.051  1.00  0.00    -0.311 N 
ATOM     55  C   UNL     1      -5.703   0.997   4.089  1.00  0.00     0.153 C 
BRANCH  54  56
ATOM     56  C   UNL     1      -5.107   0.418   6.403  1.00  0.00     0.102 C 
ATOM     57  C   UNL     1      -4.072   1.031   7.001  1.00  0.00     0.043 C 
BRANCH  56  58
ATOM     58  C   UNL     1      -6.299   0.193   7.303  1.00  0.00     0.268 C 
ATOM     59  O   UNL     1      -7.271  -0.472   6.973  1.00  0.00    -0.268 OA
ATOM     60  N   UNL     1      -6.149   0.756   8.548  1.00  0.00    -0.339 N 
ATOM     61  H   UNL     1      -5.317   1.302   8.739  1.00  0.00     0.164 HD
BRANCH  60  62
ATOM     62  C   UNL     1      -7.157   0.607   9.597  1.00  0.00     0.168 CG0
ATOM     63  C   UNL     1      -8.120   1.788   9.603  1.00  0.00     0.041 C 
ATOM     64  G   UNL     1      -6.461   0.463  10.966  1.00  0.00     0.000 G0
ENDBRANCH  60  62
ENDBRANCH  56  58
ENDBRANCH  54  56
ENDBRANCH  52  54
ENDBRANCH  51  52
ENDBRANCH  50  51
ENDBRANCH  49  50
BRANCH  49  65
ATOM     65  C   UNL     1      -5.173  -4.333   2.307  1.00  0.00     0.326 C 
ATOM     66  O   UNL     1      -5.931  -5.006   1.624  1.00  0.00    -0.250 OA
BRANCH  65  67
ATOM     67  O   UNL     1      -4.951  -4.673   3.596  1.00  0.00    -0.480 OA
ATOM     68  H   UNL     1      -4.464  -5.523   3.530  1.00  0.00     0.296 HD
ENDBRANCH  65  67
ENDBRANCH  49  65
ENDBRANCH  47  49
ENDBRANCH  43  45
ENDBRANCH   1  43
BRANCH   1  69
ATOM     69  C   UNL     1      -5.386  -3.098  -2.756  1.00  0.00    -0.001 C 
ATOM     70  C   UNL     1      -6.551  -2.463  -2.537  1.00  0.00     0.001 C 
BRANCH  70  71
ATOM     71  C   UNL     1      -7.879  -3.072  -2.437  1.00  0.00    -0.055 C 
ATOM     72  C   UNL     1      -8.644  -3.097  -3.549  1.00  0.00    -0.018 C 
ATOM     73  C   UNL     1      -8.295  -3.635  -1.103  1.00  0.00     0.044 C 
BRANCH  72  74
ATOM     74  C   UNL     1     -10.045  -3.660  -3.742  1.00  0.00     0.038 C 
ATOM     75  C   UNL     1      -9.968  -4.683  -4.881  1.00  0.00     0.015 C 
BRANCH  74  76
ATOM     76  C   UNL     1     -11.029  -2.479  -3.989  1.00  0.00     0.128 C 
BRANCH  76  77
ATOM     77  O   UNL     1     -11.922  -2.802  -5.069  1.00  0.00    -0.381 OA
ATOM     78  C   UNL     1     -13.154  -2.096  -5.021  1.00  0.00     0.195 C 
ENDBRANCH  76  77
BRANCH  76  79
ATOM     79  C   UNL     1     -11.774  -2.003  -2.717  1.00  0.00     0.068 C 
BRANCH  79  80
ATOM     80  C   UNL     1     -11.000  -1.193  -1.706  1.00  0.00    -0.045 A 
ATOM     81  C   UNL     1     -10.152  -0.153  -2.110  1.00  0.00     0.004 A 
ATOM     82  C   UNL     1     -11.096  -1.490  -0.338  1.00  0.00     0.004 A 
ATOM     83  C   UNL     1      -9.429   0.583  -1.169  1.00  0.00     0.000 A 
ATOM     84  C   UNL     1     -10.372  -0.754   0.602  1.00  0.00     0.000 A 
ATOM     85  C   UNL     1      -9.540   0.283   0.187  1.00  0.00     0.000 A 
ENDBRANCH  79  80
ENDBRANCH  76  79
ENDBRANCH  74  76
ENDBRANCH  72  74
ENDBRANCH  70  71
ENDBRANCH   1  69
TORSDOF 17
ENDMDL
MODEL 24
REMARK VINA RESULT:    -5.768      4.571     12.661
REMARK INTER + INTRA:         -24.908
REMARK INTER:                 -17.936
REMARK INTRA:                  -6.972
REMARK UNBOUND:                -7.676
REMARK SMILES C=C1C(=O)N[C@H](C)C(=O)N[C@@H](CC(C)C)C(=O)N[C@@H](C(=O)O)[C@H](C)C(=O)N[C@@H](CCCN=C(N)N)C(=O)N[C@@H](/C=C/C(C)=C/[C@H](C)[C@H](Cc2ccccc2)OC)[C@H](C)C(=O)N[C@@H](C(=O)O)CCC(=O)N1C
REMARK SMILES IDX 39 1 38 2 37 3 36 4 28 6 27 7 25 8 26 9 23 11 24 12 19 13
REMARK SMILES IDX 18 14 16 15 17 16 11 18 10 19 8 20 9 21 12 24 13 25 14 26
REMARK SMILES IDX 15 27 20 28 21 29 22 30 29 32 30 33 31 34 32 35 33 36 34 37
REMARK SMILES IDX 35 38 57 43 58 44 59 45 60 46 61 47 62 49 66 50 67 51 68 52
REMARK SMILES IDX 69 53 70 54 71 55 2 56 1 57 3 58 4 59 5 60 6 62 7 63 63 65
REMARK SMILES IDX 64 66 65 67 40 69 41 70 42 71 44 72 43 73 45 74 46 75 47 76
REMARK SMILES IDX 55 77 56 78 48 79 49 80 50 81 54 82 51 83 53 84 52 85
REMARK H PARENT 38 5 27 10 18 17 10 22 22 31 34 39 34 40 35 41 35 42 61 48
REMARK H PARENT 5 61 65 68
REMARK Flexibility Score:  369.900
ROOT
ATOM      1  C   UNL     1      -8.769  -2.844  -3.125  1.00  0.00     0.117 C 
ENDROOT
BRANCH   1   2
ATOM      2  N   UNL     1      -7.430  -2.813  -2.535  1.00  0.00    -0.347 N 
ATOM      3  O   UNL     1      -8.000  -1.884  -0.514  1.00  0.00    -0.273 OA
ATOM      4  C   UNL     1      -7.166  -2.419  -1.237  1.00  0.00     0.243 C 
ATOM      5  H   UNL     1      -6.644  -3.143  -3.074  1.00  0.00     0.164 HD
BRANCH   4   6
ATOM      6  C   UNL     1      -5.677  -2.562  -0.833  1.00  0.00     0.171 C 
BRANCH   6   7
ATOM      7  N   UNL     1      -5.549  -3.394   0.374  1.00  0.00    -0.344 N 
ATOM      8  C   UNL     1      -4.872  -2.927   1.480  1.00  0.00     0.226 C 
ATOM      9  O   UNL     1      -4.333  -1.827   1.509  1.00  0.00    -0.275 OA
ATOM     10  H   UNL     1      -5.923  -4.334   0.364  1.00  0.00     0.164 HD
BRANCH   8  11
ATOM     11  C   UNL     1      -4.875  -3.880   2.663  1.00  0.00     0.109 C 
ATOM     12  C   UNL     1      -3.810  -3.462   3.677  1.00  0.00     0.021 C 
BRANCH  11  13
ATOM     13  C   UNL     1      -6.303  -3.998   3.234  1.00  0.00     0.204 C 
BRANCH  13  14
ATOM     14  N   UNL     1      -6.314  -4.603   4.569  1.00  0.00    -0.340 N 
ATOM     15  C   UNL     1      -6.765  -5.884   4.807  1.00  0.00     0.243 C 
ATOM     16  O   UNL     1      -7.133  -6.632   3.903  1.00  0.00    -0.273 OA
ATOM     17  H   UNL     1      -6.167  -3.990   5.376  1.00  0.00     0.164 HD
BRANCH  15  18
ATOM     18  C   UNL     1      -6.878  -6.231   6.311  1.00  0.00     0.171 C 
BRANCH  18  19
ATOM     19  N   UNL     1      -5.722  -7.062   6.638  1.00  0.00    -0.343 N 
ATOM     20  C   UNL     1      -5.839  -8.422   6.853  1.00  0.00     0.242 CG0
ATOM     21  O   UNL     1      -6.936  -8.972   6.911  1.00  0.00    -0.273 OA
ATOM     22  H   UNL     1      -4.807  -6.633   6.716  1.00  0.00     0.164 HD
ATOM     23  G   UNL     1      -4.500  -9.144   7.107  1.00  0.00     0.000 G0
ENDBRANCH  18  19
BRANCH  18  24
ATOM     24  C   UNL     1      -6.910  -4.954   7.160  1.00  0.00     0.038 C 
BRANCH  24  25
ATOM     25  C   UNL     1      -7.024  -5.194   8.681  1.00  0.00    -0.015 C 
ATOM     26  C   UNL     1      -8.183  -6.123   9.042  1.00  0.00     0.007 C 
ATOM     27  C   UNL     1      -7.194  -3.854   9.402  1.00  0.00     0.007 C 
ENDBRANCH  24  25
ENDBRANCH  18  24
ENDBRANCH  15  18
ENDBRANCH  13  14
BRANCH  13  28
ATOM     28  C   UNL     1      -7.024  -2.651   3.340  1.00  0.00     0.327 C 
ATOM     29  O   UNL     1      -6.891  -1.828   4.234  1.00  0.00    -0.250 OA
BRANCH  28  30
ATOM     30  O   UNL     1      -7.954  -2.472   2.380  1.00  0.00    -0.480 OA
ATOM     31  H   UNL     1      -8.598  -1.852   2.781  1.00  0.00     0.296 HD
ENDBRANCH  28  30
ENDBRANCH  13  28
ENDBRANCH  11  13
ENDBRANCH   8  11
ENDBRANCH   6   7
BRANCH   6  32
ATOM     32  C   UNL     1      -4.894  -3.171  -2.003  1.00  0.00     0.037 C 
BRANCH  32  33
ATOM     33  C   UNL     1      -3.448  -2.659  -2.061  1.00  0.00     0.026 C 
BRANCH  33  34
ATOM     34  C   UNL     1      -2.479  -3.704  -2.614  1.00  0.00     0.146 C 
BRANCH  34  35
ATOM     35  N   UNL     1      -2.166  -4.659  -1.560  1.00  0.00    -0.254 NA
ATOM     36  C   UNL     1      -1.505  -5.714  -1.863  1.00  0.00     0.185 C 
ATOM     37  N   UNL     1      -1.207  -6.598  -0.899  1.00  0.00    -0.370 N 
ATOM     38  N   UNL     1      -1.034  -6.100  -3.062  1.00  0.00    -0.370 N 
ATOM     39  H   UNL     1      -1.520  -6.372   0.037  1.00  0.00     0.159 HD
ATOM     40  H   UNL     1      -0.552  -7.351  -1.018  1.00  0.00     0.159 HD
ATOM     41  H   UNL     1      -0.649  -7.020  -3.198  1.00  0.00     0.159 HD
ATOM     42  H   UNL     1      -1.198  -5.538  -3.882  1.00  0.00     0.159 HD
ENDBRANCH  34  35
ENDBRANCH  33  34
ENDBRANCH  32  33
ENDBRANCH   6  32
ENDBRANCH   4   6
ENDBRANCH   1   2
BRANCH   1  43
ATOM     43  C   UNL     1      -9.514  -4.103  -2.596  1.00  0.00     0.102 C 
ATOM     44  C   UNL     1      -9.811  -5.144  -3.689  1.00  0.00     0.020 C 
BRANCH  43  45
ATOM     45  C   UNL     1     -10.739  -3.708  -1.765  1.00  0.00     0.225 C 
ATOM     46  O   UNL     1     -11.655  -4.485  -1.510  1.00  0.00    -0.275 OA
ATOM     47  N   UNL     1     -10.801  -2.385  -1.393  1.00  0.00    -0.342 N 
ATOM     48  H   UNL     1      -9.980  -1.803  -1.477  1.00  0.00     0.164 HD
BRANCH  47  49
ATOM     49  C   UNL     1     -11.898  -1.872  -0.566  1.00  0.00     0.192 C 
BRANCH  49  50
ATOM     50  C   UNL     1     -12.078  -0.374  -0.823  1.00  0.00     0.047 C 
BRANCH  50  51
ATOM     51  C   UNL     1     -10.801   0.281  -1.367  1.00  0.00     0.103 C 
BRANCH  51  52
ATOM     52  C   UNL     1     -11.001   0.847  -2.772  1.00  0.00     0.226 C 
ATOM     53  O   UNL     1     -12.075   0.676  -3.351  1.00  0.00    -0.275 OA
BRANCH  52  54
ATOM     54  N   UNL     1      -9.942   1.612  -3.295  1.00  0.00    -0.311 N 
ATOM     55  C   UNL     1      -8.929   1.004  -4.168  1.00  0.00     0.153 C 
BRANCH  54  56
ATOM     56  C   UNL     1      -9.817   2.982  -3.010  1.00  0.00     0.102 C 
ATOM     57  C   UNL     1      -8.798   3.537  -2.335  1.00  0.00     0.043 C 
BRANCH  56  58
ATOM     58  C   UNL     1     -10.845   3.973  -3.504  1.00  0.00     0.268 C 
ATOM     59  O   UNL     1     -11.673   4.500  -2.773  1.00  0.00    -0.268 OA
ATOM     60  N   UNL     1     -10.711   4.270  -4.840  1.00  0.00    -0.339 N 
ATOM     61  H   UNL     1     -10.006   3.781  -5.379  1.00  0.00     0.164 HD
BRANCH  60  62
ATOM     62  C   UNL     1     -11.563   5.252  -5.509  1.00  0.00     0.168 CG0
ATOM     63  C   UNL     1     -11.937   4.787  -6.911  1.00  0.00     0.041 C 
ATOM     64  G   UNL     1     -10.840   6.614  -5.560  1.00  0.00     0.000 G0
ENDBRANCH  60  62
ENDBRANCH  56  58
ENDBRANCH  54  56
ENDBRANCH  52  54
ENDBRANCH  51  52
ENDBRANCH  50  51
ENDBRANCH  49  50
BRANCH  49  65
ATOM     65  C   UNL     1     -11.636  -2.104   0.930  1.00  0.00     0.326 C 
ATOM     66  O   UNL     1     -12.436  -2.572   1.727  1.00  0.00    -0.250 OA
BRANCH  65  67
ATOM     67  O   UNL     1     -10.424  -1.690   1.361  1.00  0.00    -0.480 OA
ATOM     68  H   UNL     1     -10.002  -1.327   0.552  1.00  0.00     0.296 HD
ENDBRANCH  65  67
ENDBRANCH  49  65
ENDBRANCH  47  49
ENDBRANCH  43  45
ENDBRANCH   1  43
BRANCH   1  69
ATOM     69  C   UNL     1      -8.576  -2.681  -4.622  1.00  0.00    -0.001 C 
ATOM     70  C   UNL     1      -7.478  -2.240  -5.261  1.00  0.00     0.001 C 
BRANCH  70  71
ATOM     71  C   UNL     1      -7.296  -2.108  -6.708  1.00  0.00    -0.055 C 
ATOM     72  C   UNL     1      -6.627  -3.089  -7.349  1.00  0.00    -0.018 C 
ATOM     73  C   UNL     1      -7.875  -0.890  -7.379  1.00  0.00     0.044 C 
BRANCH  72  74
ATOM     74  C   UNL     1      -6.294  -3.220  -8.828  1.00  0.00     0.038 C 
ATOM     75  C   UNL     1      -6.677  -4.643  -9.254  1.00  0.00     0.015 C 
BRANCH  74  76
ATOM     76  C   UNL     1      -4.795  -2.857  -9.038  1.00  0.00     0.128 C 
BRANCH  76  77
ATOM     77  O   UNL     1      -4.685  -1.648  -9.808  1.00  0.00    -0.381 OA
ATOM     78  C   UNL     1      -5.889  -1.283 -10.471  1.00  0.00     0.195 C 
ENDBRANCH  76  77
BRANCH  76  79
ATOM     79  C   UNL     1      -3.969  -2.809  -7.727  1.00  0.00     0.068 C 
BRANCH  79  80
ATOM     80  C   UNL     1      -2.869  -3.827  -7.547  1.00  0.00    -0.045 A 
ATOM     81  C   UNL     1      -1.874  -3.650  -6.577  1.00  0.00     0.004 A 
ATOM     82  C   UNL     1      -2.811  -4.959  -8.374  1.00  0.00     0.004 A 
ATOM     83  C   UNL     1      -0.851  -4.589  -6.426  1.00  0.00     0.000 A 
ATOM     84  C   UNL     1      -1.788  -5.897  -8.223  1.00  0.00     0.000 A 
ATOM     85  C   UNL     1      -0.809  -5.713  -7.248  1.00  0.00     0.000 A 
ENDBRANCH  79  80
ENDBRANCH  76  79
ENDBRANCH  74  76
ENDBRANCH  72  74
ENDBRANCH  70  71
ENDBRANCH   1  69
TORSDOF 17
ENDMDL
MODEL 25
REMARK VINA RESULT:    -5.761      2.387     11.899
REMARK INTER + INTRA:         -24.888
REMARK INTER:                 -18.508
REMARK INTRA:                  -6.381
REMARK UNBOUND:                -7.676
REMARK SMILES C=C1C(=O)N[C@H](C)C(=O)N[C@@H](CC(C)C)C(=O)N[C@@H](C(=O)O)[C@H](C)C(=O)N[C@@H](CCCN=C(N)N)C(=O)N[C@@H](/C=C/C(C)=C/[C@H](C)[C@H](Cc2ccccc2)OC)[C@H](C)C(=O)N[C@@H](C(=O)O)CCC(=O)N1C
REMARK SMILES IDX 39 1 38 2 37 3 36 4 28 6 27 7 25 8 26 9 23 11 24 12 19 13
REMARK SMILES IDX 18 14 16 15 17 16 11 18 10 19 8 20 9 21 12 24 13 25 14 26
REMARK SMILES IDX 15 27 20 28 21 29 22 30 29 32 30 33 31 34 32 35 33 36 34 37
REMARK SMILES IDX 35 38 57 43 58 44 59 45 60 46 61 47 62 49 66 50 67 51 68 52
REMARK SMILES IDX 69 53 70 54 71 55 2 56 1 57 3 58 4 59 5 60 6 62 7 63 63 65
REMARK SMILES IDX 64 66 65 67 40 69 41 70 42 71 44 72 43 73 45 74 46 75 47 76
REMARK SMILES IDX 55 77 56 78 48 79 49 80 50 81 54 82 51 83 53 84 52 85
REMARK H PARENT 38 5 27 10 18 17 10 22 22 31 34 39 34 40 35 41 35 42 61 48
REMARK H PARENT 5 61 65 68
REMARK Flexibility Score:  369.900
ROOT
ATOM      1  C   UNL     1      -6.169  -2.545  -7.689  1.00  0.00     0.117 C 
ENDROOT
BRANCH   1   2
ATOM      2  N   UNL     1      -4.838  -2.519  -7.080  1.00  0.00    -0.347 N 
ATOM      3  O   UNL     1      -4.926  -0.389  -6.228  1.00  0.00    -0.273 OA
ATOM      4  C   UNL     1      -4.358  -1.473  -6.317  1.00  0.00     0.243 C 
ATOM      5  H   UNL     1      -4.238  -3.325  -7.169  1.00  0.00     0.164 HD
BRANCH   4   6
ATOM      6  C   UNL     1      -2.953  -1.733  -5.717  1.00  0.00     0.171 C 
BRANCH   6   7
ATOM      7  N   UNL     1      -2.945  -2.991  -4.954  1.00  0.00    -0.344 N 
ATOM      8  C   UNL     1      -3.013  -2.979  -3.577  1.00  0.00     0.226 C 
ATOM      9  O   UNL     1      -3.059  -1.941  -2.928  1.00  0.00    -0.275 OA
ATOM     10  H   UNL     1      -2.839  -3.866  -5.452  1.00  0.00     0.164 HD
BRANCH   8  11
ATOM     11  C   UNL     1      -3.050  -4.357  -2.941  1.00  0.00     0.109 C 
ATOM     12  C   UNL     1      -2.524  -5.405  -3.923  1.00  0.00     0.021 C 
BRANCH  11  13
ATOM     13  C   UNL     1      -2.325  -4.323  -1.580  1.00  0.00     0.204 C 
BRANCH  13  14
ATOM     14  N   UNL     1      -3.048  -3.518  -0.591  1.00  0.00    -0.340 N 
ATOM     15  C   UNL     1      -2.410  -2.787   0.389  1.00  0.00     0.243 C 
ATOM     16  O   UNL     1      -1.185  -2.710   0.463  1.00  0.00    -0.273 OA
ATOM     17  H   UNL     1      -4.058  -3.659  -0.502  1.00  0.00     0.164 HD
BRANCH  15  18
ATOM     18  C   UNL     1      -3.376  -2.190   1.441  1.00  0.00     0.171 C 
BRANCH  18  19
ATOM     19  N   UNL     1      -2.987  -2.752   2.733  1.00  0.00    -0.343 N 
ATOM     20  C   UNL     1      -3.907  -3.341   3.578  1.00  0.00     0.242 CG0
ATOM     21  O   UNL     1      -5.113  -3.302   3.345  1.00  0.00    -0.273 OA
ATOM     22  H   UNL     1      -2.017  -2.705   3.024  1.00  0.00     0.164 HD
ATOM     23  G   UNL     1      -3.298  -3.948   4.859  1.00  0.00     0.000 G0
ENDBRANCH  18  19
BRANCH  18  24
ATOM     24  C   UNL     1      -3.291  -0.658   1.446  1.00  0.00     0.038 C 
BRANCH  24  25
ATOM     25  C   UNL     1      -4.390   0.051   0.627  1.00  0.00    -0.015 C 
ATOM     26  C   UNL     1      -4.422   1.559   0.872  1.00  0.00     0.007 C 
ATOM     27  C   UNL     1      -5.755  -0.555   0.964  1.00  0.00     0.007 C 
ENDBRANCH  24  25
ENDBRANCH  18  24
ENDBRANCH  15  18
ENDBRANCH  13  14
BRANCH  13  28
ATOM     28  C   UNL     1      -2.118  -5.713  -0.971  1.00  0.00     0.327 C 
ATOM     29  O   UNL     1      -1.068  -6.335  -0.930  1.00  0.00    -0.250 OA
BRANCH  28  30
ATOM     30  O   UNL     1      -3.267  -6.286  -0.559  1.00  0.00    -0.480 OA
ATOM     31  H   UNL     1      -3.849  -6.253  -1.346  1.00  0.00     0.296 HD
ENDBRANCH  28  30
ENDBRANCH  13  28
ENDBRANCH  11  13
ENDBRANCH   8  11
ENDBRANCH   6   7
BRANCH   6  32
ATOM     32  C   UNL     1      -1.921  -1.773  -6.849  1.00  0.00     0.037 C 
BRANCH  32  33
ATOM     33  C   UNL     1      -1.278  -3.159  -6.998  1.00  0.00     0.026 C 
BRANCH  33  34
ATOM     34  C   UNL     1      -1.842  -3.941  -8.185  1.00  0.00     0.146 C 
BRANCH  34  35
ATOM     35  N   UNL     1      -2.560  -5.104  -7.683  1.00  0.00    -0.254 NA
ATOM     36  C   UNL     1      -2.779  -6.082  -8.480  1.00  0.00     0.185 C 
ATOM     37  N   UNL     1      -3.435  -7.162  -8.026  1.00  0.00    -0.370 N 
ATOM     38  N   UNL     1      -2.437  -6.210  -9.774  1.00  0.00    -0.370 N 
ATOM     39  H   UNL     1      -3.718  -7.146  -7.055  1.00  0.00     0.159 HD
ATOM     40  H   UNL     1      -3.493  -8.030  -8.530  1.00  0.00     0.159 HD
ATOM     41  H   UNL     1      -2.789  -6.970 -10.333  1.00  0.00     0.159 HD
ATOM     42  H   UNL     1      -1.952  -5.467 -10.252  1.00  0.00     0.159 HD
ENDBRANCH  34  35
ENDBRANCH  33  34
ENDBRANCH  32  33
ENDBRANCH   6  32
ENDBRANCH   4   6
ENDBRANCH   1   2
BRANCH   1  43
ATOM     43  C   UNL     1      -6.153  -1.637  -8.953  1.00  0.00     0.102 C 
ATOM     44  C   UNL     1      -7.454  -1.704  -9.770  1.00  0.00     0.020 C 
BRANCH  43  45
ATOM     45  C   UNL     1      -4.886  -1.869  -9.781  1.00  0.00     0.225 C 
ATOM     46  O   UNL     1      -4.588  -2.960 -10.260  1.00  0.00    -0.275 OA
ATOM     47  N   UNL     1      -4.038  -0.790  -9.882  1.00  0.00    -0.342 N 
ATOM     48  H   UNL     1      -4.364   0.129  -9.617  1.00  0.00     0.164 HD
BRANCH  47  49
ATOM     49  C   UNL     1      -2.806  -0.855 -10.673  1.00  0.00     0.192 C 
BRANCH  49  50
ATOM     50  C   UNL     1      -1.774   0.120 -10.101  1.00  0.00     0.047 C 
BRANCH  50  51
ATOM     51  C   UNL     1      -0.450  -0.572  -9.752  1.00  0.00     0.103 C 
BRANCH  51  52
ATOM     52  C   UNL     1       0.581  -0.436 -10.871  1.00  0.00     0.226 C 
ATOM     53  O   UNL     1       0.496  -1.155 -11.869  1.00  0.00    -0.275 OA
BRANCH  52  54
ATOM     54  N   UNL     1       1.542   0.580 -10.718  1.00  0.00    -0.311 N 
ATOM     55  C   UNL     1       1.146   1.994 -10.664  1.00  0.00     0.153 C 
BRANCH  54  56
ATOM     56  C   UNL     1       2.910   0.283 -10.607  1.00  0.00     0.102 C 
ATOM     57  C   UNL     1       3.493  -0.261  -9.526  1.00  0.00     0.043 C 
BRANCH  56  58
ATOM     58  C   UNL     1       3.853   0.525 -11.762  1.00  0.00     0.268 C 
ATOM     59  O   UNL     1       3.635   0.127 -12.899  1.00  0.00    -0.268 OA
ATOM     60  N   UNL     1       4.942   1.291 -11.420  1.00  0.00    -0.339 N 
ATOM     61  H   UNL     1       5.055   1.572 -10.454  1.00  0.00     0.164 HD
BRANCH  60  62
ATOM     62  C   UNL     1       5.948   1.696 -12.401  1.00  0.00     0.168 CG0
ATOM     63  C   UNL     1       6.009   3.213 -12.527  1.00  0.00     0.041 C 
ATOM     64  G   UNL     1       5.631   1.048 -13.765  1.00  0.00     0.000 G0
ENDBRANCH  60  62
ENDBRANCH  56  58
ENDBRANCH  54  56
ENDBRANCH  52  54
ENDBRANCH  51  52
ENDBRANCH  50  51
ENDBRANCH  49  50
BRANCH  49  65
ATOM     65  C   UNL     1      -3.062  -0.516 -12.150  1.00  0.00     0.326 C 
ATOM     66  O   UNL     1      -2.274   0.047 -12.897  1.00  0.00    -0.250 OA
BRANCH  65  67
ATOM     67  O   UNL     1      -4.295  -0.839 -12.597  1.00  0.00    -0.480 OA
ATOM     68  H   UNL     1      -4.157  -1.015 -13.553  1.00  0.00     0.296 HD
ENDBRANCH  65  67
ENDBRANCH  49  65
ENDBRANCH  47  49
ENDBRANCH  43  45
ENDBRANCH   1  43
BRANCH   1  69
ATOM     69  C   UNL     1      -7.151  -2.235  -6.575  1.00  0.00    -0.001 C 
ATOM     70  C   UNL     1      -7.948  -3.100  -5.923  1.00  0.00     0.001 C 
BRANCH  70  71
ATOM     71  C   UNL     1      -8.877  -2.791  -4.835  1.00  0.00    -0.055 C 
ATOM     72  C   UNL     1      -8.423  -2.910  -3.569  1.00  0.00    -0.018 C 
ATOM     73  C   UNL     1     -10.271  -2.356  -5.203  1.00  0.00     0.044 C 
BRANCH  72  74
ATOM     74  C   UNL     1      -9.151  -2.657  -2.257  1.00  0.00     0.038 C 
ATOM     75  C   UNL     1      -8.781  -1.240  -1.800  1.00  0.00     0.015 C 
BRANCH  74  76
ATOM     76  C   UNL     1      -8.777  -3.786  -1.251  1.00  0.00     0.128 C 
BRANCH  76  77
ATOM     77  O   UNL     1      -8.285  -3.211  -0.028  1.00  0.00    -0.381 OA
ATOM     78  C   UNL     1      -7.147  -3.878   0.499  1.00  0.00     0.195 C 
ENDBRANCH  76  77
BRANCH  76  79
ATOM     79  C   UNL     1      -9.907  -4.819  -1.016  1.00  0.00     0.068 C 
BRANCH  79  80
ATOM     80  C   UNL     1      -9.884  -6.090  -1.829  1.00  0.00    -0.045 A 
ATOM     81  C   UNL     1     -10.334  -6.106  -3.156  1.00  0.00     0.004 A 
ATOM     82  C   UNL     1      -9.434  -7.289  -1.256  1.00  0.00     0.004 A 
ATOM     83  C   UNL     1     -10.323  -7.289  -3.898  1.00  0.00     0.000 A 
ATOM     84  C   UNL     1      -9.424  -8.472  -1.998  1.00  0.00     0.000 A 
ATOM     85  C   UNL     1      -9.866  -8.471  -3.319  1.00  0.00     0.000 A 
ENDBRANCH  79  80
ENDBRANCH  76  79
ENDBRANCH  74  76
ENDBRANCH  72  74
ENDBRANCH  70  71
ENDBRANCH   1  69
TORSDOF 17
ENDMDL
MODEL 26
REMARK VINA RESULT:    -5.761      3.046      6.750
REMARK INTER + INTRA:         -24.887
REMARK INTER:                 -17.501
REMARK INTRA:                  -7.387
REMARK UNBOUND:                -7.676
REMARK SMILES C=C1C(=O)N[C@H](C)C(=O)N[C@@H](CC(C)C)C(=O)N[C@@H](C(=O)O)[C@H](C)C(=O)N[C@@H](CCCN=C(N)N)C(=O)N[C@@H](/C=C/C(C)=C/[C@H](C)[C@H](Cc2ccccc2)OC)[C@H](C)C(=O)N[C@@H](C(=O)O)CCC(=O)N1C
REMARK SMILES IDX 39 1 38 2 37 3 36 4 28 6 27 7 25 8 26 9 23 11 24 12 19 13
REMARK SMILES IDX 18 14 16 15 17 16 11 18 10 19 8 20 9 21 12 24 13 25 14 26
REMARK SMILES IDX 15 27 20 28 21 29 22 30 29 32 30 33 31 34 32 35 33 36 34 37
REMARK SMILES IDX 35 38 57 43 58 44 59 45 60 46 61 47 62 49 66 50 67 51 68 52
REMARK SMILES IDX 69 53 70 54 71 55 2 56 1 57 3 58 4 59 5 60 6 62 7 63 63 65
REMARK SMILES IDX 64 66 65 67 40 69 41 70 42 71 44 72 43 73 45 74 46 75 47 76
REMARK SMILES IDX 55 77 56 78 48 79 49 80 50 81 54 82 51 83 53 84 52 85
REMARK H PARENT 38 5 27 10 18 17 10 22 22 31 34 39 34 40 35 41 35 42 61 48
REMARK H PARENT 5 61 65 68
REMARK Flexibility Score:  369.900
ROOT
ATOM      1  C   UNL     1      -4.450  -0.306  -7.339  1.00  0.00     0.117 C 
ENDROOT
BRANCH   1   2
ATOM      2  N   UNL     1      -4.133   0.659  -8.392  1.00  0.00    -0.347 N 
ATOM      3  O   UNL     1      -6.260   0.949  -9.204  1.00  0.00    -0.273 OA
ATOM      4  C   UNL     1      -5.080   1.281  -9.183  1.00  0.00     0.243 C 
ATOM      5  H   UNL     1      -3.174   0.940  -8.533  1.00  0.00     0.164 HD
BRANCH   4   6
ATOM      6  C   UNL     1      -4.486   2.325 -10.162  1.00  0.00     0.171 C 
BRANCH   6   7
ATOM      7  N   UNL     1      -3.821   1.652 -11.290  1.00  0.00    -0.344 N 
ATOM      8  C   UNL     1      -2.469   1.812 -11.505  1.00  0.00     0.226 C 
ATOM      9  O   UNL     1      -1.768   2.526 -10.798  1.00  0.00    -0.275 OA
ATOM     10  H   UNL     1      -4.379   1.108 -11.936  1.00  0.00     0.164 HD
BRANCH   8  11
ATOM     11  C   UNL     1      -1.922   1.011 -12.674  1.00  0.00     0.109 C 
ATOM     12  C   UNL     1      -1.184   1.934 -13.644  1.00  0.00     0.021 C 
BRANCH  11  13
ATOM     13  C   UNL     1      -1.092  -0.176 -12.149  1.00  0.00     0.204 C 
BRANCH  13  14
ATOM     14  N   UNL     1       0.046   0.263 -11.336  1.00  0.00    -0.340 N 
ATOM     15  C   UNL     1       1.349   0.218 -11.784  1.00  0.00     0.243 C 
ATOM     16  O   UNL     1       1.643  -0.139 -12.924  1.00  0.00    -0.273 OA
ATOM     17  H   UNL     1      -0.111   0.425 -10.337  1.00  0.00     0.164 HD
BRANCH  15  18
ATOM     18  C   UNL     1       2.393   0.533 -10.685  1.00  0.00     0.171 C 
BRANCH  18  19
ATOM     19  N   UNL     1       3.208   1.637 -11.186  1.00  0.00    -0.343 N 
ATOM     20  C   UNL     1       4.589   1.582 -11.187  1.00  0.00     0.242 CG0
ATOM     21  O   UNL     1       5.196   0.661 -10.646  1.00  0.00    -0.273 OA
ATOM     22  H   UNL     1       2.753   2.471 -11.539  1.00  0.00     0.164 HD
ATOM     23  G   UNL     1       5.275   2.806 -11.827  1.00  0.00     0.000 G0
ENDBRANCH  18  19
BRANCH  18  24
ATOM     24  C   UNL     1       1.698   0.900  -9.368  1.00  0.00     0.038 C 
BRANCH  24  25
ATOM     25  C   UNL     1       1.662  -0.233  -8.320  1.00  0.00    -0.015 C 
ATOM     26  C   UNL     1       1.817   0.286  -6.891  1.00  0.00     0.007 C 
ATOM     27  C   UNL     1       2.766  -1.249  -8.623  1.00  0.00     0.007 C 
ENDBRANCH  24  25
ENDBRANCH  18  24
ENDBRANCH  15  18
ENDBRANCH  13  14
BRANCH  13  28
ATOM     28  C   UNL     1      -1.907  -1.154 -11.298  1.00  0.00     0.327 C 
ATOM     29  O   UNL     1      -1.476  -1.874 -10.410  1.00  0.00    -0.250 OA
BRANCH  28  30
ATOM     30  O   UNL     1      -3.192  -1.255 -11.694  1.00  0.00    -0.480 OA
ATOM     31  H   UNL     1      -3.425  -2.191 -11.521  1.00  0.00     0.296 HD
ENDBRANCH  28  30
ENDBRANCH  13  28
ENDBRANCH  11  13
ENDBRANCH   8  11
ENDBRANCH   6   7
BRANCH   6  32
ATOM     32  C   UNL     1      -5.607   3.245 -10.658  1.00  0.00     0.037 C 
BRANCH  32  33
ATOM     33  C   UNL     1      -5.342   4.717 -10.314  1.00  0.00     0.026 C 
BRANCH  33  34
ATOM     34  C   UNL     1      -6.402   5.299  -9.378  1.00  0.00     0.146 C 
BRANCH  34  35
ATOM     35  N   UNL     1      -7.235   4.214  -8.879  1.00  0.00    -0.254 NA
ATOM     36  C   UNL     1      -7.169   3.909  -7.637  1.00  0.00     0.185 C 
ATOM     37  N   UNL     1      -7.936   2.914  -7.165  1.00  0.00    -0.370 N 
ATOM     38  N   UNL     1      -6.410   4.459  -6.672  1.00  0.00    -0.370 N 
ATOM     39  H   UNL     1      -8.545   2.455  -7.831  1.00  0.00     0.159 HD
ATOM     40  H   UNL     1      -8.070   2.731  -6.186  1.00  0.00     0.159 HD
ATOM     41  H   UNL     1      -6.344   4.039  -5.759  1.00  0.00     0.159 HD
ATOM     42  H   UNL     1      -5.772   5.209  -6.886  1.00  0.00     0.159 HD
ENDBRANCH  34  35
ENDBRANCH  33  34
ENDBRANCH  32  33
ENDBRANCH   6  32
ENDBRANCH   4   6
ENDBRANCH   1   2
BRANCH   1  43
ATOM     43  C   UNL     1      -3.834   0.198  -6.003  1.00  0.00     0.102 C 
ATOM     44  C   UNL     1      -2.407  -0.320  -5.753  1.00  0.00     0.020 C 
BRANCH  43  45
ATOM     45  C   UNL     1      -4.794  -0.036  -4.832  1.00  0.00     0.225 C 
ATOM     46  O   UNL     1      -5.426   0.868  -4.293  1.00  0.00    -0.275 OA
ATOM     47  N   UNL     1      -4.837  -1.324  -4.349  1.00  0.00    -0.342 N 
ATOM     48  H   UNL     1      -4.434  -2.075  -4.892  1.00  0.00     0.164 HD
BRANCH  47  49
ATOM     49  C   UNL     1      -5.736  -1.702  -3.255  1.00  0.00     0.192 C 
BRANCH  49  50
ATOM     50  C   UNL     1      -5.183  -2.936  -2.538  1.00  0.00     0.047 C 
BRANCH  50  51
ATOM     51  C   UNL     1      -3.946  -2.610  -1.689  1.00  0.00     0.103 C 
BRANCH  51  52
ATOM     52  C   UNL     1      -3.950  -3.359  -0.358  1.00  0.00     0.226 C 
ATOM     53  O   UNL     1      -3.350  -4.431  -0.260  1.00  0.00    -0.275 OA
BRANCH  52  54
ATOM     54  N   UNL     1      -4.593  -2.721   0.718  1.00  0.00    -0.311 N 
ATOM     55  C   UNL     1      -4.604  -1.256   0.832  1.00  0.00     0.153 C 
BRANCH  54  56
ATOM     56  C   UNL     1      -5.252  -3.456   1.718  1.00  0.00     0.102 C 
ATOM     57  C   UNL     1      -6.516  -3.903   1.636  1.00  0.00     0.043 C 
BRANCH  56  58
ATOM     58  C   UNL     1      -4.538  -3.849   2.989  1.00  0.00     0.268 C 
ATOM     59  O   UNL     1      -3.411  -3.464   3.270  1.00  0.00    -0.268 OA
ATOM     60  N   UNL     1      -5.306  -4.627   3.822  1.00  0.00    -0.339 N 
ATOM     61  H   UNL     1      -6.227  -4.912   3.511  1.00  0.00     0.164 HD
BRANCH  60  62
ATOM     62  C   UNL     1      -4.832  -5.068   5.133  1.00  0.00     0.168 CG0
ATOM     63  C   UNL     1      -5.727  -6.163   5.699  1.00  0.00     0.041 C 
ATOM     64  G   UNL     1      -4.771  -3.862   6.093  1.00  0.00     0.000 G0
ENDBRANCH  60  62
ENDBRANCH  56  58
ENDBRANCH  54  56
ENDBRANCH  52  54
ENDBRANCH  51  52
ENDBRANCH  50  51
ENDBRANCH  49  50
BRANCH  49  65
ATOM     65  C   UNL     1      -7.154  -2.003  -3.765  1.00  0.00     0.326 C 
ATOM     66  O   UNL     1      -7.549  -3.088  -4.167  1.00  0.00    -0.250 OA
BRANCH  65  67
ATOM     67  O   UNL     1      -7.978  -0.933  -3.804  1.00  0.00    -0.480 OA
ATOM     68  H   UNL     1      -8.831  -1.309  -4.112  1.00  0.00     0.296 HD
ENDBRANCH  65  67
ENDBRANCH  49  65
ENDBRANCH  47  49
ENDBRANCH  43  45
ENDBRANCH   1  43
BRANCH   1  69
ATOM     69  C   UNL     1      -4.036  -1.666  -7.872  1.00  0.00    -0.001 C 
ATOM     70  C   UNL     1      -4.681  -2.419  -8.780  1.00  0.00     0.001 C 
BRANCH  70  71
ATOM     71  C   UNL     1      -4.259  -3.721  -9.302  1.00  0.00    -0.055 C 
ATOM     72  C   UNL     1      -3.389  -4.441  -8.564  1.00  0.00    -0.018 C 
ATOM     73  C   UNL     1      -4.833  -4.167 -10.622  1.00  0.00     0.044 C 
BRANCH  72  74
ATOM     74  C   UNL     1      -2.786  -5.809  -8.849  1.00  0.00     0.038 C 
ATOM     75  C   UNL     1      -3.809  -6.858  -8.396  1.00  0.00     0.015 C 
BRANCH  74  76
ATOM     76  C   UNL     1      -1.400  -5.902  -8.146  1.00  0.00     0.128 C 
BRANCH  76  77
ATOM     77  O   UNL     1      -0.355  -5.983  -9.129  1.00  0.00    -0.381 OA
ATOM     78  C   UNL     1       0.315  -7.237  -9.149  1.00  0.00     0.195 C 
ENDBRANCH  76  77
BRANCH  76  79
ATOM     79  C   UNL     1      -1.151  -4.790  -7.096  1.00  0.00     0.068 C 
BRANCH  79  80
ATOM     80  C   UNL     1      -1.184  -5.175  -5.637  1.00  0.00    -0.045 A 
ATOM     81  C   UNL     1      -2.336  -4.978  -4.864  1.00  0.00     0.004 A 
ATOM     82  C   UNL     1      -0.043  -5.713  -5.022  1.00  0.00     0.004 A 
ATOM     83  C   UNL     1      -2.353  -5.324  -3.511  1.00  0.00     0.000 A 
ATOM     84  C   UNL     1      -0.062  -6.058  -3.668  1.00  0.00     0.000 A 
ATOM     85  C   UNL     1      -1.217  -5.865  -2.914  1.00  0.00     0.000 A 
ENDBRANCH  79  80
ENDBRANCH  76  79
ENDBRANCH  74  76
ENDBRANCH  72  74
ENDBRANCH  70  71
ENDBRANCH   1  69
TORSDOF 17
ENDMDL
MODEL 27
REMARK VINA RESULT:    -5.755      5.119      9.240
REMARK INTER + INTRA:         -24.869
REMARK INTER:                 -18.110
REMARK INTRA:                  -6.759
REMARK UNBOUND:                -7.676
REMARK SMILES C=C1C(=O)N[C@H](C)C(=O)N[C@@H](CC(C)C)C(=O)N[C@@H](C(=O)O)[C@H](C)C(=O)N[C@@H](CCCN=C(N)N)C(=O)N[C@@H](/C=C/C(C)=C/[C@H](C)[C@H](Cc2ccccc2)OC)[C@H](C)C(=O)N[C@@H](C(=O)O)CCC(=O)N1C
REMARK SMILES IDX 39 1 38 2 37 3 36 4 28 6 27 7 25 8 26 9 23 11 24 12 19 13
REMARK SMILES IDX 18 14 16 15 17 16 11 18 10 19 8 20 9 21 12 24 13 25 14 26
REMARK SMILES IDX 15 27 20 28 21 29 22 30 29 32 30 33 31 34 32 35 33 36 34 37
REMARK SMILES IDX 35 38 57 43 58 44 59 45 60 46 61 47 62 49 66 50 67 51 68 52
REMARK SMILES IDX 69 53 70 54 71 55 2 56 1 57 3 58 4 59 5 60 6 62 7 63 63 65
REMARK SMILES IDX 64 66 65 67 40 69 41 70 42 71 44 72 43 73 45 74 46 75 47 76
REMARK SMILES IDX 55 77 56 78 48 79 49 80 50 81 54 82 51 83 53 84 52 85
REMARK H PARENT 38 5 27 10 18 17 10 22 22 31 34 39 34 40 35 41 35 42 61 48
REMARK H PARENT 5 61 65 68
REMARK Flexibility Score:  369.900
ROOT
ATOM      1  C   UNL     1       0.763  -0.050  -8.577  1.00  0.00     0.117 C 
ENDROOT
BRANCH   1   2
ATOM      2  N   UNL     1       1.706   0.566  -9.512  1.00  0.00    -0.347 N 
ATOM      3  O   UNL     1       2.688   2.032  -8.044  1.00  0.00    -0.273 OA
ATOM      4  C   UNL     1       2.659   1.497  -9.147  1.00  0.00     0.243 C 
ATOM      5  H   UNL     1       1.710   0.270 -10.477  1.00  0.00     0.164 HD
BRANCH   4   6
ATOM      6  C   UNL     1       3.588   1.926 -10.311  1.00  0.00     0.171 C 
BRANCH   6   7
ATOM      7  N   UNL     1       4.334   3.142  -9.952  1.00  0.00    -0.344 N 
ATOM      8  C   UNL     1       4.096   4.331 -10.606  1.00  0.00     0.226 C 
ATOM      9  O   UNL     1       3.284   4.432 -11.518  1.00  0.00    -0.275 OA
ATOM     10  H   UNL     1       5.061   3.082  -9.250  1.00  0.00     0.164 HD
BRANCH   8  11
ATOM     11  C   UNL     1       4.906   5.505 -10.084  1.00  0.00     0.109 C 
ATOM     12  C   UNL     1       5.120   5.368  -8.577  1.00  0.00     0.021 C 
BRANCH  11  13
ATOM     13  C   UNL     1       6.199   5.656 -10.911  1.00  0.00     0.204 C 
BRANCH  13  14
ATOM     14  N   UNL     1       7.359   5.964 -10.069  1.00  0.00    -0.340 N 
ATOM     15  C   UNL     1       8.537   6.471 -10.575  1.00  0.00     0.243 C 
ATOM     16  O   UNL     1       8.676   6.760 -11.762  1.00  0.00    -0.273 OA
ATOM     17  H   UNL     1       7.364   5.609  -9.109  1.00  0.00     0.164 HD
BRANCH  15  18
ATOM     18  C   UNL     1       9.685   6.519  -9.537  1.00  0.00     0.171 C 
BRANCH  18  19
ATOM     19  N   UNL     1      10.169   7.898  -9.512  1.00  0.00    -0.343 N 
ATOM     20  C   UNL     1      11.383   8.255 -10.066  1.00  0.00     0.242 CG0
ATOM     21  O   UNL     1      12.172   7.411 -10.486  1.00  0.00    -0.273 OA
ATOM     22  H   UNL     1       9.604   8.616  -9.072  1.00  0.00     0.164 HD
ATOM     23  G   UNL     1      11.688   9.766 -10.014  1.00  0.00     0.000 G0
ENDBRANCH  18  19
BRANCH  18  24
ATOM     24  C   UNL     1       9.187   6.073  -8.157  1.00  0.00     0.038 C 
BRANCH  24  25
ATOM     25  C   UNL     1      10.144   6.399  -6.991  1.00  0.00    -0.015 C 
ATOM     26  C   UNL     1      10.516   5.160  -6.175  1.00  0.00     0.007 C 
ATOM     27  C   UNL     1       9.501   7.444  -6.075  1.00  0.00     0.007 C 
ENDBRANCH  24  25
ENDBRANCH  18  24
ENDBRANCH  15  18
ENDBRANCH  13  14
BRANCH  13  28
ATOM     28  C   UNL     1       6.546   4.404 -11.722  1.00  0.00     0.327 C 
ATOM     29  O   UNL     1       6.318   4.226 -12.909  1.00  0.00    -0.250 OA
BRANCH  28  30
ATOM     30  O   UNL     1       7.050   3.407 -10.967  1.00  0.00    -0.480 OA
ATOM     31  H   UNL     1       6.880   2.598 -11.491  1.00  0.00     0.296 HD
ENDBRANCH  28  30
ENDBRANCH  13  28
ENDBRANCH  11  13
ENDBRANCH   8  11
ENDBRANCH   6   7
BRANCH   6  32
ATOM     32  C   UNL     1       4.544   0.775 -10.642  1.00  0.00     0.037 C 
BRANCH  32  33
ATOM     33  C   UNL     1       4.814   0.660 -12.149  1.00  0.00     0.026 C 
BRANCH  33  34
ATOM     34  C   UNL     1       3.773   1.404 -12.988  1.00  0.00     0.146 C 
BRANCH  34  35
ATOM     35  N   UNL     1       2.820   0.439 -13.518  1.00  0.00    -0.254 NA
ATOM     36  C   UNL     1       1.577   0.747 -13.532  1.00  0.00     0.185 C 
ATOM     37  N   UNL     1       0.690  -0.132 -14.023  1.00  0.00    -0.370 N 
ATOM     38  N   UNL     1       0.982   1.877 -13.110  1.00  0.00    -0.370 N 
ATOM     39  H   UNL     1       1.063  -1.006 -14.372  1.00  0.00     0.159 HD
ATOM     40  H   UNL     1      -0.267   0.098 -14.228  1.00  0.00     0.159 HD
ATOM     41  H   UNL     1      -0.021   1.945 -13.044  1.00  0.00     0.159 HD
ATOM     42  H   UNL     1       1.526   2.621 -12.701  1.00  0.00     0.159 HD
ENDBRANCH  34  35
ENDBRANCH  33  34
ENDBRANCH  32  33
ENDBRANCH   6  32
ENDBRANCH   4   6
ENDBRANCH   1   2
BRANCH   1  43
ATOM     43  C   UNL     1       1.288  -1.467  -8.206  1.00  0.00     0.102 C 
ATOM     44  C   UNL     1       2.748  -1.709  -8.626  1.00  0.00     0.020 C 
BRANCH  43  45
ATOM     45  C   UNL     1       0.318  -2.554  -8.679  1.00  0.00     0.225 C 
ATOM     46  O   UNL     1       0.270  -2.952  -9.839  1.00  0.00    -0.275 OA
ATOM     47  N   UNL     1      -0.576  -3.002  -7.733  1.00  0.00    -0.342 N 
ATOM     48  H   UNL     1      -0.426  -2.781  -6.759  1.00  0.00     0.164 HD
BRANCH  47  49
ATOM     49  C   UNL     1      -1.540  -4.066  -8.033  1.00  0.00     0.192 C 
BRANCH  49  50
ATOM     50  C   UNL     1      -2.875  -3.757  -7.351  1.00  0.00     0.047 C 
BRANCH  50  51
ATOM     51  C   UNL     1      -3.387  -2.349  -7.684  1.00  0.00     0.103 C 
BRANCH  51  52
ATOM     52  C   UNL     1      -4.196  -1.747  -6.538  1.00  0.00     0.226 C 
ATOM     53  O   UNL     1      -5.413  -1.936  -6.485  1.00  0.00    -0.275 OA
BRANCH  52  54
ATOM     54  N   UNL     1      -3.468  -1.060  -5.549  1.00  0.00    -0.311 N 
ATOM     55  C   UNL     1      -2.307  -0.232  -5.904  1.00  0.00     0.153 C 
BRANCH  54  56
ATOM     56  C   UNL     1      -3.824  -1.134  -4.192  1.00  0.00     0.102 C 
ATOM     57  C   UNL     1      -4.149  -0.081  -3.424  1.00  0.00     0.043 C 
BRANCH  56  58
ATOM     58  C   UNL     1      -3.914  -2.467  -3.486  1.00  0.00     0.268 C 
ATOM     59  O   UNL     1      -4.972  -3.047  -3.284  1.00  0.00    -0.268 OA
ATOM     60  N   UNL     1      -2.686  -2.987  -3.156  1.00  0.00    -0.339 N 
ATOM     61  H   UNL     1      -1.856  -2.438  -3.349  1.00  0.00     0.164 HD
BRANCH  60  62
ATOM     62  C   UNL     1      -2.539  -4.296  -2.522  1.00  0.00     0.168 CG0
ATOM     63  C   UNL     1      -2.059  -5.339  -3.525  1.00  0.00     0.041 C 
ATOM     64  G   UNL     1      -3.883  -4.720  -1.895  1.00  0.00     0.000 G0
ENDBRANCH  60  62
ENDBRANCH  56  58
ENDBRANCH  54  56
ENDBRANCH  52  54
ENDBRANCH  51  52
ENDBRANCH  50  51
ENDBRANCH  49  50
BRANCH  49  65
ATOM     65  C   UNL     1      -1.033  -5.438  -7.563  1.00  0.00     0.326 C 
ATOM     66  O   UNL     1      -0.418  -5.652  -6.528  1.00  0.00    -0.250 OA
BRANCH  65  67
ATOM     67  O   UNL     1      -1.265  -6.451  -8.427  1.00  0.00    -0.480 OA
ATOM     68  H   UNL     1      -2.222  -6.636  -8.316  1.00  0.00     0.296 HD
ENDBRANCH  65  67
ENDBRANCH  49  65
ENDBRANCH  47  49
ENDBRANCH  43  45
ENDBRANCH   1  43
BRANCH   1  69
ATOM     69  C   UNL     1      -0.610   0.080  -9.212  1.00  0.00    -0.001 C 
ATOM     70  C   UNL     1      -0.892   0.350 -10.499  1.00  0.00     0.001 C 
BRANCH  70  71
ATOM     71  C   UNL     1      -2.222   0.452 -11.104  1.00  0.00    -0.055 C 
ATOM     72  C   UNL     1      -3.120   1.268 -10.513  1.00  0.00    -0.018 C 
ATOM     73  C   UNL     1      -2.491  -0.353 -12.349  1.00  0.00     0.044 C 
BRANCH  72  74
ATOM     74  C   UNL     1      -4.556   1.572 -10.914  1.00  0.00     0.038 C 
ATOM     75  C   UNL     1      -4.798   3.061 -10.637  1.00  0.00     0.015 C 
BRANCH  74  76
ATOM     76  C   UNL     1      -5.505   0.602 -10.150  1.00  0.00     0.128 C 
BRANCH  76  77
ATOM     77  O   UNL     1      -6.502   1.353  -9.436  1.00  0.00    -0.381 OA
ATOM     78  C   UNL     1      -6.615   0.993  -8.066  1.00  0.00     0.195 C 
ENDBRANCH  76  77
BRANCH  76  79
ATOM     79  C   UNL     1      -6.115  -0.511 -11.038  1.00  0.00     0.068 C 
BRANCH  79  80
ATOM     80  C   UNL     1      -5.988  -1.940 -10.567  1.00  0.00    -0.045 A 
ATOM     81  C   UNL     1      -6.899  -2.480  -9.649  1.00  0.00     0.004 A 
ATOM     82  C   UNL     1      -4.933  -2.744 -11.023  1.00  0.00     0.004 A 
ATOM     83  C   UNL     1      -6.766  -3.799  -9.207  1.00  0.00     0.000 A 
ATOM     84  C   UNL     1      -4.802  -4.062 -10.580  1.00  0.00     0.000 A 
ATOM     85  C   UNL     1      -5.719  -4.589  -9.673  1.00  0.00     0.000 A 
ENDBRANCH  79  80
ENDBRANCH  76  79
ENDBRANCH  74  76
ENDBRANCH  72  74
ENDBRANCH  70  71
ENDBRANCH   1  69
TORSDOF 17
ENDMDL
MODEL 28
REMARK VINA RESULT:    -5.733      4.278      9.753
REMARK INTER + INTRA:         -24.804
REMARK INTER:                 -17.446
REMARK INTRA:                  -7.358
REMARK UNBOUND:                -7.676
REMARK SMILES C=C1C(=O)N[C@H](C)C(=O)N[C@@H](CC(C)C)C(=O)N[C@@H](C(=O)O)[C@H](C)C(=O)N[C@@H](CCCN=C(N)N)C(=O)N[C@@H](/C=C/C(C)=C/[C@H](C)[C@H](Cc2ccccc2)OC)[C@H](C)C(=O)N[C@@H](C(=O)O)CCC(=O)N1C
REMARK SMILES IDX 39 1 38 2 37 3 36 4 28 6 27 7 25 8 26 9 23 11 24 12 19 13
REMARK SMILES IDX 18 14 16 15 17 16 11 18 10 19 8 20 9 21 12 24 13 25 14 26
REMARK SMILES IDX 15 27 20 28 21 29 22 30 29 32 30 33 31 34 32 35 33 36 34 37
REMARK SMILES IDX 35 38 57 43 58 44 59 45 60 46 61 47 62 49 66 50 67 51 68 52
REMARK SMILES IDX 69 53 70 54 71 55 2 56 1 57 3 58 4 59 5 60 6 62 7 63 63 65
REMARK SMILES IDX 64 66 65 67 40 69 41 70 42 71 44 72 43 73 45 74 46 75 47 76
REMARK SMILES IDX 55 77 56 78 48 79 49 80 50 81 54 82 51 83 53 84 52 85
REMARK H PARENT 38 5 27 10 18 17 10 22 22 31 34 39 34 40 35 41 35 42 61 48
REMARK H PARENT 5 61 65 68
REMARK Flexibility Score:  369.900
ROOT
ATOM      1  C   UNL     1      -6.868  -5.885   1.580  1.00  0.00     0.117 C 
ENDROOT
BRANCH   1   2
ATOM      2  N   UNL     1      -6.374  -4.866   0.653  1.00  0.00    -0.347 N 
ATOM      3  O   UNL     1      -4.295  -5.764   0.280  1.00  0.00    -0.273 OA
ATOM      4  C   UNL     1      -5.157  -4.936   0.004  1.00  0.00     0.243 C 
ATOM      5  H   UNL     1      -6.964  -4.081   0.422  1.00  0.00     0.164 HD
BRANCH   4   6
ATOM      6  C   UNL     1      -4.912  -3.773  -0.990  1.00  0.00     0.171 C 
BRANCH   6   7
ATOM      7  N   UNL     1      -6.180  -3.345  -1.602  1.00  0.00    -0.344 N 
ATOM      8  C   UNL     1      -6.208  -2.852  -2.889  1.00  0.00     0.226 C 
ATOM      9  O   UNL     1      -5.197  -2.726  -3.570  1.00  0.00    -0.275 OA
ATOM     10  H   UNL     1      -7.027  -3.371  -1.048  1.00  0.00     0.164 HD
BRANCH   8  11
ATOM     11  C   UNL     1      -7.597  -2.506  -3.396  1.00  0.00     0.109 C 
ATOM     12  C   UNL     1      -8.464  -1.994  -2.246  1.00  0.00     0.021 C 
BRANCH  11  13
ATOM     13  C   UNL     1      -7.489  -1.550  -4.601  1.00  0.00     0.204 C 
BRANCH  13  14
ATOM     14  N   UNL     1      -7.157  -2.259  -5.840  1.00  0.00    -0.340 N 
ATOM     15  C   UNL     1      -6.221  -1.797  -6.740  1.00  0.00     0.243 C 
ATOM     16  O   UNL     1      -5.553  -0.785  -6.536  1.00  0.00    -0.273 OA
ATOM     17  H   UNL     1      -7.777  -3.017  -6.141  1.00  0.00     0.164 HD
BRANCH  15  18
ATOM     18  C   UNL     1      -6.190  -2.596  -8.066  1.00  0.00     0.171 C 
BRANCH  18  19
ATOM     19  N   UNL     1      -6.281  -1.617  -9.147  1.00  0.00    -0.343 N 
ATOM     20  C   UNL     1      -7.401  -1.521  -9.950  1.00  0.00     0.242 CG0
ATOM     21  O   UNL     1      -8.315  -2.339  -9.881  1.00  0.00    -0.273 OA
ATOM     22  H   UNL     1      -5.502  -0.993  -9.320  1.00  0.00     0.164 HD
ATOM     23  G   UNL     1      -7.347  -0.378 -10.985  1.00  0.00     0.000 G0
ENDBRANCH  18  19
BRANCH  18  24
ATOM     24  C   UNL     1      -4.905  -3.427  -8.167  1.00  0.00     0.038 C 
BRANCH  24  25
ATOM     25  C   UNL     1      -3.993  -3.061  -9.357  1.00  0.00    -0.015 C 
ATOM     26  C   UNL     1      -3.727  -4.251 -10.279  1.00  0.00     0.007 C 
ATOM     27  C   UNL     1      -2.664  -2.506  -8.836  1.00  0.00     0.007 C 
ENDBRANCH  24  25
ENDBRANCH  18  24
ENDBRANCH  15  18
ENDBRANCH  13  14
BRANCH  13  28
ATOM     28  C   UNL     1      -8.774  -0.759  -4.861  1.00  0.00     0.327 C 
ATOM     29  O   UNL     1      -8.977   0.409  -4.565  1.00  0.00    -0.250 OA
BRANCH  28  30
ATOM     30  O   UNL     1      -9.768  -1.516  -5.370  1.00  0.00    -0.480 OA
ATOM     31  H   UNL     1      -9.303  -2.252  -5.820  1.00  0.00     0.296 HD
ENDBRANCH  28  30
ENDBRANCH  13  28
ENDBRANCH  11  13
ENDBRANCH   8  11
ENDBRANCH   6   7
BRANCH   6  32
ATOM     32  C   UNL     1      -4.242  -2.610  -0.249  1.00  0.00     0.037 C 
BRANCH  32  33
ATOM     33  C   UNL     1      -2.735  -2.538  -0.528  1.00  0.00     0.026 C 
BRANCH  33  34
ATOM     34  C   UNL     1      -2.313  -3.423  -1.701  1.00  0.00     0.146 C 
BRANCH  34  35
ATOM     35  N   UNL     1      -1.553  -4.554  -1.187  1.00  0.00    -0.254 NA
ATOM     36  C   UNL     1      -1.798  -5.722  -1.651  1.00  0.00     0.185 C 
ATOM     37  N   UNL     1      -1.100  -6.770  -1.188  1.00  0.00    -0.370 N 
ATOM     38  N   UNL     1      -2.695  -6.089  -2.584  1.00  0.00    -0.370 N 
ATOM     39  H   UNL     1      -0.396  -6.573  -0.488  1.00  0.00     0.159 HD
ATOM     40  H   UNL     1      -1.109  -7.679  -1.618  1.00  0.00     0.159 HD
ATOM     41  H   UNL     1      -2.892  -7.060  -2.764  1.00  0.00     0.159 HD
ATOM     42  H   UNL     1      -3.302  -5.405  -3.008  1.00  0.00     0.159 HD
ENDBRANCH  34  35
ENDBRANCH  33  34
ENDBRANCH  32  33
ENDBRANCH   6  32
ENDBRANCH   4   6
ENDBRANCH   1   2
BRANCH   1  43
ATOM     43  C   UNL     1      -8.356  -6.186   1.239  1.00  0.00     0.102 C 
ATOM     44  C   UNL     1      -8.611  -6.383  -0.265  1.00  0.00     0.020 C 
BRANCH  43  45
ATOM     45  C   UNL     1      -9.289  -5.166   1.899  1.00  0.00     0.225 C 
ATOM     46  O   UNL     1      -9.328  -3.983   1.572  1.00  0.00    -0.275 OA
ATOM     47  N   UNL     1     -10.027  -5.638   2.960  1.00  0.00    -0.342 N 
ATOM     48  H   UNL     1     -10.098  -6.633   3.117  1.00  0.00     0.164 HD
BRANCH  47  49
ATOM     49  C   UNL     1     -10.988  -4.784   3.665  1.00  0.00     0.192 C 
BRANCH  49  50
ATOM     50  C   UNL     1     -10.917  -5.062   5.169  1.00  0.00     0.047 C 
BRANCH  50  51
ATOM     51  C   UNL     1      -9.817  -6.072   5.522  1.00  0.00     0.103 C 
BRANCH  51  52
ATOM     52  C   UNL     1     -10.390  -7.440   5.886  1.00  0.00     0.226 C 
ATOM     53  O   UNL     1     -11.041  -8.071   5.052  1.00  0.00    -0.275 OA
BRANCH  52  54
ATOM     54  N   UNL     1     -10.063  -7.938   7.162  1.00  0.00    -0.311 N 
ATOM     55  C   UNL     1     -10.349  -7.159   8.373  1.00  0.00     0.153 C 
BRANCH  54  56
ATOM     56  C   UNL     1      -9.457  -9.195   7.324  1.00  0.00     0.102 C 
ATOM     57  C   UNL     1     -10.067 -10.282   7.826  1.00  0.00     0.043 C 
BRANCH  56  58
ATOM     58  C   UNL     1      -8.032  -9.432   6.885  1.00  0.00     0.268 C 
ATOM     59  O   UNL     1      -7.563  -8.967   5.855  1.00  0.00    -0.268 OA
ATOM     60  N   UNL     1      -7.302 -10.164   7.791  1.00  0.00    -0.339 N 
ATOM     61  H   UNL     1      -7.767 -10.522   8.616  1.00  0.00     0.164 HD
BRANCH  60  62
ATOM     62  C   UNL     1      -5.882 -10.455   7.593  1.00  0.00     0.168 CG0
ATOM     63  C   UNL     1      -5.693 -11.623   6.633  1.00  0.00     0.041 C 
ATOM     64  G   UNL     1      -5.222 -10.756   8.955  1.00  0.00     0.000 G0
ENDBRANCH  60  62
ENDBRANCH  56  58
ENDBRANCH  54  56
ENDBRANCH  52  54
ENDBRANCH  51  52
ENDBRANCH  50  51
ENDBRANCH  49  50
BRANCH  49  65
ATOM     65  C   UNL     1     -12.424  -5.019   3.171  1.00  0.00     0.326 C 
ATOM     66  O   UNL     1     -13.185  -5.882   3.583  1.00  0.00    -0.250 OA
BRANCH  65  67
ATOM     67  O   UNL     1     -12.810  -4.214   2.156  1.00  0.00    -0.480 OA
ATOM     68  H   UNL     1     -13.782  -4.343   2.116  1.00  0.00     0.296 HD
ENDBRANCH  65  67
ENDBRANCH  49  65
ENDBRANCH  47  49
ENDBRANCH  43  45
ENDBRANCH   1  43
BRANCH   1  69
ATOM     69  C   UNL     1      -6.520  -5.394   2.974  1.00  0.00    -0.001 C 
ATOM     70  C   UNL     1      -5.941  -6.094   3.966  1.00  0.00     0.001 C 
BRANCH  70  71
ATOM     71  C   UNL     1      -5.591  -5.603   5.300  1.00  0.00    -0.055 C 
ATOM     72  C   UNL     1      -6.515  -5.723   6.276  1.00  0.00    -0.018 C 
ATOM     73  C   UNL     1      -4.221  -5.006   5.491  1.00  0.00     0.044 C 
BRANCH  72  74
ATOM     74  C   UNL     1      -6.431  -5.311   7.739  1.00  0.00     0.038 C 
ATOM     75  C   UNL     1      -6.132  -6.577   8.550  1.00  0.00     0.015 C 
BRANCH  74  76
ATOM     76  C   UNL     1      -7.749  -4.581   8.130  1.00  0.00     0.128 C 
BRANCH  76  77
ATOM     77  O   UNL     1      -7.774  -4.338   9.547  1.00  0.00    -0.381 OA
ATOM     78  C   UNL     1      -9.000  -3.789  10.010  1.00  0.00     0.195 C 
ENDBRANCH  76  77
BRANCH  76  79
ATOM     79  C   UNL     1      -8.033  -3.305   7.298  1.00  0.00     0.068 C 
BRANCH  79  80
ATOM     80  C   UNL     1      -6.939  -2.269   7.196  1.00  0.00    -0.045 A 
ATOM     81  C   UNL     1      -6.531  -1.538   8.319  1.00  0.00     0.004 A 
ATOM     82  C   UNL     1      -6.331  -2.003   5.961  1.00  0.00     0.004 A 
ATOM     83  C   UNL     1      -5.528  -0.571   8.214  1.00  0.00     0.000 A 
ATOM     84  C   UNL     1      -5.328  -1.036   5.856  1.00  0.00     0.000 A 
ATOM     85  C   UNL     1      -4.926  -0.322   6.982  1.00  0.00     0.000 A 
ENDBRANCH  79  80
ENDBRANCH  76  79
ENDBRANCH  74  76
ENDBRANCH  72  74
ENDBRANCH  70  71
ENDBRANCH   1  69
TORSDOF 17
ENDMDL
MODEL 29
REMARK VINA RESULT:    -5.733      9.575     15.699
REMARK INTER + INTRA:         -24.804
REMARK INTER:                 -19.361
REMARK INTRA:                  -5.443
REMARK UNBOUND:                -7.676
REMARK SMILES C=C1C(=O)N[C@H](C)C(=O)N[C@@H](CC(C)C)C(=O)N[C@@H](C(=O)O)[C@H](C)C(=O)N[C@@H](CCCN=C(N)N)C(=O)N[C@@H](/C=C/C(C)=C/[C@H](C)[C@H](Cc2ccccc2)OC)[C@H](C)C(=O)N[C@@H](C(=O)O)CCC(=O)N1C
REMARK SMILES IDX 39 1 38 2 37 3 36 4 28 6 27 7 25 8 26 9 23 11 24 12 19 13
REMARK SMILES IDX 18 14 16 15 17 16 11 18 10 19 8 20 9 21 12 24 13 25 14 26
REMARK SMILES IDX 15 27 20 28 21 29 22 30 29 32 30 33 31 34 32 35 33 36 34 37
REMARK SMILES IDX 35 38 57 43 58 44 59 45 60 46 61 47 62 49 66 50 67 51 68 52
REMARK SMILES IDX 69 53 70 54 71 55 2 56 1 57 3 58 4 59 5 60 6 62 7 63 63 65
REMARK SMILES IDX 64 66 65 67 40 69 41 70 42 71 44 72 43 73 45 74 46 75 47 76
REMARK SMILES IDX 55 77 56 78 48 79 49 80 50 81 54 82 51 83 53 84 52 85
REMARK H PARENT 38 5 27 10 18 17 10 22 22 31 34 39 34 40 35 41 35 42 61 48
REMARK H PARENT 5 61 65 68
REMARK Flexibility Score:  369.900
ROOT
ATOM      1  C   UNL     1       2.463   3.560  -5.413  1.00  0.00     0.117 C 
ENDROOT
BRANCH   1   2
ATOM      2  N   UNL     1       3.300   3.705  -4.221  1.00  0.00    -0.347 N 
ATOM      3  O   UNL     1       3.544   5.986  -4.286  1.00  0.00    -0.273 OA
ATOM      4  C   UNL     1       3.699   4.920  -3.700  1.00  0.00     0.243 C 
ATOM      5  H   UNL     1       3.573   2.882  -3.705  1.00  0.00     0.164 HD
BRANCH   4   6
ATOM      6  C   UNL     1       4.507   4.799  -2.383  1.00  0.00     0.171 C 
BRANCH   6   7
ATOM      7  N   UNL     1       5.694   5.668  -2.426  1.00  0.00    -0.344 N 
ATOM      8  C   UNL     1       6.930   5.189  -2.048  1.00  0.00     0.226 C 
ATOM      9  O   UNL     1       7.099   4.045  -1.643  1.00  0.00    -0.275 OA
ATOM     10  H   UNL     1       5.582   6.638  -2.691  1.00  0.00     0.164 HD
BRANCH   8  11
ATOM     11  C   UNL     1       8.062   6.190  -2.200  1.00  0.00     0.109 C 
ATOM     12  C   UNL     1       8.179   6.634  -3.658  1.00  0.00     0.021 C 
BRANCH  11  13
ATOM     13  C   UNL     1       7.884   7.337  -1.185  1.00  0.00     0.204 C 
BRANCH  13  14
ATOM     14  N   UNL     1       9.063   7.504  -0.330  1.00  0.00    -0.340 N 
ATOM     15  C   UNL     1       9.014   8.129   0.897  1.00  0.00     0.243 C 
ATOM     16  O   UNL     1       7.964   8.538   1.389  1.00  0.00    -0.273 OA
ATOM     17  H   UNL     1       9.983   7.326  -0.740  1.00  0.00     0.164 HD
BRANCH  15  18
ATOM     18  C   UNL     1      10.410   8.374   1.523  1.00  0.00     0.171 C 
BRANCH  18  19
ATOM     19  N   UNL     1      10.183   8.757   2.915  1.00  0.00    -0.343 N 
ATOM     20  C   UNL     1      10.560   9.994   3.401  1.00  0.00     0.242 CG0
ATOM     21  O   UNL     1      11.221  10.777   2.724  1.00  0.00    -0.273 OA
ATOM     22  H   UNL     1       9.743   8.097   3.547  1.00  0.00     0.164 HD
ATOM     23  G   UNL     1      10.168  10.246   4.872  1.00  0.00     0.000 G0
ENDBRANCH  18  19
BRANCH  18  24
ATOM     24  C   UNL     1      11.278   7.114   1.420  1.00  0.00     0.038 C 
BRANCH  24  25
ATOM     25  C   UNL     1      12.779   7.341   1.696  1.00  0.00    -0.015 C 
ATOM     26  C   UNL     1      13.453   8.179   0.610  1.00  0.00     0.007 C 
ATOM     27  C   UNL     1      13.490   5.991   1.821  1.00  0.00     0.007 C 
ENDBRANCH  24  25
ENDBRANCH  18  24
ENDBRANCH  15  18
ENDBRANCH  13  14
BRANCH  13  28
ATOM     28  C   UNL     1       7.607   8.690  -1.847  1.00  0.00     0.327 C 
ATOM     29  O   UNL     1       6.509   9.146  -2.128  1.00  0.00    -0.250 OA
BRANCH  28  30
ATOM     30  O   UNL     1       8.731   9.335  -2.222  1.00  0.00    -0.480 OA
ATOM     31  H   UNL     1       9.247   9.422  -1.394  1.00  0.00     0.296 HD
ENDBRANCH  28  30
ENDBRANCH  13  28
ENDBRANCH  11  13
ENDBRANCH   8  11
ENDBRANCH   6   7
BRANCH   6  32
ATOM     32  C   UNL     1       3.603   5.165  -1.201  1.00  0.00     0.037 C 
BRANCH  32  33
ATOM     33  C   UNL     1       2.429   6.059  -1.626  1.00  0.00     0.026 C 
BRANCH  33  34
ATOM     34  C   UNL     1       2.207   7.228  -0.666  1.00  0.00     0.146 C 
BRANCH  34  35
ATOM     35  N   UNL     1       3.361   7.338   0.215  1.00  0.00    -0.254 NA
ATOM     36  C   UNL     1       4.071   8.403   0.167  1.00  0.00     0.185 C 
ATOM     37  N   UNL     1       5.134   8.517   0.978  1.00  0.00    -0.370 N 
ATOM     38  N   UNL     1       3.914   9.489  -0.610  1.00  0.00    -0.370 N 
ATOM     39  H   UNL     1       5.314   7.742   1.604  1.00  0.00     0.159 HD
ATOM     40  H   UNL     1       5.632   9.379   1.125  1.00  0.00     0.159 HD
ATOM     41  H   UNL     1       4.621  10.205  -0.655  1.00  0.00     0.159 HD
ATOM     42  H   UNL     1       3.163   9.535  -1.282  1.00  0.00     0.159 HD
ENDBRANCH  34  35
ENDBRANCH  33  34
ENDBRANCH  32  33
ENDBRANCH   6  32
ENDBRANCH   4   6
ENDBRANCH   1   2
BRANCH   1  43
ATOM     43  C   UNL     1       1.739   2.184  -5.345  1.00  0.00     0.102 C 
ATOM     44  C   UNL     1       2.496   1.135  -4.513  1.00  0.00     0.020 C 
BRANCH  43  45
ATOM     45  C   UNL     1       1.344   1.701  -6.744  1.00  0.00     0.225 C 
ATOM     46  O   UNL     1       0.515   2.277  -7.443  1.00  0.00    -0.275 OA
ATOM     47  N   UNL     1       1.912   0.512  -7.142  1.00  0.00    -0.342 N 
ATOM     48  H   UNL     1       2.696   0.135  -6.629  1.00  0.00     0.164 HD
BRANCH  47  49
ATOM     49  C   UNL     1       1.653  -0.053  -8.470  1.00  0.00     0.192 C 
BRANCH  49  50
ATOM     50  C   UNL     1       1.646  -1.582  -8.385  1.00  0.00     0.047 C 
BRANCH  50  51
ATOM     51  C   UNL     1       0.227  -2.162  -8.452  1.00  0.00     0.103 C 
BRANCH  51  52
ATOM     52  C   UNL     1      -0.164  -2.561  -9.873  1.00  0.00     0.226 C 
ATOM     53  O   UNL     1      -0.142  -3.749 -10.201  1.00  0.00    -0.275 OA
BRANCH  52  54
ATOM     54  N   UNL     1      -0.606  -1.525 -10.716  1.00  0.00    -0.311 N 
ATOM     55  C   UNL     1      -0.047  -1.355 -12.064  1.00  0.00     0.153 C 
BRANCH  54  56
ATOM     56  C   UNL     1      -1.599  -0.620 -10.305  1.00  0.00     0.102 C 
ATOM     57  C   UNL     1      -1.434   0.709 -10.203  1.00  0.00     0.043 C 
BRANCH  56  58
ATOM     58  C   UNL     1      -2.995  -1.097  -9.978  1.00  0.00     0.268 C 
ATOM     59  O   UNL     1      -3.574  -0.812  -8.938  1.00  0.00    -0.268 OA
ATOM     60  N   UNL     1      -3.568  -1.825 -10.993  1.00  0.00    -0.339 N 
ATOM     61  H   UNL     1      -3.018  -2.027 -11.819  1.00  0.00     0.164 HD
BRANCH  60  62
ATOM     62  C   UNL     1      -4.938  -2.331 -10.911  1.00  0.00     0.168 CG0
ATOM     63  C   UNL     1      -4.953  -3.836 -10.675  1.00  0.00     0.041 C 
ATOM     64  G   UNL     1      -5.699  -1.974 -12.205  1.00  0.00     0.000 G0
ENDBRANCH  60  62
ENDBRANCH  56  58
ENDBRANCH  54  56
ENDBRANCH  52  54
ENDBRANCH  51  52
ENDBRANCH  50  51
ENDBRANCH  49  50
BRANCH  49  65
ATOM     65  C   UNL     1       2.709   0.395  -9.492  1.00  0.00     0.326 C 
ATOM     66  O   UNL     1       3.774  -0.166  -9.706  1.00  0.00    -0.250 OA
BRANCH  65  67
ATOM     67  O   UNL     1       2.412   1.541 -10.143  1.00  0.00    -0.480 OA
ATOM     68  H   UNL     1       2.142   1.237 -11.037  1.00  0.00     0.296 HD
ENDBRANCH  65  67
ENDBRANCH  49  65
ENDBRANCH  47  49
ENDBRANCH  43  45
ENDBRANCH   1  43
BRANCH   1  69
ATOM     69  C   UNL     1       3.360   3.859  -6.600  1.00  0.00    -0.001 C 
ATOM     70  C   UNL     1       3.254   4.882  -7.466  1.00  0.00     0.001 C 
BRANCH  70  71
ATOM     71  C   UNL     1       4.139   5.173  -8.596  1.00  0.00    -0.055 C 
ATOM     72  C   UNL     1       3.965   4.460  -9.729  1.00  0.00    -0.018 C 
ATOM     73  C   UNL     1       5.175   6.252  -8.417  1.00  0.00     0.044 C 
BRANCH  72  74
ATOM     74  C   UNL     1       4.723   4.545 -11.046  1.00  0.00     0.038 C 
ATOM     75  C   UNL     1       3.678   4.646 -12.164  1.00  0.00     0.015 C 
BRANCH  74  76
ATOM     76  C   UNL     1       5.679   3.320 -11.153  1.00  0.00     0.128 C 
BRANCH  76  77
ATOM     77  O   UNL     1       4.979   2.200 -11.723  1.00  0.00    -0.381 OA
ATOM     78  C   UNL     1       5.726   1.503 -12.711  1.00  0.00     0.195 C 
ENDBRANCH  76  77
BRANCH  76  79
ATOM     79  C   UNL     1       7.014   3.625 -11.878  1.00  0.00     0.068 C 
BRANCH  79  80
ATOM     80  C   UNL     1       7.893   4.713 -11.312  1.00  0.00    -0.045 A 
ATOM     81  C   UNL     1       8.520   5.644 -12.151  1.00  0.00     0.004 A 
ATOM     82  C   UNL     1       8.121   4.791  -9.930  1.00  0.00     0.004 A 
ATOM     83  C   UNL     1       9.343   6.640 -11.620  1.00  0.00     0.000 A 
ATOM     84  C   UNL     1       8.945   5.786  -9.400  1.00  0.00     0.000 A 
ATOM     85  C   UNL     1       9.555   6.711 -10.245  1.00  0.00     0.000 A 
ENDBRANCH  79  80
ENDBRANCH  76  79
ENDBRANCH  74  76
ENDBRANCH  72  74
ENDBRANCH  70  71
ENDBRANCH   1  69
TORSDOF 17
ENDMDL
MODEL 30
REMARK VINA RESULT:    -5.711      6.644     10.806
REMARK INTER + INTRA:         -24.739
REMARK INTER:                 -18.323
REMARK INTRA:                  -6.416
REMARK UNBOUND:                -7.676
REMARK SMILES C=C1C(=O)N[C@H](C)C(=O)N[C@@H](CC(C)C)C(=O)N[C@@H](C(=O)O)[C@H](C)C(=O)N[C@@H](CCCN=C(N)N)C(=O)N[C@@H](/C=C/C(C)=C/[C@H](C)[C@H](Cc2ccccc2)OC)[C@H](C)C(=O)N[C@@H](C(=O)O)CCC(=O)N1C
REMARK SMILES IDX 39 1 38 2 37 3 36 4 28 6 27 7 25 8 26 9 23 11 24 12 19 13
REMARK SMILES IDX 18 14 16 15 17 16 11 18 10 19 8 20 9 21 12 24 13 25 14 26
REMARK SMILES IDX 15 27 20 28 21 29 22 30 29 32 30 33 31 34 32 35 33 36 34 37
REMARK SMILES IDX 35 38 57 43 58 44 59 45 60 46 61 47 62 49 66 50 67 51 68 52
REMARK SMILES IDX 69 53 70 54 71 55 2 56 1 57 3 58 4 59 5 60 6 62 7 63 63 65
REMARK SMILES IDX 64 66 65 67 40 69 41 70 42 71 44 72 43 73 45 74 46 75 47 76
REMARK SMILES IDX 55 77 56 78 48 79 49 80 50 81 54 82 51 83 53 84 52 85
REMARK H PARENT 38 5 27 10 18 17 10 22 22 31 34 39 34 40 35 41 35 42 61 48
REMARK H PARENT 5 61 65 68
REMARK Flexibility Score:  369.900
ROOT
ATOM      1  C   UNL     1       0.865   2.440  -6.306  1.00  0.00     0.117 C 
ENDROOT
BRANCH   1   2
ATOM      2  N   UNL     1       1.144   1.670  -7.519  1.00  0.00    -0.347 N 
ATOM      3  O   UNL     1       1.299   3.434  -8.980  1.00  0.00    -0.273 OA
ATOM      4  C   UNL     1       1.430   2.237  -8.746  1.00  0.00     0.243 C 
ATOM      5  H   UNL     1       1.183   0.664  -7.467  1.00  0.00     0.164 HD
BRANCH   4   6
ATOM      6  C   UNL     1       1.773   1.201  -9.846  1.00  0.00     0.171 C 
BRANCH   6   7
ATOM      7  N   UNL     1       0.816   1.297 -10.959  1.00  0.00    -0.344 N 
ATOM      8  C   UNL     1      -0.261   0.440 -11.036  1.00  0.00     0.226 C 
ATOM      9  O   UNL     1      -0.461  -0.444 -10.212  1.00  0.00    -0.275 OA
ATOM     10  H   UNL     1       0.985   1.971 -11.696  1.00  0.00     0.164 HD
BRANCH   8  11
ATOM     11  C   UNL     1      -1.186   0.701 -12.212  1.00  0.00     0.109 C 
ATOM     12  C   UNL     1      -1.122  -0.464 -13.200  1.00  0.00     0.021 C 
BRANCH  11  13
ATOM     13  C   UNL     1      -2.599   1.039 -11.698  1.00  0.00     0.204 C 
BRANCH  13  14
ATOM     14  N   UNL     1      -3.169  -0.048 -10.895  1.00  0.00    -0.340 N 
ATOM     15  C   UNL     1      -4.146  -0.896 -11.369  1.00  0.00     0.243 C 
ATOM     16  O   UNL     1      -4.567  -0.839 -12.523  1.00  0.00    -0.273 OA
ATOM     17  H   UNL     1      -2.976  -0.054  -9.890  1.00  0.00     0.164 HD
BRANCH  15  18
ATOM     18  C   UNL     1      -4.739  -1.825 -10.282  1.00  0.00     0.171 C 
BRANCH  18  19
ATOM     19  N   UNL     1      -6.162  -1.506 -10.189  1.00  0.00    -0.343 N 
ATOM     20  C   UNL     1      -6.791  -1.324  -8.973  1.00  0.00     0.242 CG0
ATOM     21  O   UNL     1      -6.215  -1.551  -7.911  1.00  0.00    -0.273 OA
ATOM     22  H   UNL     1      -6.709  -1.422 -11.039  1.00  0.00     0.164 HD
ATOM     23  G   UNL     1      -8.275  -0.916  -9.077  1.00  0.00     0.000 G0
ENDBRANCH  18  19
BRANCH  18  24
ATOM     24  C   UNL     1      -4.516  -3.298 -10.648  1.00  0.00     0.038 C 
BRANCH  24  25
ATOM     25  C   UNL     1      -4.615  -4.279  -9.461  1.00  0.00    -0.015 C 
ATOM     26  C   UNL     1      -3.504  -5.328  -9.474  1.00  0.00     0.007 C 
ATOM     27  C   UNL     1      -5.980  -4.974  -9.480  1.00  0.00     0.007 C 
ENDBRANCH  24  25
ENDBRANCH  18  24
ENDBRANCH  15  18
ENDBRANCH  13  14
BRANCH  13  28
ATOM     28  C   UNL     1      -2.643   2.308 -10.841  1.00  0.00     0.327 C 
ATOM     29  O   UNL     1      -2.837   2.360  -9.636  1.00  0.00    -0.250 OA
BRANCH  28  30
ATOM     30  O   UNL     1      -2.558   3.440 -11.569  1.00  0.00    -0.480 OA
ATOM     31  H   UNL     1      -3.485   3.752 -11.638  1.00  0.00     0.296 HD
ENDBRANCH  28  30
ENDBRANCH  13  28
ENDBRANCH  11  13
ENDBRANCH   8  11
ENDBRANCH   6   7
BRANCH   6  32
ATOM     32  C   UNL     1       3.206   1.442 -10.334  1.00  0.00     0.037 C 
BRANCH  32  33
ATOM     33  C   UNL     1       3.716   0.296 -11.219  1.00  0.00     0.026 C 
BRANCH  33  34
ATOM     34  C   UNL     1       4.006   0.748 -12.652  1.00  0.00     0.146 C 
BRANCH  34  35
ATOM     35  N   UNL     1       4.523   2.109 -12.620  1.00  0.00    -0.254 NA
ATOM     36  C   UNL     1       5.752   2.306 -12.919  1.00  0.00     0.185 C 
ATOM     37  N   UNL     1       6.238   3.557 -12.898  1.00  0.00    -0.370 N 
ATOM     38  N   UNL     1       6.690   1.409 -13.273  1.00  0.00    -0.370 N 
ATOM     39  H   UNL     1       5.588   4.292 -12.650  1.00  0.00     0.159 HD
ATOM     40  H   UNL     1       7.130   3.814 -13.283  1.00  0.00     0.159 HD
ATOM     41  H   UNL     1       7.659   1.672 -13.349  1.00  0.00     0.159 HD
ATOM     42  H   UNL     1       6.470   0.427 -13.315  1.00  0.00     0.159 HD
ENDBRANCH  34  35
ENDBRANCH  33  34
ENDBRANCH  32  33
ENDBRANCH   6  32
ENDBRANCH   4   6
ENDBRANCH   1   2
BRANCH   1  43
ATOM     43  C   UNL     1       2.162   2.502  -5.450  1.00  0.00     0.102 C 
ATOM     44  C   UNL     1       2.537   1.156  -4.807  1.00  0.00     0.020 C 
BRANCH  43  45
ATOM     45  C   UNL     1       2.113   3.670  -4.460  1.00  0.00     0.225 C 
ATOM     46  O   UNL     1       1.090   4.307  -4.225  1.00  0.00    -0.275 OA
ATOM     47  N   UNL     1       3.321   4.032  -3.909  1.00  0.00    -0.342 N 
ATOM     48  H   UNL     1       4.115   3.411  -3.993  1.00  0.00     0.164 HD
BRANCH  47  49
ATOM     49  C   UNL     1       3.421   5.108  -2.920  1.00  0.00     0.192 C 
BRANCH  49  50
ATOM     50  C   UNL     1       3.832   6.409  -3.614  1.00  0.00     0.047 C 
BRANCH  50  51
ATOM     51  C   UNL     1       5.198   6.293  -4.305  1.00  0.00     0.103 C 
BRANCH  51  52
ATOM     52  C   UNL     1       6.134   7.437  -3.920  1.00  0.00     0.226 C 
ATOM     53  O   UNL     1       5.694   8.585  -3.839  1.00  0.00    -0.275 OA
BRANCH  52  54
ATOM     54  N   UNL     1       7.458   7.082  -3.602  1.00  0.00    -0.311 N 
ATOM     55  C   UNL     1       8.564   7.386  -4.520  1.00  0.00     0.153 C 
BRANCH  54  56
ATOM     56  C   UNL     1       7.773   6.433  -2.396  1.00  0.00     0.102 C 
ATOM     57  C   UNL     1       8.191   5.161  -2.295  1.00  0.00     0.043 C 
BRANCH  56  58
ATOM     58  C   UNL     1       7.702   7.169  -1.079  1.00  0.00     0.268 C 
ATOM     59  O   UNL     1       6.648   7.442  -0.521  1.00  0.00    -0.268 OA
ATOM     60  N   UNL     1       8.939   7.438  -0.543  1.00  0.00    -0.339 N 
ATOM     61  H   UNL     1       9.765   7.188  -1.074  1.00  0.00     0.164 HD
BRANCH  60  62
ATOM     62  C   UNL     1       9.100   8.088   0.757  1.00  0.00     0.168 CG0
ATOM     63  C   UNL     1      10.469   7.786   1.353  1.00  0.00     0.041 C 
ATOM     64  G   UNL     1       7.977   7.626   1.708  1.00  0.00     0.000 G0
ENDBRANCH  60  62
ENDBRANCH  56  58
ENDBRANCH  54  56
ENDBRANCH  52  54
ENDBRANCH  51  52
ENDBRANCH  50  51
ENDBRANCH  49  50
BRANCH  49  65
ATOM     65  C   UNL     1       4.440   4.775  -1.819  1.00  0.00     0.326 C 
ATOM     66  O   UNL     1       5.190   3.809  -1.815  1.00  0.00    -0.250 OA
BRANCH  65  67
ATOM     67  O   UNL     1       4.429   5.620  -0.765  1.00  0.00    -0.480 OA
ATOM     68  H   UNL     1       4.770   5.072  -0.026  1.00  0.00     0.296 HD
ENDBRANCH  65  67
ENDBRANCH  49  65
ENDBRANCH  47  49
ENDBRANCH  43  45
ENDBRANCH   1  43
BRANCH   1  69
ATOM     69  C   UNL     1      -0.387   1.834  -5.698  1.00  0.00    -0.001 C 
ATOM     70  C   UNL     1      -1.129   0.826  -6.190  1.00  0.00     0.001 C 
BRANCH  70  71
ATOM     71  C   UNL     1      -2.323   0.235  -5.582  1.00  0.00    -0.055 C 
ATOM     72  C   UNL     1      -2.333   0.077  -4.242  1.00  0.00    -0.018 C 
ATOM     73  C   UNL     1      -3.459  -0.146  -6.495  1.00  0.00     0.044 C 
BRANCH  72  74
ATOM     74  C   UNL     1      -3.422  -0.498  -3.348  1.00  0.00     0.038 C 
ATOM     75  C   UNL     1      -3.558   0.438  -2.141  1.00  0.00     0.015 C 
BRANCH  74  76
ATOM     76  C   UNL     1      -3.056  -1.970  -2.995  1.00  0.00     0.128 C 
BRANCH  76  77
ATOM     77  O   UNL     1      -3.528  -2.290  -1.676  1.00  0.00    -0.381 OA
ATOM     78  C   UNL     1      -4.562  -3.265  -1.660  1.00  0.00     0.195 C 
ENDBRANCH  76  77
BRANCH  76  79
ATOM     79  C   UNL     1      -3.505  -3.002  -4.060  1.00  0.00     0.068 C 
BRANCH  79  80
ATOM     80  C   UNL     1      -2.439  -3.830  -4.735  1.00  0.00    -0.045 A 
ATOM     81  C   UNL     1      -1.689  -4.769  -4.014  1.00  0.00     0.004 A 
ATOM     82  C   UNL     1      -2.162  -3.651  -6.099  1.00  0.00     0.004 A 
ATOM     83  C   UNL     1      -0.695  -5.521  -4.644  1.00  0.00     0.000 A 
ATOM     84  C   UNL     1      -1.167  -4.403  -6.727  1.00  0.00     0.000 A 
ATOM     85  C   UNL     1      -0.435  -5.338  -6.000  1.00  0.00     0.000 A 
ENDBRANCH  79  80
ENDBRANCH  76  79
ENDBRANCH  74  76
ENDBRANCH  72  74
ENDBRANCH  70  71
ENDBRANCH   1  69
TORSDOF 17
ENDMDL
MODEL 31
REMARK VINA RESULT:    -5.699      2.808      4.457
REMARK INTER + INTRA:         -24.703
REMARK INTER:                 -16.762
REMARK INTRA:                  -7.941
REMARK UNBOUND:                -7.676
REMARK SMILES C=C1C(=O)N[C@H](C)C(=O)N[C@@H](CC(C)C)C(=O)N[C@@H](C(=O)O)[C@H](C)C(=O)N[C@@H](CCCN=C(N)N)C(=O)N[C@@H](/C=C/C(C)=C/[C@H](C)[C@H](Cc2ccccc2)OC)[C@H](C)C(=O)N[C@@H](C(=O)O)CCC(=O)N1C
REMARK SMILES IDX 39 1 38 2 37 3 36 4 28 6 27 7 25 8 26 9 23 11 24 12 19 13
REMARK SMILES IDX 18 14 16 15 17 16 11 18 10 19 8 20 9 21 12 24 13 25 14 26
REMARK SMILES IDX 15 27 20 28 21 29 22 30 29 32 30 33 31 34 32 35 33 36 34 37
REMARK SMILES IDX 35 38 57 43 58 44 59 45 60 46 61 47 62 49 66 50 67 51 68 52
REMARK SMILES IDX 69 53 70 54 71 55 2 56 1 57 3 58 4 59 5 60 6 62 7 63 63 65
REMARK SMILES IDX 64 66 65 67 40 69 41 70 42 71 44 72 43 73 45 74 46 75 47 76
REMARK SMILES IDX 55 77 56 78 48 79 49 80 50 81 54 82 51 83 53 84 52 85
REMARK H PARENT 38 5 27 10 18 17 10 22 22 31 34 39 34 40 35 41 35 42 61 48
REMARK H PARENT 5 61 65 68
REMARK Flexibility Score:  369.900
ROOT
ATOM      1  C   UNL     1      -4.710  -2.730  -2.063  1.00  0.00     0.117 C 
ENDROOT
BRANCH   1   2
ATOM      2  N   UNL     1      -4.499  -2.389  -3.471  1.00  0.00    -0.347 N 
ATOM      3  O   UNL     1      -3.073  -0.618  -3.153  1.00  0.00    -0.273 OA
ATOM      4  C   UNL     1      -3.621  -1.415  -3.907  1.00  0.00     0.243 C 
ATOM      5  H   UNL     1      -4.975  -2.919  -4.185  1.00  0.00     0.164 HD
BRANCH   4   6
ATOM      6  C   UNL     1      -3.521  -1.312  -5.450  1.00  0.00     0.171 C 
BRANCH   6   7
ATOM      7  N   UNL     1      -2.800  -2.473  -5.997  1.00  0.00    -0.344 N 
ATOM      8  C   UNL     1      -1.775  -2.301  -6.901  1.00  0.00     0.226 C 
ATOM      9  O   UNL     1      -1.430  -1.197  -7.307  1.00  0.00    -0.275 OA
ATOM     10  H   UNL     1      -3.100  -3.404  -5.737  1.00  0.00     0.164 HD
BRANCH   8  11
ATOM     11  C   UNL     1      -1.095  -3.590  -7.329  1.00  0.00     0.109 C 
ATOM     12  C   UNL     1      -1.193  -4.631  -6.214  1.00  0.00     0.021 C 
BRANCH  11  13
ATOM     13  C   UNL     1      -1.653  -4.046  -8.692  1.00  0.00     0.204 C 
BRANCH  13  14
ATOM     14  N   UNL     1      -2.873  -3.321  -9.059  1.00  0.00    -0.340 N 
ATOM     15  C   UNL     1      -3.960  -3.933  -9.644  1.00  0.00     0.243 C 
ATOM     16  O   UNL     1      -4.007  -5.146  -9.843  1.00  0.00    -0.273 OA
ATOM     17  H   UNL     1      -2.842  -2.298  -9.061  1.00  0.00     0.164 HD
BRANCH  15  18
ATOM     18  C   UNL     1      -5.043  -2.939 -10.131  1.00  0.00     0.171 C 
BRANCH  18  19
ATOM     19  N   UNL     1      -4.565  -2.388 -11.397  1.00  0.00    -0.343 N 
ATOM     20  C   UNL     1      -4.544  -1.027 -11.638  1.00  0.00     0.242 CG0
ATOM     21  O   UNL     1      -5.049  -0.227 -10.854  1.00  0.00    -0.273 OA
ATOM     22  H   UNL     1      -4.244  -3.017 -12.124  1.00  0.00     0.164 HD
ATOM     23  G   UNL     1      -3.934  -0.631 -12.998  1.00  0.00     0.000 G0
ENDBRANCH  18  19
BRANCH  18  24
ATOM     24  C   UNL     1      -6.392  -3.648 -10.300  1.00  0.00     0.038 C 
BRANCH  24  25
ATOM     25  C   UNL     1      -7.529  -3.089  -9.418  1.00  0.00    -0.015 C 
ATOM     26  C   UNL     1      -7.803  -1.609  -9.684  1.00  0.00     0.007 C 
ATOM     27  C   UNL     1      -7.180  -3.290  -7.941  1.00  0.00     0.007 C 
ENDBRANCH  24  25
ENDBRANCH  18  24
ENDBRANCH  15  18
ENDBRANCH  13  14
BRANCH  13  28
ATOM     28  C   UNL     1      -0.656  -3.868  -9.842  1.00  0.00     0.327 C 
ATOM     29  O   UNL     1       0.245  -3.044  -9.897  1.00  0.00    -0.250 OA
BRANCH  28  30
ATOM     30  O   UNL     1      -0.926  -4.656 -10.902  1.00  0.00    -0.480 OA
ATOM     31  H   UNL     1      -1.535  -5.337 -10.548  1.00  0.00     0.296 HD
ENDBRANCH  28  30
ENDBRANCH  13  28
ENDBRANCH  11  13
ENDBRANCH   8  11
ENDBRANCH   6   7
BRANCH   6  32
ATOM     32  C   UNL     1      -4.932  -1.216  -6.041  1.00  0.00     0.037 C 
BRANCH  32  33
ATOM     33  C   UNL     1      -4.969  -0.365  -7.318  1.00  0.00     0.026 C 
BRANCH  33  34
ATOM     34  C   UNL     1      -4.399   1.038  -7.102  1.00  0.00     0.146 C 
BRANCH  34  35
ATOM     35  N   UNL     1      -3.460   1.334  -8.176  1.00  0.00    -0.254 NA
ATOM     36  C   UNL     1      -3.862   2.040  -9.166  1.00  0.00     0.185 C 
ATOM     37  N   UNL     1      -3.005   2.323 -10.159  1.00  0.00    -0.370 N 
ATOM     38  N   UNL     1      -5.076   2.577  -9.383  1.00  0.00    -0.370 N 
ATOM     39  H   UNL     1      -2.064   1.962 -10.063  1.00  0.00     0.159 HD
ATOM     40  H   UNL     1      -3.187   3.007 -10.873  1.00  0.00     0.159 HD
ATOM     41  H   UNL     1      -5.310   2.996 -10.268  1.00  0.00     0.159 HD
ATOM     42  H   UNL     1      -5.826   2.432  -8.725  1.00  0.00     0.159 HD
ENDBRANCH  34  35
ENDBRANCH  33  34
ENDBRANCH  32  33
ENDBRANCH   6  32
ENDBRANCH   4   6
ENDBRANCH   1   2
BRANCH   1  43
ATOM     43  C   UNL     1      -3.486  -3.551  -1.563  1.00  0.00     0.102 C 
ATOM     44  C   UNL     1      -3.840  -4.992  -1.159  1.00  0.00     0.020 C 
BRANCH  43  45
ATOM     45  C   UNL     1      -2.706  -2.779  -0.495  1.00  0.00     0.225 C 
ATOM     46  O   UNL     1      -1.619  -3.148  -0.060  1.00  0.00    -0.275 OA
ATOM     47  N   UNL     1      -3.347  -1.679   0.028  1.00  0.00    -0.342 N 
ATOM     48  H   UNL     1      -4.161  -1.305  -0.440  1.00  0.00     0.164 HD
BRANCH  47  49
ATOM     49  C   UNL     1      -2.707  -0.824   1.032  1.00  0.00     0.192 C 
BRANCH  49  50
ATOM     50  C   UNL     1      -3.437  -0.967   2.370  1.00  0.00     0.047 C 
BRANCH  50  51
ATOM     51  C   UNL     1      -4.791  -1.673   2.221  1.00  0.00     0.103 C 
BRANCH  51  52
ATOM     52  C   UNL     1      -4.755  -3.102   2.760  1.00  0.00     0.226 C 
ATOM     53  O   UNL     1      -3.810  -3.839   2.471  1.00  0.00    -0.275 OA
BRANCH  52  54
ATOM     54  N   UNL     1      -5.794  -3.468   3.635  1.00  0.00    -0.311 N 
ATOM     55  C   UNL     1      -7.147  -3.740   3.131  1.00  0.00     0.153 C 
BRANCH  54  56
ATOM     56  C   UNL     1      -5.577  -3.594   5.017  1.00  0.00     0.102 C 
ATOM     57  C   UNL     1      -5.794  -2.623   5.920  1.00  0.00     0.043 C 
BRANCH  56  58
ATOM     58  C   UNL     1      -5.108  -4.900   5.613  1.00  0.00     0.268 C 
ATOM     59  O   UNL     1      -3.976  -5.338   5.458  1.00  0.00    -0.268 OA
ATOM     60  N   UNL     1      -6.059  -5.510   6.396  1.00  0.00    -0.339 N 
ATOM     61  H   UNL     1      -6.978  -5.088   6.464  1.00  0.00     0.164 HD
BRANCH  60  62
ATOM     62  C   UNL     1      -5.794  -6.753   7.118  1.00  0.00     0.168 CG0
ATOM     63  C   UNL     1      -6.674  -7.884   6.601  1.00  0.00     0.041 C 
ATOM     64  G   UNL     1      -6.019  -6.532   8.628  1.00  0.00     0.000 G0
ENDBRANCH  60  62
ENDBRANCH  56  58
ENDBRANCH  54  56
ENDBRANCH  52  54
ENDBRANCH  51  52
ENDBRANCH  50  51
ENDBRANCH  49  50
BRANCH  49  65
ATOM     65  C   UNL     1      -2.709   0.652   0.605  1.00  0.00     0.326 C 
ATOM     66  O   UNL     1      -1.911   1.172  -0.160  1.00  0.00    -0.250 OA
BRANCH  65  67
ATOM     67  O   UNL     1      -3.661   1.408   1.196  1.00  0.00    -0.480 OA
ATOM     68  H   UNL     1      -3.181   1.854   1.927  1.00  0.00     0.296 HD
ENDBRANCH  65  67
ENDBRANCH  49  65
ENDBRANCH  47  49
ENDBRANCH  43  45
ENDBRANCH   1  43
BRANCH   1  69
ATOM     69  C   UNL     1      -6.093  -3.351  -1.981  1.00  0.00    -0.001 C 
ATOM     70  C   UNL     1      -7.238  -2.749  -1.614  1.00  0.00     0.001 C 
BRANCH  70  71
ATOM     71  C   UNL     1      -8.571  -3.354  -1.559  1.00  0.00    -0.055 C 
ATOM     72  C   UNL     1      -9.050  -3.921  -2.686  1.00  0.00    -0.018 C 
ATOM     73  C   UNL     1      -9.309  -3.307  -0.247  1.00  0.00     0.044 C 
BRANCH  72  74
ATOM     74  C   UNL     1     -10.382  -4.617  -2.923  1.00  0.00     0.038 C 
ATOM     75  C   UNL     1     -10.098  -6.122  -3.005  1.00  0.00     0.015 C 
BRANCH  74  76
ATOM     76  C   UNL     1     -11.047  -4.008  -4.192  1.00  0.00     0.128 C 
BRANCH  76  77
ATOM     77  O   UNL     1     -12.183  -4.800  -4.578  1.00  0.00    -0.381 OA
ATOM     78  C   UNL     1     -12.633  -4.545  -5.902  1.00  0.00     0.195 C 
ENDBRANCH  76  77
BRANCH  76  79
ATOM     79  C   UNL     1     -11.383  -2.501  -4.065  1.00  0.00     0.068 C 
BRANCH  79  80
ATOM     80  C   UNL     1     -10.268  -1.507  -4.287  1.00  0.00    -0.045 A 
ATOM     81  C   UNL     1     -10.062  -0.443  -3.400  1.00  0.00     0.004 A 
ATOM     82  C   UNL     1      -9.433  -1.621  -5.409  1.00  0.00     0.004 A 
ATOM     83  C   UNL     1      -9.037   0.480  -3.620  1.00  0.00     0.000 A 
ATOM     84  C   UNL     1      -8.408  -0.697  -5.629  1.00  0.00     0.000 A 
ATOM     85  C   UNL     1      -8.210   0.352  -4.734  1.00  0.00     0.000 A 
ENDBRANCH  79  80
ENDBRANCH  76  79
ENDBRANCH  74  76
ENDBRANCH  72  74
ENDBRANCH  70  71
ENDBRANCH   1  69
TORSDOF 17
ENDMDL
MODEL 32
REMARK VINA RESULT:    -5.665      6.354     13.019
REMARK INTER + INTRA:         -24.600
REMARK INTER:                 -17.962
REMARK INTRA:                  -6.638
REMARK UNBOUND:                -7.676
REMARK SMILES C=C1C(=O)N[C@H](C)C(=O)N[C@@H](CC(C)C)C(=O)N[C@@H](C(=O)O)[C@H](C)C(=O)N[C@@H](CCCN=C(N)N)C(=O)N[C@@H](/C=C/C(C)=C/[C@H](C)[C@H](Cc2ccccc2)OC)[C@H](C)C(=O)N[C@@H](C(=O)O)CCC(=O)N1C
REMARK SMILES IDX 39 1 38 2 37 3 36 4 28 6 27 7 25 8 26 9 23 11 24 12 19 13
REMARK SMILES IDX 18 14 16 15 17 16 11 18 10 19 8 20 9 21 12 24 13 25 14 26
REMARK SMILES IDX 15 27 20 28 21 29 22 30 29 32 30 33 31 34 32 35 33 36 34 37
REMARK SMILES IDX 35 38 57 43 58 44 59 45 60 46 61 47 62 49 66 50 67 51 68 52
REMARK SMILES IDX 69 53 70 54 71 55 2 56 1 57 3 58 4 59 5 60 6 62 7 63 63 65
REMARK SMILES IDX 64 66 65 67 40 69 41 70 42 71 44 72 43 73 45 74 46 75 47 76
REMARK SMILES IDX 55 77 56 78 48 79 49 80 50 81 54 82 51 83 53 84 52 85
REMARK H PARENT 38 5 27 10 18 17 10 22 22 31 34 39 34 40 35 41 35 42 61 48
REMARK H PARENT 5 61 65 68
REMARK Flexibility Score:  369.900
ROOT
ATOM      1  C   UNL     1      -3.860   2.912  -9.415  1.00  0.00     0.117 C 
ENDROOT
BRANCH   1   2
ATOM      2  N   UNL     1      -3.669   1.682  -8.646  1.00  0.00    -0.347 N 
ATOM      3  O   UNL     1      -3.657   0.210 -10.407  1.00  0.00    -0.273 OA
ATOM      4  C   UNL     1      -3.491   0.435  -9.213  1.00  0.00     0.243 C 
ATOM      5  H   UNL     1      -3.611   1.731  -7.640  1.00  0.00     0.164 HD
BRANCH   4   6
ATOM      6  C   UNL     1      -3.222  -0.688  -8.179  1.00  0.00     0.171 C 
BRANCH   6   7
ATOM      7  N   UNL     1      -3.348  -2.011  -8.812  1.00  0.00    -0.344 N 
ATOM      8  C   UNL     1      -4.250  -2.936  -8.333  1.00  0.00     0.226 C 
ATOM      9  O   UNL     1      -4.964  -2.720  -7.361  1.00  0.00    -0.275 OA
ATOM     10  H   UNL     1      -2.728  -2.251  -9.575  1.00  0.00     0.164 HD
BRANCH   8  11
ATOM     11  C   UNL     1      -4.300  -4.230  -9.126  1.00  0.00     0.109 C 
ATOM     12  C   UNL     1      -4.340  -3.928 -10.624  1.00  0.00     0.021 C 
BRANCH  11  13
ATOM     13  C   UNL     1      -3.151  -5.158  -8.682  1.00  0.00     0.204 C 
BRANCH  13  14
ATOM     14  N   UNL     1      -2.816  -4.983  -7.265  1.00  0.00    -0.340 N 
ATOM     15  C   UNL     1      -1.637  -5.434  -6.714  1.00  0.00     0.243 C 
ATOM     16  O   UNL     1      -0.753  -5.962  -7.386  1.00  0.00    -0.273 OA
ATOM     17  H   UNL     1      -3.562  -4.692  -6.628  1.00  0.00     0.164 HD
BRANCH  15  18
ATOM     18  C   UNL     1      -1.594  -5.325  -5.170  1.00  0.00     0.171 C 
BRANCH  18  19
ATOM     19  N   UNL     1      -0.183  -5.297  -4.791  1.00  0.00    -0.343 N 
ATOM     20  C   UNL     1       0.314  -6.090  -3.774  1.00  0.00     0.242 CG0
ATOM     21  O   UNL     1      -0.428  -6.754  -3.055  1.00  0.00    -0.273 OA
ATOM     22  H   UNL     1       0.452  -4.677  -5.280  1.00  0.00     0.164 HD
ATOM     23  G   UNL     1       1.840  -5.983  -3.571  1.00  0.00     0.000 G0
ENDBRANCH  18  19
BRANCH  18  24
ATOM     24  C   UNL     1      -2.328  -4.064  -4.696  1.00  0.00     0.038 C 
BRANCH  24  25
ATOM     25  C   UNL     1      -2.378  -3.886  -3.163  1.00  0.00    -0.015 C 
ATOM     26  C   UNL     1      -3.106  -5.034  -2.464  1.00  0.00     0.007 C 
ATOM     27  C   UNL     1      -3.061  -2.559  -2.822  1.00  0.00     0.007 C 
ENDBRANCH  24  25
ENDBRANCH  18  24
ENDBRANCH  15  18
ENDBRANCH  13  14
BRANCH  13  28
ATOM     28  C   UNL     1      -3.457  -6.643  -8.896  1.00  0.00     0.327 C 
ATOM     29  O   UNL     1      -4.186  -7.338  -8.204  1.00  0.00    -0.250 OA
BRANCH  28  30
ATOM     30  O   UNL     1      -2.737  -7.193  -9.894  1.00  0.00    -0.480 OA
ATOM     31  H   UNL     1      -1.881  -7.422  -9.476  1.00  0.00     0.296 HD
ENDBRANCH  28  30
ENDBRANCH  13  28
ENDBRANCH  11  13
ENDBRANCH   8  11
ENDBRANCH   6   7
BRANCH   6  32
ATOM     32  C   UNL     1      -1.824  -0.498  -7.582  1.00  0.00     0.037 C 
BRANCH  32  33
ATOM     33  C   UNL     1      -1.072  -1.828  -7.434  1.00  0.00     0.026 C 
BRANCH  33  34
ATOM     34  C   UNL     1       0.014  -2.008  -8.495  1.00  0.00     0.146 C 
BRANCH  34  35
ATOM     35  N   UNL     1      -0.209  -3.271  -9.186  1.00  0.00    -0.254 NA
ATOM     36  C   UNL     1      -0.607  -3.243 -10.403  1.00  0.00     0.185 C 
ATOM     37  N   UNL     1      -0.810  -4.401 -11.051  1.00  0.00    -0.370 N 
ATOM     38  N   UNL     1      -0.868  -2.179 -11.183  1.00  0.00    -0.370 N 
ATOM     39  H   UNL     1      -0.625  -5.250 -10.533  1.00  0.00     0.159 HD
ATOM     40  H   UNL     1      -0.951  -4.465 -12.045  1.00  0.00     0.159 HD
ATOM     41  H   UNL     1      -1.309  -2.287 -12.081  1.00  0.00     0.159 HD
ATOM     42  H   UNL     1      -0.773  -1.243 -10.821  1.00  0.00     0.159 HD
ENDBRANCH  34  35
ENDBRANCH  33  34
ENDBRANCH  32  33
ENDBRANCH   6  32
ENDBRANCH   4   6
ENDBRANCH   1   2
BRANCH   1  43
ATOM     43  C   UNL     1      -5.225   2.825 -10.156  1.00  0.00     0.102 C 
ATOM     44  C   UNL     1      -5.408   3.912 -11.229  1.00  0.00     0.020 C 
BRANCH  43  45
ATOM     45  C   UNL     1      -6.386   2.732  -9.162  1.00  0.00     0.225 C 
ATOM     46  O   UNL     1      -6.704   1.688  -8.599  1.00  0.00    -0.275 OA
ATOM     47  N   UNL     1      -7.124   3.882  -9.003  1.00  0.00    -0.342 N 
ATOM     48  H   UNL     1      -6.763   4.760  -9.349  1.00  0.00     0.164 HD
BRANCH  47  49
ATOM     49  C   UNL     1      -8.242   3.950  -8.058  1.00  0.00     0.192 C 
BRANCH  49  50
ATOM     50  C   UNL     1      -9.380   4.774  -8.666  1.00  0.00     0.047 C 
BRANCH  50  51
ATOM     51  C   UNL     1      -8.909   5.637  -9.844  1.00  0.00     0.103 C 
BRANCH  51  52
ATOM     52  C   UNL     1      -9.024   7.130  -9.544  1.00  0.00     0.226 C 
ATOM     53  O   UNL     1      -8.673   7.560  -8.444  1.00  0.00    -0.275 OA
BRANCH  52  54
ATOM     54  N   UNL     1      -9.465   7.949 -10.600  1.00  0.00    -0.311 N 
ATOM     55  C   UNL     1      -8.615   8.197 -11.772  1.00  0.00     0.153 C 
BRANCH  54  56
ATOM     56  C   UNL     1     -10.733   8.554 -10.577  1.00  0.00     0.102 C 
ATOM     57  C   UNL     1     -11.595   8.492  -9.549  1.00  0.00     0.043 C 
BRANCH  56  58
ATOM     58  C   UNL     1     -11.215   9.391 -11.739  1.00  0.00     0.268 C 
ATOM     59  O   UNL     1     -11.683   8.909 -12.761  1.00  0.00    -0.268 OA
ATOM     60  N   UNL     1     -11.133  10.742 -11.503  1.00  0.00    -0.339 N 
ATOM     61  H   UNL     1     -10.722  11.061 -10.633  1.00  0.00     0.164 HD
BRANCH  60  62
ATOM     62  C   UNL     1     -11.604  11.732 -12.471  1.00  0.00     0.168 CG0
ATOM     63  C   UNL     1     -12.246  12.921 -11.768  1.00  0.00     0.041 C 
ATOM     64  G   UNL     1     -12.600  11.069 -13.444  1.00  0.00     0.000 G0
ENDBRANCH  60  62
ENDBRANCH  56  58
ENDBRANCH  54  56
ENDBRANCH  52  54
ENDBRANCH  51  52
ENDBRANCH  50  51
ENDBRANCH  49  50
BRANCH  49  65
ATOM     65  C   UNL     1      -7.817   4.578  -6.721  1.00  0.00     0.326 C 
ATOM     66  O   UNL     1      -8.149   4.182  -5.613  1.00  0.00    -0.250 OA
BRANCH  65  67
ATOM     67  O   UNL     1      -7.059   5.690  -6.836  1.00  0.00    -0.480 OA
ATOM     68  H   UNL     1      -7.436   6.298  -6.164  1.00  0.00     0.296 HD
ENDBRANCH  65  67
ENDBRANCH  49  65
ENDBRANCH  47  49
ENDBRANCH  43  45
ENDBRANCH   1  43
BRANCH   1  69
ATOM     69  C   UNL     1      -2.593   3.104 -10.229  1.00  0.00    -0.001 C 
ATOM     70  C   UNL     1      -1.323   2.961  -9.811  1.00  0.00     0.001 C 
BRANCH  70  71
ATOM     71  C   UNL     1      -0.109   3.128 -10.612  1.00  0.00    -0.055 C 
ATOM     72  C   UNL     1       0.268   2.100 -11.402  1.00  0.00    -0.018 C 
ATOM     73  C   UNL     1       0.628   4.437 -10.505  1.00  0.00     0.044 C 
BRANCH  72  74
ATOM     74  C   UNL     1       1.466   1.991 -12.334  1.00  0.00     0.038 C 
ATOM     75  C   UNL     1       0.927   1.637 -13.725  1.00  0.00     0.015 C 
BRANCH  74  76
ATOM     76  C   UNL     1       2.470   0.959 -11.740  1.00  0.00     0.128 C 
BRANCH  76  77
ATOM     77  O   UNL     1       3.021   0.149 -12.793  1.00  0.00    -0.381 OA
ATOM     78  C   UNL     1       4.428   0.285 -12.941  1.00  0.00     0.195 C 
ENDBRANCH  76  77
BRANCH  76  79
ATOM     79  C   UNL     1       3.559   1.588 -10.835  1.00  0.00     0.068 C 
BRANCH  79  80
ATOM     80  C   UNL     1       3.204   1.870  -9.395  1.00  0.00    -0.045 A 
ATOM     81  C   UNL     1       3.635   3.044  -8.763  1.00  0.00     0.004 A 
ATOM     82  C   UNL     1       2.457   0.942  -8.655  1.00  0.00     0.004 A 
ATOM     83  C   UNL     1       3.315   3.292  -7.426  1.00  0.00     0.000 A 
ATOM     84  C   UNL     1       2.138   1.190  -7.319  1.00  0.00     0.000 A 
ATOM     85  C   UNL     1       2.565   2.365  -6.705  1.00  0.00     0.000 A 
ENDBRANCH  79  80
ENDBRANCH  76  79
ENDBRANCH  74  76
ENDBRANCH  72  74
ENDBRANCH  70  71
ENDBRANCH   1  69
TORSDOF 17
ENDMDL
MODEL 33
REMARK VINA RESULT:    -5.653      3.266      6.481
REMARK INTER + INTRA:         -24.566
REMARK INTER:                 -14.533
REMARK INTRA:                 -10.033
REMARK UNBOUND:                -7.676
REMARK SMILES C=C1C(=O)N[C@H](C)C(=O)N[C@@H](CC(C)C)C(=O)N[C@@H](C(=O)O)[C@H](C)C(=O)N[C@@H](CCCN=C(N)N)C(=O)N[C@@H](/C=C/C(C)=C/[C@H](C)[C@H](Cc2ccccc2)OC)[C@H](C)C(=O)N[C@@H](C(=O)O)CCC(=O)N1C
REMARK SMILES IDX 39 1 38 2 37 3 36 4 28 6 27 7 25 8 26 9 23 11 24 12 19 13
REMARK SMILES IDX 18 14 16 15 17 16 11 18 10 19 8 20 9 21 12 24 13 25 14 26
REMARK SMILES IDX 15 27 20 28 21 29 22 30 29 32 30 33 31 34 32 35 33 36 34 37
REMARK SMILES IDX 35 38 57 43 58 44 59 45 60 46 61 47 62 49 66 50 67 51 68 52
REMARK SMILES IDX 69 53 70 54 71 55 2 56 1 57 3 58 4 59 5 60 6 62 7 63 63 65
REMARK SMILES IDX 64 66 65 67 40 69 41 70 42 71 44 72 43 73 45 74 46 75 47 76
REMARK SMILES IDX 55 77 56 78 48 79 49 80 50 81 54 82 51 83 53 84 52 85
REMARK H PARENT 38 5 27 10 18 17 10 22 22 31 34 39 34 40 35 41 35 42 61 48
REMARK H PARENT 5 61 65 68
REMARK Flexibility Score:  369.900
ROOT
ATOM      1  C   UNL     1      -2.466  -0.597  -5.533  1.00  0.00     0.117 C 
ENDROOT
BRANCH   1   2
ATOM      2  N   UNL     1      -3.172  -1.067  -6.726  1.00  0.00    -0.347 N 
ATOM      3  O   UNL     1      -1.709  -2.734  -7.318  1.00  0.00    -0.273 OA
ATOM      4  C   UNL     1      -2.782  -2.162  -7.473  1.00  0.00     0.243 C 
ATOM      5  H   UNL     1      -4.024  -0.609  -7.009  1.00  0.00     0.164 HD
BRANCH   4   6
ATOM      6  C   UNL     1      -3.751  -2.500  -8.635  1.00  0.00     0.171 C 
BRANCH   6   7
ATOM      7  N   UNL     1      -3.070  -2.352  -9.932  1.00  0.00    -0.344 N 
ATOM      8  C   UNL     1      -2.571  -1.130 -10.328  1.00  0.00     0.226 C 
ATOM      9  O   UNL     1      -2.685  -0.118  -9.646  1.00  0.00    -0.275 OA
ATOM     10  H   UNL     1      -3.017  -3.150 -10.552  1.00  0.00     0.164 HD
BRANCH   8  11
ATOM     11  C   UNL     1      -1.850  -1.152 -11.664  1.00  0.00     0.109 C 
ATOM     12  C   UNL     1      -1.930   0.222 -12.328  1.00  0.00     0.021 C 
BRANCH  11  13
ATOM     13  C   UNL     1      -0.420  -1.699 -11.476  1.00  0.00     0.204 C 
BRANCH  13  14
ATOM     14  N   UNL     1       0.404  -0.814 -10.647  1.00  0.00    -0.340 N 
ATOM     15  C   UNL     1       1.462  -0.088 -11.150  1.00  0.00     0.243 C 
ATOM     16  O   UNL     1       1.752  -0.085 -12.345  1.00  0.00    -0.273 OA
ATOM     17  H   UNL     1       0.314  -0.887  -9.630  1.00  0.00     0.164 HD
BRANCH  15  18
ATOM     18  C   UNL     1       2.310   0.607 -10.057  1.00  0.00     0.171 C 
BRANCH  18  19
ATOM     19  N   UNL     1       2.703   1.908 -10.596  1.00  0.00    -0.343 N 
ATOM     20  C   UNL     1       3.999   2.169 -10.996  1.00  0.00     0.242 CG0
ATOM     21  O   UNL     1       4.909   1.368 -10.794  1.00  0.00    -0.273 OA
ATOM     22  H   UNL     1       2.010   2.643 -10.675  1.00  0.00     0.164 HD
ATOM     23  G   UNL     1       4.206   3.568 -11.612  1.00  0.00     0.000 G0
ENDBRANCH  18  19
BRANCH  18  24
ATOM     24  C   UNL     1       1.505   0.757  -8.760  1.00  0.00     0.038 C 
BRANCH  24  25
ATOM     25  C   UNL     1       2.187   0.168  -7.507  1.00  0.00    -0.015 C 
ATOM     26  C   UNL     1       1.813  -1.295  -7.270  1.00  0.00     0.007 C 
ATOM     27  C   UNL     1       1.812   1.001  -6.278  1.00  0.00     0.007 C 
ENDBRANCH  24  25
ENDBRANCH  18  24
ENDBRANCH  15  18
ENDBRANCH  13  14
BRANCH  13  28
ATOM     28  C   UNL     1      -0.385  -3.088 -10.831  1.00  0.00     0.327 C 
ATOM     29  O   UNL     1      -0.854  -4.114 -11.299  1.00  0.00    -0.250 OA
BRANCH  28  30
ATOM     30  O   UNL     1       0.130  -3.079  -9.585  1.00  0.00    -0.480 OA
ATOM     31  H   UNL     1       1.089  -3.230  -9.720  1.00  0.00     0.296 HD
ENDBRANCH  28  30
ENDBRANCH  13  28
ENDBRANCH  11  13
ENDBRANCH   8  11
ENDBRANCH   6   7
BRANCH   6  32
ATOM     32  C   UNL     1      -4.277  -3.928  -8.453  1.00  0.00     0.037 C 
BRANCH  32  33
ATOM     33  C   UNL     1      -4.098  -4.777  -9.720  1.00  0.00     0.026 C 
BRANCH  33  34
ATOM     34  C   UNL     1      -3.272  -6.038  -9.467  1.00  0.00     0.146 C 
BRANCH  34  35
ATOM     35  N   UNL     1      -2.517  -5.866  -8.233  1.00  0.00    -0.254 NA
ATOM     36  C   UNL     1      -1.243  -5.999  -8.269  1.00  0.00     0.185 C 
ATOM     37  N   UNL     1      -0.537  -5.838  -7.139  1.00  0.00    -0.370 N 
ATOM     38  N   UNL     1      -0.453  -6.291  -9.317  1.00  0.00    -0.370 N 
ATOM     39  H   UNL     1      -1.061  -5.605  -6.305  1.00  0.00     0.159 HD
ATOM     40  H   UNL     1       0.465  -5.753  -7.117  1.00  0.00     0.159 HD
ATOM     41  H   UNL     1       0.522  -6.507  -9.191  1.00  0.00     0.159 HD
ATOM     42  H   UNL     1      -0.851  -6.455 -10.229  1.00  0.00     0.159 HD
ENDBRANCH  34  35
ENDBRANCH  33  34
ENDBRANCH  32  33
ENDBRANCH   6  32
ENDBRANCH   4   6
ENDBRANCH   1   2
BRANCH   1  43
ATOM     43  C   UNL     1      -3.433  -0.691  -4.317  1.00  0.00     0.102 C 
ATOM     44  C   UNL     1      -2.986   0.157  -3.114  1.00  0.00     0.020 C 
BRANCH  43  45
ATOM     45  C   UNL     1      -3.740  -2.150  -3.970  1.00  0.00     0.225 C 
ATOM     46  O   UNL     1      -4.725  -2.748  -4.394  1.00  0.00    -0.275 OA
ATOM     47  N   UNL     1      -2.884  -2.737  -3.066  1.00  0.00    -0.342 N 
ATOM     48  H   UNL     1      -2.004  -2.290  -2.847  1.00  0.00     0.164 HD
BRANCH  47  49
ATOM     49  C   UNL     1      -3.034  -4.139  -2.667  1.00  0.00     0.192 C 
BRANCH  49  50
ATOM     50  C   UNL     1      -2.816  -4.271  -1.157  1.00  0.00     0.047 C 
BRANCH  50  51
ATOM     51  C   UNL     1      -3.902  -3.551  -0.348  1.00  0.00     0.103 C 
BRANCH  51  52
ATOM     52  C   UNL     1      -3.331  -2.408   0.489  1.00  0.00     0.226 C 
ATOM     53  O   UNL     1      -2.848  -1.423  -0.073  1.00  0.00    -0.275 OA
BRANCH  52  54
ATOM     54  N   UNL     1      -3.465  -2.524   1.885  1.00  0.00    -0.311 N 
ATOM     55  C   UNL     1      -2.310  -2.339   2.773  1.00  0.00     0.153 C 
BRANCH  54  56
ATOM     56  C   UNL     1      -4.704  -2.815   2.480  1.00  0.00     0.102 C 
ATOM     57  C   UNL     1      -5.771  -1.999   2.471  1.00  0.00     0.043 C 
BRANCH  56  58
ATOM     58  C   UNL     1      -4.944  -4.142   3.160  1.00  0.00     0.268 C 
ATOM     59  O   UNL     1      -5.329  -5.140   2.565  1.00  0.00    -0.268 OA
ATOM     60  N   UNL     1      -4.624  -4.130   4.497  1.00  0.00    -0.339 N 
ATOM     61  H   UNL     1      -4.322  -3.259   4.917  1.00  0.00     0.164 HD
BRANCH  60  62
ATOM     62  C   UNL     1      -4.722  -5.326   5.332  1.00  0.00     0.168 CG0
ATOM     63  C   UNL     1      -6.027  -5.338   6.119  1.00  0.00     0.041 C 
ATOM     64  G   UNL     1      -3.510  -5.392   6.284  1.00  0.00     0.000 G0
ENDBRANCH  60  62
ENDBRANCH  56  58
ENDBRANCH  54  56
ENDBRANCH  52  54
ENDBRANCH  51  52
ENDBRANCH  50  51
ENDBRANCH  49  50
BRANCH  49  65
ATOM     65  C   UNL     1      -2.039  -5.048  -3.406  1.00  0.00     0.326 C 
ATOM     66  O   UNL     1      -1.971  -5.190  -4.618  1.00  0.00    -0.250 OA
BRANCH  65  67
ATOM     67  O   UNL     1      -1.230  -5.771  -2.601  1.00  0.00    -0.480 OA
ATOM     68  H   UNL     1      -0.873  -6.466  -3.195  1.00  0.00     0.296 HD
ENDBRANCH  65  67
ENDBRANCH  49  65
ENDBRANCH  47  49
ENDBRANCH  43  45
ENDBRANCH   1  43
BRANCH   1  69
ATOM     69  C   UNL     1      -1.872   0.752  -5.896  1.00  0.00    -0.001 C 
ATOM     70  C   UNL     1      -2.482   1.769  -6.529  1.00  0.00     0.001 C 
BRANCH  70  71
ATOM     71  C   UNL     1      -1.905   3.075  -6.855  1.00  0.00    -0.055 C 
ATOM     72  C   UNL     1      -0.816   3.099  -7.652  1.00  0.00    -0.018 C 
ATOM     73  C   UNL     1      -2.572   4.300  -6.285  1.00  0.00     0.044 C 
BRANCH  72  74
ATOM     74  C   UNL     1      -0.016   4.292  -8.154  1.00  0.00     0.038 C 
ATOM     75  C   UNL     1       0.071   4.169  -9.680  1.00  0.00     0.015 C 
BRANCH  74  76
ATOM     76  C   UNL     1       1.358   4.317  -7.421  1.00  0.00     0.128 C 
BRANCH  76  77
ATOM     77  O   UNL     1       2.427   4.303  -8.382  1.00  0.00    -0.381 OA
ATOM     78  C   UNL     1       3.690   3.962  -7.827  1.00  0.00     0.195 C 
ENDBRANCH  76  77
BRANCH  76  79
ATOM     79  C   UNL     1       1.498   5.461  -6.385  1.00  0.00     0.068 C 
BRANCH  79  80
ATOM     80  C   UNL     1       0.718   5.348  -5.098  1.00  0.00    -0.045 A 
ATOM     81  C   UNL     1       0.077   6.462  -4.542  1.00  0.00     0.004 A 
ATOM     82  C   UNL     1       0.646   4.121  -4.419  1.00  0.00     0.004 A 
ATOM     83  C   UNL     1      -0.631   6.353  -3.343  1.00  0.00     0.000 A 
ATOM     84  C   UNL     1      -0.061   4.013  -3.220  1.00  0.00     0.000 A 
ATOM     85  C   UNL     1      -0.701   5.128  -2.683  1.00  0.00     0.000 A 
ENDBRANCH  79  80
ENDBRANCH  76  79
ENDBRANCH  74  76
ENDBRANCH  72  74
ENDBRANCH  70  71
ENDBRANCH   1  69
TORSDOF 17
ENDMDL
MODEL 34
REMARK VINA RESULT:    -5.648      2.289     11.858
REMARK INTER + INTRA:         -24.551
REMARK INTER:                 -17.055
REMARK INTRA:                  -7.497
REMARK UNBOUND:                -7.676
REMARK SMILES C=C1C(=O)N[C@H](C)C(=O)N[C@@H](CC(C)C)C(=O)N[C@@H](C(=O)O)[C@H](C)C(=O)N[C@@H](CCCN=C(N)N)C(=O)N[C@@H](/C=C/C(C)=C/[C@H](C)[C@H](Cc2ccccc2)OC)[C@H](C)C(=O)N[C@@H](C(=O)O)CCC(=O)N1C
REMARK SMILES IDX 39 1 38 2 37 3 36 4 28 6 27 7 25 8 26 9 23 11 24 12 19 13
REMARK SMILES IDX 18 14 16 15 17 16 11 18 10 19 8 20 9 21 12 24 13 25 14 26
REMARK SMILES IDX 15 27 20 28 21 29 22 30 29 32 30 33 31 34 32 35 33 36 34 37
REMARK SMILES IDX 35 38 57 43 58 44 59 45 60 46 61 47 62 49 66 50 67 51 68 52
REMARK SMILES IDX 69 53 70 54 71 55 2 56 1 57 3 58 4 59 5 60 6 62 7 63 63 65
REMARK SMILES IDX 64 66 65 67 40 69 41 70 42 71 44 72 43 73 45 74 46 75 47 76
REMARK SMILES IDX 55 77 56 78 48 79 49 80 50 81 54 82 51 83 53 84 52 85
REMARK H PARENT 38 5 27 10 18 17 10 22 22 31 34 39 34 40 35 41 35 42 61 48
REMARK H PARENT 5 61 65 68
REMARK Flexibility Score:  369.900
ROOT
ATOM      1  C   UNL     1      -6.012  -2.455  -8.093  1.00  0.00     0.117 C 
ENDROOT
BRANCH   1   2
ATOM      2  N   UNL     1      -4.738  -2.432  -7.373  1.00  0.00    -0.347 N 
ATOM      3  O   UNL     1      -4.843  -0.266  -6.620  1.00  0.00    -0.273 OA
ATOM      4  C   UNL     1      -4.298  -1.365  -6.615  1.00  0.00     0.243 C 
ATOM      5  H   UNL     1      -4.154  -3.254  -7.377  1.00  0.00     0.164 HD
BRANCH   4   6
ATOM      6  C   UNL     1      -2.957  -1.631  -5.884  1.00  0.00     0.171 C 
BRANCH   6   7
ATOM      7  N   UNL     1      -3.011  -2.909  -5.158  1.00  0.00    -0.344 N 
ATOM      8  C   UNL     1      -2.875  -2.945  -3.787  1.00  0.00     0.226 C 
ATOM      9  O   UNL     1      -2.682  -1.937  -3.116  1.00  0.00    -0.275 OA
ATOM     10  H   UNL     1      -3.102  -3.769  -5.684  1.00  0.00     0.164 HD
BRANCH   8  11
ATOM     11  C   UNL     1      -3.009  -4.330  -3.181  1.00  0.00     0.109 C 
ATOM     12  C   UNL     1      -2.343  -5.367  -4.086  1.00  0.00     0.021 C 
BRANCH  11  13
ATOM     13  C   UNL     1      -2.496  -4.315  -1.727  1.00  0.00     0.204 C 
BRANCH  13  14
ATOM     14  N   UNL     1      -3.523  -3.860  -0.784  1.00  0.00    -0.340 N 
ATOM     15  C   UNL     1      -3.255  -2.995   0.254  1.00  0.00     0.243 C 
ATOM     16  O   UNL     1      -2.145  -2.495   0.427  1.00  0.00    -0.273 OA
ATOM     17  H   UNL     1      -4.422  -4.350  -0.779  1.00  0.00     0.164 HD
BRANCH  15  18
ATOM     18  C   UNL     1      -4.439  -2.821   1.236  1.00  0.00     0.171 C 
BRANCH  18  19
ATOM     19  N   UNL     1      -3.886  -2.253   2.464  1.00  0.00    -0.343 N 
ATOM     20  C   UNL     1      -3.602  -3.036   3.566  1.00  0.00     0.242 CG0
ATOM     21  O   UNL     1      -3.925  -4.221   3.614  1.00  0.00    -0.273 OA
ATOM     22  H   UNL     1      -3.708  -1.256   2.515  1.00  0.00     0.164 HD
ATOM     23  G   UNL     1      -2.950  -2.274   4.738  1.00  0.00     0.000 G0
ENDBRANCH  18  19
BRANCH  18  24
ATOM     24  C   UNL     1      -5.515  -1.911   0.631  1.00  0.00     0.038 C 
BRANCH  24  25
ATOM     25  C   UNL     1      -6.023  -0.799   1.574  1.00  0.00    -0.015 C 
ATOM     26  C   UNL     1      -7.528  -0.890   1.829  1.00  0.00     0.007 C 
ATOM     27  C   UNL     1      -5.683   0.572   0.983  1.00  0.00     0.007 C 
ENDBRANCH  24  25
ENDBRANCH  18  24
ENDBRANCH  15  18
ENDBRANCH  13  14
BRANCH  13  28
ATOM     28  C   UNL     1      -2.012  -5.686  -1.243  1.00  0.00     0.327 C 
ATOM     29  O   UNL     1      -0.879  -6.130  -1.346  1.00  0.00    -0.250 OA
BRANCH  28  30
ATOM     30  O   UNL     1      -3.008  -6.461  -0.768  1.00  0.00    -0.480 OA
ATOM     31  H   UNL     1      -2.784  -6.589   0.177  1.00  0.00     0.296 HD
ENDBRANCH  28  30
ENDBRANCH  13  28
ENDBRANCH  11  13
ENDBRANCH   8  11
ENDBRANCH   6   7
BRANCH   6  32
ATOM     32  C   UNL     1      -1.817  -1.632  -6.909  1.00  0.00     0.037 C 
BRANCH  32  33
ATOM     33  C   UNL     1      -1.243  -3.037  -7.136  1.00  0.00     0.026 C 
BRANCH  33  34
ATOM     34  C   UNL     1      -1.768  -3.685  -8.417  1.00  0.00     0.146 C 
BRANCH  34  35
ATOM     35  N   UNL     1      -1.664  -5.132  -8.290  1.00  0.00    -0.254 NA
ATOM     36  C   UNL     1      -2.086  -5.866  -9.251  1.00  0.00     0.185 C 
ATOM     37  N   UNL     1      -1.990  -7.200  -9.146  1.00  0.00    -0.370 N 
ATOM     38  N   UNL     1      -2.642  -5.492 -10.418  1.00  0.00    -0.370 N 
ATOM     39  H   UNL     1      -1.571  -7.560  -8.298  1.00  0.00     0.159 HD
ATOM     40  H   UNL     1      -2.134  -7.830  -9.916  1.00  0.00     0.159 HD
ATOM     41  H   UNL     1      -3.061  -6.168 -11.035  1.00  0.00     0.159 HD
ATOM     42  H   UNL     1      -2.791  -4.517 -10.626  1.00  0.00     0.159 HD
ENDBRANCH  34  35
ENDBRANCH  33  34
ENDBRANCH  32  33
ENDBRANCH   6  32
ENDBRANCH   4   6
ENDBRANCH   1   2
BRANCH   1  43
ATOM     43  C   UNL     1      -5.902  -1.508  -9.323  1.00  0.00     0.102 C 
ATOM     44  C   UNL     1      -7.188  -1.447 -10.165  1.00  0.00     0.020 C 
BRANCH  43  45
ATOM     45  C   UNL     1      -4.640  -1.808 -10.137  1.00  0.00     0.225 C 
ATOM     46  O   UNL     1      -4.403  -2.909 -10.627  1.00  0.00    -0.275 OA
ATOM     47  N   UNL     1      -3.725  -0.782 -10.212  1.00  0.00    -0.342 N 
ATOM     48  H   UNL     1      -3.998   0.151  -9.939  1.00  0.00     0.164 HD
BRANCH  47  49
ATOM     49  C   UNL     1      -2.488  -0.914 -10.987  1.00  0.00     0.192 C 
BRANCH  49  50
ATOM     50  C   UNL     1      -1.294  -0.498 -10.125  1.00  0.00     0.047 C 
BRANCH  50  51
ATOM     51  C   UNL     1      -0.018  -1.270 -10.486  1.00  0.00     0.103 C 
BRANCH  51  52
ATOM     52  C   UNL     1       0.847  -0.512 -11.491  1.00  0.00     0.226 C 
ATOM     53  O   UNL     1       0.781  -0.796 -12.689  1.00  0.00    -0.275 OA
BRANCH  52  54
ATOM     54  N   UNL     1       1.627   0.541 -10.978  1.00  0.00    -0.311 N 
ATOM     55  C   UNL     1       1.020   1.833 -10.632  1.00  0.00     0.153 C 
BRANCH  54  56
ATOM     56  C   UNL     1       3.009   0.395 -10.774  1.00  0.00     0.102 C 
ATOM     57  C   UNL     1       3.575  -0.062  -9.645  1.00  0.00     0.043 C 
BRANCH  56  58
ATOM     58  C   UNL     1       3.994   0.715 -11.874  1.00  0.00     0.268 C 
ATOM     59  O   UNL     1       4.245  -0.054 -12.792  1.00  0.00    -0.268 OA
ATOM     60  N   UNL     1       4.525   1.979 -11.773  1.00  0.00    -0.339 N 
ATOM     61  H   UNL     1       4.273   2.551 -10.975  1.00  0.00     0.164 HD
BRANCH  60  62
ATOM     62  C   UNL     1       5.451   2.516 -12.768  1.00  0.00     0.168 CG0
ATOM     63  C   UNL     1       6.636   3.202 -12.099  1.00  0.00     0.041 C 
ATOM     64  G   UNL     1       4.704   3.499 -13.693  1.00  0.00     0.000 G0
ENDBRANCH  60  62
ENDBRANCH  56  58
ENDBRANCH  54  56
ENDBRANCH  52  54
ENDBRANCH  51  52
ENDBRANCH  50  51
ENDBRANCH  49  50
BRANCH  49  65
ATOM     65  C   UNL     1      -2.522  -0.053 -12.260  1.00  0.00     0.326 C 
ATOM     66  O   UNL     1      -2.377  -0.465 -13.401  1.00  0.00    -0.250 OA
BRANCH  65  67
ATOM     67  O   UNL     1      -2.672   1.272 -12.040  1.00  0.00    -0.480 OA
ATOM     68  H   UNL     1      -1.910   1.673 -12.511  1.00  0.00     0.296 HD
ENDBRANCH  65  67
ENDBRANCH  49  65
ENDBRANCH  47  49
ENDBRANCH  43  45
ENDBRANCH   1  43
BRANCH   1  69
ATOM     69  C   UNL     1      -7.089  -2.190  -7.058  1.00  0.00    -0.001 C 
ATOM     70  C   UNL     1      -7.897  -3.091  -6.471  1.00  0.00     0.001 C 
BRANCH  70  71
ATOM     71  C   UNL     1      -8.919  -2.826  -5.456  1.00  0.00    -0.055 C 
ATOM     72  C   UNL     1      -9.245  -3.831  -4.616  1.00  0.00    -0.018 C 
ATOM     73  C   UNL     1      -9.529  -1.449  -5.416  1.00  0.00     0.044 C 
BRANCH  72  74
ATOM     74  C   UNL     1     -10.256  -3.846  -3.478  1.00  0.00     0.038 C 
ATOM     75  C   UNL     1     -11.652  -3.829  -4.112  1.00  0.00     0.015 C 
BRANCH  74  76
ATOM     76  C   UNL     1      -9.956  -2.650  -2.527  1.00  0.00     0.128 C 
BRANCH  76  77
ATOM     77  O   UNL     1     -10.937  -2.600  -1.477  1.00  0.00    -0.381 OA
ATOM     78  C   UNL     1     -10.500  -3.187  -0.259  1.00  0.00     0.195 C 
ENDBRANCH  76  77
BRANCH  76  79
ATOM     79  C   UNL     1      -8.502  -2.621  -1.991  1.00  0.00     0.068 C 
BRANCH  79  80
ATOM     80  C   UNL     1      -7.666  -1.398  -2.281  1.00  0.00    -0.045 A 
ATOM     81  C   UNL     1      -6.425  -1.508  -2.922  1.00  0.00     0.004 A 
ATOM     82  C   UNL     1      -8.110  -0.128  -1.885  1.00  0.00     0.004 A 
ATOM     83  C   UNL     1      -5.651  -0.373  -3.174  1.00  0.00     0.000 A 
ATOM     84  C   UNL     1      -7.335   1.006  -2.137  1.00  0.00     0.000 A 
ATOM     85  C   UNL     1      -6.107   0.884  -2.783  1.00  0.00     0.000 A 
ENDBRANCH  79  80
ENDBRANCH  76  79
ENDBRANCH  74  76
ENDBRANCH  72  74
ENDBRANCH  70  71
ENDBRANCH   1  69
TORSDOF 17
ENDMDL
MODEL 35
REMARK VINA RESULT:    -5.648      3.421      6.998
REMARK INTER + INTRA:         -24.549
REMARK INTER:                 -17.684
REMARK INTRA:                  -6.864
REMARK UNBOUND:                -7.676
REMARK SMILES C=C1C(=O)N[C@H](C)C(=O)N[C@@H](CC(C)C)C(=O)N[C@@H](C(=O)O)[C@H](C)C(=O)N[C@@H](CCCN=C(N)N)C(=O)N[C@@H](/C=C/C(C)=C/[C@H](C)[C@H](Cc2ccccc2)OC)[C@H](C)C(=O)N[C@@H](C(=O)O)CCC(=O)N1C
REMARK SMILES IDX 39 1 38 2 37 3 36 4 28 6 27 7 25 8 26 9 23 11 24 12 19 13
REMARK SMILES IDX 18 14 16 15 17 16 11 18 10 19 8 20 9 21 12 24 13 25 14 26
REMARK SMILES IDX 15 27 20 28 21 29 22 30 29 32 30 33 31 34 32 35 33 36 34 37
REMARK SMILES IDX 35 38 57 43 58 44 59 45 60 46 61 47 62 49 66 50 67 51 68 52
REMARK SMILES IDX 69 53 70 54 71 55 2 56 1 57 3 58 4 59 5 60 6 62 7 63 63 65
REMARK SMILES IDX 64 66 65 67 40 69 41 70 42 71 44 72 43 73 45 74 46 75 47 76
REMARK SMILES IDX 55 77 56 78 48 79 49 80 50 81 54 82 51 83 53 84 52 85
REMARK H PARENT 38 5 27 10 18 17 10 22 22 31 34 39 34 40 35 41 35 42 61 48
REMARK H PARENT 5 61 65 68
REMARK Flexibility Score:  369.900
ROOT
ATOM      1  C   UNL     1      -2.321  -0.985  -7.124  1.00  0.00     0.117 C 
ENDROOT
BRANCH   1   2
ATOM      2  N   UNL     1      -2.758  -0.891  -8.518  1.00  0.00    -0.347 N 
ATOM      3  O   UNL     1      -4.297   0.791  -8.251  1.00  0.00    -0.273 OA
ATOM      4  C   UNL     1      -3.648   0.055  -8.987  1.00  0.00     0.243 C 
ATOM      5  H   UNL     1      -2.360  -1.515  -9.203  1.00  0.00     0.164 HD
BRANCH   4   6
ATOM      6  C   UNL     1      -3.875  -0.009 -10.519  1.00  0.00     0.171 C 
BRANCH   6   7
ATOM      7  N   UNL     1      -2.738  -0.668 -11.180  1.00  0.00    -0.344 N 
ATOM      8  C   UNL     1      -1.848   0.061 -11.940  1.00  0.00     0.226 C 
ATOM      9  O   UNL     1      -1.967   1.267 -12.120  1.00  0.00    -0.275 OA
ATOM     10  H   UNL     1      -2.645  -1.673 -11.111  1.00  0.00     0.164 HD
BRANCH   8  11
ATOM     11  C   UNL     1      -0.700  -0.753 -12.511  1.00  0.00     0.109 C 
ATOM     12  C   UNL     1      -0.612  -0.549 -14.023  1.00  0.00     0.021 C 
BRANCH  11  13
ATOM     13  C   UNL     1       0.596  -0.439 -11.737  1.00  0.00     0.204 C 
BRANCH  13  14
ATOM     14  N   UNL     1       1.082   0.918 -12.002  1.00  0.00    -0.340 N 
ATOM     15  C   UNL     1       2.362   1.183 -12.438  1.00  0.00     0.243 C 
ATOM     16  O   UNL     1       3.170   0.292 -12.694  1.00  0.00    -0.273 OA
ATOM     17  H   UNL     1       0.518   1.704 -11.668  1.00  0.00     0.164 HD
BRANCH  15  18
ATOM     18  C   UNL     1       2.713   2.692 -12.449  1.00  0.00     0.171 C 
BRANCH  18  19
ATOM     19  N   UNL     1       3.485   2.933 -13.666  1.00  0.00    -0.343 N 
ATOM     20  C   UNL     1       4.681   3.626 -13.644  1.00  0.00     0.242 CG0
ATOM     21  O   UNL     1       5.083   4.185 -12.626  1.00  0.00    -0.273 OA
ATOM     22  H   UNL     1       3.136   2.590 -14.553  1.00  0.00     0.164 HD
ATOM     23  G   UNL     1       5.391   3.713 -15.011  1.00  0.00     0.000 G0
ENDBRANCH  18  19
BRANCH  18  24
ATOM     24  C   UNL     1       1.438   3.544 -12.414  1.00  0.00     0.038 C 
BRANCH  24  25
ATOM     25  C   UNL     1       1.258   4.381 -11.130  1.00  0.00    -0.015 C 
ATOM     26  C   UNL     1      -0.213   4.630 -10.795  1.00  0.00     0.007 C 
ATOM     27  C   UNL     1       1.985   5.720 -11.283  1.00  0.00     0.007 C 
ENDBRANCH  24  25
ENDBRANCH  18  24
ENDBRANCH  15  18
ENDBRANCH  13  14
BRANCH  13  28
ATOM     28  C   UNL     1       0.442  -0.578 -10.219  1.00  0.00     0.327 C 
ATOM     29  O   UNL     1       0.659  -1.583  -9.560  1.00  0.00    -0.250 OA
BRANCH  28  30
ATOM     30  O   UNL     1      -0.088   0.518  -9.640  1.00  0.00    -0.480 OA
ATOM     31  H   UNL     1      -0.548   0.980 -10.372  1.00  0.00     0.296 HD
ENDBRANCH  28  30
ENDBRANCH  13  28
ENDBRANCH  11  13
ENDBRANCH   8  11
ENDBRANCH   6   7
BRANCH   6  32
ATOM     32  C   UNL     1      -5.182  -0.757 -10.803  1.00  0.00     0.037 C 
BRANCH  32  33
ATOM     33  C   UNL     1      -4.935  -2.152 -11.394  1.00  0.00     0.026 C 
BRANCH  33  34
ATOM     34  C   UNL     1      -5.134  -3.267 -10.366  1.00  0.00     0.146 C 
BRANCH  34  35
ATOM     35  N   UNL     1      -5.578  -2.675  -9.112  1.00  0.00    -0.254 NA
ATOM     36  C   UNL     1      -6.512  -3.257  -8.455  1.00  0.00     0.185 C 
ATOM     37  N   UNL     1      -6.926  -2.724  -7.296  1.00  0.00    -0.370 N 
ATOM     38  N   UNL     1      -7.183  -4.383  -8.758  1.00  0.00    -0.370 N 
ATOM     39  H   UNL     1      -6.460  -1.877  -6.993  1.00  0.00     0.159 HD
ATOM     40  H   UNL     1      -7.521  -3.204  -6.643  1.00  0.00     0.159 HD
ATOM     41  H   UNL     1      -7.993  -4.664  -8.230  1.00  0.00     0.159 HD
ATOM     42  H   UNL     1      -6.986  -4.883  -9.611  1.00  0.00     0.159 HD
ENDBRANCH  34  35
ENDBRANCH  33  34
ENDBRANCH  32  33
ENDBRANCH   6  32
ENDBRANCH   4   6
ENDBRANCH   1   2
BRANCH   1  43
ATOM     43  C   UNL     1      -3.363  -1.828  -6.334  1.00  0.00     0.102 C 
ATOM     44  C   UNL     1      -3.708  -1.240  -4.955  1.00  0.00     0.020 C 
BRANCH  43  45
ATOM     45  C   UNL     1      -2.961  -3.306  -6.297  1.00  0.00     0.225 C 
ATOM     46  O   UNL     1      -3.063  -4.054  -7.265  1.00  0.00    -0.275 OA
ATOM     47  N   UNL     1      -2.559  -3.779  -5.069  1.00  0.00    -0.342 N 
ATOM     48  H   UNL     1      -2.336  -3.127  -4.330  1.00  0.00     0.164 HD
BRANCH  47  49
ATOM     49  C   UNL     1      -2.110  -5.163  -4.890  1.00  0.00     0.192 C 
BRANCH  49  50
ATOM     50  C   UNL     1      -2.285  -5.576  -3.427  1.00  0.00     0.047 C 
BRANCH  50  51
ATOM     51  C   UNL     1      -2.198  -4.380  -2.470  1.00  0.00     0.103 C 
BRANCH  51  52
ATOM     52  C   UNL     1      -3.148  -4.524  -1.282  1.00  0.00     0.226 C 
ATOM     53  O   UNL     1      -3.193  -5.589  -0.664  1.00  0.00    -0.275 OA
BRANCH  52  54
ATOM     54  N   UNL     1      -3.874  -3.375  -0.917  1.00  0.00    -0.311 N 
ATOM     55  C   UNL     1      -4.943  -2.851  -1.776  1.00  0.00     0.153 C 
BRANCH  54  56
ATOM     56  C   UNL     1      -3.608  -2.692   0.282  1.00  0.00     0.102 C 
ATOM     57  C   UNL     1      -2.619  -1.801   0.455  1.00  0.00     0.043 C 
BRANCH  56  58
ATOM     58  C   UNL     1      -4.484  -2.890   1.497  1.00  0.00     0.268 C 
ATOM     59  O   UNL     1      -5.393  -2.128   1.798  1.00  0.00    -0.268 OA
ATOM     60  N   UNL     1      -4.198  -4.043   2.187  1.00  0.00    -0.339 N 
ATOM     61  H   UNL     1      -3.421  -4.616   1.879  1.00  0.00     0.164 HD
BRANCH  60  62
ATOM     62  C   UNL     1      -4.966  -4.460   3.360  1.00  0.00     0.168 CG0
ATOM     63  C   UNL     1      -4.180  -4.219   4.643  1.00  0.00     0.041 C 
ATOM     64  G   UNL     1      -5.348  -5.949   3.225  1.00  0.00     0.000 G0
ENDBRANCH  60  62
ENDBRANCH  56  58
ENDBRANCH  54  56
ENDBRANCH  52  54
ENDBRANCH  51  52
ENDBRANCH  50  51
ENDBRANCH  49  50
BRANCH  49  65
ATOM     65  C   UNL     1      -0.639  -5.339  -5.296  1.00  0.00     0.326 C 
ATOM     66  O   UNL     1       0.277  -5.629  -4.540  1.00  0.00    -0.250 OA
BRANCH  65  67
ATOM     67  O   UNL     1      -0.379  -5.088  -6.598  1.00  0.00    -0.480 OA
ATOM     68  H   UNL     1      -1.098  -4.474  -6.863  1.00  0.00     0.296 HD
ENDBRANCH  65  67
ENDBRANCH  49  65
ENDBRANCH  47  49
ENDBRANCH  43  45
ENDBRANCH   1  43
BRANCH   1  69
ATOM     69  C   UNL     1      -2.034   0.435  -6.673  1.00  0.00    -0.001 C 
ATOM     70  C   UNL     1      -0.839   0.968  -6.363  1.00  0.00     0.001 C 
BRANCH  70  71
ATOM     71  C   UNL     1      -0.571   2.347  -5.950  1.00  0.00    -0.055 C 
ATOM     72  C   UNL     1      -0.134   2.551  -4.689  1.00  0.00    -0.018 C 
ATOM     73  C   UNL     1      -0.795   3.440  -6.962  1.00  0.00     0.044 C 
BRANCH  72  74
ATOM     74  C   UNL     1       0.223   3.856  -3.993  1.00  0.00     0.038 C 
ATOM     75  C   UNL     1      -0.903   4.853  -4.293  1.00  0.00     0.015 C 
BRANCH  74  76
ATOM     76  C   UNL     1       1.637   4.306  -4.467  1.00  0.00     0.128 C 
BRANCH  76  77
ATOM     77  O   UNL     1       2.268   5.098  -3.447  1.00  0.00    -0.381 OA
ATOM     78  C   UNL     1       3.676   4.918  -3.373  1.00  0.00     0.195 C 
ENDBRANCH  76  77
BRANCH  76  79
ATOM     79  C   UNL     1       2.534   3.144  -4.964  1.00  0.00     0.068 C 
BRANCH  79  80
ATOM     80  C   UNL     1       2.950   3.142  -6.415  1.00  0.00    -0.045 A 
ATOM     81  C   UNL     1       3.646   4.225  -6.967  1.00  0.00     0.004 A 
ATOM     82  C   UNL     1       2.618   2.060  -7.244  1.00  0.00     0.004 A 
ATOM     83  C   UNL     1       4.015   4.222  -8.314  1.00  0.00     0.000 A 
ATOM     84  C   UNL     1       2.986   2.058  -8.591  1.00  0.00     0.000 A 
ATOM     85  C   UNL     1       3.686   3.138  -9.125  1.00  0.00     0.000 A 
ENDBRANCH  79  80
ENDBRANCH  76  79
ENDBRANCH  74  76
ENDBRANCH  72  74
ENDBRANCH  70  71
ENDBRANCH   1  69
TORSDOF 17
ENDMDL
MODEL 36
REMARK VINA RESULT:    -5.618      4.855      8.132
REMARK INTER + INTRA:         -24.460
REMARK INTER:                 -17.331
REMARK INTRA:                  -7.129
REMARK UNBOUND:                -7.676
REMARK SMILES C=C1C(=O)N[C@H](C)C(=O)N[C@@H](CC(C)C)C(=O)N[C@@H](C(=O)O)[C@H](C)C(=O)N[C@@H](CCCN=C(N)N)C(=O)N[C@@H](/C=C/C(C)=C/[C@H](C)[C@H](Cc2ccccc2)OC)[C@H](C)C(=O)N[C@@H](C(=O)O)CCC(=O)N1C
REMARK SMILES IDX 39 1 38 2 37 3 36 4 28 6 27 7 25 8 26 9 23 11 24 12 19 13
REMARK SMILES IDX 18 14 16 15 17 16 11 18 10 19 8 20 9 21 12 24 13 25 14 26
REMARK SMILES IDX 15 27 20 28 21 29 22 30 29 32 30 33 31 34 32 35 33 36 34 37
REMARK SMILES IDX 35 38 57 43 58 44 59 45 60 46 61 47 62 49 66 50 67 51 68 52
REMARK SMILES IDX 69 53 70 54 71 55 2 56 1 57 3 58 4 59 5 60 6 62 7 63 63 65
REMARK SMILES IDX 64 66 65 67 40 69 41 70 42 71 44 72 43 73 45 74 46 75 47 76
REMARK SMILES IDX 55 77 56 78 48 79 49 80 50 81 54 82 51 83 53 84 52 85
REMARK H PARENT 38 5 27 10 18 17 10 22 22 31 34 39 34 40 35 41 35 42 61 48
REMARK H PARENT 5 61 65 68
REMARK Flexibility Score:  369.900
ROOT
ATOM      1  C   UNL     1      -4.256   0.321  -5.198  1.00  0.00     0.117 C 
ENDROOT
BRANCH   1   2
ATOM      2  N   UNL     1      -3.413  -0.418  -6.140  1.00  0.00    -0.347 N 
ATOM      3  O   UNL     1      -5.070  -1.654  -7.139  1.00  0.00    -0.273 OA
ATOM      4  C   UNL     1      -3.902  -1.282  -7.101  1.00  0.00     0.243 C 
ATOM      5  H   UNL     1      -2.416  -0.265  -6.137  1.00  0.00     0.164 HD
BRANCH   4   6
ATOM      6  C   UNL     1      -2.806  -1.869  -8.026  1.00  0.00     0.171 C 
BRANCH   6   7
ATOM      7  N   UNL     1      -2.721  -3.329  -7.861  1.00  0.00    -0.344 N 
ATOM      8  C   UNL     1      -1.497  -3.953  -7.743  1.00  0.00     0.226 C 
ATOM      9  O   UNL     1      -0.437  -3.341  -7.791  1.00  0.00    -0.275 OA
ATOM     10  H   UNL     1      -3.572  -3.876  -7.884  1.00  0.00     0.164 HD
BRANCH   8  11
ATOM     11  C   UNL     1      -1.579  -5.453  -7.524  1.00  0.00     0.109 C 
ATOM     12  C   UNL     1      -2.759  -5.788  -6.612  1.00  0.00     0.021 C 
BRANCH  11  13
ATOM     13  C   UNL     1      -1.583  -6.179  -8.884  1.00  0.00     0.204 C 
BRANCH  13  14
ATOM     14  N   UNL     1      -0.717  -7.362  -8.880  1.00  0.00    -0.340 N 
ATOM     15  C   UNL     1       0.550  -7.364  -9.422  1.00  0.00     0.243 C 
ATOM     16  O   UNL     1       1.068  -6.353  -9.895  1.00  0.00    -0.273 OA
ATOM     17  H   UNL     1      -1.137  -8.265  -8.644  1.00  0.00     0.164 HD
BRANCH  15  18
ATOM     18  C   UNL     1       1.192  -8.771  -9.491  1.00  0.00     0.171 C 
BRANCH  18  19
ATOM     19  N   UNL     1       0.319  -9.589 -10.330  1.00  0.00    -0.343 N 
ATOM     20  C   UNL     1      -0.237 -10.768  -9.872  1.00  0.00     0.242 CG0
ATOM     21  O   UNL     1       0.081 -11.251  -8.788  1.00  0.00    -0.273 OA
ATOM     22  H   UNL     1       0.118  -9.291 -11.278  1.00  0.00     0.164 HD
ATOM     23  G   UNL     1      -1.193 -11.452 -10.871  1.00  0.00     0.000 G0
ENDBRANCH  18  19
BRANCH  18  24
ATOM     24  C   UNL     1       2.612  -8.692 -10.066  1.00  0.00     0.038 C 
BRANCH  24  25
ATOM     25  C   UNL     1       3.726  -9.140  -9.097  1.00  0.00    -0.015 C 
ATOM     26  C   UNL     1       5.003  -8.313  -9.251  1.00  0.00     0.007 C 
ATOM     27  C   UNL     1       4.041 -10.621  -9.324  1.00  0.00     0.007 C 
ENDBRANCH  24  25
ENDBRANCH  18  24
ENDBRANCH  15  18
ENDBRANCH  13  14
BRANCH  13  28
ATOM     28  C   UNL     1      -2.978  -6.640  -9.318  1.00  0.00     0.327 C 
ATOM     29  O   UNL     1      -3.900  -5.919  -9.667  1.00  0.00    -0.250 OA
BRANCH  28  30
ATOM     30  O   UNL     1      -3.166  -7.967  -9.173  1.00  0.00    -0.480 OA
ATOM     31  H   UNL     1      -2.381  -8.268  -8.668  1.00  0.00     0.296 HD
ENDBRANCH  28  30
ENDBRANCH  13  28
ENDBRANCH  11  13
ENDBRANCH   8  11
ENDBRANCH   6   7
BRANCH   6  32
ATOM     32  C   UNL     1      -3.124  -1.501  -9.479  1.00  0.00     0.037 C 
BRANCH  32  33
ATOM     33  C   UNL     1      -3.607  -2.711 -10.291  1.00  0.00     0.026 C 
BRANCH  33  34
ATOM     34  C   UNL     1      -4.929  -2.442 -11.011  1.00  0.00     0.146 C 
BRANCH  34  35
ATOM     35  N   UNL     1      -5.997  -3.137 -10.305  1.00  0.00    -0.254 NA
ATOM     36  C   UNL     1      -6.891  -2.442  -9.705  1.00  0.00     0.185 C 
ATOM     37  N   UNL     1      -7.882  -3.072  -9.056  1.00  0.00    -0.370 N 
ATOM     38  N   UNL     1      -7.003  -1.105  -9.617  1.00  0.00    -0.370 N 
ATOM     39  H   UNL     1      -7.874  -4.084  -9.086  1.00  0.00     0.159 HD
ATOM     40  H   UNL     1      -8.706  -2.608  -8.714  1.00  0.00     0.159 HD
ATOM     41  H   UNL     1      -7.673  -0.678  -8.998  1.00  0.00     0.159 HD
ATOM     42  H   UNL     1      -6.317  -0.504 -10.045  1.00  0.00     0.159 HD
ENDBRANCH  34  35
ENDBRANCH  33  34
ENDBRANCH  32  33
ENDBRANCH   6  32
ENDBRANCH   4   6
ENDBRANCH   1   2
BRANCH   1  43
ATOM     43  C   UNL     1      -3.629   1.727  -4.972  1.00  0.00     0.102 C 
ATOM     44  C   UNL     1      -3.296   2.466  -6.279  1.00  0.00     0.020 C 
BRANCH  43  45
ATOM     45  C   UNL     1      -2.462   1.656  -3.983  1.00  0.00     0.225 C 
ATOM     46  O   UNL     1      -1.385   1.131  -4.253  1.00  0.00    -0.275 OA
ATOM     47  N   UNL     1      -2.724   2.141  -2.722  1.00  0.00    -0.342 N 
ATOM     48  H   UNL     1      -3.549   2.701  -2.563  1.00  0.00     0.164 HD
BRANCH  47  49
ATOM     49  C   UNL     1      -1.690   2.170  -1.683  1.00  0.00     0.192 C 
BRANCH  49  50
ATOM     50  C   UNL     1      -2.214   1.487  -0.417  1.00  0.00     0.047 C 
BRANCH  50  51
ATOM     51  C   UNL     1      -3.743   1.564  -0.304  1.00  0.00     0.103 C 
BRANCH  51  52
ATOM     52  C   UNL     1      -4.188   2.379   0.909  1.00  0.00     0.226 C 
ATOM     53  O   UNL     1      -3.453   3.262   1.354  1.00  0.00    -0.275 OA
BRANCH  52  54
ATOM     54  N   UNL     1      -5.477   2.109   1.406  1.00  0.00    -0.311 N 
ATOM     55  C   UNL     1      -5.667   1.539   2.746  1.00  0.00     0.153 C 
BRANCH  54  56
ATOM     56  C   UNL     1      -6.626   2.379   0.645  1.00  0.00     0.102 C 
ATOM     57  C   UNL     1      -7.419   1.446   0.093  1.00  0.00     0.043 C 
BRANCH  56  58
ATOM     58  C   UNL     1      -7.094   3.799   0.423  1.00  0.00     0.268 C 
ATOM     59  O   UNL     1      -6.583   4.765   0.974  1.00  0.00    -0.268 OA
ATOM     60  N   UNL     1      -8.103   3.897  -0.505  1.00  0.00    -0.339 N 
ATOM     61  H   UNL     1      -8.478   3.047  -0.908  1.00  0.00     0.164 HD
BRANCH  60  62
ATOM     62  C   UNL     1      -8.661   5.184  -0.916  1.00  0.00     0.168 CG0
ATOM     63  C   UNL     1      -8.011   5.676  -2.203  1.00  0.00     0.041 C 
ATOM     64  G   UNL     1      -8.474   6.214   0.218  1.00  0.00     0.000 G0
ENDBRANCH  60  62
ENDBRANCH  56  58
ENDBRANCH  54  56
ENDBRANCH  52  54
ENDBRANCH  51  52
ENDBRANCH  50  51
ENDBRANCH  49  50
BRANCH  49  65
ATOM     65  C   UNL     1      -1.265   3.608  -1.347  1.00  0.00     0.326 C 
ATOM     66  O   UNL     1      -0.588   3.943  -0.386  1.00  0.00    -0.250 OA
BRANCH  65  67
ATOM     67  O   UNL     1      -1.753   4.551  -2.183  1.00  0.00    -0.480 OA
ATOM     68  H   UNL     1      -1.153   5.315  -2.046  1.00  0.00     0.296 HD
ENDBRANCH  65  67
ENDBRANCH  49  65
ENDBRANCH  47  49
ENDBRANCH  43  45
ENDBRANCH   1  43
BRANCH   1  69
ATOM     69  C   UNL     1      -4.458  -0.593  -4.004  1.00  0.00    -0.001 C 
ATOM     70  C   UNL     1      -5.391  -0.485  -3.041  1.00  0.00     0.001 C 
BRANCH  70  71
ATOM     71  C   UNL     1      -5.590  -1.385  -1.904  1.00  0.00    -0.055 C 
ATOM     72  C   UNL     1      -4.499  -1.773  -1.211  1.00  0.00    -0.018 C 
ATOM     73  C   UNL     1      -7.000  -1.809  -1.582  1.00  0.00     0.044 C 
BRANCH  72  74
ATOM     74  C   UNL     1      -4.402  -2.688   0.001  1.00  0.00     0.038 C 
ATOM     75  C   UNL     1      -3.369  -2.072   0.952  1.00  0.00     0.015 C 
BRANCH  74  76
ATOM     76  C   UNL     1      -4.064  -4.129  -0.485  1.00  0.00     0.128 C 
BRANCH  76  77
ATOM     77  O   UNL     1      -5.104  -5.038  -0.086  1.00  0.00    -0.381 OA
ATOM     78  C   UNL     1      -5.542  -4.852   1.253  1.00  0.00     0.195 C 
ENDBRANCH  76  77
BRANCH  76  79
ATOM     79  C   UNL     1      -3.733  -4.222  -1.996  1.00  0.00     0.068 C 
BRANCH  79  80
ATOM     80  C   UNL     1      -2.492  -4.980  -2.402  1.00  0.00    -0.045 A 
ATOM     81  C   UNL     1      -1.966  -5.993  -1.589  1.00  0.00     0.004 A 
ATOM     82  C   UNL     1      -1.827  -4.660  -3.595  1.00  0.00     0.004 A 
ATOM     83  C   UNL     1      -0.810  -6.680  -1.966  1.00  0.00     0.000 A 
ATOM     84  C   UNL     1      -0.670  -5.347  -3.970  1.00  0.00     0.000 A 
ATOM     85  C   UNL     1      -0.163  -6.357  -3.157  1.00  0.00     0.000 A 
ENDBRANCH  79  80
ENDBRANCH  76  79
ENDBRANCH  74  76
ENDBRANCH  72  74
ENDBRANCH  70  71
ENDBRANCH   1  69
TORSDOF 17
ENDMDL
MODEL 37
REMARK VINA RESULT:    -5.613     11.079     17.578
REMARK INTER + INTRA:         -24.446
REMARK INTER:                 -18.103
REMARK INTRA:                  -6.343
REMARK UNBOUND:                -7.676
REMARK SMILES C=C1C(=O)N[C@H](C)C(=O)N[C@@H](CC(C)C)C(=O)N[C@@H](C(=O)O)[C@H](C)C(=O)N[C@@H](CCCN=C(N)N)C(=O)N[C@@H](/C=C/C(C)=C/[C@H](C)[C@H](Cc2ccccc2)OC)[C@H](C)C(=O)N[C@@H](C(=O)O)CCC(=O)N1C
REMARK SMILES IDX 39 1 38 2 37 3 36 4 28 6 27 7 25 8 26 9 23 11 24 12 19 13
REMARK SMILES IDX 18 14 16 15 17 16 11 18 10 19 8 20 9 21 12 24 13 25 14 26
REMARK SMILES IDX 15 27 20 28 21 29 22 30 29 32 30 33 31 34 32 35 33 36 34 37
REMARK SMILES IDX 35 38 57 43 58 44 59 45 60 46 61 47 62 49 66 50 67 51 68 52
REMARK SMILES IDX 69 53 70 54 71 55 2 56 1 57 3 58 4 59 5 60 6 62 7 63 63 65
REMARK SMILES IDX 64 66 65 67 40 69 41 70 42 71 44 72 43 73 45 74 46 75 47 76
REMARK SMILES IDX 55 77 56 78 48 79 49 80 50 81 54 82 51 83 53 84 52 85
REMARK H PARENT 38 5 27 10 18 17 10 22 22 31 34 39 34 40 35 41 35 42 61 48
REMARK H PARENT 5 61 65 68
REMARK Flexibility Score:  369.900
ROOT
ATOM      1  C   UNL     1       7.018   7.149  -5.333  1.00  0.00     0.117 C 
ENDROOT
BRANCH   1   2
ATOM      2  N   UNL     1       7.018   6.637  -3.963  1.00  0.00    -0.347 N 
ATOM      3  O   UNL     1       9.046   5.561  -4.032  1.00  0.00    -0.273 OA
ATOM      4  C   UNL     1       8.078   5.959  -3.391  1.00  0.00     0.243 C 
ATOM      5  H   UNL     1       6.227   6.821  -3.366  1.00  0.00     0.164 HD
BRANCH   4   6
ATOM      6  C   UNL     1       7.856   5.600  -1.900  1.00  0.00     0.171 C 
BRANCH   6   7
ATOM      7  N   UNL     1       7.309   6.755  -1.169  1.00  0.00    -0.344 N 
ATOM      8  C   UNL     1       8.139   7.591  -0.453  1.00  0.00     0.226 C 
ATOM      9  O   UNL     1       9.348   7.408  -0.370  1.00  0.00    -0.275 OA
ATOM     10  H   UNL     1       6.307   6.899  -1.159  1.00  0.00     0.164 HD
BRANCH   8  11
ATOM     11  C   UNL     1       7.431   8.766   0.198  1.00  0.00     0.109 C 
ATOM     12  C   UNL     1       5.919   8.634   0.019  1.00  0.00     0.021 C 
BRANCH  11  13
ATOM     13  C   UNL     1       7.901   8.912   1.660  1.00  0.00     0.204 C 
BRANCH  13  14
ATOM     14  N   UNL     1       9.334   8.641   1.808  1.00  0.00    -0.340 N 
ATOM     15  C   UNL     1       9.913   8.313   3.015  1.00  0.00     0.243 C 
ATOM     16  O   UNL     1       9.256   8.164   4.044  1.00  0.00    -0.273 OA
ATOM     17  H   UNL     1       9.954   8.894   1.033  1.00  0.00     0.164 HD
BRANCH  15  18
ATOM     18  C   UNL     1      11.460   8.278   2.970  1.00  0.00     0.171 C 
BRANCH  18  19
ATOM     19  N   UNL     1      11.926   8.613   4.314  1.00  0.00    -0.343 N 
ATOM     20  C   UNL     1      12.792   9.664   4.545  1.00  0.00     0.242 CG0
ATOM     21  O   UNL     1      13.315  10.281   3.620  1.00  0.00    -0.273 OA
ATOM     22  H   UNL     1      11.612   8.057   5.102  1.00  0.00     0.164 HD
ATOM     23  G   UNL     1      13.109   9.913   6.034  1.00  0.00     0.000 G0
ENDBRANCH  18  19
BRANCH  18  24
ATOM     24  C   UNL     1      11.958   6.895   2.531  1.00  0.00     0.038 C 
BRANCH  24  25
ATOM     25  C   UNL     1      13.440   6.850   2.103  1.00  0.00    -0.015 C 
ATOM     26  C   UNL     1      13.740   7.786   0.932  1.00  0.00     0.007 C 
ATOM     27  C   UNL     1      13.824   5.416   1.727  1.00  0.00     0.007 C 
ENDBRANCH  24  25
ENDBRANCH  18  24
ENDBRANCH  15  18
ENDBRANCH  13  14
BRANCH  13  28
ATOM     28  C   UNL     1       7.640  10.305   2.241  1.00  0.00     0.327 C 
ATOM     29  O   UNL     1       6.860  10.577   3.141  1.00  0.00    -0.250 OA
BRANCH  28  30
ATOM     30  O   UNL     1       8.285  11.285   1.577  1.00  0.00    -0.480 OA
ATOM     31  H   UNL     1       9.233  11.054   1.667  1.00  0.00     0.296 HD
ENDBRANCH  28  30
ENDBRANCH  13  28
ENDBRANCH  11  13
ENDBRANCH   8  11
ENDBRANCH   6   7
BRANCH   6  32
ATOM     32  C   UNL     1       6.913   4.396  -1.806  1.00  0.00     0.037 C 
BRANCH  32  33
ATOM     33  C   UNL     1       5.527   4.787  -1.273  1.00  0.00     0.026 C 
BRANCH  33  34
ATOM     34  C   UNL     1       4.447   4.727  -2.354  1.00  0.00     0.146 C 
BRANCH  34  35
ATOM     35  N   UNL     1       3.189   5.196  -1.788  1.00  0.00    -0.254 NA
ATOM     36  C   UNL     1       2.875   6.430  -1.927  1.00  0.00     0.185 C 
ATOM     37  N   UNL     1       1.716   6.871  -1.414  1.00  0.00    -0.370 N 
ATOM     38  N   UNL     1       3.558   7.411  -2.542  1.00  0.00    -0.370 N 
ATOM     39  H   UNL     1       1.138   6.187  -0.943  1.00  0.00     0.159 HD
ATOM     40  H   UNL     1       1.320   7.770  -1.628  1.00  0.00     0.159 HD
ATOM     41  H   UNL     1       3.271   8.373  -2.464  1.00  0.00     0.159 HD
ATOM     42  H   UNL     1       4.456   7.226  -2.961  1.00  0.00     0.159 HD
ENDBRANCH  34  35
ENDBRANCH  33  34
ENDBRANCH  32  33
ENDBRANCH   6  32
ENDBRANCH   4   6
ENDBRANCH   1   2
BRANCH   1  43
ATOM     43  C   UNL     1       7.773   8.510  -5.353  1.00  0.00     0.102 C 
ATOM     44  C   UNL     1       6.842   9.724  -5.510  1.00  0.00     0.020 C 
BRANCH  43  45
ATOM     45  C   UNL     1       8.931   8.482  -6.355  1.00  0.00     0.225 C 
ATOM     46  O   UNL     1       9.531   9.491  -6.715  1.00  0.00    -0.275 OA
ATOM     47  N   UNL     1       9.205   7.252  -6.909  1.00  0.00    -0.342 N 
ATOM     48  H   UNL     1       8.812   6.419  -6.496  1.00  0.00     0.164 HD
BRANCH  47  49
ATOM     49  C   UNL     1      10.310   7.068  -7.856  1.00  0.00     0.192 C 
BRANCH  49  50
ATOM     50  C   UNL     1       9.807   6.318  -9.092  1.00  0.00     0.047 C 
BRANCH  50  51
ATOM     51  C   UNL     1       8.368   5.813  -8.921  1.00  0.00     0.103 C 
BRANCH  51  52
ATOM     52  C   UNL     1       7.779   5.304 -10.236  1.00  0.00     0.226 C 
ATOM     53  O   UNL     1       8.511   5.162 -11.217  1.00  0.00    -0.275 OA
BRANCH  52  54
ATOM     54  N   UNL     1       6.417   4.952 -10.217  1.00  0.00    -0.311 N 
ATOM     55  C   UNL     1       5.498   5.535  -9.231  1.00  0.00     0.153 C 
BRANCH  54  56
ATOM     56  C   UNL     1       5.884   4.037 -11.141  1.00  0.00     0.102 C 
ATOM     57  C   UNL     1       5.940   2.701 -11.019  1.00  0.00     0.043 C 
BRANCH  56  58
ATOM     58  C   UNL     1       5.142   4.517 -12.366  1.00  0.00     0.268 C 
ATOM     59  O   UNL     1       5.701   4.821 -13.411  1.00  0.00    -0.268 OA
ATOM     60  N   UNL     1       3.777   4.511 -12.207  1.00  0.00    -0.339 N 
ATOM     61  H   UNL     1       3.392   4.255 -11.306  1.00  0.00     0.164 HD
BRANCH  60  62
ATOM     62  C   UNL     1       2.865   4.879 -13.289  1.00  0.00     0.168 CG0
ATOM     63  C   UNL     1       2.438   6.337 -13.174  1.00  0.00     0.041 C 
ATOM     64  G   UNL     1       1.636   3.948 -13.269  1.00  0.00     0.000 G0
ENDBRANCH  60  62
ENDBRANCH  56  58
ENDBRANCH  54  56
ENDBRANCH  52  54
ENDBRANCH  51  52
ENDBRANCH  50  51
ENDBRANCH  49  50
BRANCH  49  65
ATOM     65  C   UNL     1      11.472   6.286  -7.225  1.00  0.00     0.326 C 
ATOM     66  O   UNL     1      11.365   5.423  -6.366  1.00  0.00    -0.250 OA
BRANCH  65  67
ATOM     67  O   UNL     1      12.700   6.661  -7.648  1.00  0.00    -0.480 OA
ATOM     68  H   UNL     1      12.674   7.641  -7.595  1.00  0.00     0.296 HD
ENDBRANCH  65  67
ENDBRANCH  49  65
ENDBRANCH  47  49
ENDBRANCH  43  45
ENDBRANCH   1  43
BRANCH   1  69
ATOM     69  C   UNL     1       5.575   7.104  -5.803  1.00  0.00    -0.001 C 
ATOM     70  C   UNL     1       4.683   6.117  -5.607  1.00  0.00     0.001 C 
BRANCH  70  71
ATOM     71  C   UNL     1       3.287   6.094  -6.047  1.00  0.00    -0.055 C 
ATOM     72  C   UNL     1       2.553   5.000  -5.750  1.00  0.00    -0.018 C 
ATOM     73  C   UNL     1       2.765   7.295  -6.791  1.00  0.00     0.044 C 
BRANCH  72  74
ATOM     74  C   UNL     1       1.096   4.701  -6.071  1.00  0.00     0.038 C 
ATOM     75  C   UNL     1       0.331   4.698  -4.742  1.00  0.00     0.015 C 
BRANCH  74  76
ATOM     76  C   UNL     1       1.022   3.367  -6.870  1.00  0.00     0.128 C 
BRANCH  76  77
ATOM     77  O   UNL     1       0.204   3.539  -8.039  1.00  0.00    -0.381 OA
ATOM     78  C   UNL     1       0.790   4.374  -9.028  1.00  0.00     0.195 C 
ENDBRANCH  76  77
BRANCH  76  79
ATOM     79  C   UNL     1       2.406   2.750  -7.193  1.00  0.00     0.068 C 
BRANCH  79  80
ATOM     80  C   UNL     1       2.441   1.355  -7.769  1.00  0.00    -0.045 A 
ATOM     81  C   UNL     1       3.070   1.095  -8.994  1.00  0.00     0.004 A 
ATOM     82  C   UNL     1       1.815   0.295  -7.095  1.00  0.00     0.004 A 
ATOM     83  C   UNL     1       3.086  -0.195  -9.527  1.00  0.00     0.000 A 
ATOM     84  C   UNL     1       1.831  -0.995  -7.630  1.00  0.00     0.000 A 
ATOM     85  C   UNL     1       2.467  -1.240  -8.845  1.00  0.00     0.000 A 
ENDBRANCH  79  80
ENDBRANCH  76  79
ENDBRANCH  74  76
ENDBRANCH  72  74
ENDBRANCH  70  71
ENDBRANCH   1  69
TORSDOF 17
ENDMDL
MODEL 38
REMARK VINA RESULT:    -5.604      3.329     12.496
REMARK INTER + INTRA:         -24.418
REMARK INTER:                 -16.505
REMARK INTRA:                  -7.913
REMARK UNBOUND:                -7.676
REMARK SMILES C=C1C(=O)N[C@H](C)C(=O)N[C@@H](CC(C)C)C(=O)N[C@@H](C(=O)O)[C@H](C)C(=O)N[C@@H](CCCN=C(N)N)C(=O)N[C@@H](/C=C/C(C)=C/[C@H](C)[C@H](Cc2ccccc2)OC)[C@H](C)C(=O)N[C@@H](C(=O)O)CCC(=O)N1C
REMARK SMILES IDX 39 1 38 2 37 3 36 4 28 6 27 7 25 8 26 9 23 11 24 12 19 13
REMARK SMILES IDX 18 14 16 15 17 16 11 18 10 19 8 20 9 21 12 24 13 25 14 26
REMARK SMILES IDX 15 27 20 28 21 29 22 30 29 32 30 33 31 34 32 35 33 36 34 37
REMARK SMILES IDX 35 38 57 43 58 44 59 45 60 46 61 47 62 49 66 50 67 51 68 52
REMARK SMILES IDX 69 53 70 54 71 55 2 56 1 57 3 58 4 59 5 60 6 62 7 63 63 65
REMARK SMILES IDX 64 66 65 67 40 69 41 70 42 71 44 72 43 73 45 74 46 75 47 76
REMARK SMILES IDX 55 77 56 78 48 79 49 80 50 81 54 82 51 83 53 84 52 85
REMARK H PARENT 38 5 27 10 18 17 10 22 22 31 34 39 34 40 35 41 35 42 61 48
REMARK H PARENT 5 61 65 68
REMARK Flexibility Score:  369.900
ROOT
ATOM      1  C   UNL     1      -3.814   0.039  -5.073  1.00  0.00     0.117 C 
ENDROOT
BRANCH   1   2
ATOM      2  N   UNL     1      -3.944  -0.250  -3.645  1.00  0.00    -0.347 N 
ATOM      3  O   UNL     1      -2.315   1.179  -2.887  1.00  0.00    -0.273 OA
ATOM      4  C   UNL     1      -3.244   0.413  -2.655  1.00  0.00     0.243 C 
ATOM      5  H   UNL     1      -4.616  -0.936  -3.338  1.00  0.00     0.164 HD
BRANCH   4   6
ATOM      6  C   UNL     1      -3.631  -0.023  -1.219  1.00  0.00     0.171 C 
BRANCH   6   7
ATOM      7  N   UNL     1      -4.706   0.833  -0.693  1.00  0.00    -0.344 N 
ATOM      8  C   UNL     1      -4.484   1.654   0.391  1.00  0.00     0.226 C 
ATOM      9  O   UNL     1      -3.409   1.698   0.976  1.00  0.00    -0.275 OA
ATOM     10  H   UNL     1      -5.628   0.774  -1.109  1.00  0.00     0.164 HD
BRANCH   8  11
ATOM     11  C   UNL     1      -5.674   2.514   0.778  1.00  0.00     0.109 C 
ATOM     12  C   UNL     1      -6.796   2.352  -0.247  1.00  0.00     0.021 C 
BRANCH  11  13
ATOM     13  C   UNL     1      -6.080   2.217   2.236  1.00  0.00     0.204 C 
BRANCH  13  14
ATOM     14  N   UNL     1      -5.913   0.801   2.577  1.00  0.00    -0.340 N 
ATOM     15  C   UNL     1      -6.959  -0.000   2.979  1.00  0.00     0.243 C 
ATOM     16  O   UNL     1      -8.121   0.402   3.020  1.00  0.00    -0.273 OA
ATOM     17  H   UNL     1      -4.961   0.448   2.709  1.00  0.00     0.164 HD
BRANCH  15  18
ATOM     18  C   UNL     1      -6.513  -1.394   3.485  1.00  0.00     0.171 C 
BRANCH  18  19
ATOM     19  N   UNL     1      -7.642  -2.298   3.273  1.00  0.00    -0.343 N 
ATOM     20  C   UNL     1      -8.046  -3.198   4.240  1.00  0.00     0.242 CG0
ATOM     21  O   UNL     1      -7.396  -3.373   5.268  1.00  0.00    -0.273 OA
ATOM     22  H   UNL     1      -8.141  -2.272   2.391  1.00  0.00     0.164 HD
ATOM     23  G   UNL     1      -9.303  -4.011   3.867  1.00  0.00     0.000 G0
ENDBRANCH  18  19
BRANCH  18  24
ATOM     24  C   UNL     1      -5.264  -1.869   2.732  1.00  0.00     0.038 C 
BRANCH  24  25
ATOM     25  C   UNL     1      -4.104  -2.336   3.637  1.00  0.00    -0.015 C 
ATOM     26  C   UNL     1      -2.734  -1.964   3.071  1.00  0.00     0.007 C 
ATOM     27  C   UNL     1      -4.185  -3.851   3.837  1.00  0.00     0.007 C 
ENDBRANCH  24  25
ENDBRANCH  18  24
ENDBRANCH  15  18
ENDBRANCH  13  14
BRANCH  13  28
ATOM     28  C   UNL     1      -5.282   3.028   3.262  1.00  0.00     0.327 C 
ATOM     29  O   UNL     1      -5.309   2.886   4.474  1.00  0.00    -0.250 OA
BRANCH  28  30
ATOM     30  O   UNL     1      -4.591   4.046   2.709  1.00  0.00    -0.480 OA
ATOM     31  H   UNL     1      -4.321   4.597   3.473  1.00  0.00     0.296 HD
ENDBRANCH  28  30
ENDBRANCH  13  28
ENDBRANCH  11  13
ENDBRANCH   8  11
ENDBRANCH   6   7
BRANCH   6  32
ATOM     32  C   UNL     1      -4.062  -1.494  -1.239  1.00  0.00     0.037 C 
BRANCH  32  33
ATOM     33  C   UNL     1      -3.118  -2.386  -0.421  1.00  0.00     0.026 C 
BRANCH  33  34
ATOM     34  C   UNL     1      -3.331  -3.874  -0.700  1.00  0.00     0.146 C 
BRANCH  34  35
ATOM     35  N   UNL     1      -2.048  -4.477  -1.034  1.00  0.00    -0.254 NA
ATOM     36  C   UNL     1      -2.028  -5.476  -1.835  1.00  0.00     0.185 C 
ATOM     37  N   UNL     1      -0.851  -6.037  -2.153  1.00  0.00    -0.370 N 
ATOM     38  N   UNL     1      -3.057  -6.090  -2.446  1.00  0.00    -0.370 N 
ATOM     39  H   UNL     1      -0.025  -5.623  -1.740  1.00  0.00     0.159 HD
ATOM     40  H   UNL     1      -0.734  -6.701  -2.899  1.00  0.00     0.159 HD
ATOM     41  H   UNL     1      -2.927  -6.955  -2.945  1.00  0.00     0.159 HD
ATOM     42  H   UNL     1      -4.004  -5.784  -2.286  1.00  0.00     0.159 HD
ENDBRANCH  34  35
ENDBRANCH  33  34
ENDBRANCH  32  33
ENDBRANCH   6  32
ENDBRANCH   4   6
ENDBRANCH   1   2
BRANCH   1  43
ATOM     43  C   UNL     1      -4.980   0.977  -5.498  1.00  0.00     0.102 C 
ATOM     44  C   UNL     1      -6.299   0.686  -4.761  1.00  0.00     0.020 C 
BRANCH  43  45
ATOM     45  C   UNL     1      -5.119   1.028  -7.022  1.00  0.00     0.225 C 
ATOM     46  O   UNL     1      -6.165   0.768  -7.610  1.00  0.00    -0.275 OA
ATOM     47  N   UNL     1      -3.960   1.297  -7.713  1.00  0.00    -0.342 N 
ATOM     48  H   UNL     1      -3.154   1.656  -7.220  1.00  0.00     0.164 HD
BRANCH  47  49
ATOM     49  C   UNL     1      -3.948   1.413  -9.175  1.00  0.00     0.192 C 
BRANCH  49  50
ATOM     50  C   UNL     1      -2.572   1.010  -9.712  1.00  0.00     0.047 C 
BRANCH  50  51
ATOM     51  C   UNL     1      -1.987  -0.198  -8.967  1.00  0.00     0.103 C 
BRANCH  51  52
ATOM     52  C   UNL     1      -0.730  -0.736  -9.647  1.00  0.00     0.226 C 
ATOM     53  O   UNL     1      -0.765  -1.042 -10.841  1.00  0.00    -0.275 OA
BRANCH  52  54
ATOM     54  N   UNL     1       0.437  -0.779  -8.863  1.00  0.00    -0.311 N 
ATOM     55  C   UNL     1       0.765  -1.964  -8.059  1.00  0.00     0.153 C 
BRANCH  54  56
ATOM     56  C   UNL     1       1.333   0.302  -8.824  1.00  0.00     0.102 C 
ATOM     57  C   UNL     1       1.678   0.974  -7.713  1.00  0.00     0.043 C 
BRANCH  56  58
ATOM     58  C   UNL     1       2.033   0.775 -10.076  1.00  0.00     0.268 C 
ATOM     59  O   UNL     1       1.631   1.709 -10.756  1.00  0.00    -0.268 OA
ATOM     60  N   UNL     1       3.199   0.093 -10.333  1.00  0.00    -0.339 N 
ATOM     61  H   UNL     1       3.457  -0.676  -9.727  1.00  0.00     0.164 HD
BRANCH  60  62
ATOM     62  C   UNL     1       4.066   0.430 -11.461  1.00  0.00     0.168 CG0
ATOM     63  C   UNL     1       5.204   1.343 -11.023  1.00  0.00     0.041 C 
ATOM     64  G   UNL     1       3.230   1.095 -12.575  1.00  0.00     0.000 G0
ENDBRANCH  60  62
ENDBRANCH  56  58
ENDBRANCH  54  56
ENDBRANCH  52  54
ENDBRANCH  51  52
ENDBRANCH  50  51
ENDBRANCH  49  50
BRANCH  49  65
ATOM     65  C   UNL     1      -4.275   2.842  -9.633  1.00  0.00     0.326 C 
ATOM     66  O   UNL     1      -3.460   3.736  -9.811  1.00  0.00    -0.250 OA
BRANCH  65  67
ATOM     67  O   UNL     1      -5.594   3.098  -9.785  1.00  0.00    -0.480 OA
ATOM     68  H   UNL     1      -5.906   2.367 -10.360  1.00  0.00     0.296 HD
ENDBRANCH  65  67
ENDBRANCH  49  65
ENDBRANCH  47  49
ENDBRANCH  43  45
ENDBRANCH   1  43
BRANCH   1  69
ATOM     69  C   UNL     1      -3.665  -1.304  -5.765  1.00  0.00    -0.001 C 
ATOM     70  C   UNL     1      -2.585  -2.106  -5.768  1.00  0.00     0.001 C 
BRANCH  70  71
ATOM     71  C   UNL     1      -2.460  -3.410  -6.422  1.00  0.00    -0.055 C 
ATOM     72  C   UNL     1      -2.791  -3.492  -7.728  1.00  0.00    -0.018 C 
ATOM     73  C   UNL     1      -1.963  -4.566  -5.593  1.00  0.00     0.044 C 
BRANCH  72  74
ATOM     74  C   UNL     1      -2.759  -4.698  -8.656  1.00  0.00     0.038 C 
ATOM     75  C   UNL     1      -1.574  -4.505  -9.609  1.00  0.00     0.015 C 
BRANCH  74  76
ATOM     76  C   UNL     1      -4.144  -4.829  -9.355  1.00  0.00     0.128 C 
BRANCH  76  77
ATOM     77  O   UNL     1      -4.676  -6.149  -9.147  1.00  0.00    -0.381 OA
ATOM     78  C   UNL     1      -3.811  -7.003  -8.411  1.00  0.00     0.195 C 
ENDBRANCH  76  77
BRANCH  76  79
ATOM     79  C   UNL     1      -5.149  -3.712  -8.976  1.00  0.00     0.068 C 
BRANCH  79  80
ATOM     80  C   UNL     1      -5.336  -2.571  -9.946  1.00  0.00    -0.045 A 
ATOM     81  C   UNL     1      -4.367  -2.281 -10.916  1.00  0.00     0.004 A 
ATOM     82  C   UNL     1      -6.478  -1.759  -9.872  1.00  0.00     0.004 A 
ATOM     83  C   UNL     1      -4.541  -1.215 -11.801  1.00  0.00     0.000 A 
ATOM     84  C   UNL     1      -6.651  -0.693 -10.757  1.00  0.00     0.000 A 
ATOM     85  C   UNL     1      -5.683  -0.422 -11.722  1.00  0.00     0.000 A 
ENDBRANCH  79  80
ENDBRANCH  76  79
ENDBRANCH  74  76
ENDBRANCH  72  74
ENDBRANCH  70  71
ENDBRANCH   1  69
TORSDOF 17
ENDMDL
MODEL 39
REMARK VINA RESULT:    -5.595      2.160      3.268
REMARK INTER + INTRA:         -24.391
REMARK INTER:                 -17.235
REMARK INTRA:                  -7.155
REMARK UNBOUND:                -7.676
REMARK SMILES C=C1C(=O)N[C@H](C)C(=O)N[C@@H](CC(C)C)C(=O)N[C@@H](C(=O)O)[C@H](C)C(=O)N[C@@H](CCCN=C(N)N)C(=O)N[C@@H](/C=C/C(C)=C/[C@H](C)[C@H](Cc2ccccc2)OC)[C@H](C)C(=O)N[C@@H](C(=O)O)CCC(=O)N1C
REMARK SMILES IDX 39 1 38 2 37 3 36 4 28 6 27 7 25 8 26 9 23 11 24 12 19 13
REMARK SMILES IDX 18 14 16 15 17 16 11 18 10 19 8 20 9 21 12 24 13 25 14 26
REMARK SMILES IDX 15 27 20 28 21 29 22 30 29 32 30 33 31 34 32 35 33 36 34 37
REMARK SMILES IDX 35 38 57 43 58 44 59 45 60 46 61 47 62 49 66 50 67 51 68 52
REMARK SMILES IDX 69 53 70 54 71 55 2 56 1 57 3 58 4 59 5 60 6 62 7 63 63 65
REMARK SMILES IDX 64 66 65 67 40 69 41 70 42 71 44 72 43 73 45 74 46 75 47 76
REMARK SMILES IDX 55 77 56 78 48 79 49 80 50 81 54 82 51 83 53 84 52 85
REMARK H PARENT 38 5 27 10 18 17 10 22 22 31 34 39 34 40 35 41 35 42 61 48
REMARK H PARENT 5 61 65 68
REMARK Flexibility Score:  369.900
ROOT
ATOM      1  C   UNL     1      -3.301  -2.791  -3.025  1.00  0.00     0.117 C 
ENDROOT
BRANCH   1   2
ATOM      2  N   UNL     1      -3.278  -3.376  -4.366  1.00  0.00    -0.347 N 
ATOM      3  O   UNL     1      -3.232  -1.416  -5.561  1.00  0.00    -0.273 OA
ATOM      4  C   UNL     1      -3.153  -2.640  -5.529  1.00  0.00     0.243 C 
ATOM      5  H   UNL     1      -3.305  -4.379  -4.469  1.00  0.00     0.164 HD
BRANCH   4   6
ATOM      6  C   UNL     1      -3.068  -3.508  -6.810  1.00  0.00     0.171 C 
BRANCH   6   7
ATOM      7  N   UNL     1      -3.218  -2.670  -8.010  1.00  0.00    -0.344 N 
ATOM      8  C   UNL     1      -4.246  -2.894  -8.900  1.00  0.00     0.226 C 
ATOM      9  O   UNL     1      -5.059  -3.798  -8.754  1.00  0.00    -0.275 OA
ATOM     10  H   UNL     1      -2.525  -1.956  -8.199  1.00  0.00     0.164 HD
BRANCH   8  11
ATOM     11  C   UNL     1      -4.297  -1.912 -10.057  1.00  0.00     0.109 C 
ATOM     12  C   UNL     1      -5.749  -1.610 -10.427  1.00  0.00     0.021 C 
BRANCH  11  13
ATOM     13  C   UNL     1      -3.441  -0.673  -9.727  1.00  0.00     0.204 C 
BRANCH  13  14
ATOM     14  N   UNL     1      -2.783  -0.124 -10.917  1.00  0.00    -0.340 N 
ATOM     15  C   UNL     1      -1.413  -0.072 -11.058  1.00  0.00     0.243 C 
ATOM     16  O   UNL     1      -0.645  -0.538 -10.219  1.00  0.00    -0.273 OA
ATOM     17  H   UNL     1      -3.353   0.413 -11.577  1.00  0.00     0.164 HD
BRANCH  15  18
ATOM     18  C   UNL     1      -0.949   0.734 -12.296  1.00  0.00     0.171 C 
BRANCH  18  19
ATOM     19  N   UNL     1      -0.875  -0.212 -13.408  1.00  0.00    -0.343 N 
ATOM     20  C   UNL     1       0.314  -0.814 -13.775  1.00  0.00     0.242 CG0
ATOM     21  O   UNL     1       1.385  -0.482 -13.272  1.00  0.00    -0.273 OA
ATOM     22  H   UNL     1      -1.715  -0.432 -13.931  1.00  0.00     0.164 HD
ATOM     23  G   UNL     1       0.181  -1.841 -14.918  1.00  0.00     0.000 G0
ENDBRANCH  18  19
BRANCH  18  24
ATOM     24  C   UNL     1      -1.926   1.878 -12.596  1.00  0.00     0.038 C 
BRANCH  24  25
ATOM     25  C   UNL     1      -1.292   3.285 -12.594  1.00  0.00    -0.015 C 
ATOM     26  C   UNL     1      -0.809   3.711 -13.980  1.00  0.00     0.007 C 
ATOM     27  C   UNL     1      -0.121   3.320 -11.607  1.00  0.00     0.007 C 
ENDBRANCH  24  25
ENDBRANCH  18  24
ENDBRANCH  15  18
ENDBRANCH  13  14
BRANCH  13  28
ATOM     28  C   UNL     1      -4.244   0.464  -9.088  1.00  0.00     0.327 C 
ATOM     29  O   UNL     1      -4.704   1.437  -9.666  1.00  0.00    -0.250 OA
BRANCH  28  30
ATOM     30  O   UNL     1      -4.319   0.369  -7.745  1.00  0.00    -0.480 OA
ATOM     31  H   UNL     1      -4.649   1.246  -7.459  1.00  0.00     0.296 HD
ENDBRANCH  28  30
ENDBRANCH  13  28
ENDBRANCH  11  13
ENDBRANCH   8  11
ENDBRANCH   6   7
BRANCH   6  32
ATOM     32  C   UNL     1      -1.728  -4.252  -6.825  1.00  0.00     0.037 C 
BRANCH  32  33
ATOM     33  C   UNL     1      -0.803  -3.757  -7.946  1.00  0.00     0.026 C 
BRANCH  33  34
ATOM     34  C   UNL     1      -0.703  -4.751  -9.104  1.00  0.00     0.146 C 
BRANCH  34  35
ATOM     35  N   UNL     1      -1.910  -5.564  -9.131  1.00  0.00    -0.254 NA
ATOM     36  C   UNL     1      -1.792  -6.839  -9.149  1.00  0.00     0.185 C 
ATOM     37  N   UNL     1      -2.898  -7.599  -9.169  1.00  0.00    -0.370 N 
ATOM     38  N   UNL     1      -0.672  -7.584  -9.149  1.00  0.00    -0.370 N 
ATOM     39  H   UNL     1      -3.785  -7.110  -9.160  1.00  0.00     0.159 HD
ATOM     40  H   UNL     1      -2.895  -8.591  -9.009  1.00  0.00     0.159 HD
ATOM     41  H   UNL     1      -0.707  -8.578  -9.305  1.00  0.00     0.159 HD
ATOM     42  H   UNL     1       0.235  -7.145  -9.151  1.00  0.00     0.159 HD
ENDBRANCH  34  35
ENDBRANCH  33  34
ENDBRANCH  32  33
ENDBRANCH   6  32
ENDBRANCH   4   6
ENDBRANCH   1   2
BRANCH   1  43
ATOM     43  C   UNL     1      -2.412  -3.661  -2.090  1.00  0.00     0.102 C 
ATOM     44  C   UNL     1      -1.941  -4.973  -2.740  1.00  0.00     0.020 C 
BRANCH  43  45
ATOM     45  C   UNL     1      -3.073  -3.849  -0.721  1.00  0.00     0.225 C 
ATOM     46  O   UNL     1      -3.649  -4.881  -0.390  1.00  0.00    -0.275 OA
ATOM     47  N   UNL     1      -3.065  -2.742   0.097  1.00  0.00    -0.342 N 
ATOM     48  H   UNL     1      -2.463  -1.961  -0.124  1.00  0.00     0.164 HD
BRANCH  47  49
ATOM     49  C   UNL     1      -3.629  -2.785   1.449  1.00  0.00     0.192 C 
BRANCH  49  50
ATOM     50  C   UNL     1      -5.033  -2.175   1.441  1.00  0.00     0.047 C 
BRANCH  50  51
ATOM     51  C   UNL     1      -6.080  -3.115   2.053  1.00  0.00     0.103 C 
BRANCH  51  52
ATOM     52  C   UNL     1      -6.642  -2.571   3.365  1.00  0.00     0.226 C 
ATOM     53  O   UNL     1      -7.797  -2.143   3.402  1.00  0.00    -0.275 OA
BRANCH  52  54
ATOM     54  N   UNL     1      -5.806  -2.667   4.493  1.00  0.00    -0.311 N 
ATOM     55  C   UNL     1      -5.327  -1.462   5.183  1.00  0.00     0.153 C 
BRANCH  54  56
ATOM     56  C   UNL     1      -5.404  -3.913   5.003  1.00  0.00     0.102 C 
ATOM     57  C   UNL     1      -4.191  -4.461   4.824  1.00  0.00     0.043 C 
BRANCH  56  58
ATOM     58  C   UNL     1      -6.336  -4.735   5.862  1.00  0.00     0.268 C 
ATOM     59  O   UNL     1      -5.967  -5.705   6.511  1.00  0.00    -0.268 OA
ATOM     60  N   UNL     1      -7.619  -4.244   5.890  1.00  0.00    -0.339 N 
ATOM     61  H   UNL     1      -7.847  -3.442   5.316  1.00  0.00     0.164 HD
BRANCH  60  62
ATOM     62  C   UNL     1      -8.667  -4.852   6.709  1.00  0.00     0.168 CG0
ATOM     63  C   UNL     1      -9.590  -5.718   5.861  1.00  0.00     0.041 C 
ATOM     64  G   UNL     1      -9.466  -3.747   7.430  1.00  0.00     0.000 G0
ENDBRANCH  60  62
ENDBRANCH  56  58
ENDBRANCH  54  56
ENDBRANCH  52  54
ENDBRANCH  51  52
ENDBRANCH  50  51
ENDBRANCH  49  50
BRANCH  49  65
ATOM     65  C   UNL     1      -2.750  -2.025   2.454  1.00  0.00     0.326 C 
ATOM     66  O   UNL     1      -2.925  -0.872   2.822  1.00  0.00    -0.250 OA
BRANCH  65  67
ATOM     67  O   UNL     1      -1.675  -2.714   2.898  1.00  0.00    -0.480 OA
ATOM     68  H   UNL     1      -1.167  -2.047   3.407  1.00  0.00     0.296 HD
ENDBRANCH  65  67
ENDBRANCH  49  65
ENDBRANCH  47  49
ENDBRANCH  43  45
ENDBRANCH   1  43
BRANCH   1  69
ATOM     69  C   UNL     1      -4.764  -2.595  -2.672  1.00  0.00    -0.001 C 
ATOM     70  C   UNL     1      -5.367  -1.456  -2.292  1.00  0.00     0.001 C 
BRANCH  70  71
ATOM     71  C   UNL     1      -6.786  -1.274  -1.975  1.00  0.00    -0.055 C 
ATOM     72  C   UNL     1      -7.568  -2.374  -1.947  1.00  0.00    -0.018 C 
ATOM     73  C   UNL     1      -7.269   0.124  -1.693  1.00  0.00     0.044 C 
BRANCH  72  74
ATOM     74  C   UNL     1      -9.056  -2.490  -1.649  1.00  0.00     0.038 C 
ATOM     75  C   UNL     1      -9.229  -3.638  -0.648  1.00  0.00     0.015 C 
BRANCH  74  76
ATOM     76  C   UNL     1      -9.823  -2.673  -2.992  1.00  0.00     0.128 C 
BRANCH  76  77
ATOM     77  O   UNL     1     -11.085  -3.319  -2.752  1.00  0.00    -0.381 OA
ATOM     78  C   UNL     1     -11.401  -4.325  -3.705  1.00  0.00     0.195 C 
ENDBRANCH  76  77
BRANCH  76  79
ATOM     79  C   UNL     1      -9.964  -1.370  -3.819  1.00  0.00     0.068 C 
BRANCH  79  80
ATOM     80  C   UNL     1      -9.099  -1.214  -5.046  1.00  0.00    -0.045 A 
ATOM     81  C   UNL     1      -8.309  -0.072  -5.232  1.00  0.00     0.004 A 
ATOM     82  C   UNL     1      -9.095  -2.205  -6.039  1.00  0.00     0.004 A 
ATOM     83  C   UNL     1      -7.522   0.071  -6.377  1.00  0.00     0.000 A 
ATOM     84  C   UNL     1      -8.308  -2.061  -7.183  1.00  0.00     0.000 A 
ATOM     85  C   UNL     1      -7.521  -0.924  -7.351  1.00  0.00     0.000 A 
ENDBRANCH  79  80
ENDBRANCH  76  79
ENDBRANCH  74  76
ENDBRANCH  72  74
ENDBRANCH  70  71
ENDBRANCH   1  69
TORSDOF 17
ENDMDL
MODEL 40
REMARK VINA RESULT:    -5.573      4.185     14.194
REMARK INTER + INTRA:         -24.327
REMARK INTER:                 -18.718
REMARK INTRA:                  -5.608
REMARK UNBOUND:                -7.676
REMARK SMILES C=C1C(=O)N[C@H](C)C(=O)N[C@@H](CC(C)C)C(=O)N[C@@H](C(=O)O)[C@H](C)C(=O)N[C@@H](CCCN=C(N)N)C(=O)N[C@@H](/C=C/C(C)=C/[C@H](C)[C@H](Cc2ccccc2)OC)[C@H](C)C(=O)N[C@@H](C(=O)O)CCC(=O)N1C
REMARK SMILES IDX 39 1 38 2 37 3 36 4 28 6 27 7 25 8 26 9 23 11 24 12 19 13
REMARK SMILES IDX 18 14 16 15 17 16 11 18 10 19 8 20 9 21 12 24 13 25 14 26
REMARK SMILES IDX 15 27 20 28 21 29 22 30 29 32 30 33 31 34 32 35 33 36 34 37
REMARK SMILES IDX 35 38 57 43 58 44 59 45 60 46 61 47 62 49 66 50 67 51 68 52
REMARK SMILES IDX 69 53 70 54 71 55 2 56 1 57 3 58 4 59 5 60 6 62 7 63 63 65
REMARK SMILES IDX 64 66 65 67 40 69 41 70 42 71 44 72 43 73 45 74 46 75 47 76
REMARK SMILES IDX 55 77 56 78 48 79 49 80 50 81 54 82 51 83 53 84 52 85
REMARK H PARENT 38 5 27 10 18 17 10 22 22 31 34 39 34 40 35 41 35 42 61 48
REMARK H PARENT 5 61 65 68
REMARK Flexibility Score:  369.900
ROOT
ATOM      1  C   UNL     1      -5.744  -3.503   0.458  1.00  0.00     0.117 C 
ENDROOT
BRANCH   1   2
ATOM      2  N   UNL     1      -6.077  -3.228   1.856  1.00  0.00    -0.347 N 
ATOM      3  O   UNL     1      -4.226  -4.189   2.815  1.00  0.00    -0.273 OA
ATOM      4  C   UNL     1      -5.244  -3.514   2.921  1.00  0.00     0.243 C 
ATOM      5  H   UNL     1      -6.942  -2.757   2.075  1.00  0.00     0.164 HD
BRANCH   4   6
ATOM      6  C   UNL     1      -5.798  -3.043   4.289  1.00  0.00     0.171 C 
BRANCH   6   7
ATOM      7  N   UNL     1      -5.770  -1.574   4.378  1.00  0.00    -0.344 N 
ATOM      8  C   UNL     1      -5.141  -0.946   5.431  1.00  0.00     0.226 C 
ATOM      9  O   UNL     1      -4.604  -1.563   6.343  1.00  0.00    -0.275 OA
ATOM     10  H   UNL     1      -6.261  -1.031   3.679  1.00  0.00     0.164 HD
BRANCH   8  11
ATOM     11  C   UNL     1      -5.152   0.571   5.351  1.00  0.00     0.109 C 
ATOM     12  C   UNL     1      -6.254   1.040   4.401  1.00  0.00     0.021 C 
BRANCH  11  13
ATOM     13  C   UNL     1      -5.222   1.168   6.771  1.00  0.00     0.204 C 
BRANCH  13  14
ATOM     14  N   UNL     1      -5.881   0.263   7.717  1.00  0.00    -0.340 N 
ATOM     15  C   UNL     1      -6.776   0.699   8.671  1.00  0.00     0.243 C 
ATOM     16  O   UNL     1      -7.131   1.874   8.754  1.00  0.00    -0.273 OA
ATOM     17  H   UNL     1      -5.520  -0.691   7.801  1.00  0.00     0.164 HD
BRANCH  15  18
ATOM     18  C   UNL     1      -7.181  -0.397   9.687  1.00  0.00     0.171 C 
BRANCH  18  19
ATOM     19  N   UNL     1      -6.358  -1.567   9.390  1.00  0.00    -0.343 N 
ATOM     20  C   UNL     1      -6.827  -2.854   9.573  1.00  0.00     0.242 CG0
ATOM     21  O   UNL     1      -7.906  -3.073  10.118  1.00  0.00    -0.273 OA
ATOM     22  H   UNL     1      -5.413  -1.437   9.046  1.00  0.00     0.164 HD
ATOM     23  G   UNL     1      -5.845  -3.959   9.132  1.00  0.00     0.000 G0
ENDBRANCH  18  19
BRANCH  18  24
ATOM     24  C   UNL     1      -6.966   0.092  11.124  1.00  0.00     0.038 C 
BRANCH  24  25
ATOM     25  C   UNL     1      -8.204  -0.030  12.038  1.00  0.00    -0.015 C 
ATOM     26  C   UNL     1      -9.500  -0.208  11.247  1.00  0.00     0.007 C 
ATOM     27  C   UNL     1      -8.310   1.211  12.929  1.00  0.00     0.007 C 
ENDBRANCH  24  25
ENDBRANCH  18  24
ENDBRANCH  15  18
ENDBRANCH  13  14
BRANCH  13  28
ATOM     28  C   UNL     1      -3.846   1.508   7.351  1.00  0.00     0.327 C 
ATOM     29  O   UNL     1      -3.105   2.405   6.977  1.00  0.00    -0.250 OA
BRANCH  28  30
ATOM     30  O   UNL     1      -3.434   0.629   8.286  1.00  0.00    -0.480 OA
ATOM     31  H   UNL     1      -3.701   1.037   9.136  1.00  0.00     0.296 HD
ENDBRANCH  28  30
ENDBRANCH  13  28
ENDBRANCH  11  13
ENDBRANCH   8  11
ENDBRANCH   6   7
BRANCH   6  32
ATOM     32  C   UNL     1      -7.225  -3.575   4.465  1.00  0.00     0.037 C 
BRANCH  32  33
ATOM     33  C   UNL     1      -7.552  -3.882   5.933  1.00  0.00     0.026 C 
BRANCH  33  34
ATOM     34  C   UNL     1      -8.169  -5.268   6.117  1.00  0.00     0.146 C 
BRANCH  34  35
ATOM     35  N   UNL     1      -8.272  -5.551   7.542  1.00  0.00    -0.254 NA
ATOM     36  C   UNL     1      -9.413  -5.427   8.112  1.00  0.00     0.185 C 
ATOM     37  N   UNL     1      -9.520  -5.690   9.424  1.00  0.00    -0.370 N 
ATOM     38  N   UNL     1     -10.589  -5.054   7.577  1.00  0.00    -0.370 N 
ATOM     39  H   UNL     1      -8.677  -5.988   9.898  1.00  0.00     0.159 HD
ATOM     40  H   UNL     1     -10.400  -5.785   9.902  1.00  0.00     0.159 HD
ATOM     41  H   UNL     1     -11.387  -4.859   8.159  1.00  0.00     0.159 HD
ATOM     42  H   UNL     1     -10.653  -4.810   6.601  1.00  0.00     0.159 HD
ENDBRANCH  34  35
ENDBRANCH  33  34
ENDBRANCH  32  33
ENDBRANCH   6  32
ENDBRANCH   4   6
ENDBRANCH   1   2
BRANCH   1  43
ATOM     43  C   UNL     1      -4.796  -2.381  -0.054  1.00  0.00     0.102 C 
ATOM     44  C   UNL     1      -5.485  -1.380  -0.997  1.00  0.00     0.020 C 
BRANCH  43  45
ATOM     45  C   UNL     1      -3.499  -2.971  -0.617  1.00  0.00     0.225 C 
ATOM     46  O   UNL     1      -2.435  -2.960  -0.003  1.00  0.00    -0.275 OA
ATOM     47  N   UNL     1      -3.572  -3.440  -1.909  1.00  0.00    -0.342 N 
ATOM     48  H   UNL     1      -4.475  -3.581  -2.339  1.00  0.00     0.164 HD
BRANCH  47  49
ATOM     49  C   UNL     1      -2.419  -4.064  -2.564  1.00  0.00     0.192 C 
BRANCH  49  50
ATOM     50  C   UNL     1      -2.654  -4.120  -4.075  1.00  0.00     0.047 C 
BRANCH  50  51
ATOM     51  C   UNL     1      -1.985  -5.340  -4.724  1.00  0.00     0.103 C 
BRANCH  51  52
ATOM     52  C   UNL     1      -0.855  -4.938  -5.669  1.00  0.00     0.226 C 
ATOM     53  O   UNL     1       0.316  -5.022  -5.292  1.00  0.00    -0.275 OA
BRANCH  52  54
ATOM     54  N   UNL     1      -1.231  -4.559  -6.971  1.00  0.00    -0.311 N 
ATOM     55  C   UNL     1      -1.320  -3.142  -7.350  1.00  0.00     0.153 C 
BRANCH  54  56
ATOM     56  C   UNL     1      -1.530  -5.516  -7.955  1.00  0.00     0.102 C 
ATOM     57  C   UNL     1      -2.732  -6.088  -8.131  1.00  0.00     0.043 C 
BRANCH  56  58
ATOM     58  C   UNL     1      -0.484  -5.951  -8.955  1.00  0.00     0.268 C 
ATOM     59  O   UNL     1      -0.072  -5.228  -9.851  1.00  0.00    -0.268 OA
ATOM     60  N   UNL     1       0.000  -7.215  -8.713  1.00  0.00    -0.339 N 
ATOM     61  H   UNL     1      -0.402  -7.754  -7.956  1.00  0.00     0.164 HD
BRANCH  60  62
ATOM     62  C   UNL     1       1.063  -7.809  -9.523  1.00  0.00     0.168 CG0
ATOM     63  C   UNL     1       0.966  -9.330  -9.523  1.00  0.00     0.041 C 
ATOM     64  G   UNL     1       2.437  -7.350  -8.990  1.00  0.00     0.000 G0
ENDBRANCH  60  62
ENDBRANCH  56  58
ENDBRANCH  54  56
ENDBRANCH  52  54
ENDBRANCH  51  52
ENDBRANCH  50  51
ENDBRANCH  49  50
BRANCH  49  65
ATOM     65  C   UNL     1      -2.167  -5.484  -2.035  1.00  0.00     0.326 C 
ATOM     66  O   UNL     1      -1.138  -5.871  -1.499  1.00  0.00    -0.250 OA
BRANCH  65  67
ATOM     67  O   UNL     1      -3.176  -6.355  -2.254  1.00  0.00    -0.480 OA
ATOM     68  H   UNL     1      -3.977  -5.788  -2.242  1.00  0.00     0.296 HD
ENDBRANCH  65  67
ENDBRANCH  49  65
ENDBRANCH  47  49
ENDBRANCH  43  45
ENDBRANCH   1  43
BRANCH   1  69
ATOM     69  C   UNL     1      -7.064  -3.731  -0.256  1.00  0.00    -0.001 C 
ATOM     70  C   UNL     1      -8.030  -4.607   0.073  1.00  0.00     0.001 C 
BRANCH  70  71
ATOM     71  C   UNL     1      -9.310  -4.802  -0.611  1.00  0.00    -0.055 C 
ATOM     72  C   UNL     1      -9.298  -4.858  -1.960  1.00  0.00    -0.018 C 
ATOM     73  C   UNL     1     -10.547  -4.936   0.238  1.00  0.00     0.044 C 
BRANCH  72  74
ATOM     74  C   UNL     1     -10.458  -5.054  -2.926  1.00  0.00     0.038 C 
ATOM     75  C   UNL     1     -10.211  -6.372  -3.668  1.00  0.00     0.015 C 
BRANCH  74  76
ATOM     76  C   UNL     1     -10.564  -3.799  -3.841  1.00  0.00     0.128 C 
BRANCH  76  77
ATOM     77  O   UNL     1     -11.911  -3.296  -3.830  1.00  0.00    -0.381 OA
ATOM     78  C   UNL     1     -12.565  -3.443  -2.577  1.00  0.00     0.195 C 
ENDBRANCH  76  77
BRANCH  76  79
ATOM     79  C   UNL     1      -9.513  -2.703  -3.532  1.00  0.00     0.068 C 
BRANCH  79  80
ATOM     80  C   UNL     1      -8.428  -2.457  -4.552  1.00  0.00    -0.045 A 
ATOM     81  C   UNL     1      -7.086  -2.339  -4.165  1.00  0.00     0.004 A 
ATOM     82  C   UNL     1      -8.753  -2.314  -5.910  1.00  0.00     0.004 A 
ATOM     83  C   UNL     1      -6.090  -2.097  -5.114  1.00  0.00     0.000 A 
ATOM     84  C   UNL     1      -7.756  -2.071  -6.857  1.00  0.00     0.000 A 
ATOM     85  C   UNL     1      -6.425  -1.964  -6.459  1.00  0.00     0.000 A 
ENDBRANCH  79  80
ENDBRANCH  76  79
ENDBRANCH  74  76
ENDBRANCH  72  74
ENDBRANCH  70  71
ENDBRANCH   1  69
TORSDOF 17
ENDMDL
MODEL 41
REMARK VINA RESULT:    -5.561      4.832     13.515
REMARK INTER + INTRA:         -24.291
REMARK INTER:                 -16.674
REMARK INTRA:                  -7.617
REMARK UNBOUND:                -7.676
REMARK SMILES C=C1C(=O)N[C@H](C)C(=O)N[C@@H](CC(C)C)C(=O)N[C@@H](C(=O)O)[C@H](C)C(=O)N[C@@H](CCCN=C(N)N)C(=O)N[C@@H](/C=C/C(C)=C/[C@H](C)[C@H](Cc2ccccc2)OC)[C@H](C)C(=O)N[C@@H](C(=O)O)CCC(=O)N1C
REMARK SMILES IDX 39 1 38 2 37 3 36 4 28 6 27 7 25 8 26 9 23 11 24 12 19 13
REMARK SMILES IDX 18 14 16 15 17 16 11 18 10 19 8 20 9 21 12 24 13 25 14 26
REMARK SMILES IDX 15 27 20 28 21 29 22 30 29 32 30 33 31 34 32 35 33 36 34 37
REMARK SMILES IDX 35 38 57 43 58 44 59 45 60 46 61 47 62 49 66 50 67 51 68 52
REMARK SMILES IDX 69 53 70 54 71 55 2 56 1 57 3 58 4 59 5 60 6 62 7 63 63 65
REMARK SMILES IDX 64 66 65 67 40 69 41 70 42 71 44 72 43 73 45 74 46 75 47 76
REMARK SMILES IDX 55 77 56 78 48 79 49 80 50 81 54 82 51 83 53 84 52 85
REMARK H PARENT 38 5 27 10 18 17 10 22 22 31 34 39 34 40 35 41 35 42 61 48
REMARK H PARENT 5 61 65 68
REMARK Flexibility Score:  369.900
ROOT
ATOM      1  C   UNL     1       1.720   0.240 -11.333  1.00  0.00     0.117 C 
ENDROOT
BRANCH   1   2
ATOM      2  N   UNL     1       1.431   0.907 -10.063  1.00  0.00    -0.347 N 
ATOM      3  O   UNL     1       2.185  -0.749  -8.663  1.00  0.00    -0.273 OA
ATOM      4  C   UNL     1       1.772   0.394  -8.826  1.00  0.00     0.243 C 
ATOM      5  H   UNL     1       1.001   1.819 -10.069  1.00  0.00     0.164 HD
BRANCH   4   6
ATOM      6  C   UNL     1       1.431   1.338  -7.645  1.00  0.00     0.171 C 
BRANCH   6   7
ATOM      7  N   UNL     1      -0.002   1.673  -7.652  1.00  0.00    -0.344 N 
ATOM      8  C   UNL     1      -0.953   0.689  -7.813  1.00  0.00     0.226 C 
ATOM      9  O   UNL     1      -0.662  -0.490  -7.979  1.00  0.00    -0.275 OA
ATOM     10  H   UNL     1      -0.280   2.644  -7.585  1.00  0.00     0.164 HD
BRANCH   8  11
ATOM     11  C   UNL     1      -2.386   1.186  -7.743  1.00  0.00     0.109 C 
ATOM     12  C   UNL     1      -2.713   2.025  -8.978  1.00  0.00     0.021 C 
BRANCH  11  13
ATOM     13  C   UNL     1      -3.338  -0.001  -7.494  1.00  0.00     0.204 C 
BRANCH  13  14
ATOM     14  N   UNL     1      -2.875  -0.861  -6.401  1.00  0.00    -0.340 N 
ATOM     15  C   UNL     1      -3.261  -2.177  -6.269  1.00  0.00     0.243 C 
ATOM     16  O   UNL     1      -3.976  -2.742  -7.095  1.00  0.00    -0.273 OA
ATOM     17  H   UNL     1      -2.407  -0.417  -5.606  1.00  0.00     0.164 HD
BRANCH  15  18
ATOM     18  C   UNL     1      -2.816  -2.821  -4.932  1.00  0.00     0.171 C 
BRANCH  18  19
ATOM     19  N   UNL     1      -3.970  -2.765  -4.037  1.00  0.00    -0.343 N 
ATOM     20  C   UNL     1      -4.027  -1.881  -2.977  1.00  0.00     0.242 CG0
ATOM     21  O   UNL     1      -3.059  -1.195  -2.658  1.00  0.00    -0.273 OA
ATOM     22  H   UNL     1      -4.749  -3.395  -4.189  1.00  0.00     0.164 HD
ATOM     23  G   UNL     1      -5.355  -1.913  -2.192  1.00  0.00     0.000 G0
ENDBRANCH  18  19
BRANCH  18  24
ATOM     24  C   UNL     1      -2.348  -4.264  -5.156  1.00  0.00     0.038 C 
BRANCH  24  25
ATOM     25  C   UNL     1      -1.353  -4.790  -4.100  1.00  0.00    -0.015 C 
ATOM     26  C   UNL     1      -0.211  -5.595  -4.721  1.00  0.00     0.007 C 
ATOM     27  C   UNL     1      -2.097  -5.654  -3.078  1.00  0.00     0.007 C 
ENDBRANCH  24  25
ENDBRANCH  18  24
ENDBRANCH  15  18
ENDBRANCH  13  14
BRANCH  13  28
ATOM     28  C   UNL     1      -4.768   0.432  -7.156  1.00  0.00     0.327 C 
ATOM     29  O   UNL     1      -5.094   1.247  -6.306  1.00  0.00    -0.250 OA
BRANCH  28  30
ATOM     30  O   UNL     1      -5.706  -0.270  -7.823  1.00  0.00    -0.480 OA
ATOM     31  H   UNL     1      -6.255  -0.670  -7.118  1.00  0.00     0.296 HD
ENDBRANCH  28  30
ENDBRANCH  13  28
ENDBRANCH  11  13
ENDBRANCH   8  11
ENDBRANCH   6   7
BRANCH   6  32
ATOM     32  C   UNL     1       1.828   0.661  -6.328  1.00  0.00     0.037 C 
BRANCH  32  33
ATOM     33  C   UNL     1       2.282   1.676  -5.269  1.00  0.00     0.026 C 
BRANCH  33  34
ATOM     34  C   UNL     1       1.130   2.541  -4.756  1.00  0.00     0.146 C 
BRANCH  34  35
ATOM     35  N   UNL     1       0.022   1.673  -4.381  1.00  0.00    -0.254 NA
ATOM     36  C   UNL     1      -1.142   2.189  -4.240  1.00  0.00     0.185 C 
ATOM     37  N   UNL     1      -2.171   1.399  -3.899  1.00  0.00    -0.370 N 
ATOM     38  N   UNL     1      -1.521   3.471  -4.388  1.00  0.00    -0.370 N 
ATOM     39  H   UNL     1      -1.967   0.415  -3.778  1.00  0.00     0.159 HD
ATOM     40  H   UNL     1      -3.132   1.689  -3.939  1.00  0.00     0.159 HD
ATOM     41  H   UNL     1      -2.440   3.777  -4.113  1.00  0.00     0.159 HD
ATOM     42  H   UNL     1      -0.846   4.181  -4.629  1.00  0.00     0.159 HD
ENDBRANCH  34  35
ENDBRANCH  33  34
ENDBRANCH  32  33
ENDBRANCH   6  32
ENDBRANCH   4   6
ENDBRANCH   1   2
BRANCH   1  43
ATOM     43  C   UNL     1       2.479   1.238 -12.254  1.00  0.00     0.102 C 
ATOM     44  C   UNL     1       2.696   0.710 -13.682  1.00  0.00     0.020 C 
BRANCH  43  45
ATOM     45  C   UNL     1       3.757   1.747 -11.579  1.00  0.00     0.225 C 
ATOM     46  O   UNL     1       4.449   1.050 -10.843  1.00  0.00    -0.275 OA
ATOM     47  N   UNL     1       4.040   3.079 -11.773  1.00  0.00    -0.342 N 
ATOM     48  H   UNL     1       3.554   3.594 -12.494  1.00  0.00     0.164 HD
BRANCH  47  49
ATOM     49  C   UNL     1       5.248   3.695 -11.217  1.00  0.00     0.192 C 
BRANCH  49  50
ATOM     50  C   UNL     1       4.895   5.046 -10.590  1.00  0.00     0.047 C 
BRANCH  50  51
ATOM     51  C   UNL     1       5.187   5.083  -9.084  1.00  0.00     0.103 C 
BRANCH  51  52
ATOM     52  C   UNL     1       6.017   6.303  -8.690  1.00  0.00     0.226 C 
ATOM     53  O   UNL     1       6.074   6.647  -7.508  1.00  0.00    -0.275 OA
BRANCH  52  54
ATOM     54  N   UNL     1       6.744   6.926  -9.722  1.00  0.00    -0.311 N 
ATOM     55  C   UNL     1       6.151   8.009 -10.517  1.00  0.00     0.153 C 
BRANCH  54  56
ATOM     56  C   UNL     1       8.061   6.542 -10.025  1.00  0.00     0.102 C 
ATOM     57  C   UNL     1       8.725   5.537  -9.430  1.00  0.00     0.043 C 
BRANCH  56  58
ATOM     58  C   UNL     1       8.837   7.234 -11.121  1.00  0.00     0.268 C 
ATOM     59  O   UNL     1       9.497   8.247 -10.936  1.00  0.00    -0.268 OA
ATOM     60  N   UNL     1       8.778   6.573 -12.325  1.00  0.00    -0.339 N 
ATOM     61  H   UNL     1       8.199   5.745 -12.398  1.00  0.00     0.164 HD
BRANCH  60  62
ATOM     62  C   UNL     1       9.508   7.037 -13.504  1.00  0.00     0.168 CG0
ATOM     63  C   UNL     1      10.824   6.286 -13.662  1.00  0.00     0.041 C 
ATOM     64  G   UNL     1       9.754   8.555 -13.396  1.00  0.00     0.000 G0
ENDBRANCH  60  62
ENDBRANCH  56  58
ENDBRANCH  54  56
ENDBRANCH  52  54
ENDBRANCH  51  52
ENDBRANCH  50  51
ENDBRANCH  49  50
BRANCH  49  65
ATOM     65  C   UNL     1       6.326   3.900 -12.293  1.00  0.00     0.326 C 
ATOM     66  O   UNL     1       7.532   3.796 -12.119  1.00  0.00    -0.250 OA
BRANCH  65  67
ATOM     67  O   UNL     1       5.853   4.278 -13.501  1.00  0.00    -0.480 OA
ATOM     68  H   UNL     1       4.884   4.341 -13.360  1.00  0.00     0.296 HD
ENDBRANCH  65  67
ENDBRANCH  49  65
ENDBRANCH  47  49
ENDBRANCH  43  45
ENDBRANCH   1  43
BRANCH   1  69
ATOM     69  C   UNL     1       0.405  -0.345 -11.813  1.00  0.00    -0.001 C 
ATOM     70  C   UNL     1      -0.830   0.152 -11.620  1.00  0.00     0.001 C 
BRANCH  70  71
ATOM     71  C   UNL     1      -2.091  -0.411 -12.107  1.00  0.00    -0.055 C 
ATOM     72  C   UNL     1      -2.982  -0.841 -11.190  1.00  0.00    -0.018 C 
ATOM     73  C   UNL     1      -2.307  -0.464 -13.597  1.00  0.00     0.044 C 
BRANCH  72  74
ATOM     74  C   UNL     1      -4.357  -1.459 -11.398  1.00  0.00     0.038 C 
ATOM     75  C   UNL     1      -5.369  -0.308 -11.451  1.00  0.00     0.015 C 
BRANCH  74  76
ATOM     76  C   UNL     1      -4.614  -2.503 -10.271  1.00  0.00     0.128 C 
BRANCH  76  77
ATOM     77  O   UNL     1      -5.972  -2.405  -9.812  1.00  0.00    -0.381 OA
ATOM     78  C   UNL     1      -6.661  -3.649  -9.798  1.00  0.00     0.195 C 
ENDBRANCH  76  77
BRANCH  76  79
ATOM     79  C   UNL     1      -4.211  -3.950 -10.650  1.00  0.00     0.068 C 
BRANCH  79  80
ATOM     80  C   UNL     1      -3.026  -4.562  -9.942  1.00  0.00    -0.045 A 
ATOM     81  C   UNL     1      -3.202  -5.538  -8.952  1.00  0.00     0.004 A 
ATOM     82  C   UNL     1      -1.724  -4.140 -10.248  1.00  0.00     0.004 A 
ATOM     83  C   UNL     1      -2.101  -6.090  -8.293  1.00  0.00     0.000 A 
ATOM     84  C   UNL     1      -0.624  -4.691  -9.587  1.00  0.00     0.000 A 
ATOM     85  C   UNL     1      -0.813  -5.667  -8.611  1.00  0.00     0.000 A 
ENDBRANCH  79  80
ENDBRANCH  76  79
ENDBRANCH  74  76
ENDBRANCH  72  74
ENDBRANCH  70  71
ENDBRANCH   1  69
TORSDOF 17
ENDMDL
MODEL 42
REMARK VINA RESULT:    -5.531      3.681     13.704
REMARK INTER + INTRA:         -24.201
REMARK INTER:                 -17.299
REMARK INTRA:                  -6.902
REMARK UNBOUND:                -7.676
REMARK SMILES C=C1C(=O)N[C@H](C)C(=O)N[C@@H](CC(C)C)C(=O)N[C@@H](C(=O)O)[C@H](C)C(=O)N[C@@H](CCCN=C(N)N)C(=O)N[C@@H](/C=C/C(C)=C/[C@H](C)[C@H](Cc2ccccc2)OC)[C@H](C)C(=O)N[C@@H](C(=O)O)CCC(=O)N1C
REMARK SMILES IDX 39 1 38 2 37 3 36 4 28 6 27 7 25 8 26 9 23 11 24 12 19 13
REMARK SMILES IDX 18 14 16 15 17 16 11 18 10 19 8 20 9 21 12 24 13 25 14 26
REMARK SMILES IDX 15 27 20 28 21 29 22 30 29 32 30 33 31 34 32 35 33 36 34 37
REMARK SMILES IDX 35 38 57 43 58 44 59 45 60 46 61 47 62 49 66 50 67 51 68 52
REMARK SMILES IDX 69 53 70 54 71 55 2 56 1 57 3 58 4 59 5 60 6 62 7 63 63 65
REMARK SMILES IDX 64 66 65 67 40 69 41 70 42 71 44 72 43 73 45 74 46 75 47 76
REMARK SMILES IDX 55 77 56 78 48 79 49 80 50 81 54 82 51 83 53 84 52 85
REMARK H PARENT 38 5 27 10 18 17 10 22 22 31 34 39 34 40 35 41 35 42 61 48
REMARK H PARENT 5 61 65 68
REMARK Flexibility Score:  369.900
ROOT
ATOM      1  C   UNL     1      -4.993  -2.723  -1.361  1.00  0.00     0.117 C 
ENDROOT
BRANCH   1   2
ATOM      2  N   UNL     1      -6.034  -3.428  -0.612  1.00  0.00    -0.347 N 
ATOM      3  O   UNL     1      -4.747  -4.076   1.176  1.00  0.00    -0.273 OA
ATOM      4  C   UNL     1      -5.848  -3.971   0.644  1.00  0.00     0.243 C 
ATOM      5  H   UNL     1      -6.964  -3.490  -0.997  1.00  0.00     0.164 HD
BRANCH   4   6
ATOM      6  C   UNL     1      -7.134  -4.587   1.253  1.00  0.00     0.171 C 
BRANCH   6   7
ATOM      7  N   UNL     1      -7.359  -4.067   2.611  1.00  0.00    -0.344 N 
ATOM      8  C   UNL     1      -7.170  -4.873   3.713  1.00  0.00     0.226 C 
ATOM      9  O   UNL     1      -6.833  -6.047   3.622  1.00  0.00    -0.275 OA
ATOM     10  H   UNL     1      -7.704  -3.121   2.724  1.00  0.00     0.164 HD
BRANCH   8  11
ATOM     11  C   UNL     1      -7.391  -4.175   5.044  1.00  0.00     0.109 C 
ATOM     12  C   UNL     1      -7.248  -5.175   6.192  1.00  0.00     0.021 C 
BRANCH  11  13
ATOM     13  C   UNL     1      -6.474  -2.939   5.142  1.00  0.00     0.204 C 
BRANCH  13  14
ATOM     14  N   UNL     1      -6.397  -2.418   6.511  1.00  0.00    -0.340 N 
ATOM     15  C   UNL     1      -6.303  -1.073   6.795  1.00  0.00     0.243 C 
ATOM     16  O   UNL     1      -6.339  -0.209   5.920  1.00  0.00    -0.273 OA
ATOM     17  H   UNL     1      -6.210  -3.081   7.267  1.00  0.00     0.164 HD
BRANCH  15  18
ATOM     18  C   UNL     1      -6.023  -0.774   8.288  1.00  0.00     0.171 C 
BRANCH  18  19
ATOM     19  N   UNL     1      -6.438  -1.959   9.037  1.00  0.00    -0.343 N 
ATOM     20  C   UNL     1      -7.466  -1.916   9.959  1.00  0.00     0.242 CG0
ATOM     21  O   UNL     1      -7.990  -0.854  10.288  1.00  0.00    -0.273 OA
ATOM     22  H   UNL     1      -5.956  -2.838   8.884  1.00  0.00     0.164 HD
ATOM     23  G   UNL     1      -7.813  -3.280  10.590  1.00  0.00     0.000 G0
ENDBRANCH  18  19
BRANCH  18  24
ATOM     24  C   UNL     1      -4.538  -0.461   8.509  1.00  0.00     0.038 C 
BRANCH  24  25
ATOM     25  C   UNL     1      -4.212   1.039   8.669  1.00  0.00    -0.015 C 
ATOM     26  C   UNL     1      -5.466   1.893   8.861  1.00  0.00     0.007 C 
ATOM     27  C   UNL     1      -3.436   1.531   7.445  1.00  0.00     0.007 C 
ENDBRANCH  24  25
ENDBRANCH  18  24
ENDBRANCH  15  18
ENDBRANCH  13  14
BRANCH  13  28
ATOM     28  C   UNL     1      -5.040  -3.212   4.678  1.00  0.00     0.327 C 
ATOM     29  O   UNL     1      -4.227  -3.937   5.231  1.00  0.00    -0.250 OA
BRANCH  28  30
ATOM     30  O   UNL     1      -4.678  -2.466   3.615  1.00  0.00    -0.480 OA
ATOM     31  H   UNL     1      -5.164  -1.624   3.734  1.00  0.00     0.296 HD
ENDBRANCH  28  30
ENDBRANCH  13  28
ENDBRANCH  11  13
ENDBRANCH   8  11
ENDBRANCH   6   7
BRANCH   6  32
ATOM     32  C   UNL     1      -8.324  -4.271   0.341  1.00  0.00     0.037 C 
BRANCH  32  33
ATOM     33  C   UNL     1      -9.666  -4.629   0.995  1.00  0.00     0.026 C 
BRANCH  33  34
ATOM     34  C   UNL     1     -10.448  -5.670   0.192  1.00  0.00     0.146 C 
BRANCH  34  35
ATOM     35  N   UNL     1     -11.225  -6.487   1.114  1.00  0.00    -0.254 NA
ATOM     36  C   UNL     1     -12.458  -6.196   1.303  1.00  0.00     0.185 C 
ATOM     37  N   UNL     1     -13.185  -6.945   2.146  1.00  0.00    -0.370 N 
ATOM     38  N   UNL     1     -13.184  -5.203   0.760  1.00  0.00    -0.370 N 
ATOM     39  H   UNL     1     -12.710  -7.722   2.589  1.00  0.00     0.159 HD
ATOM     40  H   UNL     1     -14.187  -6.892   2.215  1.00  0.00     0.159 HD
ATOM     41  H   UNL     1     -14.110  -4.992   1.094  1.00  0.00     0.159 HD
ATOM     42  H   UNL     1     -12.762  -4.551   0.118  1.00  0.00     0.159 HD
ENDBRANCH  34  35
ENDBRANCH  33  34
ENDBRANCH  32  33
ENDBRANCH   6  32
ENDBRANCH   4   6
ENDBRANCH   1   2
BRANCH   1  43
ATOM     43  C   UNL     1      -5.665  -1.606  -2.210  1.00  0.00     0.102 C 
ATOM     44  C   UNL     1      -6.324  -0.504  -1.362  1.00  0.00     0.020 C 
BRANCH  43  45
ATOM     45  C   UNL     1      -6.588  -2.205  -3.276  1.00  0.00     0.225 C 
ATOM     46  O   UNL     1      -7.485  -3.002  -3.015  1.00  0.00    -0.275 OA
ATOM     47  N   UNL     1      -6.292  -1.864  -4.576  1.00  0.00    -0.342 N 
ATOM     48  H   UNL     1      -5.659  -1.099  -4.760  1.00  0.00     0.164 HD
BRANCH  47  49
ATOM     49  C   UNL     1      -7.111  -2.335  -5.697  1.00  0.00     0.192 C 
BRANCH  49  50
ATOM     50  C   UNL     1      -6.237  -2.489  -6.944  1.00  0.00     0.047 C 
BRANCH  50  51
ATOM     51  C   UNL     1      -4.749  -2.260  -6.644  1.00  0.00     0.103 C 
BRANCH  51  52
ATOM     52  C   UNL     1      -4.196  -1.042  -7.380  1.00  0.00     0.226 C 
ATOM     53  O   UNL     1      -4.802  -0.591  -8.354  1.00  0.00    -0.275 OA
BRANCH  52  54
ATOM     54  N   UNL     1      -3.039  -0.453  -6.837  1.00  0.00    -0.311 N 
ATOM     55  C   UNL     1      -2.686  -0.644  -5.424  1.00  0.00     0.153 C 
BRANCH  54  56
ATOM     56  C   UNL     1      -2.180   0.332  -7.623  1.00  0.00     0.102 C 
ATOM     57  C   UNL     1      -2.316   1.653  -7.826  1.00  0.00     0.043 C 
BRANCH  56  58
ATOM     58  C   UNL     1      -0.964  -0.274  -8.284  1.00  0.00     0.268 C 
ATOM     59  O   UNL     1       0.182   0.050  -8.004  1.00  0.00    -0.268 OA
ATOM     60  N   UNL     1      -1.277  -1.268  -9.181  1.00  0.00    -0.339 N 
ATOM     61  H   UNL     1      -2.252  -1.469  -9.364  1.00  0.00     0.164 HD
BRANCH  60  62
ATOM     62  C   UNL     1      -0.249  -2.030  -9.888  1.00  0.00     0.168 CG0
ATOM     63  C   UNL     1      -0.441  -1.940 -11.396  1.00  0.00     0.041 C 
ATOM     64  G   UNL     1      -0.282  -3.500  -9.420  1.00  0.00     0.000 G0
ENDBRANCH  60  62
ENDBRANCH  56  58
ENDBRANCH  54  56
ENDBRANCH  52  54
ENDBRANCH  51  52
ENDBRANCH  50  51
ENDBRANCH  49  50
BRANCH  49  65
ATOM     65  C   UNL     1      -8.265  -1.366  -6.001  1.00  0.00     0.326 C 
ATOM     66  O   UNL     1      -9.170  -1.076  -5.233  1.00  0.00    -0.250 OA
BRANCH  65  67
ATOM     67  O   UNL     1      -8.263  -0.863  -7.255  1.00  0.00    -0.480 OA
ATOM     68  H   UNL     1      -8.500  -1.633  -7.814  1.00  0.00     0.296 HD
ENDBRANCH  65  67
ENDBRANCH  49  65
ENDBRANCH  47  49
ENDBRANCH  43  45
ENDBRANCH   1  43
BRANCH   1  69
ATOM     69  C   UNL     1      -4.181  -3.793  -2.068  1.00  0.00    -0.001 C 
ATOM     70  C   UNL     1      -3.293  -3.620  -3.063  1.00  0.00     0.001 C 
BRANCH  70  71
ATOM     71  C   UNL     1      -2.499  -4.658  -3.723  1.00  0.00    -0.055 C 
ATOM     72  C   UNL     1      -2.304  -4.548  -5.054  1.00  0.00    -0.018 C 
ATOM     73  C   UNL     1      -1.949  -5.771  -2.869  1.00  0.00     0.044 C 
BRANCH  72  74
ATOM     74  C   UNL     1      -1.530  -5.463  -5.993  1.00  0.00     0.038 C 
ATOM     75  C   UNL     1      -0.046  -5.337  -5.625  1.00  0.00     0.015 C 
BRANCH  74  76
ATOM     76  C   UNL     1      -1.873  -5.078  -7.462  1.00  0.00     0.128 C 
BRANCH  76  77
ATOM     77  O   UNL     1      -0.667  -4.985  -8.240  1.00  0.00    -0.381 OA
ATOM     78  C   UNL     1      -0.488  -6.064  -9.147  1.00  0.00     0.195 C 
ENDBRANCH  76  77
BRANCH  76  79
ATOM     79  C   UNL     1      -2.940  -5.990  -8.119  1.00  0.00     0.068 C 
BRANCH  79  80
ATOM     80  C   UNL     1      -4.076  -5.328  -8.860  1.00  0.00    -0.045 A 
ATOM     81  C   UNL     1      -5.383  -5.826  -8.773  1.00  0.00     0.004 A 
ATOM     82  C   UNL     1      -3.833  -4.212  -9.676  1.00  0.00     0.004 A 
ATOM     83  C   UNL     1      -6.425  -5.216  -9.473  1.00  0.00     0.000 A 
ATOM     84  C   UNL     1      -4.877  -3.603 -10.376  1.00  0.00     0.000 A 
ATOM     85  C   UNL     1      -6.172  -4.104 -10.274  1.00  0.00     0.000 A 
ENDBRANCH  79  80
ENDBRANCH  76  79
ENDBRANCH  74  76
ENDBRANCH  72  74
ENDBRANCH  70  71
ENDBRANCH   1  69
TORSDOF 17
ENDMDL
MODEL 43
REMARK VINA RESULT:    -5.502      4.507      7.526
REMARK INTER + INTRA:         -24.113
REMARK INTER:                 -16.935
REMARK INTRA:                  -7.178
REMARK UNBOUND:                -7.676
REMARK SMILES C=C1C(=O)N[C@H](C)C(=O)N[C@@H](CC(C)C)C(=O)N[C@@H](C(=O)O)[C@H](C)C(=O)N[C@@H](CCCN=C(N)N)C(=O)N[C@@H](/C=C/C(C)=C/[C@H](C)[C@H](Cc2ccccc2)OC)[C@H](C)C(=O)N[C@@H](C(=O)O)CCC(=O)N1C
REMARK SMILES IDX 39 1 38 2 37 3 36 4 28 6 27 7 25 8 26 9 23 11 24 12 19 13
REMARK SMILES IDX 18 14 16 15 17 16 11 18 10 19 8 20 9 21 12 24 13 25 14 26
REMARK SMILES IDX 15 27 20 28 21 29 22 30 29 32 30 33 31 34 32 35 33 36 34 37
REMARK SMILES IDX 35 38 57 43 58 44 59 45 60 46 61 47 62 49 66 50 67 51 68 52
REMARK SMILES IDX 69 53 70 54 71 55 2 56 1 57 3 58 4 59 5 60 6 62 7 63 63 65
REMARK SMILES IDX 64 66 65 67 40 69 41 70 42 71 44 72 43 73 45 74 46 75 47 76
REMARK SMILES IDX 55 77 56 78 48 79 49 80 50 81 54 82 51 83 53 84 52 85
REMARK H PARENT 38 5 27 10 18 17 10 22 22 31 34 39 34 40 35 41 35 42 61 48
REMARK H PARENT 5 61 65 68
REMARK Flexibility Score:  369.900
ROOT
ATOM      1  C   UNL     1      -3.716  -2.431  -3.263  1.00  0.00     0.117 C 
ENDROOT
BRANCH   1   2
ATOM      2  N   UNL     1      -3.498  -2.607  -4.699  1.00  0.00    -0.347 N 
ATOM      3  O   UNL     1      -3.324  -0.389  -5.263  1.00  0.00    -0.273 OA
ATOM      4  C   UNL     1      -3.228  -1.572  -5.573  1.00  0.00     0.243 C 
ATOM      5  H   UNL     1      -3.492  -3.538  -5.087  1.00  0.00     0.164 HD
BRANCH   4   6
ATOM      6  C   UNL     1      -2.952  -2.038  -7.025  1.00  0.00     0.171 C 
BRANCH   6   7
ATOM      7  N   UNL     1      -2.746  -3.495  -7.067  1.00  0.00    -0.344 N 
ATOM      8  C   UNL     1      -1.508  -4.022  -7.365  1.00  0.00     0.226 C 
ATOM      9  O   UNL     1      -0.538  -3.321  -7.628  1.00  0.00    -0.275 OA
ATOM     10  H   UNL     1      -3.540  -4.107  -6.922  1.00  0.00     0.164 HD
BRANCH   8  11
ATOM     11  C   UNL     1      -1.445  -5.538  -7.315  1.00  0.00     0.109 C 
ATOM     12  C   UNL     1      -2.632  -6.088  -6.524  1.00  0.00     0.021 C 
BRANCH  11  13
ATOM     13  C   UNL     1      -1.301  -6.101  -8.743  1.00  0.00     0.204 C 
BRANCH  13  14
ATOM     14  N   UNL     1      -0.524  -7.344  -8.771  1.00  0.00    -0.340 N 
ATOM     15  C   UNL     1       0.702  -7.446  -9.392  1.00  0.00     0.243 C 
ATOM     16  O   UNL     1       1.259  -6.484  -9.916  1.00  0.00    -0.273 OA
ATOM     17  H   UNL     1      -0.992  -8.210  -8.490  1.00  0.00     0.164 HD
BRANCH  15  18
ATOM     18  C   UNL     1       1.235  -8.898  -9.472  1.00  0.00     0.171 C 
BRANCH  18  19
ATOM     19  N   UNL     1       0.314  -9.635 -10.334  1.00  0.00    -0.343 N 
ATOM     20  C   UNL     1      -0.331 -10.779  -9.902  1.00  0.00     0.242 CG0
ATOM     21  O   UNL     1      -0.059 -11.302  -8.824  1.00  0.00    -0.273 OA
ATOM     22  H   UNL     1       0.144  -9.306 -11.277  1.00  0.00     0.164 HD
ATOM     23  G   UNL     1      -1.324 -11.373 -10.921  1.00  0.00     0.000 G0
ENDBRANCH  18  19
BRANCH  18  24
ATOM     24  C   UNL     1       2.664  -8.920 -10.029  1.00  0.00     0.038 C 
BRANCH  24  25
ATOM     25  C   UNL     1       3.306 -10.322 -10.104  1.00  0.00    -0.015 C 
ATOM     26  C   UNL     1       4.654 -10.387  -9.387  1.00  0.00     0.007 C 
ATOM     27  C   UNL     1       3.480 -10.730 -11.569  1.00  0.00     0.007 C 
ENDBRANCH  24  25
ENDBRANCH  18  24
ENDBRANCH  15  18
ENDBRANCH  13  14
BRANCH  13  28
ATOM     28  C   UNL     1      -2.646  -6.392  -9.416  1.00  0.00     0.327 C 
ATOM     29  O   UNL     1      -3.554  -5.594  -9.593  1.00  0.00    -0.250 OA
BRANCH  28  30
ATOM     30  O   UNL     1      -2.816  -7.696  -9.717  1.00  0.00    -0.480 OA
ATOM     31  H   UNL     1      -3.430  -7.689 -10.481  1.00  0.00     0.296 HD
ENDBRANCH  28  30
ENDBRANCH  13  28
ENDBRANCH  11  13
ENDBRANCH   8  11
ENDBRANCH   6   7
BRANCH   6  32
ATOM     32  C   UNL     1      -4.127  -1.625  -7.918  1.00  0.00     0.037 C 
BRANCH  32  33
ATOM     33  C   UNL     1      -3.871  -1.946  -9.397  1.00  0.00     0.026 C 
BRANCH  33  34
ATOM     34  C   UNL     1      -5.079  -2.597 -10.072  1.00  0.00     0.146 C 
BRANCH  34  35
ATOM     35  N   UNL     1      -6.295  -2.040  -9.496  1.00  0.00    -0.254 NA
ATOM     36  C   UNL     1      -7.190  -2.843  -9.054  1.00  0.00     0.185 C 
ATOM     37  N   UNL     1      -8.312  -2.341  -8.517  1.00  0.00    -0.370 N 
ATOM     38  N   UNL     1      -7.185  -4.188  -9.040  1.00  0.00    -0.370 N 
ATOM     39  H   UNL     1      -8.387  -1.332  -8.482  1.00  0.00     0.159 HD
ATOM     40  H   UNL     1      -8.974  -2.890  -7.997  1.00  0.00     0.159 HD
ATOM     41  H   UNL     1      -8.009  -4.709  -8.792  1.00  0.00     0.159 HD
ATOM     42  H   UNL     1      -6.408  -4.702  -9.427  1.00  0.00     0.159 HD
ENDBRANCH  34  35
ENDBRANCH  33  34
ENDBRANCH  32  33
ENDBRANCH   6  32
ENDBRANCH   4   6
ENDBRANCH   1   2
BRANCH   1  43
ATOM     43  C   UNL     1      -2.682  -3.305  -2.494  1.00  0.00     0.102 C 
ATOM     44  C   UNL     1      -2.270  -4.576  -3.256  1.00  0.00     0.020 C 
BRANCH  43  45
ATOM     45  C   UNL     1      -3.142  -3.564  -1.057  1.00  0.00     0.225 C 
ATOM     46  O   UNL     1      -3.519  -4.663  -0.660  1.00  0.00    -0.275 OA
ATOM     47  N   UNL     1      -3.198  -2.455  -0.244  1.00  0.00    -0.342 N 
ATOM     48  H   UNL     1      -2.746  -1.599  -0.533  1.00  0.00     0.164 HD
BRANCH  47  49
ATOM     49  C   UNL     1      -3.586  -2.558   1.166  1.00  0.00     0.192 C 
BRANCH  49  50
ATOM     50  C   UNL     1      -4.773  -1.632   1.442  1.00  0.00     0.047 C 
BRANCH  50  51
ATOM     51  C   UNL     1      -4.995  -0.617   0.312  1.00  0.00     0.103 C 
BRANCH  51  52
ATOM     52  C   UNL     1      -4.425   0.757   0.655  1.00  0.00     0.226 C 
ATOM     53  O   UNL     1      -4.179   1.040   1.829  1.00  0.00    -0.275 OA
BRANCH  52  54
ATOM     54  N   UNL     1      -4.141   1.607  -0.430  1.00  0.00    -0.311 N 
ATOM     55  C   UNL     1      -4.126   1.095  -1.807  1.00  0.00     0.153 C 
BRANCH  54  56
ATOM     56  C   UNL     1      -3.868   2.972  -0.240  1.00  0.00     0.102 C 
ATOM     57  C   UNL     1      -2.686   3.561  -0.489  1.00  0.00     0.043 C 
BRANCH  56  58
ATOM     58  C   UNL     1      -4.944   3.919   0.235  1.00  0.00     0.268 C 
ATOM     59  O   UNL     1      -5.793   4.394  -0.508  1.00  0.00    -0.268 OA
ATOM     60  N   UNL     1      -4.912   4.137   1.591  1.00  0.00    -0.339 N 
ATOM     61  H   UNL     1      -4.169   3.714   2.135  1.00  0.00     0.164 HD
BRANCH  60  62
ATOM     62  C   UNL     1      -5.902   4.972   2.270  1.00  0.00     0.168 CG0
ATOM     63  C   UNL     1      -7.026   4.123   2.852  1.00  0.00     0.041 C 
ATOM     64  G   UNL     1      -6.462   6.016   1.282  1.00  0.00     0.000 G0
ENDBRANCH  60  62
ENDBRANCH  56  58
ENDBRANCH  54  56
ENDBRANCH  52  54
ENDBRANCH  51  52
ENDBRANCH  50  51
ENDBRANCH  49  50
BRANCH  49  65
ATOM     65  C   UNL     1      -2.424  -2.188   2.102  1.00  0.00     0.326 C 
ATOM     66  O   UNL     1      -2.529  -1.589   3.163  1.00  0.00    -0.250 OA
BRANCH  65  67
ATOM     67  O   UNL     1      -1.200  -2.526   1.641  1.00  0.00    -0.480 OA
ATOM     68  H   UNL     1      -1.027  -3.397   2.060  1.00  0.00     0.296 HD
ENDBRANCH  65  67
ENDBRANCH  49  65
ENDBRANCH  47  49
ENDBRANCH  43  45
ENDBRANCH   1  43
BRANCH   1  69
ATOM     69  C   UNL     1      -5.196  -2.667  -3.026  1.00  0.00    -0.001 C 
ATOM     70  C   UNL     1      -6.208  -1.815  -3.265  1.00  0.00     0.001 C 
BRANCH  70  71
ATOM     71  C   UNL     1      -7.635  -2.062  -3.052  1.00  0.00    -0.055 C 
ATOM     72  C   UNL     1      -8.265  -1.332  -2.107  1.00  0.00    -0.018 C 
ATOM     73  C   UNL     1      -8.302  -3.107  -3.908  1.00  0.00     0.044 C 
BRANCH  72  74
ATOM     74  C   UNL     1      -9.724  -1.369  -1.675  1.00  0.00     0.038 C 
ATOM     75  C   UNL     1     -10.396  -0.113  -2.243  1.00  0.00     0.015 C 
BRANCH  74  76
ATOM     76  C   UNL     1      -9.784  -1.497  -0.124  1.00  0.00     0.128 C 
BRANCH  76  77
ATOM     77  O   UNL     1     -10.748  -2.496   0.249  1.00  0.00    -0.381 OA
ATOM     78  C   UNL     1     -11.843  -1.982   0.995  1.00  0.00     0.195 C 
ENDBRANCH  76  77
BRANCH  76  79
ATOM     79  C   UNL     1      -8.403  -1.718   0.543  1.00  0.00     0.068 C 
BRANCH  79  80
ATOM     80  C   UNL     1      -8.042  -3.119   0.973  1.00  0.00    -0.045 A 
ATOM     81  C   UNL     1      -7.614  -4.074   0.041  1.00  0.00     0.004 A 
ATOM     82  C   UNL     1      -8.157  -3.497   2.320  1.00  0.00     0.004 A 
ATOM     83  C   UNL     1      -7.296  -5.372   0.445  1.00  0.00     0.000 A 
ATOM     84  C   UNL     1      -7.839  -4.796   2.723  1.00  0.00     0.000 A 
ATOM     85  C   UNL     1      -7.407  -5.732   1.786  1.00  0.00     0.000 A 
ENDBRANCH  79  80
ENDBRANCH  76  79
ENDBRANCH  74  76
ENDBRANCH  72  74
ENDBRANCH  70  71
ENDBRANCH   1  69
TORSDOF 17
ENDMDL
MODEL 44
REMARK VINA RESULT:    -5.500      3.543     13.420
REMARK INTER + INTRA:         -24.109
REMARK INTER:                 -16.555
REMARK INTRA:                  -7.555
REMARK UNBOUND:                -7.676
REMARK SMILES C=C1C(=O)N[C@H](C)C(=O)N[C@@H](CC(C)C)C(=O)N[C@@H](C(=O)O)[C@H](C)C(=O)N[C@@H](CCCN=C(N)N)C(=O)N[C@@H](/C=C/C(C)=C/[C@H](C)[C@H](Cc2ccccc2)OC)[C@H](C)C(=O)N[C@@H](C(=O)O)CCC(=O)N1C
REMARK SMILES IDX 39 1 38 2 37 3 36 4 28 6 27 7 25 8 26 9 23 11 24 12 19 13
REMARK SMILES IDX 18 14 16 15 17 16 11 18 10 19 8 20 9 21 12 24 13 25 14 26
REMARK SMILES IDX 15 27 20 28 21 29 22 30 29 32 30 33 31 34 32 35 33 36 34 37
REMARK SMILES IDX 35 38 57 43 58 44 59 45 60 46 61 47 62 49 66 50 67 51 68 52
REMARK SMILES IDX 69 53 70 54 71 55 2 56 1 57 3 58 4 59 5 60 6 62 7 63 63 65
REMARK SMILES IDX 64 66 65 67 40 69 41 70 42 71 44 72 43 73 45 74 46 75 47 76
REMARK SMILES IDX 55 77 56 78 48 79 49 80 50 81 54 82 51 83 53 84 52 85
REMARK H PARENT 38 5 27 10 18 17 10 22 22 31 34 39 34 40 35 41 35 42 61 48
REMARK H PARENT 5 61 65 68
REMARK Flexibility Score:  369.900
ROOT
ATOM      1  C   UNL     1      -6.015  -3.059  -0.913  1.00  0.00     0.117 C 
ENDROOT
BRANCH   1   2
ATOM      2  N   UNL     1      -5.734  -2.159   0.206  1.00  0.00    -0.347 N 
ATOM      3  O   UNL     1      -7.642  -0.889   0.074  1.00  0.00    -0.273 OA
ATOM      4  C   UNL     1      -6.616  -1.201   0.669  1.00  0.00     0.243 C 
ATOM      5  H   UNL     1      -4.870  -2.260   0.717  1.00  0.00     0.164 HD
BRANCH   4   6
ATOM      6  C   UNL     1      -6.109  -0.441   1.921  1.00  0.00     0.171 C 
BRANCH   6   7
ATOM      7  N   UNL     1      -5.366  -1.349   2.808  1.00  0.00    -0.344 N 
ATOM      8  C   UNL     1      -6.031  -2.145   3.716  1.00  0.00     0.226 C 
ATOM      9  O   UNL     1      -7.249  -2.123   3.845  1.00  0.00    -0.275 OA
ATOM     10  H   UNL     1      -4.354  -1.345   2.778  1.00  0.00     0.164 HD
BRANCH   8  11
ATOM     11  C   UNL     1      -5.128  -3.065   4.519  1.00  0.00     0.109 C 
ATOM     12  C   UNL     1      -5.310  -2.805   6.015  1.00  0.00     0.021 C 
BRANCH  11  13
ATOM     13  C   UNL     1      -5.353  -4.527   4.083  1.00  0.00     0.204 C 
BRANCH  13  14
ATOM     14  N   UNL     1      -6.578  -5.092   4.657  1.00  0.00    -0.340 N 
ATOM     15  C   UNL     1      -6.574  -6.165   5.521  1.00  0.00     0.243 C 
ATOM     16  O   UNL     1      -5.535  -6.688   5.920  1.00  0.00    -0.273 OA
ATOM     17  H   UNL     1      -7.474  -4.806   4.253  1.00  0.00     0.164 HD
BRANCH  15  18
ATOM     18  C   UNL     1      -7.988  -6.716   5.830  1.00  0.00     0.171 C 
BRANCH  18  19
ATOM     19  N   UNL     1      -7.815  -7.783   6.814  1.00  0.00    -0.343 N 
ATOM     20  C   UNL     1      -8.126  -9.098   6.525  1.00  0.00     0.242 CG0
ATOM     21  O   UNL     1      -8.685  -9.412   5.477  1.00  0.00    -0.273 OA
ATOM     22  H   UNL     1      -7.464  -7.556   7.737  1.00  0.00     0.164 HD
ATOM     23  G   UNL     1      -7.804 -10.092   7.660  1.00  0.00     0.000 G0
ENDBRANCH  18  19
BRANCH  18  24
ATOM     24  C   UNL     1      -8.898  -5.603   6.362  1.00  0.00     0.038 C 
BRANCH  24  25
ATOM     25  C   UNL     1     -10.125  -5.296   5.478  1.00  0.00    -0.015 C 
ATOM     26  C   UNL     1     -10.070  -3.896   4.865  1.00  0.00     0.007 C 
ATOM     27  C   UNL     1     -11.406  -5.447   6.303  1.00  0.00     0.007 C 
ENDBRANCH  24  25
ENDBRANCH  18  24
ENDBRANCH  15  18
ENDBRANCH  13  14
BRANCH  13  28
ATOM     28  C   UNL     1      -5.443  -4.696   2.564  1.00  0.00     0.327 C 
ATOM     29  O   UNL     1      -6.324  -5.283   1.953  1.00  0.00    -0.250 OA
BRANCH  28  30
ATOM     30  O   UNL     1      -4.362  -4.221   1.913  1.00  0.00    -0.480 OA
ATOM     31  H   UNL     1      -4.557  -3.270   1.784  1.00  0.00     0.296 HD
ENDBRANCH  28  30
ENDBRANCH  13  28
ENDBRANCH  11  13
ENDBRANCH   8  11
ENDBRANCH   6   7
BRANCH   6  32
ATOM     32  C   UNL     1      -5.229   0.732   1.475  1.00  0.00     0.037 C 
BRANCH  32  33
ATOM     33  C   UNL     1      -4.408   0.397   0.222  1.00  0.00     0.026 C 
BRANCH  33  34
ATOM     34  C   UNL     1      -2.906   0.341   0.503  1.00  0.00     0.146 C 
BRANCH  34  35
ATOM     35  N   UNL     1      -2.685  -0.417   1.727  1.00  0.00    -0.254 NA
ATOM     36  C   UNL     1      -2.293  -1.633   1.635  1.00  0.00     0.185 C 
ATOM     37  N   UNL     1      -2.082  -2.339   2.756  1.00  0.00    -0.370 N 
ATOM     38  N   UNL     1      -2.045  -2.358   0.530  1.00  0.00    -0.370 N 
ATOM     39  H   UNL     1      -2.238  -1.857   3.632  1.00  0.00     0.159 HD
ATOM     40  H   UNL     1      -1.614  -3.229   2.773  1.00  0.00     0.159 HD
ATOM     41  H   UNL     1      -1.876  -3.349   0.585  1.00  0.00     0.159 HD
ATOM     42  H   UNL     1      -2.177  -1.959  -0.386  1.00  0.00     0.159 HD
ENDBRANCH  34  35
ENDBRANCH  33  34
ENDBRANCH  32  33
ENDBRANCH   6  32
ENDBRANCH   4   6
ENDBRANCH   1   2
BRANCH   1  43
ATOM     43  C   UNL     1      -5.504  -2.394  -2.223  1.00  0.00     0.102 C 
ATOM     44  C   UNL     1      -6.391  -2.689  -3.445  1.00  0.00     0.020 C 
BRANCH  43  45
ATOM     45  C   UNL     1      -4.019  -2.692  -2.448  1.00  0.00     0.225 C 
ATOM     46  O   UNL     1      -3.134  -1.860  -2.268  1.00  0.00    -0.275 OA
ATOM     47  N   UNL     1      -3.734  -3.937  -2.960  1.00  0.00    -0.342 N 
ATOM     48  H   UNL     1      -4.447  -4.653  -2.957  1.00  0.00     0.164 HD
BRANCH  47  49
ATOM     49  C   UNL     1      -2.354  -4.373  -3.192  1.00  0.00     0.192 C 
BRANCH  49  50
ATOM     50  C   UNL     1      -2.289  -5.216  -4.468  1.00  0.00     0.047 C 
BRANCH  50  51
ATOM     51  C   UNL     1      -2.020  -4.363  -5.716  1.00  0.00     0.103 C 
BRANCH  51  52
ATOM     52  C   UNL     1      -1.465  -5.195  -6.870  1.00  0.00     0.226 C 
ATOM     53  O   UNL     1      -0.435  -5.852  -6.709  1.00  0.00    -0.275 OA
BRANCH  52  54
ATOM     54  N   UNL     1      -2.230  -5.216  -8.052  1.00  0.00    -0.311 N 
ATOM     55  C   UNL     1      -3.080  -6.367  -8.382  1.00  0.00     0.153 C 
BRANCH  54  56
ATOM     56  C   UNL     1      -2.214  -4.138  -8.953  1.00  0.00     0.102 C 
ATOM     57  C   UNL     1      -3.296  -3.436  -9.330  1.00  0.00     0.043 C 
BRANCH  56  58
ATOM     58  C   UNL     1      -0.917  -3.647  -9.551  1.00  0.00     0.268 C 
ATOM     59  O   UNL     1      -0.060  -4.396  -9.999  1.00  0.00    -0.268 OA
ATOM     60  N   UNL     1      -0.830  -2.276  -9.599  1.00  0.00    -0.339 N 
ATOM     61  H   UNL     1      -1.579  -1.726  -9.197  1.00  0.00     0.164 HD
BRANCH  60  62
ATOM     62  C   UNL     1       0.314  -1.589 -10.196  1.00  0.00     0.168 CG0
ATOM     63  C   UNL     1       1.349  -1.228  -9.137  1.00  0.00     0.041 C 
ATOM     64  G   UNL     1      -0.170  -0.326 -10.938  1.00  0.00     0.000 G0
ENDBRANCH  60  62
ENDBRANCH  56  58
ENDBRANCH  54  56
ENDBRANCH  52  54
ENDBRANCH  51  52
ENDBRANCH  50  51
ENDBRANCH  49  50
BRANCH  49  65
ATOM     65  C   UNL     1      -1.813  -5.195  -2.011  1.00  0.00     0.326 C 
ATOM     66  O   UNL     1      -1.561  -4.758  -0.898  1.00  0.00    -0.250 OA
BRANCH  65  67
ATOM     67  O   UNL     1      -1.561  -6.491  -2.296  1.00  0.00    -0.480 OA
ATOM     68  H   UNL     1      -2.420  -6.827  -2.630  1.00  0.00     0.296 HD
ENDBRANCH  65  67
ENDBRANCH  49  65
ENDBRANCH  47  49
ENDBRANCH  43  45
ENDBRANCH   1  43
BRANCH   1  69
ATOM     69  C   UNL     1      -7.484  -3.428  -0.801  1.00  0.00    -0.001 C 
ATOM     70  C   UNL     1      -8.010  -4.659  -0.674  1.00  0.00     0.001 C 
BRANCH  70  71
ATOM     71  C   UNL     1      -9.428  -5.000  -0.546  1.00  0.00    -0.055 C 
ATOM     72  C   UNL     1     -10.006  -4.836   0.662  1.00  0.00    -0.018 C 
ATOM     73  C   UNL     1     -10.142  -5.503  -1.774  1.00  0.00     0.044 C 
BRANCH  72  74
ATOM     74  C   UNL     1     -11.444  -5.102   1.086  1.00  0.00     0.038 C 
ATOM     75  C   UNL     1     -11.972  -3.814   1.727  1.00  0.00     0.015 C 
BRANCH  74  76
ATOM     76  C   UNL     1     -11.469  -6.352   2.014  1.00  0.00     0.128 C 
BRANCH  76  77
ATOM     77  O   UNL     1     -12.374  -7.337   1.487  1.00  0.00    -0.381 OA
ATOM     78  C   UNL     1     -12.958  -6.969   0.245  1.00  0.00     0.195 C 
ENDBRANCH  76  77
BRANCH  76  79
ATOM     79  C   UNL     1     -10.067  -6.932   2.327  1.00  0.00     0.068 C 
BRANCH  79  80
ATOM     80  C   UNL     1      -9.702  -8.266   1.721  1.00  0.00    -0.045 A 
ATOM     81  C   UNL     1     -10.180  -9.463   2.270  1.00  0.00     0.004 A 
ATOM     82  C   UNL     1      -8.851  -8.328   0.607  1.00  0.00     0.004 A 
ATOM     83  C   UNL     1      -9.826 -10.694   1.712  1.00  0.00     0.000 A 
ATOM     84  C   UNL     1      -8.498  -9.559   0.051  1.00  0.00     0.000 A 
ATOM     85  C   UNL     1      -8.986 -10.741   0.602  1.00  0.00     0.000 A 
ENDBRANCH  79  80
ENDBRANCH  76  79
ENDBRANCH  74  76
ENDBRANCH  72  74
ENDBRANCH  70  71
ENDBRANCH   1  69
TORSDOF 17
ENDMDL
MODEL 45
REMARK VINA RESULT:    -5.489      2.810      4.630
REMARK INTER + INTRA:         -24.076
REMARK INTER:                 -14.713
REMARK INTRA:                  -9.363
REMARK UNBOUND:                -7.676
REMARK SMILES C=C1C(=O)N[C@H](C)C(=O)N[C@@H](CC(C)C)C(=O)N[C@@H](C(=O)O)[C@H](C)C(=O)N[C@@H](CCCN=C(N)N)C(=O)N[C@@H](/C=C/C(C)=C/[C@H](C)[C@H](Cc2ccccc2)OC)[C@H](C)C(=O)N[C@@H](C(=O)O)CCC(=O)N1C
REMARK SMILES IDX 39 1 38 2 37 3 36 4 28 6 27 7 25 8 26 9 23 11 24 12 19 13
REMARK SMILES IDX 18 14 16 15 17 16 11 18 10 19 8 20 9 21 12 24 13 25 14 26
REMARK SMILES IDX 15 27 20 28 21 29 22 30 29 32 30 33 31 34 32 35 33 36 34 37
REMARK SMILES IDX 35 38 57 43 58 44 59 45 60 46 61 47 62 49 66 50 67 51 68 52
REMARK SMILES IDX 69 53 70 54 71 55 2 56 1 57 3 58 4 59 5 60 6 62 7 63 63 65
REMARK SMILES IDX 64 66 65 67 40 69 41 70 42 71 44 72 43 73 45 74 46 75 47 76
REMARK SMILES IDX 55 77 56 78 48 79 49 80 50 81 54 82 51 83 53 84 52 85
REMARK H PARENT 38 5 27 10 18 17 10 22 22 31 34 39 34 40 35 41 35 42 61 48
REMARK H PARENT 5 61 65 68
REMARK Flexibility Score:  369.900
ROOT
ATOM      1  C   UNL     1      -5.973  -0.272  -3.545  1.00  0.00     0.117 C 
ENDROOT
BRANCH   1   2
ATOM      2  N   UNL     1      -5.903  -0.670  -4.952  1.00  0.00    -0.347 N 
ATOM      3  O   UNL     1      -6.906   1.187  -5.853  1.00  0.00    -0.273 OA
ATOM      4  C   UNL     1      -6.294   0.135  -6.004  1.00  0.00     0.243 C 
ATOM      5  H   UNL     1      -5.502  -1.564  -5.193  1.00  0.00     0.164 HD
BRANCH   4   6
ATOM      6  C   UNL     1      -6.036  -0.491  -7.398  1.00  0.00     0.171 C 
BRANCH   6   7
ATOM      7  N   UNL     1      -4.938  -1.469  -7.327  1.00  0.00    -0.344 N 
ATOM      8  C   UNL     1      -3.669  -1.132  -7.747  1.00  0.00     0.226 C 
ATOM      9  O   UNL     1      -3.398  -0.032  -8.213  1.00  0.00    -0.275 OA
ATOM     10  H   UNL     1      -5.138  -2.410  -7.011  1.00  0.00     0.164 HD
BRANCH   8  11
ATOM     11  C   UNL     1      -2.636  -2.230  -7.559  1.00  0.00     0.109 C 
ATOM     12  C   UNL     1      -3.330  -3.563  -7.278  1.00  0.00     0.021 C 
BRANCH  11  13
ATOM     13  C   UNL     1      -1.667  -2.244  -8.758  1.00  0.00     0.204 C 
BRANCH  13  14
ATOM     14  N   UNL     1      -0.584  -1.268  -8.603  1.00  0.00    -0.340 N 
ATOM     15  C   UNL     1      -0.114  -0.501  -9.647  1.00  0.00     0.243 C 
ATOM     16  O   UNL     1      -0.611  -0.538 -10.770  1.00  0.00    -0.273 OA
ATOM     17  H   UNL     1      -0.031  -1.296  -7.742  1.00  0.00     0.164 HD
BRANCH  15  18
ATOM     18  C   UNL     1       1.164   0.302  -9.297  1.00  0.00     0.171 C 
BRANCH  18  19
ATOM     19  N   UNL     1       1.889   0.501 -10.551  1.00  0.00    -0.343 N 
ATOM     20  C   UNL     1       3.250   0.286 -10.647  1.00  0.00     0.242 CG0
ATOM     21  O   UNL     1       3.936   0.048  -9.655  1.00  0.00    -0.273 OA
ATOM     22  H   UNL     1       1.384   0.810 -11.374  1.00  0.00     0.164 HD
ATOM     23  G   UNL     1       3.825   0.470 -12.067  1.00  0.00     0.000 G0
ENDBRANCH  18  19
BRANCH  18  24
ATOM     24  C   UNL     1       0.801   1.639  -8.640  1.00  0.00     0.038 C 
BRANCH  24  25
ATOM     25  C   UNL     1       1.567   1.945  -7.336  1.00  0.00    -0.015 C 
ATOM     26  C   UNL     1       2.897   2.655  -7.591  1.00  0.00     0.007 C 
ATOM     27  C   UNL     1       1.815   0.645  -6.568  1.00  0.00     0.007 C 
ENDBRANCH  24  25
ENDBRANCH  18  24
ENDBRANCH  15  18
ENDBRANCH  13  14
BRANCH  13  28
ATOM     28  C   UNL     1      -1.016  -3.611  -8.991  1.00  0.00     0.327 C 
ATOM     29  O   UNL     1      -1.170  -4.327  -9.968  1.00  0.00    -0.250 OA
BRANCH  28  30
ATOM     30  O   UNL     1      -0.306  -4.046  -7.931  1.00  0.00    -0.480 OA
ATOM     31  H   UNL     1      -0.931  -4.618  -7.440  1.00  0.00     0.296 HD
ENDBRANCH  28  30
ENDBRANCH  13  28
ENDBRANCH  11  13
ENDBRANCH   8  11
ENDBRANCH   6   7
BRANCH   6  32
ATOM     32  C   UNL     1      -7.325  -1.152  -7.900  1.00  0.00     0.037 C 
BRANCH  32  33
ATOM     33  C   UNL     1      -7.166  -2.667  -8.083  1.00  0.00     0.026 C 
BRANCH  33  34
ATOM     34  C   UNL     1      -7.232  -3.089  -9.552  1.00  0.00     0.146 C 
BRANCH  34  35
ATOM     35  N   UNL     1      -6.092  -3.945  -9.847  1.00  0.00    -0.254 NA
ATOM     36  C   UNL     1      -5.099  -3.448 -10.485  1.00  0.00     0.185 C 
ATOM     37  N   UNL     1      -4.041  -4.227 -10.758  1.00  0.00    -0.370 N 
ATOM     38  N   UNL     1      -4.936  -2.198 -10.952  1.00  0.00    -0.370 N 
ATOM     39  H   UNL     1      -4.084  -5.183 -10.428  1.00  0.00     0.159 HD
ATOM     40  H   UNL     1      -3.162  -3.873 -11.095  1.00  0.00     0.159 HD
ATOM     41  H   UNL     1      -4.169  -1.965 -11.561  1.00  0.00     0.159 HD
ATOM     42  H   UNL     1      -5.660  -1.507 -10.833  1.00  0.00     0.159 HD
ENDBRANCH  34  35
ENDBRANCH  33  34
ENDBRANCH  32  33
ENDBRANCH   6  32
ENDBRANCH   4   6
ENDBRANCH   1   2
BRANCH   1  43
ATOM     43  C   UNL     1      -4.574  -0.489  -2.900  1.00  0.00     0.102 C 
ATOM     44  C   UNL     1      -3.469   0.378  -3.527  1.00  0.00     0.020 C 
BRANCH  43  45
ATOM     45  C   UNL     1      -4.227  -1.979  -2.825  1.00  0.00     0.225 C 
ATOM     46  O   UNL     1      -4.120  -2.693  -3.818  1.00  0.00    -0.275 OA
ATOM     47  N   UNL     1      -4.132  -2.502  -1.556  1.00  0.00    -0.342 N 
ATOM     48  H   UNL     1      -4.072  -1.881  -0.762  1.00  0.00     0.164 HD
BRANCH  47  49
ATOM     49  C   UNL     1      -3.771  -3.905  -1.331  1.00  0.00     0.192 C 
BRANCH  49  50
ATOM     50  C   UNL     1      -4.650  -4.491  -0.222  1.00  0.00     0.047 C 
BRANCH  50  51
ATOM     51  C   UNL     1      -5.442  -3.409   0.525  1.00  0.00     0.103 C 
BRANCH  51  52
ATOM     52  C   UNL     1      -4.715  -2.931   1.781  1.00  0.00     0.226 C 
ATOM     53  O   UNL     1      -3.810  -3.616   2.260  1.00  0.00    -0.275 OA
BRANCH  52  54
ATOM     54  N   UNL     1      -5.088  -1.668   2.278  1.00  0.00    -0.311 N 
ATOM     55  C   UNL     1      -4.190  -0.512   2.154  1.00  0.00     0.153 C 
BRANCH  54  56
ATOM     56  C   UNL     1      -6.329  -1.464   2.903  1.00  0.00     0.102 C 
ATOM     57  C   UNL     1      -7.443  -1.043   2.281  1.00  0.00     0.043 C 
BRANCH  56  58
ATOM     58  C   UNL     1      -6.515  -1.760   4.372  1.00  0.00     0.268 C 
ATOM     59  O   UNL     1      -5.619  -2.188   5.087  1.00  0.00    -0.268 OA
ATOM     60  N   UNL     1      -7.769  -1.439   4.834  1.00  0.00    -0.339 N 
ATOM     61  H   UNL     1      -8.459  -1.099   4.174  1.00  0.00     0.164 HD
BRANCH  60  62
ATOM     62  C   UNL     1      -8.144  -1.587   6.239  1.00  0.00     0.168 CG0
ATOM     63  C   UNL     1      -8.860  -2.911   6.478  1.00  0.00     0.041 C 
ATOM     64  G   UNL     1      -9.033  -0.401   6.665  1.00  0.00     0.000 G0
ENDBRANCH  60  62
ENDBRANCH  56  58
ENDBRANCH  54  56
ENDBRANCH  52  54
ENDBRANCH  51  52
ENDBRANCH  50  51
ENDBRANCH  49  50
BRANCH  49  65
ATOM     65  C   UNL     1      -2.292  -4.055  -0.941  1.00  0.00     0.326 C 
ATOM     66  O   UNL     1      -1.560  -4.975  -1.273  1.00  0.00    -0.250 OA
BRANCH  65  67
ATOM     67  O   UNL     1      -1.826  -3.091  -0.117  1.00  0.00    -0.480 OA
ATOM     68  H   UNL     1      -2.208  -2.266  -0.487  1.00  0.00     0.296 HD
ENDBRANCH  65  67
ENDBRANCH  49  65
ENDBRANCH  47  49
ENDBRANCH  43  45
ENDBRANCH   1  43
BRANCH   1  69
ATOM     69  C   UNL     1      -7.171  -0.995  -2.959  1.00  0.00    -0.001 C 
ATOM     70  C   UNL     1      -7.615  -0.945  -1.690  1.00  0.00     0.001 C 
BRANCH  70  71
ATOM     71  C   UNL     1      -8.786  -1.631  -1.141  1.00  0.00    -0.055 C 
ATOM     72  C   UNL     1      -8.648  -2.928  -0.793  1.00  0.00    -0.018 C 
ATOM     73  C   UNL     1     -10.060  -0.839  -0.995  1.00  0.00     0.044 C 
BRANCH  72  74
ATOM     74  C   UNL     1      -9.677  -3.881  -0.202  1.00  0.00     0.038 C 
ATOM     75  C   UNL     1      -9.220  -4.213   1.224  1.00  0.00     0.015 C 
BRANCH  74  76
ATOM     76  C   UNL     1      -9.820  -5.112  -1.145  1.00  0.00     0.128 C 
BRANCH  76  77
ATOM     77  O   UNL     1     -10.020  -6.305  -0.368  1.00  0.00    -0.381 OA
ATOM     78  C   UNL     1     -11.357  -6.788  -0.398  1.00  0.00     0.195 C 
ENDBRANCH  76  77
BRANCH  76  79
ATOM     79  C   UNL     1     -10.885  -4.934  -2.256  1.00  0.00     0.068 C 
BRANCH  79  80
ATOM     80  C   UNL     1     -10.593  -3.950  -3.364  1.00  0.00    -0.045 A 
ATOM     81  C   UNL     1      -9.433  -4.062  -4.141  1.00  0.00     0.004 A 
ATOM     82  C   UNL     1     -11.473  -2.886  -3.614  1.00  0.00     0.004 A 
ATOM     83  C   UNL     1      -9.164  -3.139  -5.154  1.00  0.00     0.000 A 
ATOM     84  C   UNL     1     -11.202  -1.964  -4.627  1.00  0.00     0.000 A 
ATOM     85  C   UNL     1     -10.049  -2.092  -5.398  1.00  0.00     0.000 A 
ENDBRANCH  79  80
ENDBRANCH  76  79
ENDBRANCH  74  76
ENDBRANCH  72  74
ENDBRANCH  70  71
ENDBRANCH   1  69
TORSDOF 17
ENDMDL
MODEL 46
REMARK VINA RESULT:    -5.484      3.266     12.883
REMARK INTER + INTRA:         -24.060
REMARK INTER:                 -15.254
REMARK INTRA:                  -8.807
REMARK UNBOUND:                -7.676
REMARK SMILES C=C1C(=O)N[C@H](C)C(=O)N[C@@H](CC(C)C)C(=O)N[C@@H](C(=O)O)[C@H](C)C(=O)N[C@@H](CCCN=C(N)N)C(=O)N[C@@H](/C=C/C(C)=C/[C@H](C)[C@H](Cc2ccccc2)OC)[C@H](C)C(=O)N[C@@H](C(=O)O)CCC(=O)N1C
REMARK SMILES IDX 39 1 38 2 37 3 36 4 28 6 27 7 25 8 26 9 23 11 24 12 19 13
REMARK SMILES IDX 18 14 16 15 17 16 11 18 10 19 8 20 9 21 12 24 13 25 14 26
REMARK SMILES IDX 15 27 20 28 21 29 22 30 29 32 30 33 31 34 32 35 33 36 34 37
REMARK SMILES IDX 35 38 57 43 58 44 59 45 60 46 61 47 62 49 66 50 67 51 68 52
REMARK SMILES IDX 69 53 70 54 71 55 2 56 1 57 3 58 4 59 5 60 6 62 7 63 63 65
REMARK SMILES IDX 64 66 65 67 40 69 41 70 42 71 44 72 43 73 45 74 46 75 47 76
REMARK SMILES IDX 55 77 56 78 48 79 49 80 50 81 54 82 51 83 53 84 52 85
REMARK H PARENT 38 5 27 10 18 17 10 22 22 31 34 39 34 40 35 41 35 42 61 48
REMARK H PARENT 5 61 65 68
REMARK Flexibility Score:  369.900
ROOT
ATOM      1  C   UNL     1      -6.858  -2.339  -5.891  1.00  0.00     0.117 C 
ENDROOT
BRANCH   1   2
ATOM      2  N   UNL     1      -6.512  -2.059  -4.497  1.00  0.00    -0.347 N 
ATOM      3  O   UNL     1      -4.264  -2.502  -4.637  1.00  0.00    -0.273 OA
ATOM      4  C   UNL     1      -5.223  -2.074  -4.002  1.00  0.00     0.243 C 
ATOM      5  H   UNL     1      -7.239  -1.787  -3.852  1.00  0.00     0.164 HD
BRANCH   4   6
ATOM      6  C   UNL     1      -5.122  -1.657  -2.513  1.00  0.00     0.171 C 
BRANCH   6   7
ATOM      7  N   UNL     1      -5.066  -2.846  -1.648  1.00  0.00    -0.344 N 
ATOM      8  C   UNL     1      -5.941  -2.989  -0.593  1.00  0.00     0.226 C 
ATOM      9  O   UNL     1      -6.780  -2.141  -0.311  1.00  0.00    -0.275 OA
ATOM     10  H   UNL     1      -4.343  -3.536  -1.808  1.00  0.00     0.164 HD
BRANCH   8  11
ATOM     11  C   UNL     1      -5.793  -4.294   0.170  1.00  0.00     0.109 C 
ATOM     12  C   UNL     1      -4.375  -4.841   0.005  1.00  0.00     0.021 C 
BRANCH  11  13
ATOM     13  C   UNL     1      -6.247  -4.098   1.631  1.00  0.00     0.204 C 
BRANCH  13  14
ATOM     14  N   UNL     1      -7.704  -4.177   1.771  1.00  0.00    -0.340 N 
ATOM     15  C   UNL     1      -8.408  -3.433   2.693  1.00  0.00     0.243 C 
ATOM     16  O   UNL     1      -7.869  -2.605   3.424  1.00  0.00    -0.273 OA
ATOM     17  H   UNL     1      -8.191  -4.947   1.305  1.00  0.00     0.164 HD
BRANCH  15  18
ATOM     18  C   UNL     1      -9.900  -3.834   2.800  1.00  0.00     0.171 C 
BRANCH  18  19
ATOM     19  N   UNL     1     -10.337  -3.464   4.146  1.00  0.00    -0.343 N 
ATOM     20  C   UNL     1     -10.403  -4.389   5.170  1.00  0.00     0.242 CG0
ATOM     21  O   UNL     1     -10.227  -5.588   4.966  1.00  0.00    -0.273 OA
ATOM     22  H   UNL     1     -10.605  -2.505   4.336  1.00  0.00     0.164 HD
ATOM     23  G   UNL     1     -10.809  -3.799   6.536  1.00  0.00     0.000 G0
ENDBRANCH  18  19
BRANCH  18  24
ATOM     24  C   UNL     1     -10.731  -3.122   1.725  1.00  0.00     0.038 C 
BRANCH  24  25
ATOM     25  C   UNL     1     -11.112  -4.004   0.517  1.00  0.00    -0.015 C 
ATOM     26  C   UNL     1     -10.294  -3.673  -0.731  1.00  0.00     0.007 C 
ATOM     27  C   UNL     1     -12.604  -3.842   0.213  1.00  0.00     0.007 C 
ENDBRANCH  24  25
ENDBRANCH  18  24
ENDBRANCH  15  18
ENDBRANCH  13  14
BRANCH  13  28
ATOM     28  C   UNL     1      -5.643  -5.126   2.593  1.00  0.00     0.327 C 
ATOM     29  O   UNL     1      -5.929  -6.311   2.658  1.00  0.00    -0.250 OA
BRANCH  28  30
ATOM     30  O   UNL     1      -4.802  -4.576   3.493  1.00  0.00    -0.480 OA
ATOM     31  H   UNL     1      -4.285  -5.335   3.835  1.00  0.00     0.296 HD
ENDBRANCH  28  30
ENDBRANCH  13  28
ENDBRANCH  11  13
ENDBRANCH   8  11
ENDBRANCH   6   7
BRANCH   6  32
ATOM     32  C   UNL     1      -3.879  -0.780  -2.319  1.00  0.00     0.037 C 
BRANCH  32  33
ATOM     33  C   UNL     1      -3.934   0.021  -1.011  1.00  0.00     0.026 C 
BRANCH  33  34
ATOM     34  C   UNL     1      -2.730  -0.250  -0.107  1.00  0.00     0.146 C 
BRANCH  34  35
ATOM     35  N   UNL     1      -3.168  -1.044   1.033  1.00  0.00    -0.254 NA
ATOM     36  C   UNL     1      -2.395  -1.966   1.472  1.00  0.00     0.185 C 
ATOM     37  N   UNL     1      -2.786  -2.700   2.525  1.00  0.00    -0.370 N 
ATOM     38  N   UNL     1      -1.184  -2.339   1.022  1.00  0.00    -0.370 N 
ATOM     39  H   UNL     1      -3.686  -2.472   2.929  1.00  0.00     0.159 HD
ATOM     40  H   UNL     1      -2.173  -3.316   3.032  1.00  0.00     0.159 HD
ATOM     41  H   UNL     1      -0.735  -3.173   1.364  1.00  0.00     0.159 HD
ATOM     42  H   UNL     1      -0.771  -1.883   0.223  1.00  0.00     0.159 HD
ENDBRANCH  34  35
ENDBRANCH  33  34
ENDBRANCH  32  33
ENDBRANCH   6  32
ENDBRANCH   4   6
ENDBRANCH   1   2
BRANCH   1  43
ATOM     43  C   UNL     1      -6.705  -1.026  -6.712  1.00  0.00     0.102 C 
ATOM     44  C   UNL     1      -7.532   0.145  -6.154  1.00  0.00     0.020 C 
BRANCH  43  45
ATOM     45  C   UNL     1      -6.924  -1.284  -8.206  1.00  0.00     0.225 C 
ATOM     46  O   UNL     1      -8.024  -1.210  -8.746  1.00  0.00    -0.275 OA
ATOM     47  N   UNL     1      -5.813  -1.701  -8.904  1.00  0.00    -0.342 N 
ATOM     48  H   UNL     1      -4.897  -1.610  -8.487  1.00  0.00     0.164 HD
BRANCH  47  49
ATOM     49  C   UNL     1      -5.864  -1.951 -10.348  1.00  0.00     0.192 C 
BRANCH  49  50
ATOM     50  C   UNL     1      -5.311  -3.346 -10.648  1.00  0.00     0.047 C 
BRANCH  50  51
ATOM     51  C   UNL     1      -4.863  -4.081  -9.378  1.00  0.00     0.103 C 
BRANCH  51  52
ATOM     52  C   UNL     1      -3.387  -4.471  -9.430  1.00  0.00     0.226 C 
ATOM     53  O   UNL     1      -3.015  -5.345 -10.214  1.00  0.00    -0.275 OA
BRANCH  52  54
ATOM     54  N   UNL     1      -2.515  -3.732  -8.609  1.00  0.00    -0.311 N 
ATOM     55  C   UNL     1      -2.171  -4.198  -7.259  1.00  0.00     0.153 C 
BRANCH  54  56
ATOM     56  C   UNL     1      -1.936  -2.530  -9.050  1.00  0.00     0.102 C 
ATOM     57  C   UNL     1      -2.210  -1.316  -8.546  1.00  0.00     0.043 C 
BRANCH  56  58
ATOM     58  C   UNL     1      -0.888  -2.527 -10.138  1.00  0.00     0.268 C 
ATOM     59  O   UNL     1      -0.061  -3.419 -10.273  1.00  0.00    -0.268 OA
ATOM     60  N   UNL     1      -1.002  -1.459 -10.995  1.00  0.00    -0.339 N 
ATOM     61  H   UNL     1      -1.709  -0.757 -10.808  1.00  0.00     0.164 HD
BRANCH  60  62
ATOM     62  C   UNL     1      -0.128  -1.295 -12.156  1.00  0.00     0.168 CG0
ATOM     63  C   UNL     1      -0.807  -0.464 -13.238  1.00  0.00     0.041 C 
ATOM     64  G   UNL     1       0.272  -2.681 -12.702  1.00  0.00     0.000 G0
ENDBRANCH  60  62
ENDBRANCH  56  58
ENDBRANCH  54  56
ENDBRANCH  52  54
ENDBRANCH  51  52
ENDBRANCH  50  51
ENDBRANCH  49  50
BRANCH  49  65
ATOM     65  C   UNL     1      -5.059  -0.903 -11.133  1.00  0.00     0.326 C 
ATOM     66  O   UNL     1      -5.377   0.267 -11.289  1.00  0.00    -0.250 OA
BRANCH  65  67
ATOM     67  O   UNL     1      -3.943  -1.379 -11.727  1.00  0.00    -0.480 OA
ATOM     68  H   UNL     1      -4.240  -1.598 -12.636  1.00  0.00     0.296 HD
ENDBRANCH  65  67
ENDBRANCH  49  65
ENDBRANCH  47  49
ENDBRANCH  43  45
ENDBRANCH   1  43
BRANCH   1  69
ATOM     69  C   UNL     1      -8.207  -3.033  -5.862  1.00  0.00    -0.001 C 
ATOM     70  C   UNL     1      -8.901  -3.426  -4.779  1.00  0.00     0.001 C 
BRANCH  70  71
ATOM     71  C   UNL     1     -10.213  -4.077  -4.762  1.00  0.00    -0.055 C 
ATOM     72  C   UNL     1     -10.311  -5.276  -4.151  1.00  0.00    -0.018 C 
ATOM     73  C   UNL     1     -11.361  -3.358  -5.421  1.00  0.00     0.044 C 
BRANCH  72  74
ATOM     74  C   UNL     1     -11.529  -6.172  -3.978  1.00  0.00     0.038 C 
ATOM     75  C   UNL     1     -12.532  -5.408  -3.104  1.00  0.00     0.015 C 
BRANCH  74  76
ATOM     76  C   UNL     1     -11.066  -7.540  -3.397  1.00  0.00     0.128 C 
BRANCH  76  77
ATOM     77  O   UNL     1     -10.926  -8.501  -4.457  1.00  0.00    -0.381 OA
ATOM     78  C   UNL     1     -10.185  -9.656  -4.086  1.00  0.00     0.195 C 
ENDBRANCH  76  77
BRANCH  76  79
ATOM     79  C   UNL     1      -9.807  -7.449  -2.499  1.00  0.00     0.068 C 
BRANCH  79  80
ATOM     80  C   UNL     1     -10.004  -7.450  -1.002  1.00  0.00    -0.045 A 
ATOM     81  C   UNL     1     -11.269  -7.668  -0.441  1.00  0.00     0.004 A 
ATOM     82  C   UNL     1      -8.920  -7.204  -0.146  1.00  0.00     0.004 A 
ATOM     83  C   UNL     1     -11.445  -7.653   0.944  1.00  0.00     0.000 A 
ATOM     84  C   UNL     1      -9.097  -7.189   1.239  1.00  0.00     0.000 A 
ATOM     85  C   UNL     1     -10.359  -7.415   1.784  1.00  0.00     0.000 A 
ENDBRANCH  79  80
ENDBRANCH  76  79
ENDBRANCH  74  76
ENDBRANCH  72  74
ENDBRANCH  70  71
ENDBRANCH   1  69
TORSDOF 17
ENDMDL
MODEL 47
REMARK VINA RESULT:    -5.474      3.278     13.774
REMARK INTER + INTRA:         -24.030
REMARK INTER:                 -18.012
REMARK INTRA:                  -6.018
REMARK UNBOUND:                -7.676
REMARK SMILES C=C1C(=O)N[C@H](C)C(=O)N[C@@H](CC(C)C)C(=O)N[C@@H](C(=O)O)[C@H](C)C(=O)N[C@@H](CCCN=C(N)N)C(=O)N[C@@H](/C=C/C(C)=C/[C@H](C)[C@H](Cc2ccccc2)OC)[C@H](C)C(=O)N[C@@H](C(=O)O)CCC(=O)N1C
REMARK SMILES IDX 39 1 38 2 37 3 36 4 28 6 27 7 25 8 26 9 23 11 24 12 19 13
REMARK SMILES IDX 18 14 16 15 17 16 11 18 10 19 8 20 9 21 12 24 13 25 14 26
REMARK SMILES IDX 15 27 20 28 21 29 22 30 29 32 30 33 31 34 32 35 33 36 34 37
REMARK SMILES IDX 35 38 57 43 58 44 59 45 60 46 61 47 62 49 66 50 67 51 68 52
REMARK SMILES IDX 69 53 70 54 71 55 2 56 1 57 3 58 4 59 5 60 6 62 7 63 63 65
REMARK SMILES IDX 64 66 65 67 40 69 41 70 42 71 44 72 43 73 45 74 46 75 47 76
REMARK SMILES IDX 55 77 56 78 48 79 49 80 50 81 54 82 51 83 53 84 52 85
REMARK H PARENT 38 5 27 10 18 17 10 22 22 31 34 39 34 40 35 41 35 42 61 48
REMARK H PARENT 5 61 65 68
REMARK Flexibility Score:  369.900
ROOT
ATOM      1  C   UNL     1      -4.710  -2.597  -1.288  1.00  0.00     0.117 C 
ENDROOT
BRANCH   1   2
ATOM      2  N   UNL     1      -5.161  -3.376  -0.134  1.00  0.00    -0.347 N 
ATOM      3  O   UNL     1      -3.272  -3.153   1.152  1.00  0.00    -0.273 OA
ATOM      4  C   UNL     1      -4.438  -3.515   1.035  1.00  0.00     0.243 C 
ATOM      5  H   UNL     1      -6.074  -3.805  -0.154  1.00  0.00     0.164 HD
BRANCH   4   6
ATOM      6  C   UNL     1      -5.179  -4.319   2.134  1.00  0.00     0.171 C 
BRANCH   6   7
ATOM      7  N   UNL     1      -5.559  -3.436   3.249  1.00  0.00    -0.344 N 
ATOM      8  C   UNL     1      -4.808  -3.399   4.403  1.00  0.00     0.226 C 
ATOM      9  O   UNL     1      -3.817  -4.101   4.569  1.00  0.00    -0.275 OA
ATOM     10  H   UNL     1      -6.409  -2.892   3.176  1.00  0.00     0.164 HD
BRANCH   8  11
ATOM     11  C   UNL     1      -5.297  -2.400   5.436  1.00  0.00     0.109 C 
ATOM     12  C   UNL     1      -4.999  -0.975   4.972  1.00  0.00     0.021 C 
BRANCH  11  13
ATOM     13  C   UNL     1      -6.777  -2.677   5.770  1.00  0.00     0.204 C 
BRANCH  13  14
ATOM     14  N   UNL     1      -6.943  -3.895   6.570  1.00  0.00    -0.340 N 
ATOM     15  C   UNL     1      -7.834  -4.893   6.237  1.00  0.00     0.243 C 
ATOM     16  O   UNL     1      -8.509  -4.860   5.211  1.00  0.00    -0.273 OA
ATOM     17  H   UNL     1      -6.528  -3.915   7.505  1.00  0.00     0.164 HD
BRANCH  15  18
ATOM     18  C   UNL     1      -7.986  -5.976   7.333  1.00  0.00     0.171 C 
BRANCH  18  19
ATOM     19  N   UNL     1      -7.338  -7.182   6.823  1.00  0.00    -0.343 N 
ATOM     20  C   UNL     1      -5.974  -7.376   6.926  1.00  0.00     0.242 CG0
ATOM     21  O   UNL     1      -5.227  -6.488   7.329  1.00  0.00    -0.273 OA
ATOM     22  H   UNL     1      -7.900  -7.897   6.374  1.00  0.00     0.164 HD
ATOM     23  G   UNL     1      -5.484  -8.742   6.402  1.00  0.00     0.000 G0
ENDBRANCH  18  19
BRANCH  18  24
ATOM     24  C   UNL     1      -7.349  -5.509   8.648  1.00  0.00     0.038 C 
BRANCH  24  25
ATOM     25  C   UNL     1      -8.322  -4.817   9.626  1.00  0.00    -0.015 C 
ATOM     26  C   UNL     1      -9.752  -4.762   9.087  1.00  0.00     0.007 C 
ATOM     27  C   UNL     1      -7.829  -3.399   9.925  1.00  0.00     0.007 C 
ENDBRANCH  24  25
ENDBRANCH  18  24
ENDBRANCH  15  18
ENDBRANCH  13  14
BRANCH  13  28
ATOM     28  C   UNL     1      -7.447  -1.534   6.538  1.00  0.00     0.327 C 
ATOM     29  O   UNL     1      -7.014  -0.986   7.541  1.00  0.00    -0.250 OA
BRANCH  28  30
ATOM     30  O   UNL     1      -8.674  -1.231   6.070  1.00  0.00    -0.480 OA
ATOM     31  H   UNL     1      -8.546  -0.390   5.584  1.00  0.00     0.296 HD
ENDBRANCH  28  30
ENDBRANCH  13  28
ENDBRANCH  11  13
ENDBRANCH   8  11
ENDBRANCH   6   7
BRANCH   6  32
ATOM     32  C   UNL     1      -6.414  -4.989   1.521  1.00  0.00     0.037 C 
BRANCH  32  33
ATOM     33  C   UNL     1      -6.988  -6.086   2.428  1.00  0.00     0.026 C 
BRANCH  33  34
ATOM     34  C   UNL     1      -8.388  -6.527   1.999  1.00  0.00     0.146 C 
BRANCH  34  35
ATOM     35  N   UNL     1      -8.411  -7.979   1.891  1.00  0.00    -0.254 NA
ATOM     36  C   UNL     1      -8.458  -8.508   0.726  1.00  0.00     0.185 C 
ATOM     37  N   UNL     1      -8.475  -9.845   0.615  1.00  0.00    -0.370 N 
ATOM     38  N   UNL     1      -8.495  -7.904  -0.475  1.00  0.00    -0.370 N 
ATOM     39  H   UNL     1      -8.439 -10.373   1.478  1.00  0.00     0.159 HD
ATOM     40  H   UNL     1      -8.336 -10.333  -0.254  1.00  0.00     0.159 HD
ATOM     41  H   UNL     1      -8.671  -8.428  -1.317  1.00  0.00     0.159 HD
ATOM     42  H   UNL     1      -8.504  -6.898  -0.543  1.00  0.00     0.159 HD
ENDBRANCH  34  35
ENDBRANCH  33  34
ENDBRANCH  32  33
ENDBRANCH   6  32
ENDBRANCH   4   6
ENDBRANCH   1   2
BRANCH   1  43
ATOM     43  C   UNL     1      -5.887  -1.703  -1.773  1.00  0.00     0.102 C 
ATOM     44  C   UNL     1      -6.307  -0.635  -0.749  1.00  0.00     0.020 C 
BRANCH  43  45
ATOM     45  C   UNL     1      -7.048  -2.557  -2.292  1.00  0.00     0.225 C 
ATOM     46  O   UNL     1      -7.590  -3.431  -1.622  1.00  0.00    -0.275 OA
ATOM     47  N   UNL     1      -7.396  -2.347  -3.607  1.00  0.00    -0.342 N 
ATOM     48  H   UNL     1      -7.050  -1.531  -4.092  1.00  0.00     0.164 HD
BRANCH  47  49
ATOM     49  C   UNL     1      -8.511  -3.067  -4.229  1.00  0.00     0.192 C 
BRANCH  49  50
ATOM     50  C   UNL     1      -8.318  -3.103  -5.747  1.00  0.00     0.047 C 
BRANCH  50  51
ATOM     51  C   UNL     1      -6.982  -2.484  -6.178  1.00  0.00     0.103 C 
BRANCH  51  52
ATOM     52  C   UNL     1      -7.174  -1.332  -7.162  1.00  0.00     0.226 C 
ATOM     53  O   UNL     1      -8.281  -1.142  -7.670  1.00  0.00    -0.275 OA
BRANCH  52  54
ATOM     54  N   UNL     1      -6.063  -0.495  -7.373  1.00  0.00    -0.311 N 
ATOM     55  C   UNL     1      -4.803  -0.716  -6.650  1.00  0.00     0.153 C 
BRANCH  54  56
ATOM     56  C   UNL     1      -6.113   0.575  -8.282  1.00  0.00     0.102 C 
ATOM     57  C   UNL     1      -6.331   1.857  -7.948  1.00  0.00     0.043 C 
BRANCH  56  58
ATOM     58  C   UNL     1      -5.871   0.351  -9.756  1.00  0.00     0.268 C 
ATOM     59  O   UNL     1      -6.772   0.288 -10.581  1.00  0.00    -0.268 OA
ATOM     60  N   UNL     1      -4.536   0.293 -10.081  1.00  0.00    -0.339 N 
ATOM     61  H   UNL     1      -3.851   0.343  -9.337  1.00  0.00     0.164 HD
BRANCH  60  62
ATOM     62  C   UNL     1      -4.077   0.145 -11.462  1.00  0.00     0.168 CG0
ATOM     63  C   UNL     1      -2.743  -0.589 -11.518  1.00  0.00     0.041 C 
ATOM     64  G   UNL     1      -3.964   1.535 -12.121  1.00  0.00     0.000 G0
ENDBRANCH  60  62
ENDBRANCH  56  58
ENDBRANCH  54  56
ENDBRANCH  52  54
ENDBRANCH  51  52
ENDBRANCH  50  51
ENDBRANCH  49  50
BRANCH  49  65
ATOM     65  C   UNL     1      -9.861  -2.409  -3.903  1.00  0.00     0.326 C 
ATOM     66  O   UNL     1     -10.372  -1.489  -4.525  1.00  0.00    -0.250 OA
BRANCH  65  67
ATOM     67  O   UNL     1     -10.469  -2.888  -2.794  1.00  0.00    -0.480 OA
ATOM     68  H   UNL     1     -11.411  -2.959  -3.059  1.00  0.00     0.296 HD
ENDBRANCH  65  67
ENDBRANCH  49  65
ENDBRANCH  47  49
ENDBRANCH  43  45
ENDBRANCH   1  43
BRANCH   1  69
ATOM     69  C   UNL     1      -4.096  -3.591  -2.257  1.00  0.00    -0.001 C 
ATOM     70  C   UNL     1      -3.199  -3.340  -3.226  1.00  0.00     0.001 C 
BRANCH  70  71
ATOM     71  C   UNL     1      -2.598  -4.312  -4.142  1.00  0.00    -0.055 C 
ATOM     72  C   UNL     1      -2.264  -3.886  -5.378  1.00  0.00    -0.018 C 
ATOM     73  C   UNL     1      -2.386  -5.715  -3.636  1.00  0.00     0.044 C 
BRANCH  72  74
ATOM     74  C   UNL     1      -1.630  -4.660  -6.525  1.00  0.00     0.038 C 
ATOM     75  C   UNL     1      -0.139  -4.812  -6.199  1.00  0.00     0.015 C 
BRANCH  74  76
ATOM     76  C   UNL     1      -1.934  -3.918  -7.860  1.00  0.00     0.128 C 
BRANCH  76  77
ATOM     77  O   UNL     1      -0.744  -3.274  -8.345  1.00  0.00    -0.381 OA
ATOM     78  C   UNL     1      -0.617  -3.301  -9.760  1.00  0.00     0.195 C 
ENDBRANCH  76  77
BRANCH  76  79
ATOM     79  C   UNL     1      -2.616  -4.805  -8.932  1.00  0.00     0.068 C 
BRANCH  79  80
ATOM     80  C   UNL     1      -4.079  -4.570  -9.218  1.00  0.00    -0.045 A 
ATOM     81  C   UNL     1      -4.521  -3.364  -9.778  1.00  0.00     0.004 A 
ATOM     82  C   UNL     1      -5.029  -5.552  -8.898  1.00  0.00     0.004 A 
ATOM     83  C   UNL     1      -5.878  -3.149 -10.026  1.00  0.00     0.000 A 
ATOM     84  C   UNL     1      -6.386  -5.335  -9.146  1.00  0.00     0.000 A 
ATOM     85  C   UNL     1      -6.810  -4.135  -9.711  1.00  0.00     0.000 A 
ENDBRANCH  79  80
ENDBRANCH  76  79
ENDBRANCH  74  76
ENDBRANCH  72  74
ENDBRANCH  70  71
ENDBRANCH   1  69
TORSDOF 17
ENDMDL
MODEL 48
REMARK VINA RESULT:    -5.389      2.972      6.008
REMARK INTER + INTRA:         -23.776
REMARK INTER:                 -15.251
REMARK INTRA:                  -8.525
REMARK UNBOUND:                -7.676
REMARK SMILES C=C1C(=O)N[C@H](C)C(=O)N[C@@H](CC(C)C)C(=O)N[C@@H](C(=O)O)[C@H](C)C(=O)N[C@@H](CCCN=C(N)N)C(=O)N[C@@H](/C=C/C(C)=C/[C@H](C)[C@H](Cc2ccccc2)OC)[C@H](C)C(=O)N[C@@H](C(=O)O)CCC(=O)N1C
REMARK SMILES IDX 39 1 38 2 37 3 36 4 28 6 27 7 25 8 26 9 23 11 24 12 19 13
REMARK SMILES IDX 18 14 16 15 17 16 11 18 10 19 8 20 9 21 12 24 13 25 14 26
REMARK SMILES IDX 15 27 20 28 21 29 22 30 29 32 30 33 31 34 32 35 33 36 34 37
REMARK SMILES IDX 35 38 57 43 58 44 59 45 60 46 61 47 62 49 66 50 67 51 68 52
REMARK SMILES IDX 69 53 70 54 71 55 2 56 1 57 3 58 4 59 5 60 6 62 7 63 63 65
REMARK SMILES IDX 64 66 65 67 40 69 41 70 42 71 44 72 43 73 45 74 46 75 47 76
REMARK SMILES IDX 55 77 56 78 48 79 49 80 50 81 54 82 51 83 53 84 52 85
REMARK H PARENT 38 5 27 10 18 17 10 22 22 31 34 39 34 40 35 41 35 42 61 48
REMARK H PARENT 5 61 65 68
REMARK Flexibility Score:  369.900
ROOT
ATOM      1  C   UNL     1      -4.995  -1.068  -5.411  1.00  0.00     0.117 C 
ENDROOT
BRANCH   1   2
ATOM      2  N   UNL     1      -4.338   0.188  -5.775  1.00  0.00    -0.347 N 
ATOM      3  O   UNL     1      -2.173  -0.463  -5.376  1.00  0.00    -0.273 OA
ATOM      4  C   UNL     1      -2.968   0.361  -5.816  1.00  0.00     0.243 C 
ATOM      5  H   UNL     1      -4.900   0.973  -6.065  1.00  0.00     0.164 HD
BRANCH   4   6
ATOM      6  C   UNL     1      -2.531   1.761  -6.317  1.00  0.00     0.171 C 
BRANCH   6   7
ATOM      7  N   UNL     1      -1.360   1.649  -7.200  1.00  0.00    -0.344 N 
ATOM      8  C   UNL     1      -0.084   1.787  -6.697  1.00  0.00     0.226 C 
ATOM      9  O   UNL     1       0.137   2.029  -5.517  1.00  0.00    -0.275 OA
ATOM     10  H   UNL     1      -1.505   1.516  -8.193  1.00  0.00     0.164 HD
BRANCH   8  11
ATOM     11  C   UNL     1       1.018   1.591  -7.724  1.00  0.00     0.109 C 
ATOM     12  C   UNL     1       2.386   1.762  -7.065  1.00  0.00     0.021 C 
BRANCH  11  13
ATOM     13  C   UNL     1       0.814   0.250  -8.456  1.00  0.00     0.204 C 
BRANCH  13  14
ATOM     14  N   UNL     1       0.081   0.415  -9.715  1.00  0.00    -0.340 N 
ATOM     15  C   UNL     1      -0.837  -0.506 -10.173  1.00  0.00     0.243 C 
ATOM     16  O   UNL     1      -1.151  -1.503  -9.526  1.00  0.00    -0.273 OA
ATOM     17  H   UNL     1       0.402   1.135 -10.367  1.00  0.00     0.164 HD
BRANCH  15  18
ATOM     18  C   UNL     1      -1.327  -0.227 -11.615  1.00  0.00     0.171 C 
BRANCH  18  19
ATOM     19  N   UNL     1      -0.586  -1.132 -12.491  1.00  0.00    -0.343 N 
ATOM     20  C   UNL     1       0.701  -0.851 -12.909  1.00  0.00     0.242 CG0
ATOM     21  O   UNL     1       1.232   0.231 -12.674  1.00  0.00    -0.273 OA
ATOM     22  H   UNL     1      -1.027  -1.988 -12.809  1.00  0.00     0.164 HD
ATOM     23  G   UNL     1       1.348  -1.960 -13.764  1.00  0.00     0.000 G0
ENDBRANCH  18  19
BRANCH  18  24
ATOM     24  C   UNL     1      -2.840  -0.450 -11.726  1.00  0.00     0.038 C 
BRANCH  24  25
ATOM     25  C   UNL     1      -3.693   0.441 -10.798  1.00  0.00    -0.015 C 
ATOM     26  C   UNL     1      -5.193   0.234 -11.005  1.00  0.00     0.007 C 
ATOM     27  C   UNL     1      -3.338   1.913 -11.031  1.00  0.00     0.007 C 
ENDBRANCH  24  25
ENDBRANCH  18  24
ENDBRANCH  15  18
ENDBRANCH  13  14
BRANCH  13  28
ATOM     28  C   UNL     1       2.129  -0.463  -8.787  1.00  0.00     0.327 C 
ATOM     29  O   UNL     1       2.887  -0.192  -9.706  1.00  0.00    -0.250 OA
BRANCH  28  30
ATOM     30  O   UNL     1       2.352  -1.547  -8.016  1.00  0.00    -0.480 OA
ATOM     31  H   UNL     1       2.125  -1.249  -7.110  1.00  0.00     0.296 HD
ENDBRANCH  28  30
ENDBRANCH  13  28
ENDBRANCH  11  13
ENDBRANCH   8  11
ENDBRANCH   6   7
BRANCH   6  32
ATOM     32  C   UNL     1      -3.705   2.423  -7.046  1.00  0.00     0.037 C 
BRANCH  32  33
ATOM     33  C   UNL     1      -4.100   3.764  -6.410  1.00  0.00     0.026 C 
BRANCH  33  34
ATOM     34  C   UNL     1      -5.616   3.939  -6.308  1.00  0.00     0.146 C 
BRANCH  34  35
ATOM     35  N   UNL     1      -6.192   2.726  -5.744  1.00  0.00    -0.254 NA
ATOM     36  C   UNL     1      -7.271   2.262  -6.257  1.00  0.00     0.185 C 
ATOM     37  N   UNL     1      -7.807   1.142  -5.748  1.00  0.00    -0.370 N 
ATOM     38  N   UNL     1      -7.993   2.745  -7.283  1.00  0.00    -0.370 N 
ATOM     39  H   UNL     1      -7.314   0.712  -4.977  1.00  0.00     0.159 HD
ATOM     40  H   UNL     1      -8.543   0.624  -6.198  1.00  0.00     0.159 HD
ATOM     41  H   UNL     1      -8.901   2.367  -7.504  1.00  0.00     0.159 HD
ATOM     42  H   UNL     1      -7.716   3.593  -7.752  1.00  0.00     0.159 HD
ENDBRANCH  34  35
ENDBRANCH  33  34
ENDBRANCH  32  33
ENDBRANCH   6  32
ENDBRANCH   4   6
ENDBRANCH   1   2
BRANCH   1  43
ATOM     43  C   UNL     1      -4.839  -1.282  -3.877  1.00  0.00     0.102 C 
ATOM     44  C   UNL     1      -5.269  -2.682  -3.408  1.00  0.00     0.020 C 
BRANCH  43  45
ATOM     45  C   UNL     1      -5.488  -0.137  -3.094  1.00  0.00     0.225 C 
ATOM     46  O   UNL     1      -5.019   0.997  -3.051  1.00  0.00    -0.275 OA
ATOM     47  N   UNL     1      -6.594  -0.480  -2.351  1.00  0.00    -0.342 N 
ATOM     48  H   UNL     1      -7.051  -1.367  -2.515  1.00  0.00     0.164 HD
BRANCH  47  49
ATOM     49  C   UNL     1      -7.339   0.519  -1.580  1.00  0.00     0.192 C 
BRANCH  49  50
ATOM     50  C   UNL     1      -8.140  -0.176  -0.475  1.00  0.00     0.047 C 
BRANCH  50  51
ATOM     51  C   UNL     1      -7.644  -1.603  -0.207  1.00  0.00     0.103 C 
BRANCH  51  52
ATOM     52  C   UNL     1      -6.830  -1.694   1.083  1.00  0.00     0.226 C 
ATOM     53  O   UNL     1      -7.384  -1.510   2.168  1.00  0.00    -0.275 OA
BRANCH  52  54
ATOM     54  N   UNL     1      -5.480  -2.067   0.947  1.00  0.00    -0.311 N 
ATOM     55  C   UNL     1      -4.497  -1.146   0.362  1.00  0.00     0.153 C 
BRANCH  54  56
ATOM     56  C   UNL     1      -5.022  -3.326   1.369  1.00  0.00     0.102 C 
ATOM     57  C   UNL     1      -4.947  -4.417   0.589  1.00  0.00     0.043 C 
BRANCH  56  58
ATOM     58  C   UNL     1      -4.519  -3.535   2.777  1.00  0.00     0.268 C 
ATOM     59  O   UNL     1      -3.336  -3.465   3.083  1.00  0.00    -0.268 OA
ATOM     60  N   UNL     1      -5.528  -3.746   3.686  1.00  0.00    -0.339 N 
ATOM     61  H   UNL     1      -6.482  -3.801   3.350  1.00  0.00     0.164 HD
BRANCH  60  62
ATOM     62  C   UNL     1      -5.268  -3.910   5.116  1.00  0.00     0.168 CG0
ATOM     63  C   UNL     1      -5.061  -5.378   5.469  1.00  0.00     0.041 C 
ATOM     64  G   UNL     1      -6.437  -3.313   5.926  1.00  0.00     0.000 G0
ENDBRANCH  60  62
ENDBRANCH  56  58
ENDBRANCH  54  56
ENDBRANCH  52  54
ENDBRANCH  51  52
ENDBRANCH  50  51
ENDBRANCH  49  50
BRANCH  49  65
ATOM     65  C   UNL     1      -8.296   1.326  -2.472  1.00  0.00     0.326 C 
ATOM     66  O   UNL     1      -9.400   0.957  -2.845  1.00  0.00    -0.250 OA
BRANCH  65  67
ATOM     67  O   UNL     1      -7.806   2.511  -2.896  1.00  0.00    -0.480 OA
ATOM     68  H   UNL     1      -8.397   3.171  -2.473  1.00  0.00     0.296 HD
ENDBRANCH  65  67
ENDBRANCH  49  65
ENDBRANCH  47  49
ENDBRANCH  43  45
ENDBRANCH   1  43
BRANCH   1  69
ATOM     69  C   UNL     1      -4.449  -2.122  -6.357  1.00  0.00    -0.001 C 
ATOM     70  C   UNL     1      -4.836  -2.363  -7.622  1.00  0.00     0.001 C 
BRANCH  70  71
ATOM     71  C   UNL     1      -4.287  -3.369  -8.534  1.00  0.00    -0.055 C 
ATOM     72  C   UNL     1      -3.514  -4.341  -8.004  1.00  0.00    -0.018 C 
ATOM     73  C   UNL     1      -4.629  -3.253  -9.996  1.00  0.00     0.044 C 
BRANCH  72  74
ATOM     74  C   UNL     1      -2.821  -5.505  -8.697  1.00  0.00     0.038 C 
ATOM     75  C   UNL     1      -3.789  -6.693  -8.664  1.00  0.00     0.015 C 
BRANCH  74  76
ATOM     76  C   UNL     1      -1.452  -5.759  -8.000  1.00  0.00     0.128 C 
BRANCH  76  77
ATOM     77  O   UNL     1      -0.426  -5.951  -8.989  1.00  0.00    -0.381 OA
ATOM     78  C   UNL     1      -0.412  -4.951  -9.999  1.00  0.00     0.195 C 
ENDBRANCH  76  77
BRANCH  76  79
ATOM     79  C   UNL     1      -1.074  -4.689  -6.945  1.00  0.00     0.068 C 
BRANCH  79  80
ATOM     80  C   UNL     1      -1.140  -5.079  -5.488  1.00  0.00    -0.045 A 
ATOM     81  C   UNL     1      -2.272  -4.791  -4.714  1.00  0.00     0.004 A 
ATOM     82  C   UNL     1      -0.049  -5.715  -4.876  1.00  0.00     0.004 A 
ATOM     83  C   UNL     1      -2.319  -5.142  -3.363  1.00  0.00     0.000 A 
ATOM     84  C   UNL     1      -0.097  -6.065  -3.525  1.00  0.00     0.000 A 
ATOM     85  C   UNL     1      -1.232  -5.781  -2.770  1.00  0.00     0.000 A 
ENDBRANCH  79  80
ENDBRANCH  76  79
ENDBRANCH  74  76
ENDBRANCH  72  74
ENDBRANCH  70  71
ENDBRANCH   1  69
TORSDOF 17
ENDMDL
MODEL 49
REMARK VINA RESULT:    -5.382      2.853      4.873
REMARK INTER + INTRA:         -23.754
REMARK INTER:                 -14.809
REMARK INTRA:                  -8.946
REMARK UNBOUND:                -7.676
REMARK SMILES C=C1C(=O)N[C@H](C)C(=O)N[C@@H](CC(C)C)C(=O)N[C@@H](C(=O)O)[C@H](C)C(=O)N[C@@H](CCCN=C(N)N)C(=O)N[C@@H](/C=C/C(C)=C/[C@H](C)[C@H](Cc2ccccc2)OC)[C@H](C)C(=O)N[C@@H](C(=O)O)CCC(=O)N1C
REMARK SMILES IDX 39 1 38 2 37 3 36 4 28 6 27 7 25 8 26 9 23 11 24 12 19 13
REMARK SMILES IDX 18 14 16 15 17 16 11 18 10 19 8 20 9 21 12 24 13 25 14 26
REMARK SMILES IDX 15 27 20 28 21 29 22 30 29 32 30 33 31 34 32 35 33 36 34 37
REMARK SMILES IDX 35 38 57 43 58 44 59 45 60 46 61 47 62 49 66 50 67 51 68 52
REMARK SMILES IDX 69 53 70 54 71 55 2 56 1 57 3 58 4 59 5 60 6 62 7 63 63 65
REMARK SMILES IDX 64 66 65 67 40 69 41 70 42 71 44 72 43 73 45 74 46 75 47 76
REMARK SMILES IDX 55 77 56 78 48 79 49 80 50 81 54 82 51 83 53 84 52 85
REMARK H PARENT 38 5 27 10 18 17 10 22 22 31 34 39 34 40 35 41 35 42 61 48
REMARK H PARENT 5 61 65 68
REMARK Flexibility Score:  369.900
ROOT
ATOM      1  C   UNL     1      -7.082   0.089  -3.330  1.00  0.00     0.117 C 
ENDROOT
BRANCH   1   2
ATOM      2  N   UNL     1      -6.788  -0.431  -4.666  1.00  0.00    -0.347 N 
ATOM      3  O   UNL     1      -7.555   1.362  -5.877  1.00  0.00    -0.273 OA
ATOM      4  C   UNL     1      -6.964   0.288  -5.832  1.00  0.00     0.243 C 
ATOM      5  H   UNL     1      -6.384  -1.351  -4.760  1.00  0.00     0.164 HD
BRANCH   4   6
ATOM      6  C   UNL     1      -6.495  -0.463  -7.104  1.00  0.00     0.171 C 
BRANCH   6   7
ATOM      7  N   UNL     1      -5.318  -1.295  -6.806  1.00  0.00    -0.344 N 
ATOM      8  C   UNL     1      -4.047  -0.837  -7.077  1.00  0.00     0.226 C 
ATOM      9  O   UNL     1      -3.834   0.255  -7.591  1.00  0.00    -0.275 OA
ATOM     10  H   UNL     1      -5.457  -2.229  -6.443  1.00  0.00     0.164 HD
BRANCH   8  11
ATOM     11  C   UNL     1      -2.938  -1.788  -6.662  1.00  0.00     0.109 C 
ATOM     12  C   UNL     1      -3.434  -2.727  -5.563  1.00  0.00     0.021 C 
BRANCH  11  13
ATOM     13  C   UNL     1      -2.363  -2.493  -7.906  1.00  0.00     0.204 C 
BRANCH  13  14
ATOM     14  N   UNL     1      -1.459  -1.623  -8.665  1.00  0.00    -0.340 N 
ATOM     15  C   UNL     1      -1.147  -1.841  -9.990  1.00  0.00     0.243 C 
ATOM     16  O   UNL     1      -1.653  -2.749 -10.647  1.00  0.00    -0.273 OA
ATOM     17  H   UNL     1      -0.892  -0.948  -8.145  1.00  0.00     0.164 HD
BRANCH  15  18
ATOM     18  C   UNL     1      -0.018  -0.923 -10.519  1.00  0.00     0.171 C 
BRANCH  18  19
ATOM     19  N   UNL     1      -0.529  -0.287 -11.732  1.00  0.00    -0.343 N 
ATOM     20  C   UNL     1      -0.174  -0.729 -12.991  1.00  0.00     0.242 CG0
ATOM     21  O   UNL     1       0.690  -1.589 -13.152  1.00  0.00    -0.273 OA
ATOM     22  H   UNL     1      -1.158   0.504 -11.651  1.00  0.00     0.164 HD
ATOM     23  G   UNL     1      -0.874   0.013 -14.148  1.00  0.00     0.000 G0
ENDBRANCH  18  19
BRANCH  18  24
ATOM     24  C   UNL     1       0.374   0.117  -9.462  1.00  0.00     0.038 C 
BRANCH  24  25
ATOM     25  C   UNL     1       1.864   0.099  -9.061  1.00  0.00    -0.015 C 
ATOM     26  C   UNL     1       2.795   0.285 -10.259  1.00  0.00     0.007 C 
ATOM     27  C   UNL     1       2.191  -1.220  -8.355  1.00  0.00     0.007 C 
ENDBRANCH  24  25
ENDBRANCH  18  24
ENDBRANCH  15  18
ENDBRANCH  13  14
BRANCH  13  28
ATOM     28  C   UNL     1      -1.587  -3.771  -7.572  1.00  0.00     0.327 C 
ATOM     29  O   UNL     1      -0.571  -3.844  -6.897  1.00  0.00    -0.250 OA
BRANCH  28  30
ATOM     30  O   UNL     1      -2.068  -4.862  -8.202  1.00  0.00    -0.480 OA
ATOM     31  H   UNL     1      -1.381  -5.545  -8.059  1.00  0.00     0.296 HD
ENDBRANCH  28  30
ENDBRANCH  13  28
ENDBRANCH  11  13
ENDBRANCH   8  11
ENDBRANCH   6   7
BRANCH   6  32
ATOM     32  C   UNL     1      -7.649  -1.319  -7.638  1.00  0.00     0.037 C 
BRANCH  32  33
ATOM     33  C   UNL     1      -7.214  -2.762  -7.929  1.00  0.00     0.026 C 
BRANCH  33  34
ATOM     34  C   UNL     1      -7.232  -3.089  -9.422  1.00  0.00     0.146 C 
BRANCH  34  35
ATOM     35  N   UNL     1      -6.139  -4.006  -9.716  1.00  0.00    -0.254 NA
ATOM     36  C   UNL     1      -5.065  -3.536 -10.233  1.00  0.00     0.185 C 
ATOM     37  N   UNL     1      -4.050  -4.371 -10.503  1.00  0.00    -0.370 N 
ATOM     38  N   UNL     1      -4.774  -2.267 -10.569  1.00  0.00    -0.370 N 
ATOM     39  H   UNL     1      -4.189  -5.346 -10.268  1.00  0.00     0.159 HD
ATOM     40  H   UNL     1      -3.124  -4.061 -10.743  1.00  0.00     0.159 HD
ATOM     41  H   UNL     1      -3.947  -2.044 -11.098  1.00  0.00     0.159 HD
ATOM     42  H   UNL     1      -5.453  -1.533 -10.436  1.00  0.00     0.159 HD
ENDBRANCH  34  35
ENDBRANCH  33  34
ENDBRANCH  32  33
ENDBRANCH   6  32
ENDBRANCH   4   6
ENDBRANCH   1   2
BRANCH   1  43
ATOM     43  C   UNL     1      -5.928  -0.325  -2.372  1.00  0.00     0.102 C 
ATOM     44  C   UNL     1      -4.566   0.275  -2.758  1.00  0.00     0.020 C 
BRANCH  43  45
ATOM     45  C   UNL     1      -5.902  -1.843  -2.167  1.00  0.00     0.225 C 
ATOM     46  O   UNL     1      -5.920  -2.646  -3.096  1.00  0.00    -0.275 OA
ATOM     47  N   UNL     1      -5.953  -2.265  -0.858  1.00  0.00    -0.342 N 
ATOM     48  H   UNL     1      -5.785  -1.604  -0.113  1.00  0.00     0.164 HD
BRANCH  47  49
ATOM     49  C   UNL     1      -5.899  -3.688  -0.509  1.00  0.00     0.192 C 
BRANCH  49  50
ATOM     50  C   UNL     1      -7.046  -4.027   0.447  1.00  0.00     0.047 C 
BRANCH  50  51
ATOM     51  C   UNL     1      -7.145  -3.032   1.612  1.00  0.00     0.103 C 
BRANCH  51  52
ATOM     52  C   UNL     1      -7.400  -3.734   2.944  1.00  0.00     0.226 C 
ATOM     53  O   UNL     1      -8.555  -3.864   3.354  1.00  0.00    -0.275 OA
BRANCH  52  54
ATOM     54  N   UNL     1      -6.273  -4.265   3.599  1.00  0.00    -0.311 N 
ATOM     55  C   UNL     1      -6.060  -5.716   3.679  1.00  0.00     0.153 C 
BRANCH  54  56
ATOM     56  C   UNL     1      -5.311  -3.432   4.193  1.00  0.00     0.102 C 
ATOM     57  C   UNL     1      -3.999  -3.448   3.905  1.00  0.00     0.043 C 
BRANCH  56  58
ATOM     58  C   UNL     1      -5.710  -2.386   5.207  1.00  0.00     0.268 C 
ATOM     59  O   UNL     1      -6.068  -2.659   6.344  1.00  0.00    -0.268 OA
ATOM     60  N   UNL     1      -5.567  -1.101   4.742  1.00  0.00    -0.339 N 
ATOM     61  H   UNL     1      -5.275  -0.959   3.782  1.00  0.00     0.164 HD
BRANCH  60  62
ATOM     62  C   UNL     1      -5.838   0.066   5.581  1.00  0.00     0.168 CG0
ATOM     63  C   UNL     1      -4.560   0.583   6.229  1.00  0.00     0.041 C 
ATOM     64  G   UNL     1      -6.885  -0.301   6.653  1.00  0.00     0.000 G0
ENDBRANCH  60  62
ENDBRANCH  56  58
ENDBRANCH  54  56
ENDBRANCH  52  54
ENDBRANCH  51  52
ENDBRANCH  50  51
ENDBRANCH  49  50
BRANCH  49  65
ATOM     65  C   UNL     1      -4.561  -4.060   0.148  1.00  0.00     0.326 C 
ATOM     66  O   UNL     1      -3.587  -3.328   0.241  1.00  0.00    -0.250 OA
BRANCH  65  67
ATOM     67  O   UNL     1      -4.488  -5.333   0.597  1.00  0.00    -0.480 OA
ATOM     68  H   UNL     1      -3.525  -5.485   0.705  1.00  0.00     0.296 HD
ENDBRANCH  65  67
ENDBRANCH  49  65
ENDBRANCH  47  49
ENDBRANCH  43  45
ENDBRANCH   1  43
BRANCH   1  69
ATOM     69  C   UNL     1      -8.498  -0.350  -3.006  1.00  0.00    -0.001 C 
ATOM     70  C   UNL     1      -9.587   0.430  -2.881  1.00  0.00     0.001 C 
BRANCH  70  71
ATOM     71  C   UNL     1     -10.953  -0.008  -2.589  1.00  0.00    -0.055 C 
ATOM     72  C   UNL     1     -11.148  -0.766  -1.490  1.00  0.00    -0.018 C 
ATOM     73  C   UNL     1     -12.046   0.424  -3.532  1.00  0.00     0.044 C 
BRANCH  72  74
ATOM     74  C   UNL     1     -12.440  -1.355  -0.942  1.00  0.00     0.038 C 
ATOM     75  C   UNL     1     -12.852  -0.500   0.263  1.00  0.00     0.015 C 
BRANCH  74  76
ATOM     76  C   UNL     1     -12.210  -2.862  -0.626  1.00  0.00     0.128 C 
BRANCH  76  77
ATOM     77  O   UNL     1     -13.032  -3.262   0.483  1.00  0.00    -0.381 OA
ATOM     78  C   UNL     1     -12.330  -3.992   1.480  1.00  0.00     0.195 C 
ENDBRANCH  76  77
BRANCH  76  79
ATOM     79  C   UNL     1     -12.365  -3.794  -1.854  1.00  0.00     0.068 C 
BRANCH  79  80
ATOM     80  C   UNL     1     -11.361  -3.662  -2.973  1.00  0.00    -0.045 A 
ATOM     81  C   UNL     1     -10.010  -3.977  -2.772  1.00  0.00     0.004 A 
ATOM     82  C   UNL     1     -11.763  -3.191  -4.232  1.00  0.00     0.004 A 
ATOM     83  C   UNL     1      -9.085  -3.838  -3.809  1.00  0.00     0.000 A 
ATOM     84  C   UNL     1     -10.836  -3.052  -5.268  1.00  0.00     0.000 A 
ATOM     85  C   UNL     1      -9.498  -3.378  -5.057  1.00  0.00     0.000 A 
ENDBRANCH  79  80
ENDBRANCH  76  79
ENDBRANCH  74  76
ENDBRANCH  72  74
ENDBRANCH  70  71
ENDBRANCH   1  69
TORSDOF 17
ENDMDL
MODEL 50
REMARK VINA RESULT:    -5.376      5.815     13.283
REMARK INTER + INTRA:         -23.738
REMARK INTER:                 -15.738
REMARK INTRA:                  -8.000
REMARK UNBOUND:                -7.676
REMARK SMILES C=C1C(=O)N[C@H](C)C(=O)N[C@@H](CC(C)C)C(=O)N[C@@H](C(=O)O)[C@H](C)C(=O)N[C@@H](CCCN=C(N)N)C(=O)N[C@@H](/C=C/C(C)=C/[C@H](C)[C@H](Cc2ccccc2)OC)[C@H](C)C(=O)N[C@@H](C(=O)O)CCC(=O)N1C
REMARK SMILES IDX 39 1 38 2 37 3 36 4 28 6 27 7 25 8 26 9 23 11 24 12 19 13
REMARK SMILES IDX 18 14 16 15 17 16 11 18 10 19 8 20 9 21 12 24 13 25 14 26
REMARK SMILES IDX 15 27 20 28 21 29 22 30 29 32 30 33 31 34 32 35 33 36 34 37
REMARK SMILES IDX 35 38 57 43 58 44 59 45 60 46 61 47 62 49 66 50 67 51 68 52
REMARK SMILES IDX 69 53 70 54 71 55 2 56 1 57 3 58 4 59 5 60 6 62 7 63 63 65
REMARK SMILES IDX 64 66 65 67 40 69 41 70 42 71 44 72 43 73 45 74 46 75 47 76
REMARK SMILES IDX 55 77 56 78 48 79 49 80 50 81 54 82 51 83 53 84 52 85
REMARK H PARENT 38 5 27 10 18 17 10 22 22 31 34 39 34 40 35 41 35 42 61 48
REMARK H PARENT 5 61 65 68
REMARK Flexibility Score:  369.900
ROOT
ATOM      1  C   UNL     1       1.500   0.358  -8.788  1.00  0.00     0.117 C 
ENDROOT
BRANCH   1   2
ATOM      2  N   UNL     1       1.047   1.327  -7.790  1.00  0.00    -0.347 N 
ATOM      3  O   UNL     1       2.190   0.479  -5.989  1.00  0.00    -0.273 OA
ATOM      4  C   UNL     1       1.502   1.365  -6.486  1.00  0.00     0.243 C 
ATOM      5  H   UNL     1       0.400   2.052  -8.062  1.00  0.00     0.164 HD
BRANCH   4   6
ATOM      6  C   UNL     1       0.928   2.543  -5.659  1.00  0.00     0.171 C 
BRANCH   6   7
ATOM      7  N   UNL     1      -0.310   2.137  -4.975  1.00  0.00    -0.344 N 
ATOM      8  C   UNL     1      -1.534   2.282  -5.592  1.00  0.00     0.226 C 
ATOM      9  O   UNL     1      -1.656   2.767  -6.710  1.00  0.00    -0.275 OA
ATOM     10  H   UNL     1      -0.255   1.794  -4.024  1.00  0.00     0.164 HD
BRANCH   8  11
ATOM     11  C   UNL     1      -2.708   1.766  -4.779  1.00  0.00     0.109 C 
ATOM     12  C   UNL     1      -2.850   2.574  -3.489  1.00  0.00     0.021 C 
BRANCH  11  13
ATOM     13  C   UNL     1      -3.973   1.724  -5.659  1.00  0.00     0.204 C 
BRANCH  13  14
ATOM     14  N   UNL     1      -3.810   0.839  -6.817  1.00  0.00    -0.340 N 
ATOM     15  C   UNL     1      -4.358   1.113  -8.051  1.00  0.00     0.243 C 
ATOM     16  O   UNL     1      -4.972   2.153  -8.286  1.00  0.00    -0.273 OA
ATOM     17  H   UNL     1      -3.446  -0.103  -6.653  1.00  0.00     0.164 HD
BRANCH  15  18
ATOM     18  C   UNL     1      -4.233  -0.058  -9.057  1.00  0.00     0.171 C 
BRANCH  18  19
ATOM     19  N   UNL     1      -5.372   0.048  -9.966  1.00  0.00    -0.343 N 
ATOM     20  C   UNL     1      -6.191  -1.031 -10.238  1.00  0.00     0.242 CG0
ATOM     21  O   UNL     1      -5.923  -2.160  -9.833  1.00  0.00    -0.273 OA
ATOM     22  H   UNL     1      -5.568   0.935 -10.418  1.00  0.00     0.164 HD
ATOM     23  G   UNL     1      -7.387  -0.708 -11.157  1.00  0.00     0.000 G0
ENDBRANCH  18  19
BRANCH  18  24
ATOM     24  C   UNL     1      -2.901   0.018  -9.814  1.00  0.00     0.038 C 
BRANCH  24  25
ATOM     25  C   UNL     1      -3.023   0.447 -11.292  1.00  0.00    -0.015 C 
ATOM     26  C   UNL     1      -2.233  -0.464 -12.232  1.00  0.00     0.007 C 
ATOM     27  C   UNL     1      -2.543   1.892 -11.450  1.00  0.00     0.007 C 
ENDBRANCH  24  25
ENDBRANCH  18  24
ENDBRANCH  15  18
ENDBRANCH  13  14
BRANCH  13  28
ATOM     28  C   UNL     1      -5.220   1.257  -4.903  1.00  0.00     0.327 C 
ATOM     29  O   UNL     1      -5.396   0.153  -4.411  1.00  0.00    -0.250 OA
BRANCH  28  30
ATOM     30  O   UNL     1      -6.216   2.166  -4.913  1.00  0.00    -0.480 OA
ATOM     31  H   UNL     1      -7.014   1.653  -4.666  1.00  0.00     0.296 HD
ENDBRANCH  28  30
ENDBRANCH  13  28
ENDBRANCH  11  13
ENDBRANCH   8  11
ENDBRANCH   6   7
BRANCH   6  32
ATOM     32  C   UNL     1       1.983   3.011  -4.650  1.00  0.00     0.037 C 
BRANCH  32  33
ATOM     33  C   UNL     1       2.902   4.094  -5.232  1.00  0.00     0.026 C 
BRANCH  33  34
ATOM     34  C   UNL     1       2.161   5.403  -5.508  1.00  0.00     0.146 C 
BRANCH  34  35
ATOM     35  N   UNL     1       2.142   5.638  -6.946  1.00  0.00    -0.254 NA
ATOM     36  C   UNL     1       1.011   5.685  -7.546  1.00  0.00     0.185 C 
ATOM     37  N   UNL     1       0.982   5.906  -8.869  1.00  0.00    -0.370 N 
ATOM     38  N   UNL     1      -0.224   5.540  -7.034  1.00  0.00    -0.370 N 
ATOM     39  H   UNL     1       1.875   6.036  -9.328  1.00  0.00     0.159 HD
ATOM     40  H   UNL     1       0.143   6.128  -9.378  1.00  0.00     0.159 HD
ATOM     41  H   UNL     1      -1.029   5.459  -7.632  1.00  0.00     0.159 HD
ATOM     42  H   UNL     1      -0.353   5.353  -6.052  1.00  0.00     0.159 HD
ENDBRANCH  34  35
ENDBRANCH  33  34
ENDBRANCH  32  33
ENDBRANCH   6  32
ENDBRANCH   4   6
ENDBRANCH   1   2
BRANCH   1  43
ATOM     43  C   UNL     1       1.991   1.134 -10.044  1.00  0.00     0.102 C 
ATOM     44  C   UNL     1       1.097   0.928 -11.279  1.00  0.00     0.020 C 
BRANCH  43  45
ATOM     45  C   UNL     1       3.478   0.875 -10.304  1.00  0.00     0.225 C 
ATOM     46  O   UNL     1       4.066  -0.124  -9.898  1.00  0.00    -0.275 OA
ATOM     47  N   UNL     1       4.151   1.886 -10.950  1.00  0.00    -0.342 N 
ATOM     48  H   UNL     1       3.631   2.622 -11.407  1.00  0.00     0.164 HD
BRANCH  47  49
ATOM     49  C   UNL     1       5.570   1.762 -11.297  1.00  0.00     0.192 C 
BRANCH  49  50
ATOM     50  C   UNL     1       6.284   3.088 -11.024  1.00  0.00     0.047 C 
BRANCH  50  51
ATOM     51  C   UNL     1       5.379   4.100 -10.309  1.00  0.00     0.103 C 
BRANCH  51  52
ATOM     52  C   UNL     1       5.768   5.543 -10.627  1.00  0.00     0.226 C 
ATOM     53  O   UNL     1       5.304   6.094 -11.627  1.00  0.00    -0.275 OA
BRANCH  52  54
ATOM     54  N   UNL     1       6.596   6.189  -9.690  1.00  0.00    -0.311 N 
ATOM     55  C   UNL     1       6.069   6.626  -8.390  1.00  0.00     0.153 C 
BRANCH  54  56
ATOM     56  C   UNL     1       7.952   6.436  -9.959  1.00  0.00     0.102 C 
ATOM     57  C   UNL     1       8.939   5.536  -9.818  1.00  0.00     0.043 C 
BRANCH  56  58
ATOM     58  C   UNL     1       8.407   7.775 -10.491  1.00  0.00     0.268 C 
ATOM     59  O   UNL     1       7.745   8.444 -11.273  1.00  0.00    -0.268 OA
ATOM     60  N   UNL     1       9.602   8.191  -9.955  1.00  0.00    -0.339 N 
ATOM     61  H   UNL     1      10.093   7.573  -9.321  1.00  0.00     0.164 HD
BRANCH  60  62
ATOM     62  C   UNL     1      10.194   9.487 -10.285  1.00  0.00     0.168 CG0
ATOM     63  C   UNL     1      11.224   9.350 -11.399  1.00  0.00     0.041 C 
ATOM     64  G   UNL     1      10.833  10.100  -9.022  1.00  0.00     0.000 G0
ENDBRANCH  60  62
ENDBRANCH  56  58
ENDBRANCH  54  56
ENDBRANCH  52  54
ENDBRANCH  51  52
ENDBRANCH  50  51
ENDBRANCH  49  50
BRANCH  49  65
ATOM     65  C   UNL     1       5.761   1.376 -12.773  1.00  0.00     0.326 C 
ATOM     66  O   UNL     1       5.503   0.286 -13.261  1.00  0.00    -0.250 OA
BRANCH  65  67
ATOM     67  O   UNL     1       6.315   2.340 -13.540  1.00  0.00    -0.480 OA
ATOM     68  H   UNL     1       6.414   1.910 -14.417  1.00  0.00     0.296 HD
ENDBRANCH  65  67
ENDBRANCH  49  65
ENDBRANCH  47  49
ENDBRANCH  43  45
ENDBRANCH   1  43
BRANCH   1  69
ATOM     69  C   UNL     1       0.375  -0.650  -8.941  1.00  0.00    -0.001 C 
ATOM     70  C   UNL     1       0.487  -1.968  -9.185  1.00  0.00     0.001 C 
BRANCH  70  71
ATOM     71  C   UNL     1      -0.606  -2.935  -9.310  1.00  0.00    -0.055 C 
ATOM     72  C   UNL     1      -1.365  -3.168  -8.218  1.00  0.00    -0.018 C 
ATOM     73  C   UNL     1      -0.810  -3.594 -10.648  1.00  0.00     0.044 C 
BRANCH  72  74
ATOM     74  C   UNL     1      -2.554  -4.104  -8.054  1.00  0.00     0.038 C 
ATOM     75  C   UNL     1      -3.655  -3.316  -7.336  1.00  0.00     0.015 C 
BRANCH  74  76
ATOM     76  C   UNL     1      -2.081  -5.389  -7.313  1.00  0.00     0.128 C 
BRANCH  76  77
ATOM     77  O   UNL     1      -1.845  -6.444  -8.261  1.00  0.00    -0.381 OA
ATOM     78  C   UNL     1      -2.872  -6.577  -9.234  1.00  0.00     0.195 C 
ENDBRANCH  76  77
BRANCH  76  79
ATOM     79  C   UNL     1      -0.881  -5.160  -6.360  1.00  0.00     0.068 C 
BRANCH  79  80
ATOM     80  C   UNL     1      -1.110  -5.339  -4.878  1.00  0.00    -0.045 A 
ATOM     81  C   UNL     1      -0.208  -6.066  -4.091  1.00  0.00     0.004 A 
ATOM     82  C   UNL     1      -2.254  -4.800  -4.270  1.00  0.00     0.004 A 
ATOM     83  C   UNL     1      -0.435  -6.240  -2.724  1.00  0.00     0.000 A 
ATOM     84  C   UNL     1      -2.480  -4.974  -2.903  1.00  0.00     0.000 A 
ATOM     85  C   UNL     1      -1.570  -5.692  -2.130  1.00  0.00     0.000 A 
ENDBRANCH  79  80
ENDBRANCH  76  79
ENDBRANCH  74  76
ENDBRANCH  72  74
ENDBRANCH  70  71
ENDBRANCH   1  69
TORSDOF 17
ENDMDL
