MODEL 1
REMARK VINA RESULT:    -6.101      0.000      0.000
REMARK INTER + INTRA:         -21.141
REMARK INTER:                 -15.195
REMARK INTRA:                  -5.946
REMARK UNBOUND:                -5.946
REMARK SMILES CCCCCCC[C@H](N)[C@H](O)C(=O)N[C@H](C)C(=O)N(C)[C@H](CC(C)C)C(=O)N[C@@H](Cc1ccc(O)cc1)C(=O)N[C@@H](Cc1ccc(O)cc1)C(=O)O
REMARK SMILES IDX 18 1 17 2 15 3 16 4 14 5 12 6 13 7 10 9 11 10 8 12 9 13 7 16
REMARK SMILES IDX 6 17 5 18 4 19 3 20 2 21 1 22 19 23 20 24 21 25 22 26 23 27
REMARK SMILES IDX 24 28 25 29 26 30 27 31 28 32 29 34 30 35 31 36 32 37 37 38
REMARK SMILES IDX 33 39 36 40 34 41 35 42 38 44 39 45 40 46 41 48 42 49 43 50
REMARK SMILES IDX 44 51 49 52 45 53 48 54 46 55 47 56 50 58 51 59 52 60
REMARK H PARENT 14 8 11 11 9 14 9 15 28 33 35 43 40 47 47 57 52 61
ROOT
ATOM      1  O   UNL     1      -4.073   7.650  -8.215  1.00  0.00    -0.272 OA
ATOM      2  C   UNL     1      -4.249   6.930  -9.209  1.00  0.00     0.245 C 
ENDROOT
BRANCH   2   3
ATOM      3  C   UNL     1      -3.200   5.836  -9.527  1.00  0.00     0.168 C 
ATOM      4  C   UNL     1      -1.787   6.406  -9.466  1.00  0.00     0.041 C 
BRANCH   3   5
ATOM      5  N   UNL     1      -3.328   4.620  -8.739  1.00  0.00    -0.342 N 
ATOM      6  C   UNL     1      -3.238   3.369  -9.312  1.00  0.00     0.251 C 
ATOM      7  O   UNL     1      -3.088   3.185 -10.516  1.00  0.00    -0.272 OA
ATOM      8  H   UNL     1      -3.489   4.645  -7.735  1.00  0.00     0.164 HD
BRANCH   6   9
ATOM      9  C   UNL     1      -3.259   2.236  -8.273  1.00  0.00     0.219 C 
BRANCH   9  10
ATOM     10  O   UNL     1      -2.618   2.601  -7.045  1.00  0.00    -0.382 OA
ATOM     11  H   UNL     1      -2.145   1.781  -6.779  1.00  0.00     0.211 HD
ENDBRANCH   9  10
BRANCH   9  12
ATOM     12  C   UNL     1      -4.683   1.680  -8.007  1.00  0.00     0.089 C 
BRANCH  12  13
ATOM     13  N   UNL     1      -5.632   2.378  -8.904  1.00  0.00    -0.325 NA
ATOM     14  H   UNL     1      -5.953   3.236  -8.451  1.00  0.00     0.119 HD
ATOM     15  H   UNL     1      -6.471   1.803  -9.010  1.00  0.00     0.119 HD
ENDBRANCH  12  13
BRANCH  12  16
ATOM     16  C   UNL     1      -4.849   0.148  -8.146  1.00  0.00     0.022 C 
BRANCH  16  17
ATOM     17  C   UNL     1      -3.753  -0.662  -8.851  1.00  0.00     0.002 C 
BRANCH  17  18
ATOM     18  C   UNL     1      -3.957  -0.851 -10.353  1.00  0.00     0.000 C 
BRANCH  18  19
ATOM     19  C   UNL     1      -2.885  -1.720 -11.024  1.00  0.00    -0.000 C 
BRANCH  19  20
ATOM     20  C   UNL     1      -2.291  -1.140 -12.311  1.00  0.00    -0.000 C 
BRANCH  20  21
ATOM     21  C   UNL     1      -0.843  -0.672 -12.145  1.00  0.00    -0.003 C 
ATOM     22  C   UNL     1      -0.101  -0.683 -13.472  1.00  0.00     0.004 C 
ENDBRANCH  20  21
ENDBRANCH  19  20
ENDBRANCH  18  19
ENDBRANCH  17  18
ENDBRANCH  16  17
ENDBRANCH  12  16
ENDBRANCH   9  12
ENDBRANCH   6   9
ENDBRANCH   3   5
ENDBRANCH   2   3
BRANCH   2  23
ATOM     23  N   UNL     1      -5.428   7.031  -9.941  1.00  0.00    -0.332 N 
ATOM     24  C   UNL     1      -5.607   7.887 -11.104  1.00  0.00     0.147 C 
BRANCH  23  25
ATOM     25  C   UNL     1      -6.579   6.138  -9.637  1.00  0.00     0.174 C 
BRANCH  25  26
ATOM     26  C   UNL     1      -7.796   6.389 -10.559  1.00  0.00     0.038 C 
BRANCH  26  27
ATOM     27  C   UNL     1      -8.520   5.144 -11.118  1.00  0.00    -0.015 C 
ATOM     28  C   UNL     1      -7.757   4.493 -12.271  1.00  0.00     0.007 C 
ATOM     29  C   UNL     1      -8.863   4.110 -10.048  1.00  0.00     0.007 C 
ENDBRANCH  26  27
ENDBRANCH  25  26
BRANCH  25  30
ATOM     30  C   UNL     1      -6.918   6.199  -8.130  1.00  0.00     0.243 C 
ATOM     31  O   UNL     1      -7.304   7.236  -7.593  1.00  0.00    -0.273 OA
ATOM     32  N   UNL     1      -6.753   5.028  -7.436  1.00  0.00    -0.342 N 
ATOM     33  H   UNL     1      -6.566   4.180  -7.977  1.00  0.00     0.164 HD
BRANCH  32  34
ATOM     34  C   UNL     1      -6.999   4.907  -5.997  1.00  0.00     0.175 C 
BRANCH  34  35
ATOM     35  C   UNL     1      -8.263   4.081  -5.714  1.00  0.00     0.070 C 
BRANCH  35  36
ATOM     36  C   UNL     1      -9.342   4.881  -5.020  1.00  0.00    -0.045 A 
ATOM     37  C   UNL     1      -9.182   6.263  -4.837  1.00  0.00     0.007 A 
ATOM     38  C   UNL     1     -10.498   4.258  -4.531  1.00  0.00     0.007 A 
ATOM     39  C   UNL     1     -10.166   7.008  -4.185  1.00  0.00     0.046 A 
ATOM     40  C   UNL     1     -11.482   5.003  -3.877  1.00  0.00     0.046 A 
ATOM     41  C   UNL     1     -11.307   6.372  -3.711  1.00  0.00     0.115 A 
BRANCH  41  42
ATOM     42  O   UNL     1     -12.243   7.136  -3.077  1.00  0.00    -0.508 OA
ATOM     43  H   UNL     1     -12.082   8.066  -3.305  1.00  0.00     0.293 HD
ENDBRANCH  41  42
ENDBRANCH  35  36
ENDBRANCH  34  35
BRANCH  34  44
ATOM     44  C   UNL     1      -5.744   4.283  -5.347  1.00  0.00     0.243 C 
ATOM     45  O   UNL     1      -4.656   4.173  -5.905  1.00  0.00    -0.273 OA
ATOM     46  N   UNL     1      -5.985   3.732  -4.107  1.00  0.00    -0.341 N 
ATOM     47  H   UNL     1      -6.932   3.745  -3.736  1.00  0.00     0.164 HD
BRANCH  46  48
ATOM     48  C   UNL     1      -4.966   3.025  -3.327  1.00  0.00     0.196 C 
BRANCH  48  49
ATOM     49  C   UNL     1      -5.298   3.042  -1.826  1.00  0.00     0.072 C 
BRANCH  49  50
ATOM     50  C   UNL     1      -6.705   3.519  -1.546  1.00  0.00    -0.045 A 
ATOM     51  C   UNL     1      -6.948   4.879  -1.306  1.00  0.00     0.007 A 
ATOM     52  C   UNL     1      -7.776   2.617  -1.502  1.00  0.00     0.007 A 
ATOM     53  C   UNL     1      -8.240   5.329  -1.034  1.00  0.00     0.046 A 
ATOM     54  C   UNL     1      -9.070   3.067  -1.228  1.00  0.00     0.046 A 
ATOM     55  C   UNL     1      -9.291   4.420  -0.998  1.00  0.00     0.115 A 
BRANCH  55  56
ATOM     56  O   UNL     1     -10.538   4.900  -0.727  1.00  0.00    -0.508 OA
ATOM     57  H   UNL     1     -11.170   4.461  -1.318  1.00  0.00     0.293 HD
ENDBRANCH  55  56
ENDBRANCH  49  50
ENDBRANCH  48  49
BRANCH  48  58
ATOM     58  C   UNL     1      -4.878   1.574  -3.819  1.00  0.00     0.326 C 
ATOM     59  O   UNL     1      -5.629   0.653  -3.541  1.00  0.00    -0.250 OA
BRANCH  58  60
ATOM     60  O   UNL     1      -3.840   1.350  -4.663  1.00  0.00    -0.480 OA
ATOM     61  H   UNL     1      -3.504   2.253  -4.853  1.00  0.00     0.296 HD
ENDBRANCH  58  60
ENDBRANCH  48  58
ENDBRANCH  46  48
ENDBRANCH  34  44
ENDBRANCH  32  34
ENDBRANCH  25  30
ENDBRANCH  23  25
ENDBRANCH   2  23
TORSDOF 28
ENDMDL
MODEL 2
REMARK VINA RESULT:    -5.995      2.380      8.802
REMARK INTER + INTRA:         -20.879
REMARK INTER:                 -16.163
REMARK INTRA:                  -4.717
REMARK UNBOUND:                -5.946
REMARK SMILES CCCCCCC[C@H](N)[C@H](O)C(=O)N[C@H](C)C(=O)N(C)[C@H](CC(C)C)C(=O)N[C@@H](Cc1ccc(O)cc1)C(=O)N[C@@H](Cc1ccc(O)cc1)C(=O)O
REMARK SMILES IDX 18 1 17 2 15 3 16 4 14 5 12 6 13 7 10 9 11 10 8 12 9 13 7 16
REMARK SMILES IDX 6 17 5 18 4 19 3 20 2 21 1 22 19 23 20 24 21 25 22 26 23 27
REMARK SMILES IDX 24 28 25 29 26 30 27 31 28 32 29 34 30 35 31 36 32 37 37 38
REMARK SMILES IDX 33 39 36 40 34 41 35 42 38 44 39 45 40 46 41 48 42 49 43 50
REMARK SMILES IDX 44 51 49 52 45 53 48 54 46 55 47 56 50 58 51 59 52 60
REMARK H PARENT 14 8 11 11 9 14 9 15 28 33 35 43 40 47 47 57 52 61
ROOT
ATOM      1  O   UNL     1      -6.288   6.273  -4.981  1.00  0.00    -0.272 OA
ATOM      2  C   UNL     1      -6.996   6.472  -5.979  1.00  0.00     0.245 C 
ENDROOT
BRANCH   2   3
ATOM      3  C   UNL     1      -8.233   5.566  -6.202  1.00  0.00     0.168 C 
ATOM      4  C   UNL     1      -8.284   5.065  -7.641  1.00  0.00     0.041 C 
BRANCH   3   5
ATOM      5  N   UNL     1      -8.376   4.480  -5.245  1.00  0.00    -0.342 N 
ATOM      6  C   UNL     1      -9.547   4.273  -4.548  1.00  0.00     0.251 C 
ATOM      7  O   UNL     1     -10.530   5.000  -4.647  1.00  0.00    -0.272 OA
ATOM      8  H   UNL     1      -7.616   3.832  -5.052  1.00  0.00     0.164 HD
BRANCH   6   9
ATOM      9  C   UNL     1      -9.518   2.989  -3.704  1.00  0.00     0.219 C 
BRANCH   9  10
ATOM     10  O   UNL     1      -8.199   2.446  -3.571  1.00  0.00    -0.382 OA
ATOM     11  H   UNL     1      -8.336   1.639  -3.027  1.00  0.00     0.211 HD
ENDBRANCH   9  10
BRANCH   9  12
ATOM     12  C   UNL     1     -10.187   3.158  -2.315  1.00  0.00     0.089 C 
BRANCH  12  13
ATOM     13  N   UNL     1      -9.610   2.154  -1.393  1.00  0.00    -0.325 NA
ATOM     14  H   UNL     1     -10.326   1.858  -0.727  1.00  0.00     0.119 HD
ATOM     15  H   UNL     1      -8.887   2.602  -0.825  1.00  0.00     0.119 HD
ENDBRANCH  12  13
BRANCH  12  16
ATOM     16  C   UNL     1     -10.097   4.570  -1.686  1.00  0.00     0.022 C 
BRANCH  16  17
ATOM     17  C   UNL     1      -9.280   4.765  -0.402  1.00  0.00     0.002 C 
BRANCH  17  18
ATOM     18  C   UNL     1      -8.062   5.675  -0.545  1.00  0.00     0.000 C 
BRANCH  18  19
ATOM     19  C   UNL     1      -7.039   5.190  -1.581  1.00  0.00    -0.000 C 
BRANCH  19  20
ATOM     20  C   UNL     1      -5.581   5.543  -1.269  1.00  0.00    -0.000 C 
BRANCH  20  21
ATOM     21  C   UNL     1      -4.647   4.332  -1.320  1.00  0.00    -0.003 C 
ATOM     22  C   UNL     1      -5.400   3.066  -1.699  1.00  0.00     0.004 C 
ENDBRANCH  20  21
ENDBRANCH  19  20
ENDBRANCH  18  19
ENDBRANCH  17  18
ENDBRANCH  16  17
ENDBRANCH  12  16
ENDBRANCH   9  12
ENDBRANCH   6   9
ENDBRANCH   3   5
ENDBRANCH   2   3
BRANCH   2  23
ATOM     23  N   UNL     1      -6.747   7.565  -6.803  1.00  0.00    -0.332 N 
ATOM     24  C   UNL     1      -7.627   8.715  -6.938  1.00  0.00     0.147 C 
BRANCH  23  25
ATOM     25  C   UNL     1      -5.450   7.679  -7.526  1.00  0.00     0.174 C 
BRANCH  25  26
ATOM     26  C   UNL     1      -5.064   9.143  -7.841  1.00  0.00     0.038 C 
BRANCH  26  27
ATOM     27  C   UNL     1      -3.692   9.632  -7.323  1.00  0.00    -0.015 C 
ATOM     28  C   UNL     1      -3.583   9.558  -5.800  1.00  0.00     0.007 C 
ATOM     29  C   UNL     1      -2.509   8.928  -7.981  1.00  0.00     0.007 C 
ENDBRANCH  26  27
ENDBRANCH  25  26
BRANCH  25  30
ATOM     30  C   UNL     1      -5.450   6.756  -8.766  1.00  0.00     0.243 C 
ATOM     31  O   UNL     1      -6.141   6.995  -9.755  1.00  0.00    -0.273 OA
ATOM     32  N   UNL     1      -4.635   5.655  -8.686  1.00  0.00    -0.342 N 
ATOM     33  H   UNL     1      -3.988   5.602  -7.895  1.00  0.00     0.164 HD
BRANCH  32  34
ATOM     34  C   UNL     1      -4.528   4.658  -9.754  1.00  0.00     0.175 C 
BRANCH  34  35
ATOM     35  C   UNL     1      -3.098   4.585 -10.309  1.00  0.00     0.070 C 
BRANCH  35  36
ATOM     36  C   UNL     1      -2.707   5.823 -11.084  1.00  0.00    -0.045 A 
ATOM     37  C   UNL     1      -3.484   6.243 -12.174  1.00  0.00     0.007 A 
ATOM     38  C   UNL     1      -1.560   6.551 -10.744  1.00  0.00     0.007 A 
ATOM     39  C   UNL     1      -3.124   7.376 -12.904  1.00  0.00     0.046 A 
ATOM     40  C   UNL     1      -1.198   7.686 -11.475  1.00  0.00     0.046 A 
ATOM     41  C   UNL     1      -1.985   8.089 -12.549  1.00  0.00     0.115 A 
BRANCH  41  42
ATOM     42  O   UNL     1      -1.667   9.188 -13.289  1.00  0.00    -0.508 OA
ATOM     43  H   UNL     1      -1.964   9.977 -12.806  1.00  0.00     0.293 HD
ENDBRANCH  41  42
ENDBRANCH  35  36
ENDBRANCH  34  35
BRANCH  34  44
ATOM     44  C   UNL     1      -4.998   3.299  -9.188  1.00  0.00     0.243 C 
ATOM     45  O   UNL     1      -5.916   2.632  -9.658  1.00  0.00    -0.273 OA
ATOM     46  N   UNL     1      -4.374   2.950  -8.009  1.00  0.00    -0.341 N 
ATOM     47  H   UNL     1      -3.702   3.593  -7.597  1.00  0.00     0.164 HD
BRANCH  46  48
ATOM     48  C   UNL     1      -4.702   1.740  -7.251  1.00  0.00     0.196 C 
BRANCH  48  49
ATOM     49  C   UNL     1      -3.556   0.716  -7.308  1.00  0.00     0.072 C 
BRANCH  49  50
ATOM     50  C   UNL     1      -3.278   0.230  -8.713  1.00  0.00    -0.045 A 
ATOM     51  C   UNL     1      -2.197   0.758  -9.434  1.00  0.00     0.007 A 
ATOM     52  C   UNL     1      -4.099  -0.728  -9.319  1.00  0.00     0.007 A 
ATOM     53  C   UNL     1      -1.939   0.327 -10.735  1.00  0.00     0.046 A 
ATOM     54  C   UNL     1      -3.842  -1.159 -10.623  1.00  0.00     0.046 A 
ATOM     55  C   UNL     1      -2.762  -0.627 -11.320  1.00  0.00     0.115 A 
BRANCH  55  56
ATOM     56  O   UNL     1      -2.477  -1.020 -12.594  1.00  0.00    -0.508 OA
ATOM     57  H   UNL     1      -3.242  -1.505 -12.943  1.00  0.00     0.293 HD
ENDBRANCH  55  56
ENDBRANCH  49  50
ENDBRANCH  48  49
BRANCH  48  58
ATOM     58  C   UNL     1      -4.977   2.125  -5.791  1.00  0.00     0.326 C 
ATOM     59  O   UNL     1      -5.826   2.897  -5.377  1.00  0.00    -0.250 OA
BRANCH  58  60
ATOM     60  O   UNL     1      -4.164   1.497  -4.904  1.00  0.00    -0.480 OA
ATOM     61  H   UNL     1      -3.265   1.671  -5.258  1.00  0.00     0.296 HD
ENDBRANCH  58  60
ENDBRANCH  48  58
ENDBRANCH  46  48
ENDBRANCH  34  44
ENDBRANCH  32  34
ENDBRANCH  25  30
ENDBRANCH  23  25
ENDBRANCH   2  23
TORSDOF 28
ENDMDL
MODEL 3
REMARK VINA RESULT:    -5.886      1.939      7.278
REMARK INTER + INTRA:         -20.606
REMARK INTER:                 -15.171
REMARK INTRA:                  -5.435
REMARK UNBOUND:                -5.946
REMARK SMILES CCCCCCC[C@H](N)[C@H](O)C(=O)N[C@H](C)C(=O)N(C)[C@H](CC(C)C)C(=O)N[C@@H](Cc1ccc(O)cc1)C(=O)N[C@@H](Cc1ccc(O)cc1)C(=O)O
REMARK SMILES IDX 18 1 17 2 15 3 16 4 14 5 12 6 13 7 10 9 11 10 8 12 9 13 7 16
REMARK SMILES IDX 6 17 5 18 4 19 3 20 2 21 1 22 19 23 20 24 21 25 22 26 23 27
REMARK SMILES IDX 24 28 25 29 26 30 27 31 28 32 29 34 30 35 31 36 32 37 37 38
REMARK SMILES IDX 33 39 36 40 34 41 35 42 38 44 39 45 40 46 41 48 42 49 43 50
REMARK SMILES IDX 44 51 49 52 45 53 48 54 46 55 47 56 50 58 51 59 52 60
REMARK H PARENT 14 8 11 11 9 14 9 15 28 33 35 43 40 47 47 57 52 61
ROOT
ATOM      1  O   UNL     1      -6.551   8.103 -11.148  1.00  0.00    -0.272 OA
ATOM      2  C   UNL     1      -6.669   6.869 -11.140  1.00  0.00     0.245 C 
ENDROOT
BRANCH   2   3
ATOM      3  C   UNL     1      -8.037   6.258 -10.745  1.00  0.00     0.168 C 
ATOM      4  C   UNL     1      -8.477   5.212 -11.764  1.00  0.00     0.041 C 
BRANCH   3   5
ATOM      5  N   UNL     1      -8.110   5.752  -9.383  1.00  0.00    -0.342 N 
ATOM      6  C   UNL     1      -8.870   6.375  -8.415  1.00  0.00     0.251 C 
ATOM      7  O   UNL     1      -9.499   7.410  -8.611  1.00  0.00    -0.272 OA
ATOM      8  H   UNL     1      -7.603   4.920  -9.092  1.00  0.00     0.164 HD
BRANCH   6   9
ATOM      9  C   UNL     1      -8.912   5.589  -7.095  1.00  0.00     0.219 C 
BRANCH   9  10
ATOM     10  O   UNL     1      -8.380   4.265  -7.224  1.00  0.00    -0.382 OA
ATOM     11  H   UNL     1      -8.372   4.112  -8.194  1.00  0.00     0.211 HD
ENDBRANCH   9  10
BRANCH   9  12
ATOM     12  C   UNL     1      -8.240   6.341  -5.917  1.00  0.00     0.089 C 
BRANCH  12  13
ATOM     13  N   UNL     1      -7.316   7.355  -6.475  1.00  0.00    -0.325 NA
ATOM     14  H   UNL     1      -7.407   7.368  -7.493  1.00  0.00     0.119 HD
ATOM     15  H   UNL     1      -6.353   7.059  -6.298  1.00  0.00     0.119 HD
ENDBRANCH  12  13
BRANCH  12  16
ATOM     16  C   UNL     1      -9.199   7.000  -4.897  1.00  0.00     0.022 C 
BRANCH  16  17
ATOM     17  C   UNL     1     -10.685   6.617  -4.915  1.00  0.00     0.002 C 
BRANCH  17  18
ATOM     18  C   UNL     1     -11.121   5.673  -3.797  1.00  0.00     0.000 C 
BRANCH  18  19
ATOM     19  C   UNL     1     -10.847   4.191  -4.088  1.00  0.00    -0.000 C 
BRANCH  19  20
ATOM     20  C   UNL     1     -12.094   3.308  -4.191  1.00  0.00    -0.000 C 
BRANCH  20  21
ATOM     21  C   UNL     1     -11.838   1.858  -3.769  1.00  0.00    -0.003 C 
ATOM     22  C   UNL     1     -11.718   1.734  -2.258  1.00  0.00     0.004 C 
ENDBRANCH  20  21
ENDBRANCH  19  20
ENDBRANCH  18  19
ENDBRANCH  17  18
ENDBRANCH  16  17
ENDBRANCH  12  16
ENDBRANCH   9  12
ENDBRANCH   6   9
ENDBRANCH   3   5
ENDBRANCH   2   3
BRANCH   2  23
ATOM     23  N   UNL     1      -5.628   6.067 -11.595  1.00  0.00    -0.332 N 
ATOM     24  C   UNL     1      -5.453   5.646 -12.977  1.00  0.00     0.147 C 
BRANCH  23  25
ATOM     25  C   UNL     1      -4.519   5.683 -10.679  1.00  0.00     0.174 C 
BRANCH  25  26
ATOM     26  C   UNL     1      -3.142   5.644 -11.383  1.00  0.00     0.038 C 
BRANCH  26  27
ATOM     27  C   UNL     1      -2.324   6.955 -11.394  1.00  0.00    -0.015 C 
ATOM     28  C   UNL     1      -2.824   7.965 -10.361  1.00  0.00     0.007 C 
ATOM     29  C   UNL     1      -0.821   6.734 -11.245  1.00  0.00     0.007 C 
ENDBRANCH  26  27
ENDBRANCH  25  26
BRANCH  25  30
ATOM     30  C   UNL     1      -4.873   4.376  -9.933  1.00  0.00     0.243 C 
ATOM     31  O   UNL     1      -5.552   3.494 -10.455  1.00  0.00    -0.273 OA
ATOM     32  N   UNL     1      -4.387   4.272  -8.655  1.00  0.00    -0.342 N 
ATOM     33  H   UNL     1      -3.716   4.979  -8.344  1.00  0.00     0.164 HD
BRANCH  32  34
ATOM     34  C   UNL     1      -4.645   3.117  -7.791  1.00  0.00     0.175 C 
BRANCH  34  35
ATOM     35  C   UNL     1      -3.387   2.250  -7.626  1.00  0.00     0.070 C 
BRANCH  35  36
ATOM     36  C   UNL     1      -3.388   1.040  -8.532  1.00  0.00    -0.045 A 
ATOM     37  C   UNL     1      -4.185  -0.071  -8.219  1.00  0.00     0.007 A 
ATOM     38  C   UNL     1      -2.581   0.999  -9.677  1.00  0.00     0.007 A 
ATOM     39  C   UNL     1      -4.182  -1.198  -9.042  1.00  0.00     0.046 A 
ATOM     40  C   UNL     1      -2.576  -0.129 -10.501  1.00  0.00     0.046 A 
ATOM     41  C   UNL     1      -3.379  -1.217 -10.176  1.00  0.00     0.115 A 
BRANCH  41  42
ATOM     42  O   UNL     1      -3.402  -2.338 -10.952  1.00  0.00    -0.508 OA
ATOM     43  H   UNL     1      -4.119  -2.913 -10.636  1.00  0.00     0.293 HD
ENDBRANCH  41  42
ENDBRANCH  35  36
ENDBRANCH  34  35
BRANCH  34  44
ATOM     44  C   UNL     1      -5.167   3.642  -6.435  1.00  0.00     0.243 C 
ATOM     45  O   UNL     1      -5.406   4.822  -6.192  1.00  0.00    -0.273 OA
ATOM     46  N   UNL     1      -5.223   2.672  -5.456  1.00  0.00    -0.341 N 
ATOM     47  H   UNL     1      -4.903   1.732  -5.673  1.00  0.00     0.164 HD
BRANCH  46  48
ATOM     48  C   UNL     1      -5.621   2.945  -4.073  1.00  0.00     0.196 C 
BRANCH  48  49
ATOM     49  C   UNL     1      -7.151   2.921  -3.916  1.00  0.00     0.072 C 
BRANCH  49  50
ATOM     50  C   UNL     1      -7.627   3.731  -2.731  1.00  0.00    -0.045 A 
ATOM     51  C   UNL     1      -8.472   3.145  -1.778  1.00  0.00     0.007 A 
ATOM     52  C   UNL     1      -7.254   5.072  -2.578  1.00  0.00     0.007 A 
ATOM     53  C   UNL     1      -8.928   3.886  -0.688  1.00  0.00     0.046 A 
ATOM     54  C   UNL     1      -7.711   5.815  -1.487  1.00  0.00     0.046 A 
ATOM     55  C   UNL     1      -8.545   5.214  -0.550  1.00  0.00     0.115 A 
BRANCH  55  56
ATOM     56  O   UNL     1      -9.014   5.904   0.528  1.00  0.00    -0.508 OA
ATOM     57  H   UNL     1      -8.387   5.790   1.260  1.00  0.00     0.293 HD
ENDBRANCH  55  56
ENDBRANCH  49  50
ENDBRANCH  48  49
BRANCH  48  58
ATOM     58  C   UNL     1      -4.993   1.888  -3.154  1.00  0.00     0.326 C 
ATOM     59  O   UNL     1      -4.537   0.803  -3.479  1.00  0.00    -0.250 OA
BRANCH  58  60
ATOM     60  O   UNL     1      -4.954   2.258  -1.850  1.00  0.00    -0.480 OA
ATOM     61  H   UNL     1      -4.914   1.401  -1.372  1.00  0.00     0.296 HD
ENDBRANCH  58  60
ENDBRANCH  48  58
ENDBRANCH  46  48
ENDBRANCH  34  44
ENDBRANCH  32  34
ENDBRANCH  25  30
ENDBRANCH  23  25
ENDBRANCH   2  23
TORSDOF 28
ENDMDL
MODEL 4
REMARK VINA RESULT:    -5.866      2.409      4.614
REMARK INTER + INTRA:         -20.556
REMARK INTER:                 -14.636
REMARK INTRA:                  -5.920
REMARK UNBOUND:                -5.946
REMARK SMILES CCCCCCC[C@H](N)[C@H](O)C(=O)N[C@H](C)C(=O)N(C)[C@H](CC(C)C)C(=O)N[C@@H](Cc1ccc(O)cc1)C(=O)N[C@@H](Cc1ccc(O)cc1)C(=O)O
REMARK SMILES IDX 18 1 17 2 15 3 16 4 14 5 12 6 13 7 10 9 11 10 8 12 9 13 7 16
REMARK SMILES IDX 6 17 5 18 4 19 3 20 2 21 1 22 19 23 20 24 21 25 22 26 23 27
REMARK SMILES IDX 24 28 25 29 26 30 27 31 28 32 29 34 30 35 31 36 32 37 37 38
REMARK SMILES IDX 33 39 36 40 34 41 35 42 38 44 39 45 40 46 41 48 42 49 43 50
REMARK SMILES IDX 44 51 49 52 45 53 48 54 46 55 47 56 50 58 51 59 52 60
REMARK H PARENT 14 8 11 11 9 14 9 15 28 33 35 43 40 47 47 57 52 61
ROOT
ATOM      1  O   UNL     1      -3.525   5.924  -8.946  1.00  0.00    -0.272 OA
ATOM      2  C   UNL     1      -4.538   5.742  -9.637  1.00  0.00     0.245 C 
ENDROOT
BRANCH   2   3
ATOM      3  C   UNL     1      -4.516   4.620 -10.705  1.00  0.00     0.168 C 
ATOM      4  C   UNL     1      -3.930   5.132 -12.016  1.00  0.00     0.041 C 
BRANCH   3   5
ATOM      5  N   UNL     1      -3.885   3.382 -10.276  1.00  0.00    -0.342 N 
ATOM      6  C   UNL     1      -4.573   2.425  -9.560  1.00  0.00     0.251 C 
ATOM      7  O   UNL     1      -5.736   2.558  -9.197  1.00  0.00    -0.272 OA
ATOM      8  H   UNL     1      -2.912   3.174 -10.489  1.00  0.00     0.164 HD
BRANCH   6   9
ATOM      9  C   UNL     1      -3.753   1.143  -9.341  1.00  0.00     0.219 C 
BRANCH   9  10
ATOM     10  O   UNL     1      -2.799   0.912 -10.385  1.00  0.00    -0.382 OA
ATOM     11  H   UNL     1      -2.762  -0.067 -10.452  1.00  0.00     0.211 HD
ENDBRANCH   9  10
BRANCH   9  12
ATOM     12  C   UNL     1      -3.070   1.086  -7.949  1.00  0.00     0.089 C 
BRANCH  12  13
ATOM     13  N   UNL     1      -2.479   2.414  -7.665  1.00  0.00    -0.325 NA
ATOM     14  H   UNL     1      -2.751   3.068  -8.401  1.00  0.00     0.119 HD
ATOM     15  H   UNL     1      -1.461   2.344  -7.732  1.00  0.00     0.119 HD
ENDBRANCH  12  13
BRANCH  12  16
ATOM     16  C   UNL     1      -3.970   0.641  -6.771  1.00  0.00     0.022 C 
BRANCH  16  17
ATOM     17  C   UNL     1      -3.901   1.413  -5.446  1.00  0.00     0.002 C 
BRANCH  17  18
ATOM     18  C   UNL     1      -4.615   0.745  -4.274  1.00  0.00     0.000 C 
BRANCH  18  19
ATOM     19  C   UNL     1      -5.616   1.656  -3.551  1.00  0.00    -0.000 C 
BRANCH  19  20
ATOM     20  C   UNL     1      -5.453   3.152  -3.831  1.00  0.00    -0.000 C 
BRANCH  20  21
ATOM     21  C   UNL     1      -5.170   3.971  -2.569  1.00  0.00    -0.003 C 
ATOM     22  C   UNL     1      -5.566   3.210  -1.314  1.00  0.00     0.004 C 
ENDBRANCH  20  21
ENDBRANCH  19  20
ENDBRANCH  18  19
ENDBRANCH  17  18
ENDBRANCH  16  17
ENDBRANCH  12  16
ENDBRANCH   9  12
ENDBRANCH   6   9
ENDBRANCH   3   5
ENDBRANCH   2   3
BRANCH   2  23
ATOM     23  N   UNL     1      -5.702   6.454  -9.366  1.00  0.00    -0.332 N 
ATOM     24  C   UNL     1      -5.799   7.906  -9.358  1.00  0.00     0.147 C 
BRANCH  23  25
ATOM     25  C   UNL     1      -6.995   5.739  -9.184  1.00  0.00     0.174 C 
BRANCH  25  26
ATOM     26  C   UNL     1      -8.129   6.310 -10.067  1.00  0.00     0.038 C 
BRANCH  26  27
ATOM     27  C   UNL     1      -8.212   5.794 -11.520  1.00  0.00    -0.015 C 
ATOM     28  C   UNL     1      -9.650   5.526 -11.964  1.00  0.00     0.007 C 
ATOM     29  C   UNL     1      -7.498   6.693 -12.526  1.00  0.00     0.007 C 
ENDBRANCH  26  27
ENDBRANCH  25  26
BRANCH  25  30
ATOM     30  C   UNL     1      -7.354   5.663  -7.682  1.00  0.00     0.243 C 
ATOM     31  O   UNL     1      -6.505   5.799  -6.803  1.00  0.00    -0.273 OA
ATOM     32  N   UNL     1      -8.676   5.430  -7.399  1.00  0.00    -0.342 N 
ATOM     33  H   UNL     1      -9.340   5.471  -8.176  1.00  0.00     0.164 HD
BRANCH  32  34
ATOM     34  C   UNL     1      -9.193   5.301  -6.034  1.00  0.00     0.175 C 
BRANCH  34  35
ATOM     35  C   UNL     1      -8.526   4.133  -5.292  1.00  0.00     0.070 C 
BRANCH  35  36
ATOM     36  C   UNL     1      -9.418   3.528  -4.232  1.00  0.00    -0.045 A 
ATOM     37  C   UNL     1      -8.905   3.255  -2.955  1.00  0.00     0.007 A 
ATOM     38  C   UNL     1     -10.754   3.211  -4.511  1.00  0.00     0.007 A 
ATOM     39  C   UNL     1      -9.716   2.684  -1.974  1.00  0.00     0.046 A 
ATOM     40  C   UNL     1     -11.567   2.638  -3.530  1.00  0.00     0.046 A 
ATOM     41  C   UNL     1     -11.040   2.381  -2.269  1.00  0.00     0.115 A 
BRANCH  41  42
ATOM     42  O   UNL     1     -11.799   1.821  -1.284  1.00  0.00    -0.508 OA
ATOM     43  H   UNL     1     -11.929   2.484  -0.586  1.00  0.00     0.293 HD
ENDBRANCH  41  42
ENDBRANCH  35  36
ENDBRANCH  34  35
BRANCH  34  44
ATOM     44  C   UNL     1      -8.972   6.648  -5.309  1.00  0.00     0.243 C 
ATOM     45  O   UNL     1      -9.496   7.708  -5.639  1.00  0.00    -0.273 OA
ATOM     46  N   UNL     1      -8.016   6.586  -4.317  1.00  0.00    -0.341 N 
ATOM     47  H   UNL     1      -7.524   5.710  -4.158  1.00  0.00     0.164 HD
BRANCH  46  48
ATOM     48  C   UNL     1      -7.587   7.750  -3.538  1.00  0.00     0.196 C 
BRANCH  48  49
ATOM     49  C   UNL     1      -7.181   7.349  -2.110  1.00  0.00     0.072 C 
BRANCH  49  50
ATOM     50  C   UNL     1      -8.300   6.666  -1.357  1.00  0.00    -0.045 A 
ATOM     51  C   UNL     1      -8.002   5.798  -0.297  1.00  0.00     0.007 A 
ATOM     52  C   UNL     1      -9.639   6.869  -1.715  1.00  0.00     0.007 A 
ATOM     53  C   UNL     1      -9.025   5.152   0.397  1.00  0.00     0.046 A 
ATOM     54  C   UNL     1     -10.664   6.221  -1.022  1.00  0.00     0.046 A 
ATOM     55  C   UNL     1     -10.348   5.368   0.030  1.00  0.00     0.115 A 
BRANCH  55  56
ATOM     56  O   UNL     1     -11.318   4.716   0.731  1.00  0.00    -0.508 OA
ATOM     57  H   UNL     1     -11.659   5.317   1.414  1.00  0.00     0.293 HD
ENDBRANCH  55  56
ENDBRANCH  49  50
ENDBRANCH  48  49
BRANCH  48  58
ATOM     58  C   UNL     1      -6.396   8.412  -4.245  1.00  0.00     0.326 C 
ATOM     59  O   UNL     1      -6.226   9.604  -4.446  1.00  0.00    -0.250 OA
BRANCH  58  60
ATOM     60  O   UNL     1      -5.453   7.529  -4.658  1.00  0.00    -0.480 OA
ATOM     61  H   UNL     1      -5.967   6.709  -4.823  1.00  0.00     0.296 HD
ENDBRANCH  58  60
ENDBRANCH  48  58
ENDBRANCH  46  48
ENDBRANCH  34  44
ENDBRANCH  32  34
ENDBRANCH  25  30
ENDBRANCH  23  25
ENDBRANCH   2  23
TORSDOF 28
ENDMDL
MODEL 5
REMARK VINA RESULT:    -5.815      2.421      8.285
REMARK INTER + INTRA:         -20.430
REMARK INTER:                 -13.632
REMARK INTRA:                  -6.798
REMARK UNBOUND:                -5.946
REMARK SMILES CCCCCCC[C@H](N)[C@H](O)C(=O)N[C@H](C)C(=O)N(C)[C@H](CC(C)C)C(=O)N[C@@H](Cc1ccc(O)cc1)C(=O)N[C@@H](Cc1ccc(O)cc1)C(=O)O
REMARK SMILES IDX 18 1 17 2 15 3 16 4 14 5 12 6 13 7 10 9 11 10 8 12 9 13 7 16
REMARK SMILES IDX 6 17 5 18 4 19 3 20 2 21 1 22 19 23 20 24 21 25 22 26 23 27
REMARK SMILES IDX 24 28 25 29 26 30 27 31 28 32 29 34 30 35 31 36 32 37 37 38
REMARK SMILES IDX 33 39 36 40 34 41 35 42 38 44 39 45 40 46 41 48 42 49 43 50
REMARK SMILES IDX 44 51 49 52 45 53 48 54 46 55 47 56 50 58 51 59 52 60
REMARK H PARENT 14 8 11 11 9 14 9 15 28 33 35 43 40 47 47 57 52 61
ROOT
ATOM      1  O   UNL     1      -6.274   6.230  -7.416  1.00  0.00    -0.272 OA
ATOM      2  C   UNL     1      -6.916   5.879  -8.417  1.00  0.00     0.245 C 
ENDROOT
BRANCH   2   3
ATOM      3  C   UNL     1      -8.449   5.699  -8.287  1.00  0.00     0.168 C 
ATOM      4  C   UNL     1      -8.869   4.299  -8.723  1.00  0.00     0.041 C 
BRANCH   3   5
ATOM      5  N   UNL     1      -8.998   6.049  -6.987  1.00  0.00    -0.342 N 
ATOM      6  C   UNL     1      -9.838   7.130  -6.818  1.00  0.00     0.251 C 
ATOM      7  O   UNL     1     -10.150   7.892  -7.727  1.00  0.00    -0.272 OA
ATOM      8  H   UNL     1      -8.783   5.511  -6.151  1.00  0.00     0.164 HD
BRANCH   6   9
ATOM      9  C   UNL     1     -10.407   7.224  -5.393  1.00  0.00     0.219 C 
BRANCH   9  10
ATOM     10  O   UNL     1     -11.048   6.013  -4.973  1.00  0.00    -0.382 OA
ATOM     11  H   UNL     1     -11.116   6.114  -3.998  1.00  0.00     0.211 HD
ENDBRANCH   9  10
BRANCH   9  12
ATOM     12  C   UNL     1      -9.358   7.683  -4.348  1.00  0.00     0.089 C 
BRANCH  12  13
ATOM     13  N   UNL     1      -8.412   8.609  -5.011  1.00  0.00    -0.325 NA
ATOM     14  H   UNL     1      -8.859   9.012  -5.836  1.00  0.00     0.119 HD
ATOM     15  H   UNL     1      -7.620   8.072  -5.371  1.00  0.00     0.119 HD
ENDBRANCH  12  13
BRANCH  12  16
ATOM     16  C   UNL     1      -9.923   8.332  -3.061  1.00  0.00     0.022 C 
BRANCH  16  17
ATOM     17  C   UNL     1     -10.078   7.473  -1.798  1.00  0.00     0.002 C 
BRANCH  17  18
ATOM     18  C   UNL     1      -9.653   6.014  -1.954  1.00  0.00     0.000 C 
BRANCH  18  19
ATOM     19  C   UNL     1      -9.151   5.368  -0.656  1.00  0.00    -0.000 C 
BRANCH  19  20
ATOM     20  C   UNL     1      -8.507   6.332   0.344  1.00  0.00    -0.000 C 
BRANCH  20  21
ATOM     21  C   UNL     1      -9.174   6.302   1.721  1.00  0.00    -0.003 C 
ATOM     22  C   UNL     1     -10.481   5.524   1.687  1.00  0.00     0.004 C 
ENDBRANCH  20  21
ENDBRANCH  19  20
ENDBRANCH  18  19
ENDBRANCH  17  18
ENDBRANCH  16  17
ENDBRANCH  12  16
ENDBRANCH   9  12
ENDBRANCH   6   9
ENDBRANCH   3   5
ENDBRANCH   2   3
BRANCH   2  23
ATOM     23  N   UNL     1      -6.281   5.773  -9.649  1.00  0.00    -0.332 N 
ATOM     24  C   UNL     1      -6.677   6.498 -10.847  1.00  0.00     0.147 C 
BRANCH  23  25
ATOM     25  C   UNL     1      -5.032   4.975  -9.784  1.00  0.00     0.174 C 
BRANCH  25  26
ATOM     26  C   UNL     1      -4.519   4.899 -11.242  1.00  0.00     0.038 C 
BRANCH  26  27
ATOM     27  C   UNL     1      -3.154   5.558 -11.539  1.00  0.00    -0.015 C 
ATOM     28  C   UNL     1      -3.269   6.731 -12.512  1.00  0.00     0.007 C 
ATOM     29  C   UNL     1      -2.395   5.976 -10.282  1.00  0.00     0.007 C 
ENDBRANCH  26  27
ENDBRANCH  25  26
BRANCH  25  30
ATOM     30  C   UNL     1      -5.209   3.592  -9.115  1.00  0.00     0.243 C 
ATOM     31  O   UNL     1      -5.807   2.673  -9.672  1.00  0.00    -0.273 OA
ATOM     32  N   UNL     1      -4.662   3.464  -7.864  1.00  0.00    -0.342 N 
ATOM     33  H   UNL     1      -4.062   4.222  -7.530  1.00  0.00     0.164 HD
BRANCH  32  34
ATOM     34  C   UNL     1      -4.757   2.236  -7.070  1.00  0.00     0.175 C 
BRANCH  34  35
ATOM     35  C   UNL     1      -3.435   1.453  -7.094  1.00  0.00     0.070 C 
BRANCH  35  36
ATOM     36  C   UNL     1      -3.229   0.690  -8.383  1.00  0.00    -0.045 A 
ATOM     37  C   UNL     1      -4.002  -0.448  -8.656  1.00  0.00     0.007 A 
ATOM     38  C   UNL     1      -2.256   1.091  -9.308  1.00  0.00     0.007 A 
ATOM     39  C   UNL     1      -3.811  -1.166  -9.837  1.00  0.00     0.046 A 
ATOM     40  C   UNL     1      -2.063   0.373 -10.490  1.00  0.00     0.046 A 
ATOM     41  C   UNL     1      -2.844  -0.750 -10.745  1.00  0.00     0.115 A 
BRANCH  41  42
ATOM     42  O   UNL     1      -2.686  -1.481 -11.885  1.00  0.00    -0.508 OA
ATOM     43  H   UNL     1      -1.770  -1.374 -12.190  1.00  0.00     0.293 HD
ENDBRANCH  41  42
ENDBRANCH  35  36
ENDBRANCH  34  35
BRANCH  34  44
ATOM     44  C   UNL     1      -5.172   2.625  -5.634  1.00  0.00     0.243 C 
ATOM     45  O   UNL     1      -4.680   2.147  -4.616  1.00  0.00    -0.273 OA
ATOM     46  N   UNL     1      -6.254   3.479  -5.588  1.00  0.00    -0.341 N 
ATOM     47  H   UNL     1      -6.702   3.756  -6.458  1.00  0.00     0.164 HD
BRANCH  46  48
ATOM     48  C   UNL     1      -6.869   3.933  -4.339  1.00  0.00     0.196 C 
BRANCH  48  49
ATOM     49  C   UNL     1      -6.797   5.463  -4.202  1.00  0.00     0.072 C 
BRANCH  49  50
ATOM     50  C   UNL     1      -6.143   5.902  -2.912  1.00  0.00    -0.045 A 
ATOM     51  C   UNL     1      -5.570   4.947  -2.059  1.00  0.00     0.007 A 
ATOM     52  C   UNL     1      -6.117   7.252  -2.539  1.00  0.00     0.007 A 
ATOM     53  C   UNL     1      -4.975   5.339  -0.859  1.00  0.00     0.046 A 
ATOM     54  C   UNL     1      -5.523   7.644  -1.338  1.00  0.00     0.046 A 
ATOM     55  C   UNL     1      -4.956   6.683  -0.508  1.00  0.00     0.115 A 
BRANCH  55  56
ATOM     56  O   UNL     1      -4.367   7.024   0.674  1.00  0.00    -0.508 OA
ATOM     57  H   UNL     1      -5.018   6.908   1.385  1.00  0.00     0.293 HD
ENDBRANCH  55  56
ENDBRANCH  49  50
ENDBRANCH  48  49
BRANCH  48  58
ATOM     58  C   UNL     1      -8.337   3.482  -4.312  1.00  0.00     0.326 C 
ATOM     59  O   UNL     1      -9.238   3.858  -5.044  1.00  0.00    -0.250 OA
BRANCH  58  60
ATOM     60  O   UNL     1      -8.601   2.553  -3.359  1.00  0.00    -0.480 OA
ATOM     61  H   UNL     1      -9.415   2.895  -2.930  1.00  0.00     0.296 HD
ENDBRANCH  58  60
ENDBRANCH  48  58
ENDBRANCH  46  48
ENDBRANCH  34  44
ENDBRANCH  32  34
ENDBRANCH  25  30
ENDBRANCH  23  25
ENDBRANCH   2  23
TORSDOF 28
ENDMDL
MODEL 6
REMARK VINA RESULT:    -5.721      1.773      3.280
REMARK INTER + INTRA:         -20.196
REMARK INTER:                 -15.021
REMARK INTRA:                  -5.175
REMARK UNBOUND:                -5.946
REMARK SMILES CCCCCCC[C@H](N)[C@H](O)C(=O)N[C@H](C)C(=O)N(C)[C@H](CC(C)C)C(=O)N[C@@H](Cc1ccc(O)cc1)C(=O)N[C@@H](Cc1ccc(O)cc1)C(=O)O
REMARK SMILES IDX 18 1 17 2 15 3 16 4 14 5 12 6 13 7 10 9 11 10 8 12 9 13 7 16
REMARK SMILES IDX 6 17 5 18 4 19 3 20 2 21 1 22 19 23 20 24 21 25 22 26 23 27
REMARK SMILES IDX 24 28 25 29 26 30 27 31 28 32 29 34 30 35 31 36 32 37 37 38
REMARK SMILES IDX 33 39 36 40 34 41 35 42 38 44 39 45 40 46 41 48 42 49 43 50
REMARK SMILES IDX 44 51 49 52 45 53 48 54 46 55 47 56 50 58 51 59 52 60
REMARK H PARENT 14 8 11 11 9 14 9 15 28 33 35 43 40 47 47 57 52 61
ROOT
ATOM      1  O   UNL     1      -1.653   7.061  -8.931  1.00  0.00    -0.272 OA
ATOM      2  C   UNL     1      -2.831   6.942  -9.297  1.00  0.00     0.245 C 
ENDROOT
BRANCH   2   3
ATOM      3  C   UNL     1      -3.221   5.708 -10.149  1.00  0.00     0.168 C 
ATOM      4  C   UNL     1      -2.790   5.895 -11.600  1.00  0.00     0.041 C 
BRANCH   3   5
ATOM      5  N   UNL     1      -2.778   4.431  -9.613  1.00  0.00    -0.342 N 
ATOM      6  C   UNL     1      -3.490   3.765  -8.637  1.00  0.00     0.251 C 
ATOM      7  O   UNL     1      -4.511   4.210  -8.123  1.00  0.00    -0.272 OA
ATOM      8  H   UNL     1      -1.926   3.979  -9.937  1.00  0.00     0.164 HD
BRANCH   6   9
ATOM      9  C   UNL     1      -2.915   2.374  -8.327  1.00  0.00     0.219 C 
BRANCH   9  10
ATOM     10  O   UNL     1      -2.440   2.260  -6.980  1.00  0.00    -0.382 OA
ATOM     11  H   UNL     1      -1.467   2.173  -7.084  1.00  0.00     0.211 HD
ENDBRANCH   9  10
BRANCH   9  12
ATOM     12  C   UNL     1      -3.896   1.221  -8.664  1.00  0.00     0.089 C 
BRANCH  12  13
ATOM     13  N   UNL     1      -4.637   1.582  -9.894  1.00  0.00    -0.325 NA
ATOM     14  H   UNL     1      -4.063   1.360 -10.710  1.00  0.00     0.119 HD
ATOM     15  H   UNL     1      -4.757   2.598  -9.922  1.00  0.00     0.119 HD
ENDBRANCH  12  13
BRANCH  12  16
ATOM     16  C   UNL     1      -3.264  -0.184  -8.818  1.00  0.00     0.022 C 
BRANCH  16  17
ATOM     17  C   UNL     1      -3.737  -1.095  -9.959  1.00  0.00     0.002 C 
BRANCH  17  18
ATOM     18  C   UNL     1      -2.623  -1.670 -10.829  1.00  0.00     0.000 C 
BRANCH  18  19
ATOM     19  C   UNL     1      -2.637  -1.164 -12.278  1.00  0.00    -0.000 C 
BRANCH  19  20
ATOM     20  C   UNL     1      -1.262  -0.830 -12.863  1.00  0.00    -0.000 C 
BRANCH  20  21
ATOM     21  C   UNL     1      -0.179  -0.666 -11.794  1.00  0.00    -0.003 C 
ATOM     22  C   UNL     1       1.148  -1.250 -12.254  1.00  0.00     0.004 C 
ENDBRANCH  20  21
ENDBRANCH  19  20
ENDBRANCH  18  19
ENDBRANCH  17  18
ENDBRANCH  16  17
ENDBRANCH  12  16
ENDBRANCH   9  12
ENDBRANCH   6   9
ENDBRANCH   3   5
ENDBRANCH   2   3
BRANCH   2  23
ATOM     23  N   UNL     1      -3.795   7.836  -8.843  1.00  0.00    -0.332 N 
ATOM     24  C   UNL     1      -3.553   8.883  -7.862  1.00  0.00     0.147 C 
BRANCH  23  25
ATOM     25  C   UNL     1      -5.152   7.851  -9.454  1.00  0.00     0.174 C 
BRANCH  25  26
ATOM     26  C   UNL     1      -5.365   9.043 -10.417  1.00  0.00     0.038 C 
BRANCH  26  27
ATOM     27  C   UNL     1      -5.790   8.707 -11.864  1.00  0.00    -0.015 C 
ATOM     28  C   UNL     1      -4.636   8.840 -12.858  1.00  0.00     0.007 C 
ATOM     29  C   UNL     1      -6.460   7.342 -11.999  1.00  0.00     0.007 C 
ENDBRANCH  26  27
ENDBRANCH  25  26
BRANCH  25  30
ATOM     30  C   UNL     1      -6.233   7.741  -8.354  1.00  0.00     0.243 C 
ATOM     31  O   UNL     1      -6.934   8.699  -8.033  1.00  0.00    -0.273 OA
ATOM     32  N   UNL     1      -6.351   6.510  -7.760  1.00  0.00    -0.342 N 
ATOM     33  H   UNL     1      -5.834   5.732  -8.177  1.00  0.00     0.164 HD
BRANCH  32  34
ATOM     34  C   UNL     1      -7.301   6.229  -6.681  1.00  0.00     0.175 C 
BRANCH  34  35
ATOM     35  C   UNL     1      -8.263   5.094  -7.066  1.00  0.00     0.070 C 
BRANCH  35  36
ATOM     36  C   UNL     1      -8.702   5.164  -8.511  1.00  0.00    -0.045 A 
ATOM     37  C   UNL     1      -9.502   6.229  -8.950  1.00  0.00     0.007 A 
ATOM     38  C   UNL     1      -8.340   4.163  -9.422  1.00  0.00     0.007 A 
ATOM     39  C   UNL     1      -9.924   6.295 -10.279  1.00  0.00     0.046 A 
ATOM     40  C   UNL     1      -8.763   4.227 -10.752  1.00  0.00     0.046 A 
ATOM     41  C   UNL     1      -9.550   5.295 -11.168  1.00  0.00     0.115 A 
BRANCH  41  42
ATOM     42  O   UNL     1      -9.986   5.396 -12.457  1.00  0.00    -0.508 OA
ATOM     43  H   UNL     1      -9.995   4.505 -12.845  1.00  0.00     0.293 HD
ENDBRANCH  41  42
ENDBRANCH  35  36
ENDBRANCH  34  35
BRANCH  34  44
ATOM     44  C   UNL     1      -6.494   5.894  -5.407  1.00  0.00     0.243 C 
ATOM     45  O   UNL     1      -5.793   6.698  -4.798  1.00  0.00    -0.273 OA
ATOM     46  N   UNL     1      -6.522   4.556  -5.075  1.00  0.00    -0.341 N 
ATOM     47  H   UNL     1      -7.022   3.908  -5.678  1.00  0.00     0.164 HD
BRANCH  46  48
ATOM     48  C   UNL     1      -5.778   3.990  -3.947  1.00  0.00     0.196 C 
BRANCH  48  49
ATOM     49  C   UNL     1      -6.680   3.806  -2.716  1.00  0.00     0.072 C 
BRANCH  49  50
ATOM     50  C   UNL     1      -8.151   3.890  -3.055  1.00  0.00    -0.045 A 
ATOM     51  C   UNL     1      -8.923   4.951  -2.562  1.00  0.00     0.007 A 
ATOM     52  C   UNL     1      -8.767   2.908  -3.842  1.00  0.00     0.007 A 
ATOM     53  C   UNL     1     -10.284   5.032  -2.857  1.00  0.00     0.046 A 
ATOM     54  C   UNL     1     -10.130   2.988  -4.137  1.00  0.00     0.046 A 
ATOM     55  C   UNL     1     -10.877   4.051  -3.643  1.00  0.00     0.115 A 
BRANCH  55  56
ATOM     56  O   UNL     1     -12.210   4.165  -3.907  1.00  0.00    -0.508 OA
ATOM     57  H   UNL     1     -12.673   4.342  -3.072  1.00  0.00     0.293 HD
ENDBRANCH  55  56
ENDBRANCH  49  50
ENDBRANCH  48  49
BRANCH  48  58
ATOM     58  C   UNL     1      -5.194   2.633  -4.366  1.00  0.00     0.326 C 
ATOM     59  O   UNL     1      -5.074   2.198  -5.499  1.00  0.00    -0.250 OA
BRANCH  58  60
ATOM     60  O   UNL     1      -4.770   1.881  -3.319  1.00  0.00    -0.480 OA
ATOM     61  H   UNL     1      -5.000   0.966  -3.591  1.00  0.00     0.296 HD
ENDBRANCH  58  60
ENDBRANCH  48  58
ENDBRANCH  46  48
ENDBRANCH  34  44
ENDBRANCH  32  34
ENDBRANCH  25  30
ENDBRANCH  23  25
ENDBRANCH   2  23
TORSDOF 28
ENDMDL
MODEL 7
REMARK VINA RESULT:    -5.671      2.662      8.220
REMARK INTER + INTRA:         -20.071
REMARK INTER:                 -13.230
REMARK INTRA:                  -6.841
REMARK UNBOUND:                -5.946
REMARK SMILES CCCCCCC[C@H](N)[C@H](O)C(=O)N[C@H](C)C(=O)N(C)[C@H](CC(C)C)C(=O)N[C@@H](Cc1ccc(O)cc1)C(=O)N[C@@H](Cc1ccc(O)cc1)C(=O)O
REMARK SMILES IDX 18 1 17 2 15 3 16 4 14 5 12 6 13 7 10 9 11 10 8 12 9 13 7 16
REMARK SMILES IDX 6 17 5 18 4 19 3 20 2 21 1 22 19 23 20 24 21 25 22 26 23 27
REMARK SMILES IDX 24 28 25 29 26 30 27 31 28 32 29 34 30 35 31 36 32 37 37 38
REMARK SMILES IDX 33 39 36 40 34 41 35 42 38 44 39 45 40 46 41 48 42 49 43 50
REMARK SMILES IDX 44 51 49 52 45 53 48 54 46 55 47 56 50 58 51 59 52 60
REMARK H PARENT 14 8 11 11 9 14 9 15 28 33 35 43 40 47 47 57 52 61
ROOT
ATOM      1  O   UNL     1     -11.202   4.824  -3.199  1.00  0.00    -0.272 OA
ATOM      2  C   UNL     1     -10.098   4.659  -2.660  1.00  0.00     0.245 C 
ENDROOT
BRANCH   2   3
ATOM      3  C   UNL     1      -9.321   3.350  -2.946  1.00  0.00     0.168 C 
ATOM      4  C   UNL     1      -9.901   2.630  -4.158  1.00  0.00     0.041 C 
BRANCH   3   5
ATOM      5  N   UNL     1      -7.878   3.505  -3.047  1.00  0.00    -0.342 N 
ATOM      6  C   UNL     1      -7.025   3.026  -2.075  1.00  0.00     0.251 C 
ATOM      7  O   UNL     1      -7.409   2.478  -1.048  1.00  0.00    -0.272 OA
ATOM      8  H   UNL     1      -7.443   3.974  -3.838  1.00  0.00     0.164 HD
BRANCH   6   9
ATOM      9  C   UNL     1      -5.544   3.175  -2.459  1.00  0.00     0.219 C 
BRANCH   9  10
ATOM     10  O   UNL     1      -4.668   3.089  -1.328  1.00  0.00    -0.382 OA
ATOM     11  H   UNL     1      -5.266   3.235  -0.562  1.00  0.00     0.211 HD
ENDBRANCH   9  10
BRANCH   9  12
ATOM     12  C   UNL     1      -5.102   2.191  -3.574  1.00  0.00     0.089 C 
BRANCH  12  13
ATOM     13  N   UNL     1      -6.021   1.030  -3.564  1.00  0.00    -0.325 NA
ATOM     14  H   UNL     1      -5.475   0.169  -3.639  1.00  0.00     0.119 HD
ATOM     15  H   UNL     1      -6.597   1.056  -4.408  1.00  0.00     0.119 HD
ENDBRANCH  12  13
BRANCH  12  16
ATOM     16  C   UNL     1      -5.007   2.782  -5.001  1.00  0.00     0.022 C 
BRANCH  16  17
ATOM     17  C   UNL     1      -4.653   1.854  -6.171  1.00  0.00     0.002 C 
BRANCH  17  18
ATOM     18  C   UNL     1      -3.263   2.068  -6.766  1.00  0.00     0.000 C 
BRANCH  18  19
ATOM     19  C   UNL     1      -3.055   1.391  -8.127  1.00  0.00    -0.000 C 
BRANCH  19  20
ATOM     20  C   UNL     1      -4.197   0.478  -8.581  1.00  0.00    -0.000 C 
BRANCH  20  21
ATOM     21  C   UNL     1      -3.918  -1.005  -8.320  1.00  0.00    -0.003 C 
ATOM     22  C   UNL     1      -4.919  -1.593  -7.338  1.00  0.00     0.004 C 
ENDBRANCH  20  21
ENDBRANCH  19  20
ENDBRANCH  18  19
ENDBRANCH  17  18
ENDBRANCH  16  17
ENDBRANCH  12  16
ENDBRANCH   9  12
ENDBRANCH   6   9
ENDBRANCH   3   5
ENDBRANCH   2   3
BRANCH   2  23
ATOM     23  N   UNL     1      -9.527   5.687  -1.916  1.00  0.00    -0.332 N 
ATOM     24  C   UNL     1      -9.186   5.594  -0.505  1.00  0.00     0.147 C 
BRANCH  23  25
ATOM     25  C   UNL     1      -9.100   6.948  -2.583  1.00  0.00     0.174 C 
BRANCH  25  26
ATOM     26  C   UNL     1     -10.292   7.803  -3.074  1.00  0.00     0.038 C 
BRANCH  26  27
ATOM     27  C   UNL     1     -10.253   9.312  -2.747  1.00  0.00    -0.015 C 
ATOM     28  C   UNL     1      -9.163   9.663  -1.734  1.00  0.00     0.007 C 
ATOM     29  C   UNL     1     -10.141  10.199  -3.984  1.00  0.00     0.007 C 
ENDBRANCH  26  27
ENDBRANCH  25  26
BRANCH  25  30
ATOM     30  C   UNL     1      -8.059   6.642  -3.684  1.00  0.00     0.243 C 
ATOM     31  O   UNL     1      -6.889   6.375  -3.416  1.00  0.00    -0.273 OA
ATOM     32  N   UNL     1      -8.526   6.694  -4.972  1.00  0.00    -0.342 N 
ATOM     33  H   UNL     1      -9.537   6.781  -5.107  1.00  0.00     0.164 HD
BRANCH  32  34
ATOM     34  C   UNL     1      -7.676   6.459  -6.143  1.00  0.00     0.175 C 
BRANCH  34  35
ATOM     35  C   UNL     1      -7.646   4.970  -6.521  1.00  0.00     0.070 C 
BRANCH  35  36
ATOM     36  C   UNL     1      -6.664   4.669  -7.632  1.00  0.00    -0.045 A 
ATOM     37  C   UNL     1      -6.965   3.687  -8.587  1.00  0.00     0.007 A 
ATOM     38  C   UNL     1      -5.439   5.344  -7.711  1.00  0.00     0.007 A 
ATOM     39  C   UNL     1      -6.060   3.392  -9.607  1.00  0.00     0.046 A 
ATOM     40  C   UNL     1      -4.532   5.049  -8.731  1.00  0.00     0.046 A 
ATOM     41  C   UNL     1      -4.852   4.075  -9.672  1.00  0.00     0.115 A 
BRANCH  41  42
ATOM     42  O   UNL     1      -3.994   3.756 -10.682  1.00  0.00    -0.508 OA
ATOM     43  H   UNL     1      -3.859   4.547 -11.229  1.00  0.00     0.293 HD
ENDBRANCH  41  42
ENDBRANCH  35  36
ENDBRANCH  34  35
BRANCH  34  44
ATOM     44  C   UNL     1      -8.202   7.338  -7.300  1.00  0.00     0.243 C 
ATOM     45  O   UNL     1      -7.827   8.485  -7.525  1.00  0.00    -0.273 OA
ATOM     46  N   UNL     1      -9.243   6.763  -7.997  1.00  0.00    -0.341 N 
ATOM     47  H   UNL     1      -9.597   5.857  -7.698  1.00  0.00     0.164 HD
BRANCH  46  48
ATOM     48  C   UNL     1      -9.947   7.434  -9.092  1.00  0.00     0.196 C 
BRANCH  48  49
ATOM     49  C   UNL     1     -10.268   6.455 -10.234  1.00  0.00     0.072 C 
BRANCH  49  50
ATOM     50  C   UNL     1      -9.037   6.037 -11.005  1.00  0.00    -0.045 A 
ATOM     51  C   UNL     1      -7.905   6.865 -11.017  1.00  0.00     0.007 A 
ATOM     52  C   UNL     1      -9.012   4.838 -11.730  1.00  0.00     0.007 A 
ATOM     53  C   UNL     1      -6.767   6.495 -11.735  1.00  0.00     0.046 A 
ATOM     54  C   UNL     1      -7.874   4.469 -12.450  1.00  0.00     0.046 A 
ATOM     55  C   UNL     1      -6.760   5.301 -12.445  1.00  0.00     0.115 A 
BRANCH  55  56
ATOM     56  O   UNL     1      -5.630   4.978 -13.136  1.00  0.00    -0.508 OA
ATOM     57  H   UNL     1      -5.274   4.152 -12.771  1.00  0.00     0.293 HD
ENDBRANCH  55  56
ENDBRANCH  49  50
ENDBRANCH  48  49
BRANCH  48  58
ATOM     58  C   UNL     1     -11.250   8.038  -8.551  1.00  0.00     0.326 C 
ATOM     59  O   UNL     1     -12.391   7.687  -8.807  1.00  0.00    -0.250 OA
BRANCH  58  60
ATOM     60  O   UNL     1     -11.053   9.065  -7.686  1.00  0.00    -0.480 OA
ATOM     61  H   UNL     1     -11.560   8.791  -6.891  1.00  0.00     0.296 HD
ENDBRANCH  58  60
ENDBRANCH  48  58
ENDBRANCH  46  48
ENDBRANCH  34  44
ENDBRANCH  32  34
ENDBRANCH  25  30
ENDBRANCH  23  25
ENDBRANCH   2  23
TORSDOF 28
ENDMDL
MODEL 8
REMARK VINA RESULT:    -5.657      2.512      7.043
REMARK INTER + INTRA:         -20.036
REMARK INTER:                 -14.449
REMARK INTRA:                  -5.587
REMARK UNBOUND:                -5.946
REMARK SMILES CCCCCCC[C@H](N)[C@H](O)C(=O)N[C@H](C)C(=O)N(C)[C@H](CC(C)C)C(=O)N[C@@H](Cc1ccc(O)cc1)C(=O)N[C@@H](Cc1ccc(O)cc1)C(=O)O
REMARK SMILES IDX 18 1 17 2 15 3 16 4 14 5 12 6 13 7 10 9 11 10 8 12 9 13 7 16
REMARK SMILES IDX 6 17 5 18 4 19 3 20 2 21 1 22 19 23 20 24 21 25 22 26 23 27
REMARK SMILES IDX 24 28 25 29 26 30 27 31 28 32 29 34 30 35 31 36 32 37 37 38
REMARK SMILES IDX 33 39 36 40 34 41 35 42 38 44 39 45 40 46 41 48 42 49 43 50
REMARK SMILES IDX 44 51 49 52 45 53 48 54 46 55 47 56 50 58 51 59 52 60
REMARK H PARENT 14 8 11 11 9 14 9 15 28 33 35 43 40 47 47 57 52 61
ROOT
ATOM      1  O   UNL     1      -8.073   5.201 -11.621  1.00  0.00    -0.272 OA
ATOM      2  C   UNL     1      -7.136   5.992 -11.440  1.00  0.00     0.245 C 
ENDROOT
BRANCH   2   3
ATOM      3  C   UNL     1      -7.442   7.367 -10.794  1.00  0.00     0.168 C 
ATOM      4  C   UNL     1      -8.743   7.945 -11.340  1.00  0.00     0.041 C 
BRANCH   3   5
ATOM      5  N   UNL     1      -7.412   7.379  -9.339  1.00  0.00    -0.342 N 
ATOM      6  C   UNL     1      -6.851   8.421  -8.631  1.00  0.00     0.251 C 
ATOM      7  O   UNL     1      -6.306   9.383  -9.162  1.00  0.00    -0.272 OA
ATOM      8  H   UNL     1      -7.803   6.618  -8.789  1.00  0.00     0.164 HD
BRANCH   6   9
ATOM      9  C   UNL     1      -7.060   8.289  -7.114  1.00  0.00     0.219 C 
BRANCH   9  10
ATOM     10  O   UNL     1      -8.195   7.480  -6.781  1.00  0.00    -0.382 OA
ATOM     11  H   UNL     1      -8.811   8.113  -6.351  1.00  0.00     0.211 HD
ENDBRANCH   9  10
BRANCH   9  12
ATOM     12  C   UNL     1      -5.794   7.796  -6.366  1.00  0.00     0.089 C 
BRANCH  12  13
ATOM     13  N   UNL     1      -4.946   7.049  -7.323  1.00  0.00    -0.325 NA
ATOM     14  H   UNL     1      -4.049   6.837  -6.883  1.00  0.00     0.119 HD
ATOM     15  H   UNL     1      -4.719   7.660  -8.111  1.00  0.00     0.119 HD
ENDBRANCH  12  13
BRANCH  12  16
ATOM     16  C   UNL     1      -4.958   8.888  -5.656  1.00  0.00     0.022 C 
BRANCH  16  17
ATOM     17  C   UNL     1      -3.735   9.477  -6.373  1.00  0.00     0.002 C 
BRANCH  17  18
ATOM     18  C   UNL     1      -3.870  10.943  -6.778  1.00  0.00     0.000 C 
BRANCH  18  19
ATOM     19  C   UNL     1      -2.613  11.527  -7.438  1.00  0.00    -0.000 C 
BRANCH  19  20
ATOM     20  C   UNL     1      -2.035  10.695  -8.585  1.00  0.00    -0.000 C 
BRANCH  20  21
ATOM     21  C   UNL     1      -0.640  10.142  -8.280  1.00  0.00    -0.003 C 
ATOM     22  C   UNL     1      -0.688   8.654  -7.973  1.00  0.00     0.004 C 
ENDBRANCH  20  21
ENDBRANCH  19  20
ENDBRANCH  18  19
ENDBRANCH  17  18
ENDBRANCH  16  17
ENDBRANCH  12  16
ENDBRANCH   9  12
ENDBRANCH   6   9
ENDBRANCH   3   5
ENDBRANCH   2   3
BRANCH   2  23
ATOM     23  N   UNL     1      -5.829   5.594 -11.700  1.00  0.00    -0.332 N 
ATOM     24  C   UNL     1      -5.249   5.486 -13.031  1.00  0.00     0.147 C 
BRANCH  23  25
ATOM     25  C   UNL     1      -4.875   5.369 -10.580  1.00  0.00     0.174 C 
BRANCH  25  26
ATOM     26  C   UNL     1      -3.397   5.375 -11.037  1.00  0.00     0.038 C 
BRANCH  26  27
ATOM     27  C   UNL     1      -2.523   6.559 -10.567  1.00  0.00    -0.015 C 
ATOM     28  C   UNL     1      -1.275   6.743 -11.429  1.00  0.00     0.007 C 
ATOM     29  C   UNL     1      -3.293   7.872 -10.449  1.00  0.00     0.007 C 
ENDBRANCH  26  27
ENDBRANCH  25  26
BRANCH  25  30
ATOM     30  C   UNL     1      -5.275   4.105  -9.786  1.00  0.00     0.243 C 
ATOM     31  O   UNL     1      -5.766   3.120 -10.337  1.00  0.00    -0.273 OA
ATOM     32  N   UNL     1      -5.053   4.158  -8.434  1.00  0.00    -0.342 N 
ATOM     33  H   UNL     1      -4.515   4.949  -8.073  1.00  0.00     0.164 HD
BRANCH  32  34
ATOM     34  C   UNL     1      -5.395   3.063  -7.522  1.00  0.00     0.175 C 
BRANCH  34  35
ATOM     35  C   UNL     1      -4.145   2.276  -7.100  1.00  0.00     0.070 C 
BRANCH  35  36
ATOM     36  C   UNL     1      -3.908   1.052  -7.956  1.00  0.00    -0.045 A 
ATOM     37  C   UNL     1      -4.431  -0.190  -7.566  1.00  0.00     0.007 A 
ATOM     38  C   UNL     1      -3.149   1.133  -9.131  1.00  0.00     0.007 A 
ATOM     39  C   UNL     1      -4.206  -1.327  -8.342  1.00  0.00     0.046 A 
ATOM     40  C   UNL     1      -2.922  -0.005  -9.908  1.00  0.00     0.046 A 
ATOM     41  C   UNL     1      -3.455  -1.226  -9.507  1.00  0.00     0.115 A 
BRANCH  41  42
ATOM     42  O   UNL     1      -3.255  -2.361 -10.235  1.00  0.00    -0.508 OA
ATOM     43  H   UNL     1      -3.720  -2.265 -11.083  1.00  0.00     0.293 HD
ENDBRANCH  41  42
ENDBRANCH  35  36
ENDBRANCH  34  35
BRANCH  34  44
ATOM     44  C   UNL     1      -6.135   3.667  -6.307  1.00  0.00     0.243 C 
ATOM     45  O   UNL     1      -6.813   4.689  -6.345  1.00  0.00    -0.273 OA
ATOM     46  N   UNL     1      -5.860   3.020  -5.120  1.00  0.00    -0.341 N 
ATOM     47  H   UNL     1      -5.199   2.247  -5.121  1.00  0.00     0.164 HD
BRANCH  46  48
ATOM     48  C   UNL     1      -6.392   3.451  -3.826  1.00  0.00     0.196 C 
BRANCH  48  49
ATOM     49  C   UNL     1      -7.638   2.640  -3.433  1.00  0.00     0.072 C 
BRANCH  49  50
ATOM     50  C   UNL     1      -8.919   3.428  -3.594  1.00  0.00    -0.045 A 
ATOM     51  C   UNL     1     -10.135   2.754  -3.778  1.00  0.00     0.007 A 
ATOM     52  C   UNL     1      -8.910   4.828  -3.583  1.00  0.00     0.007 A 
ATOM     53  C   UNL     1     -11.321   3.470  -3.940  1.00  0.00     0.046 A 
ATOM     54  C   UNL     1     -10.097   5.545  -3.747  1.00  0.00     0.046 A 
ATOM     55  C   UNL     1     -11.294   4.859  -3.923  1.00  0.00     0.115 A 
BRANCH  55  56
ATOM     56  O   UNL     1     -12.474   5.521  -4.087  1.00  0.00    -0.508 OA
ATOM     57  H   UNL     1     -13.018   5.025  -4.720  1.00  0.00     0.293 HD
ENDBRANCH  55  56
ENDBRANCH  49  50
ENDBRANCH  48  49
BRANCH  48  58
ATOM     58  C   UNL     1      -5.305   3.274  -2.756  1.00  0.00     0.326 C 
ATOM     59  O   UNL     1      -4.830   4.137  -2.035  1.00  0.00    -0.250 OA
BRANCH  58  60
ATOM     60  O   UNL     1      -4.870   1.995  -2.633  1.00  0.00    -0.480 OA
ATOM     61  H   UNL     1      -4.319   2.021  -1.820  1.00  0.00     0.296 HD
ENDBRANCH  58  60
ENDBRANCH  48  58
ENDBRANCH  46  48
ENDBRANCH  34  44
ENDBRANCH  32  34
ENDBRANCH  25  30
ENDBRANCH  23  25
ENDBRANCH   2  23
TORSDOF 28
ENDMDL
MODEL 9
REMARK VINA RESULT:    -5.643      2.234      3.373
REMARK INTER + INTRA:         -20.002
REMARK INTER:                 -14.662
REMARK INTRA:                  -5.339
REMARK UNBOUND:                -5.946
REMARK SMILES CCCCCCC[C@H](N)[C@H](O)C(=O)N[C@H](C)C(=O)N(C)[C@H](CC(C)C)C(=O)N[C@@H](Cc1ccc(O)cc1)C(=O)N[C@@H](Cc1ccc(O)cc1)C(=O)O
REMARK SMILES IDX 18 1 17 2 15 3 16 4 14 5 12 6 13 7 10 9 11 10 8 12 9 13 7 16
REMARK SMILES IDX 6 17 5 18 4 19 3 20 2 21 1 22 19 23 20 24 21 25 22 26 23 27
REMARK SMILES IDX 24 28 25 29 26 30 27 31 28 32 29 34 30 35 31 36 32 37 37 38
REMARK SMILES IDX 33 39 36 40 34 41 35 42 38 44 39 45 40 46 41 48 42 49 43 50
REMARK SMILES IDX 44 51 49 52 45 53 48 54 46 55 47 56 50 58 51 59 52 60
REMARK H PARENT 14 8 11 11 9 14 9 15 28 33 35 43 40 47 47 57 52 61
ROOT
ATOM      1  O   UNL     1      -1.643   6.457  -9.157  1.00  0.00    -0.272 OA
ATOM      2  C   UNL     1      -2.830   6.481  -9.516  1.00  0.00     0.245 C 
ENDROOT
BRANCH   2   3
ATOM      3  C   UNL     1      -3.369   5.307 -10.371  1.00  0.00     0.168 C 
ATOM      4  C   UNL     1      -3.167   5.582 -11.857  1.00  0.00     0.041 C 
BRANCH   3   5
ATOM      5  N   UNL     1      -2.872   3.994  -9.990  1.00  0.00    -0.342 N 
ATOM      6  C   UNL     1      -3.309   3.352  -8.851  1.00  0.00     0.251 C 
ATOM      7  O   UNL     1      -4.106   3.846  -8.060  1.00  0.00    -0.272 OA
ATOM      8  H   UNL     1      -2.181   3.499 -10.550  1.00  0.00     0.164 HD
BRANCH   6   9
ATOM      9  C   UNL     1      -2.758   1.923  -8.725  1.00  0.00     0.219 C 
BRANCH   9  10
ATOM     10  O   UNL     1      -2.146   1.677  -7.453  1.00  0.00    -0.382 OA
ATOM     11  H   UNL     1      -1.991   2.578  -7.093  1.00  0.00     0.211 HD
ENDBRANCH   9  10
BRANCH   9  12
ATOM     12  C   UNL     1      -3.813   0.833  -9.048  1.00  0.00     0.089 C 
BRANCH  12  13
ATOM     13  N   UNL     1      -5.033   1.500  -9.558  1.00  0.00    -0.325 NA
ATOM     14  H   UNL     1      -4.821   1.952 -10.449  1.00  0.00     0.119 HD
ATOM     15  H   UNL     1      -5.282   2.263  -8.924  1.00  0.00     0.119 HD
ENDBRANCH  12  13
BRANCH  12  16
ATOM     16  C   UNL     1      -3.364  -0.276 -10.030  1.00  0.00     0.022 C 
BRANCH  16  17
ATOM     17  C   UNL     1      -1.983  -0.173 -10.691  1.00  0.00     0.002 C 
BRANCH  17  18
ATOM     18  C   UNL     1      -1.880  -0.815 -12.073  1.00  0.00     0.000 C 
BRANCH  18  19
ATOM     19  C   UNL     1      -0.795  -0.201 -12.968  1.00  0.00    -0.000 C 
BRANCH  19  20
ATOM     20  C   UNL     1       0.207  -1.201 -13.553  1.00  0.00    -0.000 C 
BRANCH  20  21
ATOM     21  C   UNL     1       1.315  -1.585 -12.570  1.00  0.00    -0.003 C 
ATOM     22  C   UNL     1       1.628  -0.444 -11.614  1.00  0.00     0.004 C 
ENDBRANCH  20  21
ENDBRANCH  19  20
ENDBRANCH  18  19
ENDBRANCH  17  18
ENDBRANCH  16  17
ENDBRANCH  12  16
ENDBRANCH   9  12
ENDBRANCH   6   9
ENDBRANCH   3   5
ENDBRANCH   2   3
BRANCH   2  23
ATOM     23  N   UNL     1      -3.677   7.481  -9.051  1.00  0.00    -0.332 N 
ATOM     24  C   UNL     1      -3.279   8.542  -8.138  1.00  0.00     0.147 C 
BRANCH  23  25
ATOM     25  C   UNL     1      -5.063   7.598  -9.582  1.00  0.00     0.174 C 
BRANCH  25  26
ATOM     26  C   UNL     1      -5.280   8.879 -10.421  1.00  0.00     0.038 C 
BRANCH  26  27
ATOM     27  C   UNL     1      -5.969   8.709 -11.793  1.00  0.00    -0.015 C 
ATOM     28  C   UNL     1      -5.024   8.995 -12.961  1.00  0.00     0.007 C 
ATOM     29  C   UNL     1      -6.645   7.351 -11.969  1.00  0.00     0.007 C 
ENDBRANCH  26  27
ENDBRANCH  25  26
BRANCH  25  30
ATOM     30  C   UNL     1      -6.088   7.423  -8.437  1.00  0.00     0.243 C 
ATOM     31  O   UNL     1      -6.727   8.373  -7.987  1.00  0.00    -0.273 OA
ATOM     32  N   UNL     1      -6.229   6.147  -7.957  1.00  0.00    -0.342 N 
ATOM     33  H   UNL     1      -5.771   5.392  -8.475  1.00  0.00     0.164 HD
BRANCH  32  34
ATOM     34  C   UNL     1      -7.133   5.799  -6.858  1.00  0.00     0.175 C 
BRANCH  34  35
ATOM     35  C   UNL     1      -8.144   4.724  -7.284  1.00  0.00     0.070 C 
BRANCH  35  36
ATOM     36  C   UNL     1      -8.743   4.991  -8.647  1.00  0.00    -0.045 A 
ATOM     37  C   UNL     1      -9.480   6.163  -8.872  1.00  0.00     0.007 A 
ATOM     38  C   UNL     1      -8.592   4.070  -9.692  1.00  0.00     0.007 A 
ATOM     39  C   UNL     1     -10.048   6.412 -10.122  1.00  0.00     0.046 A 
ATOM     40  C   UNL     1      -9.161   4.318 -10.943  1.00  0.00     0.046 A 
ATOM     41  C   UNL     1      -9.883   5.489 -11.147  1.00  0.00     0.115 A 
BRANCH  41  42
ATOM     42  O   UNL     1     -10.456   5.768 -12.352  1.00  0.00    -0.508 OA
ATOM     43  H   UNL     1     -10.258   6.693 -12.577  1.00  0.00     0.293 HD
ENDBRANCH  41  42
ENDBRANCH  35  36
ENDBRANCH  34  35
BRANCH  34  44
ATOM     44  C   UNL     1      -6.274   5.341  -5.658  1.00  0.00     0.243 C 
ATOM     45  O   UNL     1      -5.586   6.090  -4.971  1.00  0.00    -0.273 OA
ATOM     46  N   UNL     1      -6.241   3.971  -5.499  1.00  0.00    -0.341 N 
ATOM     47  H   UNL     1      -6.735   3.384  -6.166  1.00  0.00     0.164 HD
BRANCH  46  48
ATOM     48  C   UNL     1      -5.440   3.299  -4.473  1.00  0.00     0.196 C 
BRANCH  48  49
ATOM     49  C   UNL     1      -6.277   2.998  -3.218  1.00  0.00     0.072 C 
BRANCH  49  50
ATOM     50  C   UNL     1      -6.276   4.143  -2.230  1.00  0.00    -0.045 A 
ATOM     51  C   UNL     1      -5.070   4.565  -1.650  1.00  0.00     0.007 A 
ATOM     52  C   UNL     1      -7.468   4.781  -1.865  1.00  0.00     0.007 A 
ATOM     53  C   UNL     1      -5.059   5.612  -0.728  1.00  0.00     0.046 A 
ATOM     54  C   UNL     1      -7.457   5.828  -0.940  1.00  0.00     0.046 A 
ATOM     55  C   UNL     1      -6.251   6.235  -0.380  1.00  0.00     0.115 A 
BRANCH  55  56
ATOM     56  O   UNL     1      -6.197   7.252   0.526  1.00  0.00    -0.508 OA
ATOM     57  H   UNL     1      -7.103   7.547   0.710  1.00  0.00     0.293 HD
ENDBRANCH  55  56
ENDBRANCH  49  50
ENDBRANCH  48  49
BRANCH  48  58
ATOM     58  C   UNL     1      -4.889   1.988  -5.050  1.00  0.00     0.326 C 
ATOM     59  O   UNL     1      -4.330   1.090  -4.441  1.00  0.00    -0.250 OA
BRANCH  58  60
ATOM     60  O   UNL     1      -5.083   1.861  -6.387  1.00  0.00    -0.480 OA
ATOM     61  H   UNL     1      -6.006   2.173  -6.512  1.00  0.00     0.296 HD
ENDBRANCH  58  60
ENDBRANCH  48  58
ENDBRANCH  46  48
ENDBRANCH  34  44
ENDBRANCH  32  34
ENDBRANCH  25  30
ENDBRANCH  23  25
ENDBRANCH   2  23
TORSDOF 28
ENDMDL
MODEL 10
REMARK VINA RESULT:    -5.572      2.229      7.532
REMARK INTER + INTRA:         -19.824
REMARK INTER:                 -13.701
REMARK INTRA:                  -6.122
REMARK UNBOUND:                -5.946
REMARK SMILES CCCCCCC[C@H](N)[C@H](O)C(=O)N[C@H](C)C(=O)N(C)[C@H](CC(C)C)C(=O)N[C@@H](Cc1ccc(O)cc1)C(=O)N[C@@H](Cc1ccc(O)cc1)C(=O)O
REMARK SMILES IDX 18 1 17 2 15 3 16 4 14 5 12 6 13 7 10 9 11 10 8 12 9 13 7 16
REMARK SMILES IDX 6 17 5 18 4 19 3 20 2 21 1 22 19 23 20 24 21 25 22 26 23 27
REMARK SMILES IDX 24 28 25 29 26 30 27 31 28 32 29 34 30 35 31 36 32 37 37 38
REMARK SMILES IDX 33 39 36 40 34 41 35 42 38 44 39 45 40 46 41 48 42 49 43 50
REMARK SMILES IDX 44 51 49 52 45 53 48 54 46 55 47 56 50 58 51 59 52 60
REMARK H PARENT 14 8 11 11 9 14 9 15 28 33 35 43 40 47 47 57 52 61
ROOT
ATOM      1  O   UNL     1      -6.596   8.216 -11.551  1.00  0.00    -0.272 OA
ATOM      2  C   UNL     1      -6.587   7.201 -10.840  1.00  0.00     0.245 C 
ENDROOT
BRANCH   2   3
ATOM      3  C   UNL     1      -7.345   7.235  -9.490  1.00  0.00     0.168 C 
ATOM      4  C   UNL     1      -8.183   5.974  -9.307  1.00  0.00     0.041 C 
BRANCH   3   5
ATOM      5  N   UNL     1      -6.513   7.505  -8.328  1.00  0.00    -0.342 N 
ATOM      6  C   UNL     1      -6.513   8.734  -7.702  1.00  0.00     0.251 C 
ATOM      7  O   UNL     1      -7.171   9.692  -8.093  1.00  0.00    -0.272 OA
ATOM      8  H   UNL     1      -5.897   6.798  -7.933  1.00  0.00     0.164 HD
BRANCH   6   9
ATOM      9  C   UNL     1      -5.669   8.747  -6.417  1.00  0.00     0.219 C 
BRANCH   9  10
ATOM     10  O   UNL     1      -4.971   9.983  -6.227  1.00  0.00    -0.382 OA
ATOM     11  H   UNL     1      -5.610  10.660  -6.542  1.00  0.00     0.211 HD
ENDBRANCH   9  10
BRANCH   9  12
ATOM     12  C   UNL     1      -6.483   8.373  -5.151  1.00  0.00     0.089 C 
BRANCH  12  13
ATOM     13  N   UNL     1      -7.758   7.754  -5.580  1.00  0.00    -0.325 NA
ATOM     14  H   UNL     1      -8.246   8.393  -6.210  1.00  0.00     0.119 HD
ATOM     15  H   UNL     1      -8.371   7.660  -4.767  1.00  0.00     0.119 HD
ENDBRANCH  12  13
BRANCH  12  16
ATOM     16  C   UNL     1      -5.766   7.459  -4.129  1.00  0.00     0.022 C 
BRANCH  16  17
ATOM     17  C   UNL     1      -5.994   7.692  -2.629  1.00  0.00     0.002 C 
BRANCH  17  18
ATOM     18  C   UNL     1      -7.141   6.889  -2.019  1.00  0.00     0.000 C 
BRANCH  18  19
ATOM     19  C   UNL     1      -8.423   7.702  -1.797  1.00  0.00    -0.000 C 
BRANCH  19  20
ATOM     20  C   UNL     1      -9.443   7.060  -0.852  1.00  0.00    -0.000 C 
BRANCH  20  21
ATOM     21  C   UNL     1      -9.109   5.607  -0.505  1.00  0.00    -0.003 C 
ATOM     22  C   UNL     1     -10.366   4.801  -0.219  1.00  0.00     0.004 C 
ENDBRANCH  20  21
ENDBRANCH  19  20
ENDBRANCH  18  19
ENDBRANCH  17  18
ENDBRANCH  16  17
ENDBRANCH  12  16
ENDBRANCH   9  12
ENDBRANCH   6   9
ENDBRANCH   3   5
ENDBRANCH   2   3
BRANCH   2  23
ATOM     23  N   UNL     1      -6.011   6.026 -11.312  1.00  0.00    -0.332 N 
ATOM     24  C   UNL     1      -6.415   5.339 -12.530  1.00  0.00     0.147 C 
BRANCH  23  25
ATOM     25  C   UNL     1      -4.815   5.452 -10.636  1.00  0.00     0.174 C 
BRANCH  25  26
ATOM     26  C   UNL     1      -3.645   5.180 -11.611  1.00  0.00     0.038 C 
BRANCH  26  27
ATOM     27  C   UNL     1      -2.386   6.062 -11.457  1.00  0.00    -0.015 C 
ATOM     28  C   UNL     1      -2.486   7.366 -12.246  1.00  0.00     0.007 C 
ATOM     29  C   UNL     1      -2.015   6.341 -10.003  1.00  0.00     0.007 C 
ENDBRANCH  26  27
ENDBRANCH  25  26
BRANCH  25  30
ATOM     30  C   UNL     1      -5.220   4.221  -9.793  1.00  0.00     0.243 C 
ATOM     31  O   UNL     1      -5.790   3.251 -10.291  1.00  0.00    -0.273 OA
ATOM     32  N   UNL     1      -4.909   4.287  -8.459  1.00  0.00    -0.342 N 
ATOM     33  H   UNL     1      -4.312   5.059  -8.150  1.00  0.00     0.164 HD
BRANCH  32  34
ATOM     34  C   UNL     1      -5.241   3.226  -7.505  1.00  0.00     0.175 C 
BRANCH  34  35
ATOM     35  C   UNL     1      -3.997   2.409  -7.122  1.00  0.00     0.070 C 
BRANCH  35  36
ATOM     36  C   UNL     1      -3.828   1.170  -7.972  1.00  0.00    -0.045 A 
ATOM     37  C   UNL     1      -4.394  -0.046  -7.560  1.00  0.00     0.007 A 
ATOM     38  C   UNL     1      -3.089   1.209  -9.161  1.00  0.00     0.007 A 
ATOM     39  C   UNL     1      -4.232  -1.198  -8.331  1.00  0.00     0.046 A 
ATOM     40  C   UNL     1      -2.924   0.056  -9.932  1.00  0.00     0.046 A 
ATOM     41  C   UNL     1      -3.499  -1.138  -9.510  1.00  0.00     0.115 A 
BRANCH  41  42
ATOM     42  O   UNL     1      -3.361  -2.287 -10.231  1.00  0.00    -0.508 OA
ATOM     43  H   UNL     1      -2.818  -2.092 -11.013  1.00  0.00     0.293 HD
ENDBRANCH  41  42
ENDBRANCH  35  36
ENDBRANCH  34  35
BRANCH  34  44
ATOM     44  C   UNL     1      -5.903   3.881  -6.272  1.00  0.00     0.243 C 
ATOM     45  O   UNL     1      -6.298   5.043  -6.232  1.00  0.00    -0.273 OA
ATOM     46  N   UNL     1      -5.898   3.075  -5.153  1.00  0.00    -0.341 N 
ATOM     47  H   UNL     1      -5.454   2.162  -5.204  1.00  0.00     0.164 HD
BRANCH  46  48
ATOM     48  C   UNL     1      -6.409   3.504  -3.849  1.00  0.00     0.196 C 
BRANCH  48  49
ATOM     49  C   UNL     1      -7.617   2.658  -3.415  1.00  0.00     0.072 C 
BRANCH  49  50
ATOM     50  C   UNL     1      -8.933   3.373  -3.623  1.00  0.00    -0.045 A 
ATOM     51  C   UNL     1      -8.942   4.713  -4.039  1.00  0.00     0.007 A 
ATOM     52  C   UNL     1     -10.152   2.725  -3.386  1.00  0.00     0.007 A 
ATOM     53  C   UNL     1     -10.149   5.387  -4.221  1.00  0.00     0.046 A 
ATOM     54  C   UNL     1     -11.361   3.401  -3.568  1.00  0.00     0.046 A 
ATOM     55  C   UNL     1     -11.349   4.727  -3.985  1.00  0.00     0.115 A 
BRANCH  55  56
ATOM     56  O   UNL     1     -12.506   5.422  -4.173  1.00  0.00    -0.508 OA
ATOM     57  H   UNL     1     -12.476   6.221  -3.623  1.00  0.00     0.293 HD
ENDBRANCH  55  56
ENDBRANCH  49  50
ENDBRANCH  48  49
BRANCH  48  58
ATOM     58  C   UNL     1      -5.289   3.374  -2.807  1.00  0.00     0.326 C 
ATOM     59  O   UNL     1      -4.836   4.255  -2.095  1.00  0.00    -0.250 OA
BRANCH  58  60
ATOM     60  O   UNL     1      -4.794   2.115  -2.699  1.00  0.00    -0.480 OA
ATOM     61  H   UNL     1      -3.866   2.210  -3.008  1.00  0.00     0.296 HD
ENDBRANCH  58  60
ENDBRANCH  48  58
ENDBRANCH  46  48
ENDBRANCH  34  44
ENDBRANCH  32  34
ENDBRANCH  25  30
ENDBRANCH  23  25
ENDBRANCH   2  23
TORSDOF 28
ENDMDL
MODEL 11
REMARK VINA RESULT:    -5.565      2.032      6.794
REMARK INTER + INTRA:         -19.806
REMARK INTER:                 -15.185
REMARK INTRA:                  -4.621
REMARK UNBOUND:                -5.946
REMARK SMILES CCCCCCC[C@H](N)[C@H](O)C(=O)N[C@H](C)C(=O)N(C)[C@H](CC(C)C)C(=O)N[C@@H](Cc1ccc(O)cc1)C(=O)N[C@@H](Cc1ccc(O)cc1)C(=O)O
REMARK SMILES IDX 18 1 17 2 15 3 16 4 14 5 12 6 13 7 10 9 11 10 8 12 9 13 7 16
REMARK SMILES IDX 6 17 5 18 4 19 3 20 2 21 1 22 19 23 20 24 21 25 22 26 23 27
REMARK SMILES IDX 24 28 25 29 26 30 27 31 28 32 29 34 30 35 31 36 32 37 37 38
REMARK SMILES IDX 33 39 36 40 34 41 35 42 38 44 39 45 40 46 41 48 42 49 43 50
REMARK SMILES IDX 44 51 49 52 45 53 48 54 46 55 47 56 50 58 51 59 52 60
REMARK H PARENT 14 8 11 11 9 14 9 15 28 33 35 43 40 47 47 57 52 61
ROOT
ATOM      1  O   UNL     1      -4.769   7.493  -7.924  1.00  0.00    -0.272 OA
ATOM      2  C   UNL     1      -4.196   7.581  -9.020  1.00  0.00     0.245 C 
ENDROOT
BRANCH   2   3
ATOM      3  C   UNL     1      -5.029   7.989 -10.261  1.00  0.00     0.168 C 
ATOM      4  C   UNL     1      -4.280   9.015 -11.103  1.00  0.00     0.041 C 
BRANCH   3   5
ATOM      5  N   UNL     1      -5.513   6.877 -11.065  1.00  0.00    -0.342 N 
ATOM      6  C   UNL     1      -6.760   6.891 -11.653  1.00  0.00     0.251 C 
ATOM      7  O   UNL     1      -7.563   7.808 -11.513  1.00  0.00    -0.272 OA
ATOM      8  H   UNL     1      -4.949   6.045 -11.223  1.00  0.00     0.164 HD
BRANCH   6   9
ATOM      9  C   UNL     1      -6.999   5.680 -12.568  1.00  0.00     0.219 C 
BRANCH   9  10
ATOM     10  O   UNL     1      -5.843   4.843 -12.691  1.00  0.00    -0.382 OA
ATOM     11  H   UNL     1      -5.504   5.047 -13.590  1.00  0.00     0.211 HD
ENDBRANCH   9  10
BRANCH   9  12
ATOM     12  C   UNL     1      -8.242   4.846 -12.162  1.00  0.00     0.089 C 
BRANCH  12  13
ATOM     13  N   UNL     1      -8.424   3.764 -13.157  1.00  0.00    -0.325 NA
ATOM     14  H   UNL     1      -9.238   3.203 -12.897  1.00  0.00     0.119 HD
ATOM     15  H   UNL     1      -7.629   3.124 -13.099  1.00  0.00     0.119 HD
ENDBRANCH  12  13
BRANCH  12  16
ATOM     16  C   UNL     1      -8.226   4.256 -10.732  1.00  0.00     0.022 C 
BRANCH  16  17
ATOM     17  C   UNL     1      -9.148   4.860  -9.664  1.00  0.00     0.002 C 
BRANCH  17  18
ATOM     18  C   UNL     1      -8.432   5.430  -8.441  1.00  0.00     0.000 C 
BRANCH  18  19
ATOM     19  C   UNL     1      -8.587   6.948  -8.278  1.00  0.00    -0.000 C 
BRANCH  19  20
ATOM     20  C   UNL     1      -8.351   7.477  -6.860  1.00  0.00    -0.000 C 
BRANCH  20  21
ATOM     21  C   UNL     1      -8.619   6.428  -5.777  1.00  0.00    -0.003 C 
ATOM     22  C   UNL     1     -10.029   6.554  -5.222  1.00  0.00     0.004 C 
ENDBRANCH  20  21
ENDBRANCH  19  20
ENDBRANCH  18  19
ENDBRANCH  17  18
ENDBRANCH  16  17
ENDBRANCH  12  16
ENDBRANCH   9  12
ENDBRANCH   6   9
ENDBRANCH   3   5
ENDBRANCH   2   3
BRANCH   2  23
ATOM     23  N   UNL     1      -2.815   7.436  -9.097  1.00  0.00    -0.332 N 
ATOM     24  C   UNL     1      -1.855   8.335  -8.475  1.00  0.00     0.147 C 
BRANCH  23  25
ATOM     25  C   UNL     1      -2.222   6.232  -9.740  1.00  0.00     0.174 C 
BRANCH  25  26
ATOM     26  C   UNL     1      -1.847   6.465 -11.223  1.00  0.00     0.038 C 
BRANCH  26  27
ATOM     27  C   UNL     1      -0.632   7.376 -11.504  1.00  0.00    -0.015 C 
ATOM     28  C   UNL     1       0.628   6.582 -11.847  1.00  0.00     0.007 C 
ATOM     29  C   UNL     1      -0.903   8.440 -12.565  1.00  0.00     0.007 C 
ENDBRANCH  26  27
ENDBRANCH  25  26
BRANCH  25  30
ATOM     30  C   UNL     1      -3.133   5.004  -9.515  1.00  0.00     0.243 C 
ATOM     31  O   UNL     1      -3.788   4.504 -10.428  1.00  0.00    -0.273 OA
ATOM     32  N   UNL     1      -3.165   4.516  -8.234  1.00  0.00    -0.342 N 
ATOM     33  H   UNL     1      -2.489   4.894  -7.566  1.00  0.00     0.164 HD
BRANCH  32  34
ATOM     34  C   UNL     1      -3.993   3.377  -7.830  1.00  0.00     0.175 C 
BRANCH  34  35
ATOM     35  C   UNL     1      -3.128   2.192  -7.374  1.00  0.00     0.070 C 
BRANCH  35  36
ATOM     36  C   UNL     1      -3.265   0.986  -8.275  1.00  0.00    -0.045 A 
ATOM     37  C   UNL     1      -2.616   0.962  -9.519  1.00  0.00     0.007 A 
ATOM     38  C   UNL     1      -4.054  -0.109  -7.898  1.00  0.00     0.007 A 
ATOM     39  C   UNL     1      -2.748  -0.140 -10.364  1.00  0.00     0.046 A 
ATOM     40  C   UNL     1      -4.188  -1.212  -8.744  1.00  0.00     0.046 A 
ATOM     41  C   UNL     1      -3.532  -1.218  -9.970  1.00  0.00     0.115 A 
BRANCH  41  42
ATOM     42  O   UNL     1      -3.637  -2.274 -10.826  1.00  0.00    -0.508 OA
ATOM     43  H   UNL     1      -3.314  -3.069 -10.370  1.00  0.00     0.293 HD
ENDBRANCH  41  42
ENDBRANCH  35  36
ENDBRANCH  34  35
BRANCH  34  44
ATOM     44  C   UNL     1      -4.954   3.853  -6.717  1.00  0.00     0.243 C 
ATOM     45  O   UNL     1      -5.454   4.973  -6.664  1.00  0.00    -0.273 OA
ATOM     46  N   UNL     1      -5.106   2.939  -5.696  1.00  0.00    -0.341 N 
ATOM     47  H   UNL     1      -4.579   2.070  -5.728  1.00  0.00     0.164 HD
BRANCH  46  48
ATOM     48  C   UNL     1      -5.913   3.194  -4.500  1.00  0.00     0.196 C 
BRANCH  48  49
ATOM     49  C   UNL     1      -7.416   3.169  -4.824  1.00  0.00     0.072 C 
BRANCH  49  50
ATOM     50  C   UNL     1      -8.275   3.502  -3.624  1.00  0.00    -0.045 A 
ATOM     51  C   UNL     1      -7.852   4.480  -2.712  1.00  0.00     0.007 A 
ATOM     52  C   UNL     1      -9.483   2.832  -3.395  1.00  0.00     0.007 A 
ATOM     53  C   UNL     1      -8.630   4.786  -1.595  1.00  0.00     0.046 A 
ATOM     54  C   UNL     1     -10.261   3.138  -2.275  1.00  0.00     0.046 A 
ATOM     55  C   UNL     1      -9.827   4.114  -1.385  1.00  0.00     0.115 A 
BRANCH  55  56
ATOM     56  O   UNL     1     -10.556   4.441  -0.280  1.00  0.00    -0.508 OA
ATOM     57  H   UNL     1     -10.753   3.627   0.209  1.00  0.00     0.293 HD
ENDBRANCH  55  56
ENDBRANCH  49  50
ENDBRANCH  48  49
BRANCH  48  58
ATOM     58  C   UNL     1      -5.595   2.124  -3.446  1.00  0.00     0.326 C 
ATOM     59  O   UNL     1      -5.804   0.925  -3.524  1.00  0.00    -0.250 OA
BRANCH  58  60
ATOM     60  O   UNL     1      -5.005   2.622  -2.330  1.00  0.00    -0.480 OA
ATOM     61  H   UNL     1      -5.176   1.930  -1.656  1.00  0.00     0.296 HD
ENDBRANCH  58  60
ENDBRANCH  48  58
ENDBRANCH  46  48
ENDBRANCH  34  44
ENDBRANCH  32  34
ENDBRANCH  25  30
ENDBRANCH  23  25
ENDBRANCH   2  23
TORSDOF 28
ENDMDL
MODEL 12
REMARK VINA RESULT:    -5.563      2.717      7.453
REMARK INTER + INTRA:         -19.802
REMARK INTER:                 -14.752
REMARK INTRA:                  -5.050
REMARK UNBOUND:                -5.946
REMARK SMILES CCCCCCC[C@H](N)[C@H](O)C(=O)N[C@H](C)C(=O)N(C)[C@H](CC(C)C)C(=O)N[C@@H](Cc1ccc(O)cc1)C(=O)N[C@@H](Cc1ccc(O)cc1)C(=O)O
REMARK SMILES IDX 18 1 17 2 15 3 16 4 14 5 12 6 13 7 10 9 11 10 8 12 9 13 7 16
REMARK SMILES IDX 6 17 5 18 4 19 3 20 2 21 1 22 19 23 20 24 21 25 22 26 23 27
REMARK SMILES IDX 24 28 25 29 26 30 27 31 28 32 29 34 30 35 31 36 32 37 37 38
REMARK SMILES IDX 33 39 36 40 34 41 35 42 38 44 39 45 40 46 41 48 42 49 43 50
REMARK SMILES IDX 44 51 49 52 45 53 48 54 46 55 47 56 50 58 51 59 52 60
REMARK H PARENT 14 8 11 11 9 14 9 15 28 33 35 43 40 47 47 57 52 61
ROOT
ATOM      1  O   UNL     1      -6.800   9.791  -6.100  1.00  0.00    -0.272 OA
ATOM      2  C   UNL     1      -5.863   9.059  -6.453  1.00  0.00     0.245 C 
ENDROOT
BRANCH   2   3
ATOM      3  C   UNL     1      -5.443   7.894  -5.523  1.00  0.00     0.168 C 
ATOM      4  C   UNL     1      -5.599   8.287  -4.058  1.00  0.00     0.041 C 
BRANCH   3   5
ATOM      5  N   UNL     1      -6.081   6.619  -5.813  1.00  0.00    -0.342 N 
ATOM      6  C   UNL     1      -7.346   6.318  -5.355  1.00  0.00     0.251 C 
ATOM      7  O   UNL     1      -8.005   7.069  -4.644  1.00  0.00    -0.272 OA
ATOM      8  H   UNL     1      -5.618   5.901  -6.365  1.00  0.00     0.164 HD
BRANCH   6   9
ATOM      9  C   UNL     1      -7.873   4.981  -5.901  1.00  0.00     0.219 C 
BRANCH   9  10
ATOM     10  O   UNL     1      -8.365   4.118  -4.869  1.00  0.00    -0.382 OA
ATOM     11  H   UNL     1      -7.811   3.311  -4.958  1.00  0.00     0.211 HD
ENDBRANCH   9  10
BRANCH   9  12
ATOM     12  C   UNL     1      -8.929   5.155  -7.023  1.00  0.00     0.089 C 
BRANCH  12  13
ATOM     13  N   UNL     1      -9.107   6.603  -7.277  1.00  0.00    -0.325 NA
ATOM     14  H   UNL     1     -10.008   6.756  -7.734  1.00  0.00     0.119 HD
ATOM     15  H   UNL     1      -8.407   6.908  -7.958  1.00  0.00     0.119 HD
ENDBRANCH  12  13
BRANCH  12  16
ATOM     16  C   UNL     1      -8.636   4.415  -8.351  1.00  0.00     0.022 C 
BRANCH  16  17
ATOM     17  C   UNL     1      -8.991   5.096  -9.680  1.00  0.00     0.002 C 
BRANCH  17  18
ATOM     18  C   UNL     1      -9.114   4.153 -10.874  1.00  0.00     0.000 C 
BRANCH  18  19
ATOM     19  C   UNL     1      -8.667   4.771 -12.206  1.00  0.00    -0.000 C 
BRANCH  19  20
ATOM     20  C   UNL     1      -7.156   4.976 -12.353  1.00  0.00    -0.000 C 
BRANCH  20  21
ATOM     21  C   UNL     1      -6.748   6.452 -12.343  1.00  0.00    -0.003 C 
ATOM     22  C   UNL     1      -7.939   7.358 -12.614  1.00  0.00     0.004 C 
ENDBRANCH  20  21
ENDBRANCH  19  20
ENDBRANCH  18  19
ENDBRANCH  17  18
ENDBRANCH  16  17
ENDBRANCH  12  16
ENDBRANCH   9  12
ENDBRANCH   6   9
ENDBRANCH   3   5
ENDBRANCH   2   3
BRANCH   2  23
ATOM     23  N   UNL     1      -5.294   9.216  -7.712  1.00  0.00    -0.332 N 
ATOM     24  C   UNL     1      -5.653  10.263  -8.656  1.00  0.00     0.147 C 
BRANCH  23  25
ATOM     25  C   UNL     1      -4.150   8.360  -8.131  1.00  0.00     0.174 C 
BRANCH  25  26
ATOM     26  C   UNL     1      -3.096   9.128  -8.963  1.00  0.00     0.038 C 
BRANCH  26  27
ATOM     27  C   UNL     1      -1.758   9.458  -8.265  1.00  0.00    -0.015 C 
ATOM     28  C   UNL     1      -0.936   8.207  -7.956  1.00  0.00     0.007 C 
ATOM     29  C   UNL     1      -0.914  10.481  -9.022  1.00  0.00     0.007 C 
ENDBRANCH  26  27
ENDBRANCH  25  26
BRANCH  25  30
ATOM     30  C   UNL     1      -4.669   7.076  -8.818  1.00  0.00     0.243 C 
ATOM     31  O   UNL     1      -5.869   6.821  -8.896  1.00  0.00    -0.273 OA
ATOM     32  N   UNL     1      -3.705   6.244  -9.326  1.00  0.00    -0.342 N 
ATOM     33  H   UNL     1      -2.743   6.592  -9.349  1.00  0.00     0.164 HD
BRANCH  32  34
ATOM     34  C   UNL     1      -4.010   4.972  -9.987  1.00  0.00     0.175 C 
BRANCH  34  35
ATOM     35  C   UNL     1      -3.438   4.931 -11.412  1.00  0.00     0.070 C 
BRANCH  35  36
ATOM     36  C   UNL     1      -2.649   6.172 -11.762  1.00  0.00    -0.045 A 
ATOM     37  C   UNL     1      -1.340   6.330 -11.283  1.00  0.00     0.007 A 
ATOM     38  C   UNL     1      -3.217   7.188 -12.543  1.00  0.00     0.007 A 
ATOM     39  C   UNL     1      -0.609   7.479 -11.590  1.00  0.00     0.046 A 
ATOM     40  C   UNL     1      -2.486   8.339 -12.849  1.00  0.00     0.046 A 
ATOM     41  C   UNL     1      -1.188   8.473 -12.370  1.00  0.00     0.115 A 
BRANCH  41  42
ATOM     42  O   UNL     1      -0.441   9.581 -12.644  1.00  0.00    -0.508 OA
ATOM     43  H   UNL     1       0.498   9.337 -12.588  1.00  0.00     0.293 HD
ENDBRANCH  41  42
ENDBRANCH  35  36
ENDBRANCH  34  35
BRANCH  34  44
ATOM     44  C   UNL     1      -3.453   3.830  -9.107  1.00  0.00     0.243 C 
ATOM     45  O   UNL     1      -2.586   3.975  -8.250  1.00  0.00    -0.273 OA
ATOM     46  N   UNL     1      -3.927   2.584  -9.460  1.00  0.00    -0.341 N 
ATOM     47  H   UNL     1      -4.556   2.502 -10.255  1.00  0.00     0.164 HD
BRANCH  46  48
ATOM     48  C   UNL     1      -3.491   1.344  -8.815  1.00  0.00     0.196 C 
BRANCH  48  49
ATOM     49  C   UNL     1      -4.648   0.668  -8.061  1.00  0.00     0.072 C 
BRANCH  49  50
ATOM     50  C   UNL     1      -4.702   1.062  -6.603  1.00  0.00    -0.045 A 
ATOM     51  C   UNL     1      -5.074   2.366  -6.245  1.00  0.00     0.007 A 
ATOM     52  C   UNL     1      -4.364   0.149  -5.596  1.00  0.00     0.007 A 
ATOM     53  C   UNL     1      -5.114   2.746  -4.903  1.00  0.00     0.046 A 
ATOM     54  C   UNL     1      -4.403   0.529  -4.252  1.00  0.00     0.046 A 
ATOM     55  C   UNL     1      -4.779   1.826  -3.917  1.00  0.00     0.115 A 
BRANCH  55  56
ATOM     56  O   UNL     1      -4.829   2.237  -2.618  1.00  0.00    -0.508 OA
ATOM     57  H   UNL     1      -4.991   1.461  -2.058  1.00  0.00     0.293 HD
ENDBRANCH  55  56
ENDBRANCH  49  50
ENDBRANCH  48  49
BRANCH  48  58
ATOM     58  C   UNL     1      -2.947   0.389  -9.887  1.00  0.00     0.326 C 
ATOM     59  O   UNL     1      -3.107  -0.819  -9.950  1.00  0.00    -0.250 OA
BRANCH  58  60
ATOM     60  O   UNL     1      -2.227   1.013 -10.853  1.00  0.00    -0.480 OA
ATOM     61  H   UNL     1      -1.591   0.323 -11.142  1.00  0.00     0.296 HD
ENDBRANCH  58  60
ENDBRANCH  48  58
ENDBRANCH  46  48
ENDBRANCH  34  44
ENDBRANCH  32  34
ENDBRANCH  25  30
ENDBRANCH  23  25
ENDBRANCH   2  23
TORSDOF 28
ENDMDL
MODEL 13
REMARK VINA RESULT:    -5.545      2.692      9.096
REMARK INTER + INTRA:         -19.757
REMARK INTER:                 -16.362
REMARK INTRA:                  -3.395
REMARK UNBOUND:                -5.946
REMARK SMILES CCCCCCC[C@H](N)[C@H](O)C(=O)N[C@H](C)C(=O)N(C)[C@H](CC(C)C)C(=O)N[C@@H](Cc1ccc(O)cc1)C(=O)N[C@@H](Cc1ccc(O)cc1)C(=O)O
REMARK SMILES IDX 18 1 17 2 15 3 16 4 14 5 12 6 13 7 10 9 11 10 8 12 9 13 7 16
REMARK SMILES IDX 6 17 5 18 4 19 3 20 2 21 1 22 19 23 20 24 21 25 22 26 23 27
REMARK SMILES IDX 24 28 25 29 26 30 27 31 28 32 29 34 30 35 31 36 32 37 37 38
REMARK SMILES IDX 33 39 36 40 34 41 35 42 38 44 39 45 40 46 41 48 42 49 43 50
REMARK SMILES IDX 44 51 49 52 45 53 48 54 46 55 47 56 50 58 51 59 52 60
REMARK H PARENT 14 8 11 11 9 14 9 15 28 33 35 43 40 47 47 57 52 61
ROOT
ATOM      1  O   UNL     1      -8.641   4.571  -7.841  1.00  0.00    -0.272 OA
ATOM      2  C   UNL     1      -8.162   5.372  -7.025  1.00  0.00     0.245 C 
ENDROOT
BRANCH   2   3
ATOM      3  C   UNL     1      -8.023   4.931  -5.547  1.00  0.00     0.168 C 
ATOM      4  C   UNL     1      -7.451   6.060  -4.696  1.00  0.00     0.041 C 
BRANCH   3   5
ATOM      5  N   UNL     1      -9.229   4.368  -4.961  1.00  0.00    -0.342 N 
ATOM      6  C   UNL     1      -9.185   3.311  -4.077  1.00  0.00     0.251 C 
ATOM      7  O   UNL     1      -8.147   2.744  -3.752  1.00  0.00    -0.272 OA
ATOM      8  H   UNL     1     -10.153   4.733  -5.182  1.00  0.00     0.164 HD
BRANCH   6   9
ATOM      9  C   UNL     1     -10.561   2.978  -3.479  1.00  0.00     0.219 C 
BRANCH   9  10
ATOM     10  O   UNL     1     -11.004   1.657  -3.813  1.00  0.00    -0.382 OA
ATOM     11  H   UNL     1     -11.015   1.658  -4.795  1.00  0.00     0.211 HD
ENDBRANCH   9  10
BRANCH   9  12
ATOM     12  C   UNL     1     -10.632   3.212  -1.947  1.00  0.00     0.089 C 
BRANCH  12  13
ATOM     13  N   UNL     1      -9.782   2.200  -1.280  1.00  0.00    -0.325 NA
ATOM     14  H   UNL     1     -10.311   1.332  -1.177  1.00  0.00     0.119 HD
ATOM     15  H   UNL     1      -9.588   2.509  -0.324  1.00  0.00     0.119 HD
ENDBRANCH  12  13
BRANCH  12  16
ATOM     16  C   UNL     1     -10.252   4.631  -1.460  1.00  0.00     0.022 C 
BRANCH  16  17
ATOM     17  C   UNL     1      -9.085   4.795  -0.476  1.00  0.00     0.002 C 
BRANCH  17  18
ATOM     18  C   UNL     1      -9.495   5.039   0.974  1.00  0.00     0.000 C 
BRANCH  18  19
ATOM     19  C   UNL     1     -10.933   5.546   1.141  1.00  0.00    -0.000 C 
BRANCH  19  20
ATOM     20  C   UNL     1     -11.081   7.068   1.226  1.00  0.00    -0.000 C 
BRANCH  20  21
ATOM     21  C   UNL     1     -11.693   7.538   2.548  1.00  0.00    -0.003 C 
ATOM     22  C   UNL     1     -12.106   6.360   3.418  1.00  0.00     0.004 C 
ENDBRANCH  20  21
ENDBRANCH  19  20
ENDBRANCH  18  19
ENDBRANCH  17  18
ENDBRANCH  16  17
ENDBRANCH  12  16
ENDBRANCH   9  12
ENDBRANCH   6   9
ENDBRANCH   3   5
ENDBRANCH   2   3
BRANCH   2  23
ATOM     23  N   UNL     1      -7.651   6.589  -7.464  1.00  0.00    -0.332 N 
ATOM     24  C   UNL     1      -8.421   7.820  -7.565  1.00  0.00     0.147 C 
BRANCH  23  25
ATOM     25  C   UNL     1      -6.196   6.736  -7.746  1.00  0.00     0.174 C 
BRANCH  25  26
ATOM     26  C   UNL     1      -5.734   8.212  -7.776  1.00  0.00     0.038 C 
BRANCH  26  27
ATOM     27  C   UNL     1      -4.278   8.480  -8.216  1.00  0.00    -0.015 C 
ATOM     28  C   UNL     1      -4.194   9.115  -9.604  1.00  0.00     0.007 C 
ATOM     29  C   UNL     1      -3.478   9.296  -7.203  1.00  0.00     0.007 C 
ENDBRANCH  26  27
ENDBRANCH  25  26
BRANCH  25  30
ATOM     30  C   UNL     1      -5.818   5.940  -9.016  1.00  0.00     0.243 C 
ATOM     31  O   UNL     1      -6.447   6.056 -10.067  1.00  0.00    -0.273 OA
ATOM     32  N   UNL     1      -4.744   5.097  -8.891  1.00  0.00    -0.342 N 
ATOM     33  H   UNL     1      -4.189   5.162  -8.033  1.00  0.00     0.164 HD
BRANCH  32  34
ATOM     34  C   UNL     1      -4.261   4.246  -9.981  1.00  0.00     0.175 C 
BRANCH  34  35
ATOM     35  C   UNL     1      -2.806   4.577 -10.345  1.00  0.00     0.070 C 
BRANCH  35  36
ATOM     36  C   UNL     1      -2.688   5.790 -11.240  1.00  0.00    -0.045 A 
ATOM     37  C   UNL     1      -1.618   6.683 -11.075  1.00  0.00     0.007 A 
ATOM     38  C   UNL     1      -3.649   6.054 -12.224  1.00  0.00     0.007 A 
ATOM     39  C   UNL     1      -1.509   7.813 -11.886  1.00  0.00     0.046 A 
ATOM     40  C   UNL     1      -3.541   7.185 -13.036  1.00  0.00     0.046 A 
ATOM     41  C   UNL     1      -2.470   8.055 -12.860  1.00  0.00     0.115 A 
BRANCH  41  42
ATOM     42  O   UNL     1      -2.328   9.171 -13.630  1.00  0.00    -0.508 OA
ATOM     43  H   UNL     1      -2.942   9.848 -13.300  1.00  0.00     0.293 HD
ENDBRANCH  41  42
ENDBRANCH  35  36
ENDBRANCH  34  35
BRANCH  34  44
ATOM     44  C   UNL     1      -4.427   2.772  -9.548  1.00  0.00     0.243 C 
ATOM     45  O   UNL     1      -5.484   2.149  -9.596  1.00  0.00    -0.273 OA
ATOM     46  N   UNL     1      -3.294   2.240  -8.969  1.00  0.00    -0.341 N 
ATOM     47  H   UNL     1      -2.477   2.833  -8.845  1.00  0.00     0.164 HD
BRANCH  46  48
ATOM     48  C   UNL     1      -3.232   0.883  -8.419  1.00  0.00     0.196 C 
BRANCH  48  49
ATOM     49  C   UNL     1      -4.556   0.492  -7.742  1.00  0.00     0.072 C 
BRANCH  49  50
ATOM     50  C   UNL     1      -4.644   0.977  -6.313  1.00  0.00    -0.045 A 
ATOM     51  C   UNL     1      -4.427   0.081  -5.256  1.00  0.00     0.007 A 
ATOM     52  C   UNL     1      -4.963   2.309  -6.023  1.00  0.00     0.007 A 
ATOM     53  C   UNL     1      -4.519   0.514  -3.933  1.00  0.00     0.046 A 
ATOM     54  C   UNL     1      -5.057   2.743  -4.698  1.00  0.00     0.046 A 
ATOM     55  C   UNL     1      -4.832   1.841  -3.664  1.00  0.00     0.115 A 
BRANCH  55  56
ATOM     56  O   UNL     1      -4.915   2.224  -2.358  1.00  0.00    -0.508 OA
ATOM     57  H   UNL     1      -4.029   2.166  -1.966  1.00  0.00     0.293 HD
ENDBRANCH  55  56
ENDBRANCH  49  50
ENDBRANCH  48  49
BRANCH  48  58
ATOM     58  C   UNL     1      -2.923  -0.102  -9.555  1.00  0.00     0.326 C 
ATOM     59  O   UNL     1      -2.487   0.162 -10.664  1.00  0.00    -0.250 OA
BRANCH  58  60
ATOM     60  O   UNL     1      -3.168  -1.396  -9.231  1.00  0.00    -0.480 OA
ATOM     61  H   UNL     1      -3.988  -1.603  -9.730  1.00  0.00     0.296 HD
ENDBRANCH  58  60
ENDBRANCH  48  58
ENDBRANCH  46  48
ENDBRANCH  34  44
ENDBRANCH  32  34
ENDBRANCH  25  30
ENDBRANCH  23  25
ENDBRANCH   2  23
TORSDOF 28
ENDMDL
MODEL 14
REMARK VINA RESULT:    -5.537      2.569      7.383
REMARK INTER + INTRA:         -19.737
REMARK INTER:                 -13.435
REMARK INTRA:                  -6.302
REMARK UNBOUND:                -5.946
REMARK SMILES CCCCCCC[C@H](N)[C@H](O)C(=O)N[C@H](C)C(=O)N(C)[C@H](CC(C)C)C(=O)N[C@@H](Cc1ccc(O)cc1)C(=O)N[C@@H](Cc1ccc(O)cc1)C(=O)O
REMARK SMILES IDX 18 1 17 2 15 3 16 4 14 5 12 6 13 7 10 9 11 10 8 12 9 13 7 16
REMARK SMILES IDX 6 17 5 18 4 19 3 20 2 21 1 22 19 23 20 24 21 25 22 26 23 27
REMARK SMILES IDX 24 28 25 29 26 30 27 31 28 32 29 34 30 35 31 36 32 37 37 38
REMARK SMILES IDX 33 39 36 40 34 41 35 42 38 44 39 45 40 46 41 48 42 49 43 50
REMARK SMILES IDX 44 51 49 52 45 53 48 54 46 55 47 56 50 58 51 59 52 60
REMARK H PARENT 14 8 11 11 9 14 9 15 28 33 35 43 40 47 47 57 52 61
ROOT
ATOM      1  O   UNL     1      -6.032   8.783 -11.170  1.00  0.00    -0.272 OA
ATOM      2  C   UNL     1      -4.927   8.313 -10.865  1.00  0.00     0.245 C 
ENDROOT
BRANCH   2   3
ATOM      3  C   UNL     1      -4.099   9.021  -9.764  1.00  0.00     0.168 C 
ATOM      4  C   UNL     1      -3.340  10.212 -10.338  1.00  0.00     0.041 C 
BRANCH   3   5
ATOM      5  N   UNL     1      -4.849   9.381  -8.571  1.00  0.00    -0.342 N 
ATOM      6  C   UNL     1      -5.258   8.434  -7.655  1.00  0.00     0.251 C 
ATOM      7  O   UNL     1      -5.061   7.232  -7.791  1.00  0.00    -0.272 OA
ATOM      8  H   UNL     1      -5.103  10.345  -8.367  1.00  0.00     0.164 HD
BRANCH   6   9
ATOM      9  C   UNL     1      -5.907   9.056  -6.408  1.00  0.00     0.219 C 
BRANCH   9  10
ATOM     10  O   UNL     1      -7.339   9.034  -6.461  1.00  0.00    -0.382 OA
ATOM     11  H   UNL     1      -7.532   8.841  -7.405  1.00  0.00     0.211 HD
ENDBRANCH   9  10
BRANCH   9  12
ATOM     12  C   UNL     1      -5.396   8.435  -5.081  1.00  0.00     0.089 C 
BRANCH  12  13
ATOM     13  N   UNL     1      -4.336   9.311  -4.533  1.00  0.00    -0.325 NA
ATOM     14  H   UNL     1      -4.613   9.634  -3.604  1.00  0.00     0.119 HD
ATOM     15  H   UNL     1      -4.279  10.158  -5.104  1.00  0.00     0.119 HD
ENDBRANCH  12  13
BRANCH  12  16
ATOM     16  C   UNL     1      -6.471   8.162  -4.002  1.00  0.00     0.022 C 
BRANCH  16  17
ATOM     17  C   UNL     1      -6.116   8.377  -2.524  1.00  0.00     0.002 C 
BRANCH  17  18
ATOM     18  C   UNL     1      -6.726   7.361  -1.561  1.00  0.00     0.000 C 
BRANCH  18  19
ATOM     19  C   UNL     1      -7.222   6.077  -2.239  1.00  0.00    -0.000 C 
BRANCH  19  20
ATOM     20  C   UNL     1      -6.427   4.813  -1.898  1.00  0.00    -0.000 C 
BRANCH  20  21
ATOM     21  C   UNL     1      -5.457   4.397  -3.007  1.00  0.00    -0.003 C 
ATOM     22  C   UNL     1      -5.219   2.895  -3.001  1.00  0.00     0.004 C 
ENDBRANCH  20  21
ENDBRANCH  19  20
ENDBRANCH  18  19
ENDBRANCH  17  18
ENDBRANCH  16  17
ENDBRANCH  12  16
ENDBRANCH   9  12
ENDBRANCH   6   9
ENDBRANCH   3   5
ENDBRANCH   2   3
BRANCH   2  23
ATOM     23  N   UNL     1      -4.507   7.107 -11.417  1.00  0.00    -0.332 N 
ATOM     24  C   UNL     1      -4.976   6.573 -12.687  1.00  0.00     0.147 C 
BRANCH  23  25
ATOM     25  C   UNL     1      -3.415   6.326 -10.773  1.00  0.00     0.174 C 
BRANCH  25  26
ATOM     26  C   UNL     1      -2.125   6.279 -11.625  1.00  0.00     0.038 C 
BRANCH  26  27
ATOM     27  C   UNL     1      -0.937   7.142 -11.145  1.00  0.00    -0.015 C 
ATOM     28  C   UNL     1      -0.816   7.174  -9.622  1.00  0.00     0.007 C 
ATOM     29  C   UNL     1       0.394   6.752 -11.782  1.00  0.00     0.007 C 
ENDBRANCH  26  27
ENDBRANCH  25  26
BRANCH  25  30
ATOM     30  C   UNL     1      -3.935   4.931 -10.355  1.00  0.00     0.243 C 
ATOM     31  O   UNL     1      -3.458   3.895 -10.815  1.00  0.00    -0.273 OA
ATOM     32  N   UNL     1      -4.961   4.929  -9.445  1.00  0.00    -0.342 N 
ATOM     33  H   UNL     1      -5.206   5.819  -9.005  1.00  0.00     0.164 HD
BRANCH  32  34
ATOM     34  C   UNL     1      -5.596   3.702  -8.956  1.00  0.00     0.175 C 
BRANCH  34  35
ATOM     35  C   UNL     1      -4.932   3.207  -7.662  1.00  0.00     0.070 C 
BRANCH  35  36
ATOM     36  C   UNL     1      -4.643   1.723  -7.684  1.00  0.00    -0.045 A 
ATOM     37  C   UNL     1      -4.556   1.007  -6.480  1.00  0.00     0.007 A 
ATOM     38  C   UNL     1      -4.436   1.049  -8.894  1.00  0.00     0.007 A 
ATOM     39  C   UNL     1      -4.276  -0.360  -6.489  1.00  0.00     0.046 A 
ATOM     40  C   UNL     1      -4.154  -0.320  -8.904  1.00  0.00     0.046 A 
ATOM     41  C   UNL     1      -4.078  -1.012  -7.700  1.00  0.00     0.115 A 
BRANCH  41  42
ATOM     42  O   UNL     1      -3.804  -2.347  -7.666  1.00  0.00    -0.508 OA
ATOM     43  H   UNL     1      -3.421  -2.602  -8.522  1.00  0.00     0.293 HD
ENDBRANCH  41  42
ENDBRANCH  35  36
ENDBRANCH  34  35
BRANCH  34  44
ATOM     44  C   UNL     1      -7.102   3.988  -8.759  1.00  0.00     0.243 C 
ATOM     45  O   UNL     1      -8.001   3.427  -9.378  1.00  0.00    -0.273 OA
ATOM     46  N   UNL     1      -7.353   5.040  -7.904  1.00  0.00    -0.341 N 
ATOM     47  H   UNL     1      -6.570   5.550  -7.504  1.00  0.00     0.164 HD
BRANCH  46  48
ATOM     48  C   UNL     1      -8.700   5.539  -7.614  1.00  0.00     0.196 C 
BRANCH  48  49
ATOM     49  C   UNL     1      -8.786   6.128  -6.196  1.00  0.00     0.072 C 
BRANCH  49  50
ATOM     50  C   UNL     1      -9.161   5.094  -5.159  1.00  0.00    -0.045 A 
ATOM     51  C   UNL     1      -8.414   3.912  -5.048  1.00  0.00     0.007 A 
ATOM     52  C   UNL     1     -10.261   5.286  -4.314  1.00  0.00     0.007 A 
ATOM     53  C   UNL     1      -8.758   2.945  -4.104  1.00  0.00     0.046 A 
ATOM     54  C   UNL     1     -10.606   4.317  -3.369  1.00  0.00     0.046 A 
ATOM     55  C   UNL     1      -9.850   3.154  -3.271  1.00  0.00     0.115 A 
BRANCH  55  56
ATOM     56  O   UNL     1     -10.155   2.184  -2.363  1.00  0.00    -0.508 OA
ATOM     57  H   UNL     1     -10.205   1.334  -2.829  1.00  0.00     0.293 HD
ENDBRANCH  55  56
ENDBRANCH  49  50
ENDBRANCH  48  49
BRANCH  48  58
ATOM     58  C   UNL     1      -9.064   6.619  -8.643  1.00  0.00     0.326 C 
ATOM     59  O   UNL     1      -8.487   7.676  -8.840  1.00  0.00    -0.250 OA
BRANCH  58  60
ATOM     60  O   UNL     1     -10.146   6.303  -9.398  1.00  0.00    -0.480 OA
ATOM     61  H   UNL     1     -10.123   5.322  -9.427  1.00  0.00     0.296 HD
ENDBRANCH  58  60
ENDBRANCH  48  58
ENDBRANCH  46  48
ENDBRANCH  34  44
ENDBRANCH  32  34
ENDBRANCH  25  30
ENDBRANCH  23  25
ENDBRANCH   2  23
TORSDOF 28
ENDMDL
MODEL 15
REMARK VINA RESULT:    -5.513      3.575      6.376
REMARK INTER + INTRA:         -19.677
REMARK INTER:                 -16.722
REMARK INTRA:                  -2.955
REMARK UNBOUND:                -5.946
REMARK SMILES CCCCCCC[C@H](N)[C@H](O)C(=O)N[C@H](C)C(=O)N(C)[C@H](CC(C)C)C(=O)N[C@@H](Cc1ccc(O)cc1)C(=O)N[C@@H](Cc1ccc(O)cc1)C(=O)O
REMARK SMILES IDX 18 1 17 2 15 3 16 4 14 5 12 6 13 7 10 9 11 10 8 12 9 13 7 16
REMARK SMILES IDX 6 17 5 18 4 19 3 20 2 21 1 22 19 23 20 24 21 25 22 26 23 27
REMARK SMILES IDX 24 28 25 29 26 30 27 31 28 32 29 34 30 35 31 36 32 37 37 38
REMARK SMILES IDX 33 39 36 40 34 41 35 42 38 44 39 45 40 46 41 48 42 49 43 50
REMARK SMILES IDX 44 51 49 52 45 53 48 54 46 55 47 56 50 58 51 59 52 60
REMARK H PARENT 14 8 11 11 9 14 9 15 28 33 35 43 40 47 47 57 52 61
ROOT
ATOM      1  O   UNL     1      -5.407   4.639  -4.271  1.00  0.00    -0.272 OA
ATOM      2  C   UNL     1      -5.945   3.698  -4.874  1.00  0.00     0.245 C 
ENDROOT
BRANCH   2   3
ATOM      3  C   UNL     1      -5.770   3.606  -6.410  1.00  0.00     0.168 C 
ATOM      4  C   UNL     1      -5.722   4.997  -7.034  1.00  0.00     0.041 C 
BRANCH   3   5
ATOM      5  N   UNL     1      -4.660   2.776  -6.851  1.00  0.00    -0.342 N 
ATOM      6  C   UNL     1      -4.673   2.130  -8.069  1.00  0.00     0.251 C 
ATOM      7  O   UNL     1      -5.622   2.169  -8.845  1.00  0.00    -0.272 OA
ATOM      8  H   UNL     1      -3.832   2.640  -6.276  1.00  0.00     0.164 HD
BRANCH   6   9
ATOM      9  C   UNL     1      -3.341   1.430  -8.384  1.00  0.00     0.219 C 
BRANCH   9  10
ATOM     10  O   UNL     1      -2.283   1.835  -7.508  1.00  0.00    -0.382 OA
ATOM     11  H   UNL     1      -1.979   0.991  -7.107  1.00  0.00     0.211 HD
ENDBRANCH   9  10
BRANCH   9  12
ATOM     12  C   UNL     1      -3.461  -0.116  -8.426  1.00  0.00     0.089 C 
BRANCH  12  13
ATOM     13  N   UNL     1      -4.683  -0.510  -7.689  1.00  0.00    -0.325 NA
ATOM     14  H   UNL     1      -4.451  -1.252  -7.025  1.00  0.00     0.119 HD
ATOM     15  H   UNL     1      -5.343  -0.936  -8.345  1.00  0.00     0.119 HD
ENDBRANCH  12  13
BRANCH  12  16
ATOM     16  C   UNL     1      -3.459  -0.759  -9.834  1.00  0.00     0.022 C 
BRANCH  16  17
ATOM     17  C   UNL     1      -2.489  -0.225 -10.897  1.00  0.00     0.002 C 
BRANCH  17  18
ATOM     18  C   UNL     1      -2.213  -1.180 -12.055  1.00  0.00     0.000 C 
BRANCH  18  19
ATOM     19  C   UNL     1      -1.632  -0.500 -13.302  1.00  0.00    -0.000 C 
BRANCH  19  20
ATOM     20  C   UNL     1      -0.194  -0.898 -13.649  1.00  0.00    -0.000 C 
BRANCH  20  21
ATOM     21  C   UNL     1       0.558  -1.519 -12.469  1.00  0.00    -0.003 C 
ATOM     22  C   UNL     1       1.267  -0.456 -11.644  1.00  0.00     0.004 C 
ENDBRANCH  20  21
ENDBRANCH  19  20
ENDBRANCH  18  19
ENDBRANCH  17  18
ENDBRANCH  16  17
ENDBRANCH  12  16
ENDBRANCH   9  12
ENDBRANCH   6   9
ENDBRANCH   3   5
ENDBRANCH   2   3
BRANCH   2  23
ATOM     23  N   UNL     1      -6.582   2.689  -4.160  1.00  0.00    -0.332 N 
ATOM     24  C   UNL     1      -5.947   1.450  -3.737  1.00  0.00     0.147 C 
BRANCH  23  25
ATOM     25  C   UNL     1      -7.971   2.883  -3.661  1.00  0.00     0.174 C 
BRANCH  25  26
ATOM     26  C   UNL     1      -8.800   3.843  -4.547  1.00  0.00     0.038 C 
BRANCH  26  27
ATOM     27  C   UNL     1     -10.334   3.662  -4.529  1.00  0.00    -0.015 C 
ATOM     28  C   UNL     1     -10.759   2.339  -3.892  1.00  0.00     0.007 C 
ATOM     29  C   UNL     1     -11.076   4.831  -3.886  1.00  0.00     0.007 C 
ENDBRANCH  26  27
ENDBRANCH  25  26
BRANCH  25  30
ATOM     30  C   UNL     1      -7.949   3.279  -2.167  1.00  0.00     0.243 C 
ATOM     31  O   UNL     1      -7.713   2.459  -1.281  1.00  0.00    -0.273 OA
ATOM     32  N   UNL     1      -8.215   4.597  -1.899  1.00  0.00    -0.342 N 
ATOM     33  H   UNL     1      -8.260   5.242  -2.692  1.00  0.00     0.164 HD
BRANCH  32  34
ATOM     34  C   UNL     1      -8.263   5.145  -0.540  1.00  0.00     0.175 C 
BRANCH  34  35
ATOM     35  C   UNL     1      -7.654   6.554  -0.484  1.00  0.00     0.070 C 
BRANCH  35  36
ATOM     36  C   UNL     1      -7.481   7.171  -1.853  1.00  0.00    -0.045 A 
ATOM     37  C   UNL     1      -6.193   7.427  -2.350  1.00  0.00     0.007 A 
ATOM     38  C   UNL     1      -8.593   7.517  -2.632  1.00  0.00     0.007 A 
ATOM     39  C   UNL     1      -6.023   8.009  -3.606  1.00  0.00     0.046 A 
ATOM     40  C   UNL     1      -8.423   8.100  -3.890  1.00  0.00     0.046 A 
ATOM     41  C   UNL     1      -7.139   8.340  -4.366  1.00  0.00     0.115 A 
BRANCH  41  42
ATOM     42  O   UNL     1      -6.929   8.910  -5.587  1.00  0.00    -0.508 OA
ATOM     43  H   UNL     1      -6.763   9.858  -5.457  1.00  0.00     0.293 HD
ENDBRANCH  41  42
ENDBRANCH  35  36
ENDBRANCH  34  35
BRANCH  34  44
ATOM     44  C   UNL     1      -9.736   5.133  -0.071  1.00  0.00     0.243 C 
ATOM     45  O   UNL     1     -10.604   4.398  -0.532  1.00  0.00    -0.273 OA
ATOM     46  N   UNL     1     -10.030   6.127   0.838  1.00  0.00    -0.341 N 
ATOM     47  H   UNL     1      -9.302   6.787   1.101  1.00  0.00     0.164 HD
BRANCH  46  48
ATOM     48  C   UNL     1     -11.374   6.357   1.373  1.00  0.00     0.196 C 
BRANCH  48  49
ATOM     49  C   UNL     1     -11.333   6.644   2.884  1.00  0.00     0.072 C 
BRANCH  49  50
ATOM     50  C   UNL     1     -12.654   6.365   3.565  1.00  0.00    -0.045 A 
ATOM     51  C   UNL     1     -12.838   6.728   4.907  1.00  0.00     0.007 A 
ATOM     52  C   UNL     1     -13.696   5.726   2.881  1.00  0.00     0.007 A 
ATOM     53  C   UNL     1     -14.048   6.464   5.550  1.00  0.00     0.046 A 
ATOM     54  C   UNL     1     -14.907   5.461   3.525  1.00  0.00     0.046 A 
ATOM     55  C   UNL     1     -15.073   5.833   4.855  1.00  0.00     0.115 A 
BRANCH  55  56
ATOM     56  O   UNL     1     -16.238   5.591   5.520  1.00  0.00    -0.508 OA
ATOM     57  H   UNL     1     -16.030   5.437   6.455  1.00  0.00     0.293 HD
ENDBRANCH  55  56
ENDBRANCH  49  50
ENDBRANCH  48  49
BRANCH  48  58
ATOM     58  C   UNL     1     -12.007   7.547   0.640  1.00  0.00     0.326 C 
ATOM     59  O   UNL     1     -12.986   7.531  -0.087  1.00  0.00    -0.250 OA
BRANCH  58  60
ATOM     60  O   UNL     1     -11.374   8.725   0.873  1.00  0.00    -0.480 OA
ATOM     61  H   UNL     1     -10.683   8.752   0.177  1.00  0.00     0.296 HD
ENDBRANCH  58  60
ENDBRANCH  48  58
ENDBRANCH  46  48
ENDBRANCH  34  44
ENDBRANCH  32  34
ENDBRANCH  25  30
ENDBRANCH  23  25
ENDBRANCH   2  23
TORSDOF 28
ENDMDL
MODEL 16
REMARK VINA RESULT:    -5.463      2.501      6.369
REMARK INTER + INTRA:         -19.552
REMARK INTER:                 -13.984
REMARK INTRA:                  -5.568
REMARK UNBOUND:                -5.946
REMARK SMILES CCCCCCC[C@H](N)[C@H](O)C(=O)N[C@H](C)C(=O)N(C)[C@H](CC(C)C)C(=O)N[C@@H](Cc1ccc(O)cc1)C(=O)N[C@@H](Cc1ccc(O)cc1)C(=O)O
REMARK SMILES IDX 18 1 17 2 15 3 16 4 14 5 12 6 13 7 10 9 11 10 8 12 9 13 7 16
REMARK SMILES IDX 6 17 5 18 4 19 3 20 2 21 1 22 19 23 20 24 21 25 22 26 23 27
REMARK SMILES IDX 24 28 25 29 26 30 27 31 28 32 29 34 30 35 31 36 32 37 37 38
REMARK SMILES IDX 33 39 36 40 34 41 35 42 38 44 39 45 40 46 41 48 42 49 43 50
REMARK SMILES IDX 44 51 49 52 45 53 48 54 46 55 47 56 50 58 51 59 52 60
REMARK H PARENT 14 8 11 11 9 14 9 15 28 33 35 43 40 47 47 57 52 61
ROOT
ATOM      1  O   UNL     1      -8.380   5.812  -5.661  1.00  0.00    -0.272 OA
ATOM      2  C   UNL     1      -8.091   6.204  -6.802  1.00  0.00     0.245 C 
ENDROOT
BRANCH   2   3
ATOM      3  C   UNL     1      -9.172   6.126  -7.909  1.00  0.00     0.168 C 
ATOM      4  C   UNL     1     -10.120   7.318  -7.824  1.00  0.00     0.041 C 
BRANCH   3   5
ATOM      5  N   UNL     1      -8.655   5.939  -9.255  1.00  0.00    -0.342 N 
ATOM      6  C   UNL     1      -8.718   4.720  -9.897  1.00  0.00     0.251 C 
ATOM      7  O   UNL     1      -9.169   3.705  -9.377  1.00  0.00    -0.272 OA
ATOM      8  H   UNL     1      -8.225   6.701  -9.776  1.00  0.00     0.164 HD
BRANCH   6   9
ATOM      9  C   UNL     1      -8.245   4.792 -11.357  1.00  0.00     0.219 C 
BRANCH   9  10
ATOM     10  O   UNL     1      -8.843   5.874 -12.080  1.00  0.00    -0.382 OA
ATOM     11  H   UNL     1      -8.144   6.143 -12.716  1.00  0.00     0.211 HD
ENDBRANCH   9  10
BRANCH   9  12
ATOM     12  C   UNL     1      -6.700   4.825 -11.496  1.00  0.00     0.089 C 
BRANCH  12  13
ATOM     13  N   UNL     1      -6.162   3.525 -11.035  1.00  0.00    -0.325 NA
ATOM     14  H   UNL     1      -5.297   3.685 -10.515  1.00  0.00     0.119 HD
ATOM     15  H   UNL     1      -5.885   2.973 -11.850  1.00  0.00     0.119 HD
ENDBRANCH  12  13
BRANCH  12  16
ATOM     16  C   UNL     1      -6.152   5.158 -12.904  1.00  0.00     0.022 C 
BRANCH  16  17
ATOM     17  C   UNL     1      -4.662   5.483 -13.068  1.00  0.00     0.002 C 
BRANCH  17  18
ATOM     18  C   UNL     1      -4.275   6.921 -12.730  1.00  0.00     0.000 C 
BRANCH  18  19
ATOM     19  C   UNL     1      -2.774   7.212 -12.862  1.00  0.00    -0.000 C 
BRANCH  19  20
ATOM     20  C   UNL     1      -2.360   8.651 -12.542  1.00  0.00    -0.000 C 
BRANCH  20  21
ATOM     21  C   UNL     1      -0.910   8.766 -12.065  1.00  0.00    -0.003 C 
ATOM     22  C   UNL     1      -0.310   7.397 -11.780  1.00  0.00     0.004 C 
ENDBRANCH  20  21
ENDBRANCH  19  20
ENDBRANCH  18  19
ENDBRANCH  17  18
ENDBRANCH  16  17
ENDBRANCH  12  16
ENDBRANCH   9  12
ENDBRANCH   6   9
ENDBRANCH   3   5
ENDBRANCH   2   3
BRANCH   2  23
ATOM     23  N   UNL     1      -6.862   6.811  -7.037  1.00  0.00    -0.332 N 
ATOM     24  C   UNL     1      -6.623   8.245  -6.970  1.00  0.00     0.147 C 
BRANCH  23  25
ATOM     25  C   UNL     1      -5.645   5.983  -7.257  1.00  0.00     0.174 C 
BRANCH  25  26
ATOM     26  C   UNL     1      -5.052   6.148  -8.676  1.00  0.00     0.038 C 
BRANCH  26  27
ATOM     27  C   UNL     1      -3.521   5.996  -8.818  1.00  0.00    -0.015 C 
ATOM     28  C   UNL     1      -3.131   4.911  -9.821  1.00  0.00     0.007 C 
ATOM     29  C   UNL     1      -2.809   7.307  -9.141  1.00  0.00     0.007 C 
ENDBRANCH  26  27
ENDBRANCH  25  26
BRANCH  25  30
ATOM     30  C   UNL     1      -5.924   4.513  -6.867  1.00  0.00     0.243 C 
ATOM     31  O   UNL     1      -6.297   3.681  -7.693  1.00  0.00    -0.273 OA
ATOM     32  N   UNL     1      -5.733   4.204  -5.545  1.00  0.00    -0.342 N 
ATOM     33  H   UNL     1      -5.288   4.909  -4.953  1.00  0.00     0.164 HD
BRANCH  32  34
ATOM     34  C   UNL     1      -5.975   2.869  -4.991  1.00  0.00     0.175 C 
BRANCH  34  35
ATOM     35  C   UNL     1      -4.660   2.098  -4.796  1.00  0.00     0.070 C 
BRANCH  35  36
ATOM     36  C   UNL     1      -4.068   1.612  -6.100  1.00  0.00    -0.045 A 
ATOM     37  C   UNL     1      -4.626   0.503  -6.753  1.00  0.00     0.007 A 
ATOM     38  C   UNL     1      -2.949   2.242  -6.660  1.00  0.00     0.007 A 
ATOM     39  C   UNL     1      -4.078   0.038  -7.949  1.00  0.00     0.046 A 
ATOM     40  C   UNL     1      -2.399   1.777  -7.857  1.00  0.00     0.046 A 
ATOM     41  C   UNL     1      -2.971   0.679  -8.492  1.00  0.00     0.115 A 
BRANCH  41  42
ATOM     42  O   UNL     1      -2.464   0.192  -9.660  1.00  0.00    -0.508 OA
ATOM     43  H   UNL     1      -1.890   0.872 -10.051  1.00  0.00     0.293 HD
ENDBRANCH  41  42
ENDBRANCH  35  36
ENDBRANCH  34  35
BRANCH  34  44
ATOM     44  C   UNL     1      -6.750   3.034  -3.664  1.00  0.00     0.243 C 
ATOM     45  O   UNL     1      -6.359   2.620  -2.576  1.00  0.00    -0.273 OA
ATOM     46  N   UNL     1      -8.004   3.583  -3.826  1.00  0.00    -0.341 N 
ATOM     47  H   UNL     1      -8.330   3.803  -4.763  1.00  0.00     0.164 HD
BRANCH  46  48
ATOM     48  C   UNL     1      -8.948   3.775  -2.722  1.00  0.00     0.196 C 
BRANCH  48  49
ATOM     49  C   UNL     1      -9.242   5.266  -2.489  1.00  0.00     0.072 C 
BRANCH  49  50
ATOM     50  C   UNL     1      -8.041   6.022  -1.967  1.00  0.00    -0.045 A 
ATOM     51  C   UNL     1      -7.657   7.228  -2.571  1.00  0.00     0.007 A 
ATOM     52  C   UNL     1      -7.287   5.524  -0.896  1.00  0.00     0.007 A 
ATOM     53  C   UNL     1      -6.543   7.926  -2.106  1.00  0.00     0.046 A 
ATOM     54  C   UNL     1      -6.170   6.223  -0.432  1.00  0.00     0.046 A 
ATOM     55  C   UNL     1      -5.808   7.420  -1.040  1.00  0.00     0.115 A 
BRANCH  55  56
ATOM     56  O   UNL     1      -4.725   8.132  -0.618  1.00  0.00    -0.508 OA
ATOM     57  H   UNL     1      -3.932   7.761  -1.036  1.00  0.00     0.293 HD
ENDBRANCH  55  56
ENDBRANCH  49  50
ENDBRANCH  48  49
BRANCH  48  58
ATOM     58  C   UNL     1     -10.254   3.038  -3.049  1.00  0.00     0.326 C 
ATOM     59  O   UNL     1     -10.460   2.277  -3.981  1.00  0.00    -0.250 OA
BRANCH  58  60
ATOM     60  O   UNL     1     -11.252   3.285  -2.163  1.00  0.00    -0.480 OA
ATOM     61  H   UNL     1     -11.832   3.913  -2.646  1.00  0.00     0.296 HD
ENDBRANCH  58  60
ENDBRANCH  48  58
ENDBRANCH  46  48
ENDBRANCH  34  44
ENDBRANCH  32  34
ENDBRANCH  25  30
ENDBRANCH  23  25
ENDBRANCH   2  23
TORSDOF 28
ENDMDL
MODEL 17
REMARK VINA RESULT:    -5.432      1.852      3.993
REMARK INTER + INTRA:         -19.477
REMARK INTER:                 -15.447
REMARK INTRA:                  -4.030
REMARK UNBOUND:                -5.946
REMARK SMILES CCCCCCC[C@H](N)[C@H](O)C(=O)N[C@H](C)C(=O)N(C)[C@H](CC(C)C)C(=O)N[C@@H](Cc1ccc(O)cc1)C(=O)N[C@@H](Cc1ccc(O)cc1)C(=O)O
REMARK SMILES IDX 18 1 17 2 15 3 16 4 14 5 12 6 13 7 10 9 11 10 8 12 9 13 7 16
REMARK SMILES IDX 6 17 5 18 4 19 3 20 2 21 1 22 19 23 20 24 21 25 22 26 23 27
REMARK SMILES IDX 24 28 25 29 26 30 27 31 28 32 29 34 30 35 31 36 32 37 37 38
REMARK SMILES IDX 33 39 36 40 34 41 35 42 38 44 39 45 40 46 41 48 42 49 43 50
REMARK SMILES IDX 44 51 49 52 45 53 48 54 46 55 47 56 50 58 51 59 52 60
REMARK H PARENT 14 8 11 11 9 14 9 15 28 33 35 43 40 47 47 57 52 61
ROOT
ATOM      1  O   UNL     1      -3.277   8.364  -8.269  1.00  0.00    -0.272 OA
ATOM      2  C   UNL     1      -3.502   7.758  -9.327  1.00  0.00     0.245 C 
ENDROOT
BRANCH   2   3
ATOM      3  C   UNL     1      -2.654   6.504  -9.657  1.00  0.00     0.168 C 
ATOM      4  C   UNL     1      -1.195   6.720  -9.271  1.00  0.00     0.041 C 
BRANCH   3   5
ATOM      5  N   UNL     1      -3.177   5.256  -9.123  1.00  0.00    -0.342 N 
ATOM      6  C   UNL     1      -3.667   4.262  -9.943  1.00  0.00     0.251 C 
ATOM      7  O   UNL     1      -3.740   4.367 -11.163  1.00  0.00    -0.272 OA
ATOM      8  H   UNL     1      -3.200   5.068  -8.123  1.00  0.00     0.164 HD
BRANCH   6   9
ATOM      9  C   UNL     1      -4.031   2.982  -9.174  1.00  0.00     0.219 C 
BRANCH   9  10
ATOM     10  O   UNL     1      -4.931   2.137  -9.901  1.00  0.00    -0.382 OA
ATOM     11  H   UNL     1      -5.313   2.736 -10.580  1.00  0.00     0.211 HD
ENDBRANCH   9  10
BRANCH   9  12
ATOM     12  C   UNL     1      -2.789   2.183  -8.699  1.00  0.00     0.089 C 
BRANCH  12  13
ATOM     13  N   UNL     1      -2.649   2.364  -7.236  1.00  0.00    -0.325 NA
ATOM     14  H   UNL     1      -2.311   3.310  -7.045  1.00  0.00     0.119 HD
ATOM     15  H   UNL     1      -1.911   1.744  -6.895  1.00  0.00     0.119 HD
ENDBRANCH  12  13
BRANCH  12  16
ATOM     16  C   UNL     1      -2.776   0.677  -9.052  1.00  0.00     0.022 C 
BRANCH  16  17
ATOM     17  C   UNL     1      -2.152   0.226 -10.380  1.00  0.00     0.002 C 
BRANCH  17  18
ATOM     18  C   UNL     1      -2.769  -1.032 -10.988  1.00  0.00     0.000 C 
BRANCH  18  19
ATOM     19  C   UNL     1      -2.341  -1.300 -12.437  1.00  0.00    -0.000 C 
BRANCH  19  20
ATOM     20  C   UNL     1      -1.296  -0.330 -12.996  1.00  0.00    -0.000 C 
BRANCH  20  21
ATOM     21  C   UNL     1      -0.022  -1.031 -13.473  1.00  0.00    -0.003 C 
ATOM     22  C   UNL     1       0.873  -1.410 -12.303  1.00  0.00     0.004 C 
ENDBRANCH  20  21
ENDBRANCH  19  20
ENDBRANCH  18  19
ENDBRANCH  17  18
ENDBRANCH  16  17
ENDBRANCH  12  16
ENDBRANCH   9  12
ENDBRANCH   6   9
ENDBRANCH   3   5
ENDBRANCH   2   3
BRANCH   2  23
ATOM     23  N   UNL     1      -4.574   8.133 -10.130  1.00  0.00    -0.332 N 
ATOM     24  C   UNL     1      -4.572   9.277 -11.030  1.00  0.00     0.147 C 
BRANCH  23  25
ATOM     25  C   UNL     1      -5.788   7.276 -10.209  1.00  0.00     0.174 C 
BRANCH  25  26
ATOM     26  C   UNL     1      -6.816   7.782 -11.248  1.00  0.00     0.038 C 
BRANCH  26  27
ATOM     27  C   UNL     1      -7.809   6.743 -11.816  1.00  0.00    -0.015 C 
ATOM     28  C   UNL     1      -8.636   7.297 -12.975  1.00  0.00     0.007 C 
ATOM     29  C   UNL     1      -7.148   5.425 -12.210  1.00  0.00     0.007 C 
ENDBRANCH  26  27
ENDBRANCH  25  26
BRANCH  25  30
ATOM     30  C   UNL     1      -6.383   7.064  -8.798  1.00  0.00     0.243 C 
ATOM     31  O   UNL     1      -6.730   8.009  -8.091  1.00  0.00    -0.273 OA
ATOM     32  N   UNL     1      -6.492   5.760  -8.390  1.00  0.00    -0.342 N 
ATOM     33  H   UNL     1      -6.316   5.029  -9.085  1.00  0.00     0.164 HD
BRANCH  32  34
ATOM     34  C   UNL     1      -7.007   5.372  -7.074  1.00  0.00     0.175 C 
BRANCH  34  35
ATOM     35  C   UNL     1      -6.117   5.911  -5.944  1.00  0.00     0.070 C 
BRANCH  35  36
ATOM     36  C   UNL     1      -5.842   4.880  -4.873  1.00  0.00    -0.045 A 
ATOM     37  C   UNL     1      -5.792   5.264  -3.524  1.00  0.00     0.007 A 
ATOM     38  C   UNL     1      -5.613   3.539  -5.208  1.00  0.00     0.007 A 
ATOM     39  C   UNL     1      -5.525   4.322  -2.530  1.00  0.00     0.046 A 
ATOM     40  C   UNL     1      -5.345   2.595  -4.213  1.00  0.00     0.046 A 
ATOM     41  C   UNL     1      -5.305   2.996  -2.882  1.00  0.00     0.115 A 
BRANCH  41  42
ATOM     42  O   UNL     1      -5.045   2.108  -1.881  1.00  0.00    -0.508 OA
ATOM     43  H   UNL     1      -4.281   2.433  -1.376  1.00  0.00     0.293 HD
ENDBRANCH  41  42
ENDBRANCH  35  36
ENDBRANCH  34  35
BRANCH  34  44
ATOM     44  C   UNL     1      -8.460   5.885  -6.959  1.00  0.00     0.243 C 
ATOM     45  O   UNL     1      -9.279   5.862  -7.874  1.00  0.00    -0.273 OA
ATOM     46  N   UNL     1      -8.730   6.503  -5.756  1.00  0.00    -0.341 N 
ATOM     47  H   UNL     1      -7.984   6.601  -5.072  1.00  0.00     0.164 HD
BRANCH  46  48
ATOM     48  C   UNL     1     -10.018   7.127  -5.442  1.00  0.00     0.196 C 
BRANCH  48  49
ATOM     49  C   UNL     1     -10.979   6.126  -4.780  1.00  0.00     0.072 C 
BRANCH  49  50
ATOM     50  C   UNL     1     -10.258   5.095  -3.941  1.00  0.00    -0.045 A 
ATOM     51  C   UNL     1     -10.042   5.332  -2.576  1.00  0.00     0.007 A 
ATOM     52  C   UNL     1      -9.781   3.907  -4.511  1.00  0.00     0.007 A 
ATOM     53  C   UNL     1      -9.366   4.395  -1.794  1.00  0.00     0.046 A 
ATOM     54  C   UNL     1      -9.104   2.969  -3.728  1.00  0.00     0.046 A 
ATOM     55  C   UNL     1      -8.903   3.221  -2.376  1.00  0.00     0.115 A 
BRANCH  55  56
ATOM     56  O   UNL     1      -8.246   2.331  -1.578  1.00  0.00    -0.508 OA
ATOM     57  H   UNL     1      -8.893   1.697  -1.229  1.00  0.00     0.293 HD
ENDBRANCH  55  56
ENDBRANCH  49  50
ENDBRANCH  48  49
BRANCH  48  58
ATOM     58  C   UNL     1      -9.780   8.313  -4.497  1.00  0.00     0.326 C 
ATOM     59  O   UNL     1     -10.503   9.283  -4.332  1.00  0.00    -0.250 OA
BRANCH  58  60
ATOM     60  O   UNL     1      -8.631   8.214  -3.783  1.00  0.00    -0.480 OA
ATOM     61  H   UNL     1      -7.996   7.833  -4.427  1.00  0.00     0.296 HD
ENDBRANCH  58  60
ENDBRANCH  48  58
ENDBRANCH  46  48
ENDBRANCH  34  44
ENDBRANCH  32  34
ENDBRANCH  25  30
ENDBRANCH  23  25
ENDBRANCH   2  23
TORSDOF 28
ENDMDL
MODEL 18
REMARK VINA RESULT:    -5.432      2.563      8.234
REMARK INTER + INTRA:         -19.476
REMARK INTER:                 -12.688
REMARK INTRA:                  -6.788
REMARK UNBOUND:                -5.946
REMARK SMILES CCCCCCC[C@H](N)[C@H](O)C(=O)N[C@H](C)C(=O)N(C)[C@H](CC(C)C)C(=O)N[C@@H](Cc1ccc(O)cc1)C(=O)N[C@@H](Cc1ccc(O)cc1)C(=O)O
REMARK SMILES IDX 18 1 17 2 15 3 16 4 14 5 12 6 13 7 10 9 11 10 8 12 9 13 7 16
REMARK SMILES IDX 6 17 5 18 4 19 3 20 2 21 1 22 19 23 20 24 21 25 22 26 23 27
REMARK SMILES IDX 24 28 25 29 26 30 27 31 28 32 29 34 30 35 31 36 32 37 37 38
REMARK SMILES IDX 33 39 36 40 34 41 35 42 38 44 39 45 40 46 41 48 42 49 43 50
REMARK SMILES IDX 44 51 49 52 45 53 48 54 46 55 47 56 50 58 51 59 52 60
REMARK H PARENT 14 8 11 11 9 14 9 15 28 33 35 43 40 47 47 57 52 61
ROOT
ATOM      1  O   UNL     1      -9.188   3.774  -9.285  1.00  0.00    -0.272 OA
ATOM      2  C   UNL     1      -8.985   4.959  -9.591  1.00  0.00     0.245 C 
ENDROOT
BRANCH   2   3
ATOM      3  C   UNL     1      -8.884   6.010  -8.458  1.00  0.00     0.168 C 
ATOM      4  C   UNL     1      -9.957   7.082  -8.615  1.00  0.00     0.041 C 
BRANCH   3   5
ATOM      5  N   UNL     1      -8.862   5.458  -7.112  1.00  0.00    -0.342 N 
ATOM      6  C   UNL     1      -7.714   4.930  -6.560  1.00  0.00     0.251 C 
ATOM      7  O   UNL     1      -6.650   4.846  -7.164  1.00  0.00    -0.272 OA
ATOM      8  H   UNL     1      -9.694   5.440  -6.527  1.00  0.00     0.164 HD
BRANCH   6   9
ATOM      9  C   UNL     1      -7.890   4.538  -5.084  1.00  0.00     0.219 C 
BRANCH   9  10
ATOM     10  O   UNL     1      -7.467   3.196  -4.815  1.00  0.00    -0.382 OA
ATOM     11  H   UNL     1      -7.432   3.158  -3.833  1.00  0.00     0.211 HD
ENDBRANCH   9  10
BRANCH   9  12
ATOM     12  C   UNL     1      -7.216   5.535  -4.105  1.00  0.00     0.089 C 
BRANCH  12  13
ATOM     13  N   UNL     1      -5.870   5.020  -3.767  1.00  0.00    -0.325 NA
ATOM     14  H   UNL     1      -5.318   5.771  -3.350  1.00  0.00     0.119 HD
ATOM     15  H   UNL     1      -5.380   4.779  -4.633  1.00  0.00     0.119 HD
ENDBRANCH  12  13
BRANCH  12  16
ATOM     16  C   UNL     1      -7.118   7.001  -4.591  1.00  0.00     0.022 C 
BRANCH  16  17
ATOM     17  C   UNL     1      -5.746   7.570  -4.978  1.00  0.00     0.002 C 
BRANCH  17  18
ATOM     18  C   UNL     1      -5.777   8.967  -5.593  1.00  0.00     0.000 C 
BRANCH  18  19
ATOM     19  C   UNL     1      -6.601   9.062  -6.884  1.00  0.00    -0.000 C 
BRANCH  19  20
ATOM     20  C   UNL     1      -6.058   8.250  -8.064  1.00  0.00    -0.000 C 
BRANCH  20  21
ATOM     21  C   UNL     1      -4.638   8.656  -8.468  1.00  0.00    -0.003 C 
ATOM     22  C   UNL     1      -4.642   9.928  -9.302  1.00  0.00     0.004 C 
ENDBRANCH  20  21
ENDBRANCH  19  20
ENDBRANCH  18  19
ENDBRANCH  17  18
ENDBRANCH  16  17
ENDBRANCH  12  16
ENDBRANCH   9  12
ENDBRANCH   6   9
ENDBRANCH   3   5
ENDBRANCH   2   3
BRANCH   2  23
ATOM     23  N   UNL     1      -8.734   5.301 -10.915  1.00  0.00    -0.332 N 
ATOM     24  C   UNL     1      -9.600   4.961 -12.035  1.00  0.00     0.147 C 
BRANCH  23  25
ATOM     25  C   UNL     1      -7.583   6.180 -11.258  1.00  0.00     0.174 C 
BRANCH  25  26
ATOM     26  C   UNL     1      -7.839   7.047 -12.514  1.00  0.00     0.038 C 
BRANCH  26  27
ATOM     27  C   UNL     1      -7.381   8.521 -12.453  1.00  0.00    -0.015 C 
ATOM     28  C   UNL     1      -7.843   9.224 -11.177  1.00  0.00     0.007 C 
ATOM     29  C   UNL     1      -5.877   8.697 -12.649  1.00  0.00     0.007 C 
ENDBRANCH  26  27
ENDBRANCH  25  26
BRANCH  25  30
ATOM     30  C   UNL     1      -6.282   5.348 -11.333  1.00  0.00     0.243 C 
ATOM     31  O   UNL     1      -5.896   4.838 -12.383  1.00  0.00    -0.273 OA
ATOM     32  N   UNL     1      -5.596   5.213 -10.154  1.00  0.00    -0.342 N 
ATOM     33  H   UNL     1      -5.902   5.781  -9.359  1.00  0.00     0.164 HD
BRANCH  32  34
ATOM     34  C   UNL     1      -4.358   4.438 -10.030  1.00  0.00     0.175 C 
BRANCH  34  35
ATOM     35  C   UNL     1      -3.316   5.180  -9.180  1.00  0.00     0.070 C 
BRANCH  35  36
ATOM     36  C   UNL     1      -2.568   6.236  -9.961  1.00  0.00    -0.045 A 
ATOM     37  C   UNL     1      -2.799   6.386 -11.337  1.00  0.00     0.007 A 
ATOM     38  C   UNL     1      -1.623   7.059  -9.335  1.00  0.00     0.007 A 
ATOM     39  C   UNL     1      -2.103   7.348 -12.070  1.00  0.00     0.046 A 
ATOM     40  C   UNL     1      -0.925   8.022 -10.068  1.00  0.00     0.046 A 
ATOM     41  C   UNL     1      -1.173   8.158 -11.430  1.00  0.00     0.115 A 
BRANCH  41  42
ATOM     42  O   UNL     1      -0.513   9.084 -12.183  1.00  0.00    -0.508 OA
ATOM     43  H   UNL     1      -0.419   8.733 -13.084  1.00  0.00     0.293 HD
ENDBRANCH  41  42
ENDBRANCH  35  36
ENDBRANCH  34  35
BRANCH  34  44
ATOM     44  C   UNL     1      -4.716   3.058  -9.432  1.00  0.00     0.243 C 
ATOM     45  O   UNL     1      -5.480   2.252  -9.955  1.00  0.00    -0.273 OA
ATOM     46  N   UNL     1      -4.195   2.855  -8.172  1.00  0.00    -0.341 N 
ATOM     47  H   UNL     1      -3.663   3.602  -7.731  1.00  0.00     0.164 HD
BRANCH  46  48
ATOM     48  C   UNL     1      -4.453   1.652  -7.377  1.00  0.00     0.196 C 
BRANCH  48  49
ATOM     49  C   UNL     1      -3.276   0.666  -7.455  1.00  0.00     0.072 C 
BRANCH  49  50
ATOM     50  C   UNL     1      -3.044   0.146  -8.855  1.00  0.00    -0.045 A 
ATOM     51  C   UNL     1      -2.007   0.679  -9.636  1.00  0.00     0.007 A 
ATOM     52  C   UNL     1      -3.864  -0.850  -9.400  1.00  0.00     0.007 A 
ATOM     53  C   UNL     1      -1.792   0.217 -10.934  1.00  0.00     0.046 A 
ATOM     54  C   UNL     1      -3.649  -1.312 -10.700  1.00  0.00     0.046 A 
ATOM     55  C   UNL     1      -2.613  -0.775 -11.456  1.00  0.00     0.115 A 
BRANCH  55  56
ATOM     56  O   UNL     1      -2.370  -1.197 -12.730  1.00  0.00    -0.508 OA
ATOM     57  H   UNL     1      -1.661  -1.858 -12.703  1.00  0.00     0.293 HD
ENDBRANCH  55  56
ENDBRANCH  49  50
ENDBRANCH  48  49
BRANCH  48  58
ATOM     58  C   UNL     1      -4.688   2.060  -5.916  1.00  0.00     0.326 C 
ATOM     59  O   UNL     1      -4.889   1.322  -4.966  1.00  0.00    -0.250 OA
BRANCH  58  60
ATOM     60  O   UNL     1      -4.641   3.401  -5.714  1.00  0.00    -0.480 OA
ATOM     61  H   UNL     1      -4.867   3.495  -4.763  1.00  0.00     0.296 HD
ENDBRANCH  58  60
ENDBRANCH  48  58
ENDBRANCH  46  48
ENDBRANCH  34  44
ENDBRANCH  32  34
ENDBRANCH  25  30
ENDBRANCH  23  25
ENDBRANCH   2  23
TORSDOF 28
ENDMDL
MODEL 19
REMARK VINA RESULT:    -5.426      2.806      8.461
REMARK INTER + INTRA:         -19.462
REMARK INTER:                 -14.129
REMARK INTRA:                  -5.333
REMARK UNBOUND:                -5.946
REMARK SMILES CCCCCCC[C@H](N)[C@H](O)C(=O)N[C@H](C)C(=O)N(C)[C@H](CC(C)C)C(=O)N[C@@H](Cc1ccc(O)cc1)C(=O)N[C@@H](Cc1ccc(O)cc1)C(=O)O
REMARK SMILES IDX 18 1 17 2 15 3 16 4 14 5 12 6 13 7 10 9 11 10 8 12 9 13 7 16
REMARK SMILES IDX 6 17 5 18 4 19 3 20 2 21 1 22 19 23 20 24 21 25 22 26 23 27
REMARK SMILES IDX 24 28 25 29 26 30 27 31 28 32 29 34 30 35 31 36 32 37 37 38
REMARK SMILES IDX 33 39 36 40 34 41 35 42 38 44 39 45 40 46 41 48 42 49 43 50
REMARK SMILES IDX 44 51 49 52 45 53 48 54 46 55 47 56 50 58 51 59 52 60
REMARK H PARENT 14 8 11 11 9 14 9 15 28 33 35 43 40 47 47 57 52 61
ROOT
ATOM      1  O   UNL     1      -8.284   7.650  -8.275  1.00  0.00    -0.272 OA
ATOM      2  C   UNL     1      -7.783   6.668  -7.708  1.00  0.00     0.245 C 
ENDROOT
BRANCH   2   3
ATOM      3  C   UNL     1      -7.660   6.688  -6.164  1.00  0.00     0.168 C 
ATOM      4  C   UNL     1      -7.179   8.050  -5.676  1.00  0.00     0.041 C 
BRANCH   3   5
ATOM      5  N   UNL     1      -8.847   6.244  -5.450  1.00  0.00    -0.342 N 
ATOM      6  C   UNL     1      -9.113   4.908  -5.237  1.00  0.00     0.251 C 
ATOM      7  O   UNL     1      -8.403   4.002  -5.662  1.00  0.00    -0.272 OA
ATOM      8  H   UNL     1      -9.529   6.904  -5.081  1.00  0.00     0.164 HD
BRANCH   6   9
ATOM      9  C   UNL     1     -10.341   4.681  -4.342  1.00  0.00     0.219 C 
BRANCH   9  10
ATOM     10  O   UNL     1     -10.392   3.356  -3.799  1.00  0.00    -0.382 OA
ATOM     11  H   UNL     1      -9.908   2.816  -4.462  1.00  0.00     0.211 HD
ENDBRANCH   9  10
BRANCH   9  12
ATOM     12  C   UNL     1     -10.480   5.742  -3.219  1.00  0.00     0.089 C 
BRANCH  12  13
ATOM     13  N   UNL     1     -11.829   6.345  -3.311  1.00  0.00    -0.325 NA
ATOM     14  H   UNL     1     -11.974   6.701  -4.257  1.00  0.00     0.119 HD
ATOM     15  H   UNL     1     -11.864   7.171  -2.708  1.00  0.00     0.119 HD
ENDBRANCH  12  13
BRANCH  12  16
ATOM     16  C   UNL     1     -10.219   5.242  -1.778  1.00  0.00     0.022 C 
BRANCH  16  17
ATOM     17  C   UNL     1      -9.490   6.162  -0.788  1.00  0.00     0.002 C 
BRANCH  17  18
ATOM     18  C   UNL     1     -10.385   7.159  -0.056  1.00  0.00     0.000 C 
BRANCH  18  19
ATOM     19  C   UNL     1     -10.374   7.005   1.470  1.00  0.00    -0.000 C 
BRANCH  19  20
ATOM     20  C   UNL     1     -10.611   5.581   1.982  1.00  0.00    -0.000 C 
BRANCH  20  21
ATOM     21  C   UNL     1     -11.997   5.039   1.625  1.00  0.00    -0.003 C 
ATOM     22  C   UNL     1     -13.061   5.569   2.575  1.00  0.00     0.004 C 
ENDBRANCH  20  21
ENDBRANCH  19  20
ENDBRANCH  18  19
ENDBRANCH  17  18
ENDBRANCH  16  17
ENDBRANCH  12  16
ENDBRANCH   9  12
ENDBRANCH   6   9
ENDBRANCH   3   5
ENDBRANCH   2   3
BRANCH   2  23
ATOM     23  N   UNL     1      -7.458   5.532  -8.441  1.00  0.00    -0.332 N 
ATOM     24  C   UNL     1      -8.425   4.683  -9.121  1.00  0.00     0.147 C 
BRANCH  23  25
ATOM     25  C   UNL     1      -6.032   5.179  -8.685  1.00  0.00     0.174 C 
BRANCH  25  26
ATOM     26  C   UNL     1      -5.599   5.404 -10.153  1.00  0.00     0.038 C 
BRANCH  26  27
ATOM     27  C   UNL     1      -4.097   5.661 -10.408  1.00  0.00    -0.015 C 
ATOM     28  C   UNL     1      -3.425   6.398  -9.249  1.00  0.00     0.007 C 
ATOM     29  C   UNL     1      -3.317   4.398 -10.766  1.00  0.00     0.007 C 
ENDBRANCH  26  27
ENDBRANCH  25  26
BRANCH  25  30
ATOM     30  C   UNL     1      -5.741   3.753  -8.163  1.00  0.00     0.243 C 
ATOM     31  O   UNL     1      -5.975   2.753  -8.839  1.00  0.00    -0.273 OA
ATOM     32  N   UNL     1      -5.212   3.680  -6.900  1.00  0.00    -0.342 N 
ATOM     33  H   UNL     1      -4.916   4.555  -6.460  1.00  0.00     0.164 HD
BRANCH  32  34
ATOM     34  C   UNL     1      -4.898   2.414  -6.234  1.00  0.00     0.175 C 
BRANCH  34  35
ATOM     35  C   UNL     1      -3.505   1.903  -6.632  1.00  0.00     0.070 C 
BRANCH  35  36
ATOM     36  C   UNL     1      -3.558   0.834  -7.701  1.00  0.00    -0.045 A 
ATOM     37  C   UNL     1      -2.921   1.043  -8.934  1.00  0.00     0.007 A 
ATOM     38  C   UNL     1      -4.256  -0.361  -7.488  1.00  0.00     0.007 A 
ATOM     39  C   UNL     1      -2.975   0.069  -9.931  1.00  0.00     0.046 A 
ATOM     40  C   UNL     1      -4.313  -1.337  -8.487  1.00  0.00     0.046 A 
ATOM     41  C   UNL     1      -3.670  -1.113  -9.700  1.00  0.00     0.115 A 
BRANCH  41  42
ATOM     42  O   UNL     1      -3.701  -2.038 -10.701  1.00  0.00    -0.508 OA
ATOM     43  H   UNL     1      -4.628  -2.286 -10.857  1.00  0.00     0.293 HD
ENDBRANCH  41  42
ENDBRANCH  35  36
ENDBRANCH  34  35
BRANCH  34  44
ATOM     44  C   UNL     1      -5.019   2.632  -4.709  1.00  0.00     0.243 C 
ATOM     45  O   UNL     1      -4.571   1.866  -3.860  1.00  0.00    -0.273 OA
ATOM     46  N   UNL     1      -5.800   3.716  -4.370  1.00  0.00    -0.341 N 
ATOM     47  H   UNL     1      -6.247   4.254  -5.109  1.00  0.00     0.164 HD
BRANCH  46  48
ATOM     48  C   UNL     1      -6.114   4.082  -2.987  1.00  0.00     0.196 C 
BRANCH  48  49
ATOM     49  C   UNL     1      -6.654   5.520  -2.897  1.00  0.00     0.072 C 
BRANCH  49  50
ATOM     50  C   UNL     1      -5.856   6.383  -1.946  1.00  0.00    -0.045 A 
ATOM     51  C   UNL     1      -5.087   5.784  -0.936  1.00  0.00     0.007 A 
ATOM     52  C   UNL     1      -5.885   7.780  -2.042  1.00  0.00     0.007 A 
ATOM     53  C   UNL     1      -4.357   6.570  -0.045  1.00  0.00     0.046 A 
ATOM     54  C   UNL     1      -5.155   8.567  -1.149  1.00  0.00     0.046 A 
ATOM     55  C   UNL     1      -4.396   7.955  -0.158  1.00  0.00     0.115 A 
BRANCH  55  56
ATOM     56  O   UNL     1      -3.669   8.687   0.734  1.00  0.00    -0.508 OA
ATOM     57  H   UNL     1      -4.134   8.681   1.585  1.00  0.00     0.293 HD
ENDBRANCH  55  56
ENDBRANCH  49  50
ENDBRANCH  48  49
BRANCH  48  58
ATOM     58  C   UNL     1      -7.161   3.104  -2.437  1.00  0.00     0.326 C 
ATOM     59  O   UNL     1      -7.528   2.987  -1.278  1.00  0.00    -0.250 OA
BRANCH  58  60
ATOM     60  O   UNL     1      -7.718   2.315  -3.390  1.00  0.00    -0.480 OA
ATOM     61  H   UNL     1      -8.505   2.828  -3.676  1.00  0.00     0.296 HD
ENDBRANCH  58  60
ENDBRANCH  48  58
ENDBRANCH  46  48
ENDBRANCH  34  44
ENDBRANCH  32  34
ENDBRANCH  25  30
ENDBRANCH  23  25
ENDBRANCH   2  23
TORSDOF 28
ENDMDL
MODEL 20
REMARK VINA RESULT:    -5.382      2.432      7.333
REMARK INTER + INTRA:         -19.351
REMARK INTER:                 -13.623
REMARK INTRA:                  -5.727
REMARK UNBOUND:                -5.946
REMARK SMILES CCCCCCC[C@H](N)[C@H](O)C(=O)N[C@H](C)C(=O)N(C)[C@H](CC(C)C)C(=O)N[C@@H](Cc1ccc(O)cc1)C(=O)N[C@@H](Cc1ccc(O)cc1)C(=O)O
REMARK SMILES IDX 18 1 17 2 15 3 16 4 14 5 12 6 13 7 10 9 11 10 8 12 9 13 7 16
REMARK SMILES IDX 6 17 5 18 4 19 3 20 2 21 1 22 19 23 20 24 21 25 22 26 23 27
REMARK SMILES IDX 24 28 25 29 26 30 27 31 28 32 29 34 30 35 31 36 32 37 37 38
REMARK SMILES IDX 33 39 36 40 34 41 35 42 38 44 39 45 40 46 41 48 42 49 43 50
REMARK SMILES IDX 44 51 49 52 45 53 48 54 46 55 47 56 50 58 51 59 52 60
REMARK H PARENT 14 8 11 11 9 14 9 15 28 33 35 43 40 47 47 57 52 61
ROOT
ATOM      1  O   UNL     1      -7.014   6.429 -10.367  1.00  0.00    -0.272 OA
ATOM      2  C   UNL     1      -6.072   7.231 -10.277  1.00  0.00     0.245 C 
ENDROOT
BRANCH   2   3
ATOM      3  C   UNL     1      -6.184   8.394  -9.260  1.00  0.00     0.168 C 
ATOM      4  C   UNL     1      -7.481   8.295  -8.465  1.00  0.00     0.041 C 
BRANCH   3   5
ATOM      5  N   UNL     1      -5.028   8.562  -8.394  1.00  0.00    -0.342 N 
ATOM      6  C   UNL     1      -4.041   9.485  -8.667  1.00  0.00     0.251 C 
ATOM      7  O   UNL     1      -4.038  10.196  -9.666  1.00  0.00    -0.272 OA
ATOM      8  H   UNL     1      -4.903   8.003  -7.552  1.00  0.00     0.164 HD
BRANCH   6   9
ATOM      9  C   UNL     1      -2.995   9.587  -7.545  1.00  0.00     0.219 C 
BRANCH   9  10
ATOM     10  O   UNL     1      -1.728  10.067  -8.012  1.00  0.00    -0.382 OA
ATOM     11  H   UNL     1      -1.096   9.755  -7.327  1.00  0.00     0.211 HD
ENDBRANCH   9  10
BRANCH   9  12
ATOM     12  C   UNL     1      -3.484  10.416  -6.329  1.00  0.00     0.089 C 
BRANCH  12  13
ATOM     13  N   UNL     1      -4.751  11.087  -6.701  1.00  0.00    -0.325 NA
ATOM     14  H   UNL     1      -5.474  10.380  -6.852  1.00  0.00     0.119 HD
ATOM     15  H   UNL     1      -4.631  11.543  -7.608  1.00  0.00     0.119 HD
ENDBRANCH  12  13
BRANCH  12  16
ATOM     16  C   UNL     1      -3.664   9.637  -5.004  1.00  0.00     0.022 C 
BRANCH  16  17
ATOM     17  C   UNL     1      -5.082   9.302  -4.521  1.00  0.00     0.002 C 
BRANCH  17  18
ATOM     18  C   UNL     1      -5.599   7.929  -4.945  1.00  0.00     0.000 C 
BRANCH  18  19
ATOM     19  C   UNL     1      -6.666   7.347  -4.008  1.00  0.00    -0.000 C 
BRANCH  19  20
ATOM     20  C   UNL     1      -6.155   6.303  -3.011  1.00  0.00    -0.000 C 
BRANCH  20  21
ATOM     21  C   UNL     1      -6.461   6.665  -1.555  1.00  0.00    -0.003 C 
ATOM     22  C   UNL     1      -5.692   7.902  -1.118  1.00  0.00     0.004 C 
ENDBRANCH  20  21
ENDBRANCH  19  20
ENDBRANCH  18  19
ENDBRANCH  17  18
ENDBRANCH  16  17
ENDBRANCH  12  16
ENDBRANCH   9  12
ENDBRANCH   6   9
ENDBRANCH   3   5
ENDBRANCH   2   3
BRANCH   2  23
ATOM     23  N   UNL     1      -4.898   7.008 -10.989  1.00  0.00    -0.332 N 
ATOM     24  C   UNL     1      -4.617   7.551 -12.309  1.00  0.00     0.147 C 
BRANCH  23  25
ATOM     25  C   UNL     1      -3.766   6.274 -10.359  1.00  0.00     0.174 C 
BRANCH  25  26
ATOM     26  C   UNL     1      -2.503   6.236 -11.251  1.00  0.00     0.038 C 
BRANCH  26  27
ATOM     27  C   UNL     1      -1.224   6.889 -10.680  1.00  0.00    -0.015 C 
ATOM     28  C   UNL     1      -1.081   8.353 -11.093  1.00  0.00     0.007 C 
ATOM     29  C   UNL     1      -1.091   6.742  -9.167  1.00  0.00     0.007 C 
ENDBRANCH  26  27
ENDBRANCH  25  26
BRANCH  25  30
ATOM     30  C   UNL     1      -4.235   4.878  -9.886  1.00  0.00     0.243 C 
ATOM     31  O   UNL     1      -4.646   4.029 -10.675  1.00  0.00    -0.273 OA
ATOM     32  N   UNL     1      -4.167   4.657  -8.535  1.00  0.00    -0.342 N 
ATOM     33  H   UNL     1      -3.684   5.355  -7.964  1.00  0.00     0.164 HD
BRANCH  32  34
ATOM     34  C   UNL     1      -4.593   3.404  -7.905  1.00  0.00     0.175 C 
BRANCH  34  35
ATOM     35  C   UNL     1      -3.391   2.503  -7.582  1.00  0.00     0.070 C 
BRANCH  35  36
ATOM     36  C   UNL     1      -3.404   1.208  -8.363  1.00  0.00    -0.045 A 
ATOM     37  C   UNL     1      -2.708   1.115  -9.578  1.00  0.00     0.007 A 
ATOM     38  C   UNL     1      -4.123   0.098  -7.902  1.00  0.00     0.007 A 
ATOM     39  C   UNL     1      -2.726  -0.072 -10.312  1.00  0.00     0.046 A 
ATOM     40  C   UNL     1      -4.142  -1.090  -8.637  1.00  0.00     0.046 A 
ATOM     41  C   UNL     1      -3.441  -1.164  -9.836  1.00  0.00     0.115 A 
BRANCH  41  42
ATOM     42  O   UNL     1      -3.435  -2.303 -10.586  1.00  0.00    -0.508 OA
ATOM     43  H   UNL     1      -3.640  -3.052 -10.002  1.00  0.00     0.293 HD
ENDBRANCH  41  42
ENDBRANCH  35  36
ENDBRANCH  34  35
BRANCH  34  44
ATOM     44  C   UNL     1      -5.407   3.757  -6.640  1.00  0.00     0.243 C 
ATOM     45  O   UNL     1      -6.013   4.812  -6.477  1.00  0.00    -0.273 OA
ATOM     46  N   UNL     1      -5.287   2.823  -5.632  1.00  0.00    -0.341 N 
ATOM     47  H   UNL     1      -4.678   2.021  -5.772  1.00  0.00     0.164 HD
BRANCH  46  48
ATOM     48  C   UNL     1      -5.912   2.973  -4.316  1.00  0.00     0.196 C 
BRANCH  48  49
ATOM     49  C   UNL     1      -7.370   2.486  -4.330  1.00  0.00     0.072 C 
BRANCH  49  50
ATOM     50  C   UNL     1      -8.326   3.492  -3.730  1.00  0.00    -0.045 A 
ATOM     51  C   UNL     1      -8.553   3.501  -2.346  1.00  0.00     0.007 A 
ATOM     52  C   UNL     1      -9.009   4.409  -4.539  1.00  0.00     0.007 A 
ATOM     53  C   UNL     1      -9.443   4.417  -1.782  1.00  0.00     0.046 A 
ATOM     54  C   UNL     1      -9.900   5.325  -3.975  1.00  0.00     0.046 A 
ATOM     55  C   UNL     1     -10.108   5.321  -2.600  1.00  0.00     0.115 A 
BRANCH  55  56
ATOM     56  O   UNL     1     -10.971   6.198  -2.011  1.00  0.00    -0.508 OA
ATOM     57  H   UNL     1     -11.506   6.614  -2.705  1.00  0.00     0.293 HD
ENDBRANCH  55  56
ENDBRANCH  49  50
ENDBRANCH  48  49
BRANCH  48  58
ATOM     58  C   UNL     1      -5.109   2.165  -3.287  1.00  0.00     0.326 C 
ATOM     59  O   UNL     1      -4.597   1.069  -3.445  1.00  0.00    -0.250 OA
BRANCH  58  60
ATOM     60  O   UNL     1      -4.972   2.794  -2.093  1.00  0.00    -0.480 OA
ATOM     61  H   UNL     1      -4.848   2.054  -1.460  1.00  0.00     0.296 HD
ENDBRANCH  58  60
ENDBRANCH  48  58
ENDBRANCH  46  48
ENDBRANCH  34  44
ENDBRANCH  32  34
ENDBRANCH  25  30
ENDBRANCH  23  25
ENDBRANCH   2  23
TORSDOF 28
ENDMDL
MODEL 21
REMARK VINA RESULT:    -5.379      2.421     10.007
REMARK INTER + INTRA:         -19.343
REMARK INTER:                 -15.168
REMARK INTRA:                  -4.175
REMARK UNBOUND:                -5.946
REMARK SMILES CCCCCCC[C@H](N)[C@H](O)C(=O)N[C@H](C)C(=O)N(C)[C@H](CC(C)C)C(=O)N[C@@H](Cc1ccc(O)cc1)C(=O)N[C@@H](Cc1ccc(O)cc1)C(=O)O
REMARK SMILES IDX 18 1 17 2 15 3 16 4 14 5 12 6 13 7 10 9 11 10 8 12 9 13 7 16
REMARK SMILES IDX 6 17 5 18 4 19 3 20 2 21 1 22 19 23 20 24 21 25 22 26 23 27
REMARK SMILES IDX 24 28 25 29 26 30 27 31 28 32 29 34 30 35 31 36 32 37 37 38
REMARK SMILES IDX 33 39 36 40 34 41 35 42 38 44 39 45 40 46 41 48 42 49 43 50
REMARK SMILES IDX 44 51 49 52 45 53 48 54 46 55 47 56 50 58 51 59 52 60
REMARK H PARENT 14 8 11 11 9 14 9 15 28 33 35 43 40 47 47 57 52 61
ROOT
ATOM      1  O   UNL     1      -7.478   7.029  -6.908  1.00  0.00    -0.272 OA
ATOM      2  C   UNL     1      -7.716   6.110  -6.110  1.00  0.00     0.245 C 
ENDROOT
BRANCH   2   3
ATOM      3  C   UNL     1      -8.935   5.193  -6.378  1.00  0.00     0.168 C 
ATOM      4  C   UNL     1      -8.789   4.475  -7.715  1.00  0.00     0.041 C 
BRANCH   3   5
ATOM      5  N   UNL     1      -9.255   4.271  -5.300  1.00  0.00    -0.342 N 
ATOM      6  C   UNL     1     -10.118   4.614  -4.280  1.00  0.00     0.251 C 
ATOM      7  O   UNL     1     -10.642   5.718  -4.181  1.00  0.00    -0.272 OA
ATOM      8  H   UNL     1      -8.854   3.337  -5.256  1.00  0.00     0.164 HD
BRANCH   6   9
ATOM      9  C   UNL     1     -10.418   3.439  -3.335  1.00  0.00     0.219 C 
BRANCH   9  10
ATOM     10  O   UNL     1      -9.977   2.181  -3.860  1.00  0.00    -0.382 OA
ATOM     11  H   UNL     1      -9.683   2.401  -4.771  1.00  0.00     0.211 HD
ENDBRANCH   9  10
BRANCH   9  12
ATOM     12  C   UNL     1      -9.874   3.659  -1.900  1.00  0.00     0.089 C 
BRANCH  12  13
ATOM     13  N   UNL     1      -9.719   2.336  -1.252  1.00  0.00    -0.325 NA
ATOM     14  H   UNL     1     -10.603   2.071  -0.814  1.00  0.00     0.119 HD
ATOM     15  H   UNL     1      -9.054   2.422  -0.480  1.00  0.00     0.119 HD
ENDBRANCH  12  13
BRANCH  12  16
ATOM     16  C   UNL     1      -8.557   4.463  -1.789  1.00  0.00     0.022 C 
BRANCH  16  17
ATOM     17  C   UNL     1      -8.490   5.659  -0.830  1.00  0.00     0.002 C 
BRANCH  17  18
ATOM     18  C   UNL     1      -9.816   6.384  -0.611  1.00  0.00     0.000 C 
BRANCH  18  19
ATOM     19  C   UNL     1      -9.920   7.100   0.742  1.00  0.00    -0.000 C 
BRANCH  19  20
ATOM     20  C   UNL     1     -10.489   6.253   1.884  1.00  0.00    -0.000 C 
BRANCH  20  21
ATOM     21  C   UNL     1     -11.468   5.178   1.402  1.00  0.00    -0.003 C 
ATOM     22  C   UNL     1     -12.798   5.273   2.132  1.00  0.00     0.004 C 
ENDBRANCH  20  21
ENDBRANCH  19  20
ENDBRANCH  18  19
ENDBRANCH  17  18
ENDBRANCH  16  17
ENDBRANCH  12  16
ENDBRANCH   9  12
ENDBRANCH   6   9
ENDBRANCH   3   5
ENDBRANCH   2   3
BRANCH   2  23
ATOM     23  N   UNL     1      -6.830   5.844  -5.071  1.00  0.00    -0.332 N 
ATOM     24  C   UNL     1      -6.569   6.743  -3.957  1.00  0.00     0.147 C 
BRANCH  23  25
ATOM     25  C   UNL     1      -6.167   4.514  -4.972  1.00  0.00     0.174 C 
BRANCH  25  26
ATOM     26  C   UNL     1      -5.337   4.350  -3.677  1.00  0.00     0.038 C 
BRANCH  26  27
ATOM     27  C   UNL     1      -5.327   2.949  -3.025  1.00  0.00    -0.015 C 
ATOM     28  C   UNL     1      -5.302   3.016  -1.499  1.00  0.00     0.007 C 
ATOM     29  C   UNL     1      -6.461   2.048  -3.505  1.00  0.00     0.007 C 
ENDBRANCH  26  27
ENDBRANCH  25  26
BRANCH  25  30
ATOM     30  C   UNL     1      -5.369   4.221  -6.263  1.00  0.00     0.243 C 
ATOM     31  O   UNL     1      -4.811   5.113  -6.900  1.00  0.00    -0.273 OA
ATOM     32  N   UNL     1      -5.331   2.906  -6.651  1.00  0.00    -0.342 N 
ATOM     33  H   UNL     1      -5.696   2.209  -5.998  1.00  0.00     0.164 HD
BRANCH  32  34
ATOM     34  C   UNL     1      -4.645   2.447  -7.862  1.00  0.00     0.175 C 
BRANCH  34  35
ATOM     35  C   UNL     1      -4.580   0.913  -7.920  1.00  0.00     0.070 C 
BRANCH  35  36
ATOM     36  C   UNL     1      -3.755   0.406  -9.082  1.00  0.00    -0.045 A 
ATOM     37  C   UNL     1      -4.181  -0.717  -9.807  1.00  0.00     0.007 A 
ATOM     38  C   UNL     1      -2.552   1.030  -9.436  1.00  0.00     0.007 A 
ATOM     39  C   UNL     1      -3.421  -1.200 -10.872  1.00  0.00     0.046 A 
ATOM     40  C   UNL     1      -1.789   0.546 -10.502  1.00  0.00     0.046 A 
ATOM     41  C   UNL     1      -2.232  -0.565 -11.211  1.00  0.00     0.115 A 
BRANCH  41  42
ATOM     42  O   UNL     1      -1.517  -1.071 -12.256  1.00  0.00    -0.508 OA
ATOM     43  H   UNL     1      -2.064  -1.010 -13.057  1.00  0.00     0.293 HD
ENDBRANCH  41  42
ENDBRANCH  35  36
ENDBRANCH  34  35
BRANCH  34  44
ATOM     44  C   UNL     1      -5.383   3.040  -9.084  1.00  0.00     0.243 C 
ATOM     45  O   UNL     1      -6.449   2.619  -9.522  1.00  0.00    -0.273 OA
ATOM     46  N   UNL     1      -4.665   4.021  -9.735  1.00  0.00    -0.341 N 
ATOM     47  H   UNL     1      -3.733   4.254  -9.402  1.00  0.00     0.164 HD
BRANCH  46  48
ATOM     48  C   UNL     1      -5.129   4.682 -10.957  1.00  0.00     0.196 C 
BRANCH  48  49
ATOM     49  C   UNL     1      -6.110   5.822 -10.639  1.00  0.00     0.072 C 
BRANCH  49  50
ATOM     50  C   UNL     1      -7.476   5.601 -11.247  1.00  0.00    -0.045 A 
ATOM     51  C   UNL     1      -8.545   6.434 -10.885  1.00  0.00     0.007 A 
ATOM     52  C   UNL     1      -7.701   4.559 -12.156  1.00  0.00     0.007 A 
ATOM     53  C   UNL     1      -9.814   6.231 -11.430  1.00  0.00     0.046 A 
ATOM     54  C   UNL     1      -8.971   4.356 -12.700  1.00  0.00     0.046 A 
ATOM     55  C   UNL     1     -10.017   5.195 -12.333  1.00  0.00     0.115 A 
BRANCH  55  56
ATOM     56  O   UNL     1     -11.272   5.029 -12.840  1.00  0.00    -0.508 OA
ATOM     57  H   UNL     1     -11.404   4.086 -13.027  1.00  0.00     0.293 HD
ENDBRANCH  55  56
ENDBRANCH  49  50
ENDBRANCH  48  49
BRANCH  48  58
ATOM     58  C   UNL     1      -3.916   5.241 -11.714  1.00  0.00     0.326 C 
ATOM     59  O   UNL     1      -3.923   5.866 -12.762  1.00  0.00    -0.250 OA
BRANCH  58  60
ATOM     60  O   UNL     1      -2.733   4.997 -11.096  1.00  0.00    -0.480 OA
ATOM     61  H   UNL     1      -2.962   5.044 -10.142  1.00  0.00     0.296 HD
ENDBRANCH  58  60
ENDBRANCH  48  58
ENDBRANCH  46  48
ENDBRANCH  34  44
ENDBRANCH  32  34
ENDBRANCH  25  30
ENDBRANCH  23  25
ENDBRANCH   2  23
TORSDOF 28
ENDMDL
MODEL 22
REMARK VINA RESULT:    -5.360      2.337      7.305
REMARK INTER + INTRA:         -19.297
REMARK INTER:                 -13.425
REMARK INTRA:                  -5.872
REMARK UNBOUND:                -5.946
REMARK SMILES CCCCCCC[C@H](N)[C@H](O)C(=O)N[C@H](C)C(=O)N(C)[C@H](CC(C)C)C(=O)N[C@@H](Cc1ccc(O)cc1)C(=O)N[C@@H](Cc1ccc(O)cc1)C(=O)O
REMARK SMILES IDX 18 1 17 2 15 3 16 4 14 5 12 6 13 7 10 9 11 10 8 12 9 13 7 16
REMARK SMILES IDX 6 17 5 18 4 19 3 20 2 21 1 22 19 23 20 24 21 25 22 26 23 27
REMARK SMILES IDX 24 28 25 29 26 30 27 31 28 32 29 34 30 35 31 36 32 37 37 38
REMARK SMILES IDX 33 39 36 40 34 41 35 42 38 44 39 45 40 46 41 48 42 49 43 50
REMARK SMILES IDX 44 51 49 52 45 53 48 54 46 55 47 56 50 58 51 59 52 60
REMARK H PARENT 14 8 11 11 9 14 9 15 28 33 35 43 40 47 47 57 52 61
ROOT
ATOM      1  O   UNL     1      -5.531   8.493 -11.688  1.00  0.00    -0.272 OA
ATOM      2  C   UNL     1      -5.897   7.323 -11.501  1.00  0.00     0.245 C 
ENDROOT
BRANCH   2   3
ATOM      3  C   UNL     1      -7.416   7.018 -11.472  1.00  0.00     0.168 C 
ATOM      4  C   UNL     1      -7.790   6.025 -12.566  1.00  0.00     0.041 C 
BRANCH   3   5
ATOM      5  N   UNL     1      -7.933   6.614 -10.173  1.00  0.00    -0.342 N 
ATOM      6  C   UNL     1      -9.103   7.134  -9.661  1.00  0.00     0.251 C 
ATOM      7  O   UNL     1      -9.766   7.994 -10.231  1.00  0.00    -0.272 OA
ATOM      8  H   UNL     1      -7.450   5.932  -9.593  1.00  0.00     0.164 HD
BRANCH   6   9
ATOM      9  C   UNL     1      -9.528   6.459  -8.347  1.00  0.00     0.219 C 
BRANCH   9  10
ATOM     10  O   UNL     1      -9.077   5.103  -8.251  1.00  0.00    -0.382 OA
ATOM     11  H   UNL     1      -8.127   5.192  -8.014  1.00  0.00     0.211 HD
ENDBRANCH   9  10
BRANCH   9  12
ATOM     12  C   UNL     1      -9.119   7.267  -7.088  1.00  0.00     0.089 C 
BRANCH  12  13
ATOM     13  N   UNL     1      -8.304   8.426  -7.520  1.00  0.00    -0.325 NA
ATOM     14  H   UNL     1      -8.736   9.286  -7.178  1.00  0.00     0.119 HD
ATOM     15  H   UNL     1      -8.343   8.496  -8.540  1.00  0.00     0.119 HD
ENDBRANCH  12  13
BRANCH  12  16
ATOM     16  C   UNL     1     -10.278   7.741  -6.180  1.00  0.00     0.022 C 
BRANCH  16  17
ATOM     17  C   UNL     1     -10.410   7.154  -4.768  1.00  0.00     0.002 C 
BRANCH  17  18
ATOM     18  C   UNL     1     -10.031   5.680  -4.645  1.00  0.00     0.000 C 
BRANCH  18  19
ATOM     19  C   UNL     1     -11.069   4.827  -3.904  1.00  0.00    -0.000 C 
BRANCH  19  20
ATOM     20  C   UNL     1     -10.839   3.315  -3.975  1.00  0.00    -0.000 C 
BRANCH  20  21
ATOM     21  C   UNL     1     -12.122   2.503  -3.777  1.00  0.00    -0.003 C 
ATOM     22  C   UNL     1     -11.817   1.028  -3.563  1.00  0.00     0.004 C 
ENDBRANCH  20  21
ENDBRANCH  19  20
ENDBRANCH  18  19
ENDBRANCH  17  18
ENDBRANCH  16  17
ENDBRANCH  12  16
ENDBRANCH   9  12
ENDBRANCH   6   9
ENDBRANCH   3   5
ENDBRANCH   2   3
BRANCH   2  23
ATOM     23  N   UNL     1      -4.957   6.300 -11.446  1.00  0.00    -0.332 N 
ATOM     24  C   UNL     1      -4.418   5.609 -12.608  1.00  0.00     0.147 C 
BRANCH  23  25
ATOM     25  C   UNL     1      -4.330   5.926 -10.148  1.00  0.00     0.174 C 
BRANCH  25  26
ATOM     26  C   UNL     1      -2.811   5.664 -10.266  1.00  0.00     0.038 C 
BRANCH  26  27
ATOM     27  C   UNL     1      -1.882   6.898 -10.226  1.00  0.00    -0.015 C 
ATOM     28  C   UNL     1      -1.199   7.071  -8.870  1.00  0.00     0.007 C 
ATOM     29  C   UNL     1      -0.852   6.920 -11.353  1.00  0.00     0.007 C 
ENDBRANCH  26  27
ENDBRANCH  25  26
BRANCH  25  30
ATOM     30  C   UNL     1      -5.113   4.763  -9.495  1.00  0.00     0.243 C 
ATOM     31  O   UNL     1      -5.957   4.119 -10.115  1.00  0.00    -0.273 OA
ATOM     32  N   UNL     1      -4.807   4.505  -8.183  1.00  0.00    -0.342 N 
ATOM     33  H   UNL     1      -3.999   4.987  -7.782  1.00  0.00     0.164 HD
BRANCH  32  34
ATOM     34  C   UNL     1      -5.467   3.460  -7.397  1.00  0.00     0.175 C 
BRANCH  34  35
ATOM     35  C   UNL     1      -4.442   2.519  -6.746  1.00  0.00     0.070 C 
BRANCH  35  36
ATOM     36  C   UNL     1      -4.217   1.255  -7.544  1.00  0.00    -0.045 A 
ATOM     37  C   UNL     1      -4.390   0.002  -6.938  1.00  0.00     0.007 A 
ATOM     38  C   UNL     1      -3.814   1.314  -8.885  1.00  0.00     0.007 A 
ATOM     39  C   UNL     1      -4.172  -1.170  -7.663  1.00  0.00     0.046 A 
ATOM     40  C   UNL     1      -3.594   0.141  -9.611  1.00  0.00     0.046 A 
ATOM     41  C   UNL     1      -3.776  -1.092  -8.993  1.00  0.00     0.115 A 
BRANCH  41  42
ATOM     42  O   UNL     1      -3.571  -2.260  -9.665  1.00  0.00    -0.508 OA
ATOM     43  H   UNL     1      -4.194  -2.298 -10.409  1.00  0.00     0.293 HD
ENDBRANCH  41  42
ENDBRANCH  35  36
ENDBRANCH  34  35
BRANCH  34  44
ATOM     44  C   UNL     1      -6.369   4.147  -6.347  1.00  0.00     0.243 C 
ATOM     45  O   UNL     1      -7.551   3.873  -6.162  1.00  0.00    -0.273 OA
ATOM     46  N   UNL     1      -5.759   5.207  -5.709  1.00  0.00    -0.341 N 
ATOM     47  H   UNL     1      -4.815   5.470  -5.981  1.00  0.00     0.164 HD
BRANCH  46  48
ATOM     48  C   UNL     1      -6.436   6.052  -4.724  1.00  0.00     0.196 C 
BRANCH  48  49
ATOM     49  C   UNL     1      -5.965   5.735  -3.295  1.00  0.00     0.072 C 
BRANCH  49  50
ATOM     50  C   UNL     1      -7.101   5.334  -2.383  1.00  0.00    -0.045 A 
ATOM     51  C   UNL     1      -7.885   6.321  -1.767  1.00  0.00     0.007 A 
ATOM     52  C   UNL     1      -7.375   3.985  -2.123  1.00  0.00     0.007 A 
ATOM     53  C   UNL     1      -8.928   5.963  -0.913  1.00  0.00     0.046 A 
ATOM     54  C   UNL     1      -8.419   3.627  -1.267  1.00  0.00     0.046 A 
ATOM     55  C   UNL     1      -9.188   4.620  -0.670  1.00  0.00     0.115 A 
BRANCH  55  56
ATOM     56  O   UNL     1     -10.215   4.312   0.173  1.00  0.00    -0.508 OA
ATOM     57  H   UNL     1     -10.289   3.346   0.225  1.00  0.00     0.293 HD
ENDBRANCH  55  56
ENDBRANCH  49  50
ENDBRANCH  48  49
BRANCH  48  58
ATOM     58  C   UNL     1      -6.147   7.525  -5.047  1.00  0.00     0.326 C 
ATOM     59  O   UNL     1      -6.733   8.505  -4.617  1.00  0.00    -0.250 OA
BRANCH  58  60
ATOM     60  O   UNL     1      -5.105   7.697  -5.900  1.00  0.00    -0.480 OA
ATOM     61  H   UNL     1      -5.338   7.122  -6.660  1.00  0.00     0.296 HD
ENDBRANCH  58  60
ENDBRANCH  48  58
ENDBRANCH  46  48
ENDBRANCH  34  44
ENDBRANCH  32  34
ENDBRANCH  25  30
ENDBRANCH  23  25
ENDBRANCH   2  23
TORSDOF 28
ENDMDL
MODEL 23
REMARK VINA RESULT:    -5.354      4.131     10.958
REMARK INTER + INTRA:         -19.281
REMARK INTER:                 -15.341
REMARK INTRA:                  -3.940
REMARK UNBOUND:                -5.946
REMARK SMILES CCCCCCC[C@H](N)[C@H](O)C(=O)N[C@H](C)C(=O)N(C)[C@H](CC(C)C)C(=O)N[C@@H](Cc1ccc(O)cc1)C(=O)N[C@@H](Cc1ccc(O)cc1)C(=O)O
REMARK SMILES IDX 18 1 17 2 15 3 16 4 14 5 12 6 13 7 10 9 11 10 8 12 9 13 7 16
REMARK SMILES IDX 6 17 5 18 4 19 3 20 2 21 1 22 19 23 20 24 21 25 22 26 23 27
REMARK SMILES IDX 24 28 25 29 26 30 27 31 28 32 29 34 30 35 31 36 32 37 37 38
REMARK SMILES IDX 33 39 36 40 34 41 35 42 38 44 39 45 40 46 41 48 42 49 43 50
REMARK SMILES IDX 44 51 49 52 45 53 48 54 46 55 47 56 50 58 51 59 52 60
REMARK H PARENT 14 8 11 11 9 14 9 15 28 33 35 43 40 47 47 57 52 61
ROOT
ATOM      1  O   UNL     1      -7.608   5.912  -1.320  1.00  0.00    -0.272 OA
ATOM      2  C   UNL     1      -8.135   7.029  -1.219  1.00  0.00     0.245 C 
ENDROOT
BRANCH   2   3
ATOM      3  C   UNL     1      -8.636   7.490   0.172  1.00  0.00     0.168 C 
ATOM      4  C   UNL     1      -8.441   8.992   0.348  1.00  0.00     0.041 C 
BRANCH   3   5
ATOM      5  N   UNL     1      -9.992   7.078   0.501  1.00  0.00    -0.342 N 
ATOM      6  C   UNL     1     -10.246   5.984   1.300  1.00  0.00     0.251 C 
ATOM      7  O   UNL     1      -9.367   5.259   1.755  1.00  0.00    -0.272 OA
ATOM      8  H   UNL     1     -10.804   7.581   0.153  1.00  0.00     0.164 HD
BRANCH   6   9
ATOM      9  C   UNL     1     -11.739   5.822   1.629  1.00  0.00     0.219 C 
BRANCH   9  10
ATOM     10  O   UNL     1     -12.137   4.450   1.729  1.00  0.00    -0.382 OA
ATOM     11  H   UNL     1     -12.399   4.353   2.671  1.00  0.00     0.211 HD
ENDBRANCH   9  10
BRANCH   9  12
ATOM     12  C   UNL     1     -12.175   6.616   2.888  1.00  0.00     0.089 C 
BRANCH  12  13
ATOM     13  N   UNL     1     -11.093   7.564   3.240  1.00  0.00    -0.325 NA
ATOM     14  H   UNL     1     -10.189   7.103   3.119  1.00  0.00     0.119 HD
ATOM     15  H   UNL     1     -11.152   7.777   4.239  1.00  0.00     0.119 HD
ENDBRANCH  12  13
BRANCH  12  16
ATOM     16  C   UNL     1     -13.525   7.364   2.785  1.00  0.00     0.022 C 
BRANCH  16  17
ATOM     17  C   UNL     1     -14.443   7.086   1.587  1.00  0.00     0.002 C 
BRANCH  17  18
ATOM     18  C   UNL     1     -15.846   6.604   1.947  1.00  0.00     0.000 C 
BRANCH  18  19
ATOM     19  C   UNL     1     -15.876   5.533   3.045  1.00  0.00    -0.000 C 
BRANCH  19  20
ATOM     20  C   UNL     1     -16.518   5.971   4.364  1.00  0.00    -0.000 C 
BRANCH  20  21
ATOM     21  C   UNL     1     -16.283   4.977   5.505  1.00  0.00    -0.003 C 
ATOM     22  C   UNL     1     -14.928   5.195   6.159  1.00  0.00     0.004 C 
ENDBRANCH  20  21
ENDBRANCH  19  20
ENDBRANCH  18  19
ENDBRANCH  17  18
ENDBRANCH  16  17
ENDBRANCH  12  16
ENDBRANCH   9  12
ENDBRANCH   6   9
ENDBRANCH   3   5
ENDBRANCH   2   3
BRANCH   2  23
ATOM     23  N   UNL     1      -8.157   7.889  -2.313  1.00  0.00    -0.332 N 
ATOM     24  C   UNL     1      -7.073   8.787  -2.680  1.00  0.00     0.147 C 
BRANCH  23  25
ATOM     25  C   UNL     1      -9.288   7.843  -3.281  1.00  0.00     0.174 C 
BRANCH  25  26
ATOM     26  C   UNL     1     -10.633   7.463  -2.618  1.00  0.00     0.038 C 
BRANCH  26  27
ATOM     27  C   UNL     1     -11.824   8.419  -2.852  1.00  0.00    -0.015 C 
ATOM     28  C   UNL     1     -12.674   8.010  -4.055  1.00  0.00     0.007 C 
ATOM     29  C   UNL     1     -12.699   8.613  -1.617  1.00  0.00     0.007 C 
ENDBRANCH  26  27
ENDBRANCH  25  26
BRANCH  25  30
ATOM     30  C   UNL     1      -8.918   6.954  -4.490  1.00  0.00     0.243 C 
ATOM     31  O   UNL     1      -9.191   7.280  -5.644  1.00  0.00    -0.273 OA
ATOM     32  N   UNL     1      -8.273   5.782  -4.190  1.00  0.00    -0.342 N 
ATOM     33  H   UNL     1      -7.956   5.649  -3.226  1.00  0.00     0.164 HD
BRANCH  32  34
ATOM     34  C   UNL     1      -7.871   4.805  -5.205  1.00  0.00     0.175 C 
BRANCH  34  35
ATOM     35  C   UNL     1      -6.567   5.226  -5.901  1.00  0.00     0.070 C 
BRANCH  35  36
ATOM     36  C   UNL     1      -6.522   4.816  -7.355  1.00  0.00    -0.045 A 
ATOM     37  C   UNL     1      -7.693   4.390  -8.002  1.00  0.00     0.007 A 
ATOM     38  C   UNL     1      -5.316   4.831  -8.069  1.00  0.00     0.007 A 
ATOM     39  C   UNL     1      -7.658   3.996  -9.339  1.00  0.00     0.046 A 
ATOM     40  C   UNL     1      -5.281   4.435  -9.409  1.00  0.00     0.046 A 
ATOM     41  C   UNL     1      -6.453   4.023 -10.032  1.00  0.00     0.115 A 
BRANCH  41  42
ATOM     42  O   UNL     1      -6.462   3.627 -11.337  1.00  0.00    -0.508 OA
ATOM     43  H   UNL     1      -6.695   4.393 -11.886  1.00  0.00     0.293 HD
ENDBRANCH  41  42
ENDBRANCH  35  36
ENDBRANCH  34  35
BRANCH  34  44
ATOM     44  C   UNL     1      -7.739   3.427  -4.518  1.00  0.00     0.243 C 
ATOM     45  O   UNL     1      -8.683   2.682  -4.271  1.00  0.00    -0.273 OA
ATOM     46  N   UNL     1      -6.461   3.153  -4.079  1.00  0.00    -0.341 N 
ATOM     47  H   UNL     1      -5.735   3.854  -4.203  1.00  0.00     0.164 HD
BRANCH  46  48
ATOM     48  C   UNL     1      -6.106   1.939  -3.340  1.00  0.00     0.196 C 
BRANCH  48  49
ATOM     49  C   UNL     1      -4.665   1.497  -3.648  1.00  0.00     0.072 C 
BRANCH  49  50
ATOM     50  C   UNL     1      -4.491   1.038  -5.078  1.00  0.00    -0.045 A 
ATOM     51  C   UNL     1      -4.601  -0.324  -5.394  1.00  0.00     0.007 A 
ATOM     52  C   UNL     1      -4.199   1.953  -6.098  1.00  0.00     0.007 A 
ATOM     53  C   UNL     1      -4.429  -0.761  -6.707  1.00  0.00     0.046 A 
ATOM     54  C   UNL     1      -4.026   1.515  -7.414  1.00  0.00     0.046 A 
ATOM     55  C   UNL     1      -4.143   0.161  -7.707  1.00  0.00     0.115 A 
BRANCH  55  56
ATOM     56  O   UNL     1      -3.981  -0.307  -8.977  1.00  0.00    -0.508 OA
ATOM     57  H   UNL     1      -4.041  -1.275  -8.957  1.00  0.00     0.293 HD
ENDBRANCH  55  56
ENDBRANCH  49  50
ENDBRANCH  48  49
BRANCH  48  58
ATOM     58  C   UNL     1      -6.250   2.210  -1.836  1.00  0.00     0.326 C 
ATOM     59  O   UNL     1      -7.274   2.169  -1.173  1.00  0.00    -0.250 OA
BRANCH  58  60
ATOM     60  O   UNL     1      -5.077   2.509  -1.225  1.00  0.00    -0.480 OA
ATOM     61  H   UNL     1      -4.954   3.462  -1.426  1.00  0.00     0.296 HD
ENDBRANCH  58  60
ENDBRANCH  48  58
ENDBRANCH  46  48
ENDBRANCH  34  44
ENDBRANCH  32  34
ENDBRANCH  25  30
ENDBRANCH  23  25
ENDBRANCH   2  23
TORSDOF 28
ENDMDL
MODEL 24
REMARK VINA RESULT:    -5.353      2.596      7.832
REMARK INTER + INTRA:         -19.279
REMARK INTER:                 -12.254
REMARK INTRA:                  -7.025
REMARK UNBOUND:                -5.946
REMARK SMILES CCCCCCC[C@H](N)[C@H](O)C(=O)N[C@H](C)C(=O)N(C)[C@H](CC(C)C)C(=O)N[C@@H](Cc1ccc(O)cc1)C(=O)N[C@@H](Cc1ccc(O)cc1)C(=O)O
REMARK SMILES IDX 18 1 17 2 15 3 16 4 14 5 12 6 13 7 10 9 11 10 8 12 9 13 7 16
REMARK SMILES IDX 6 17 5 18 4 19 3 20 2 21 1 22 19 23 20 24 21 25 22 26 23 27
REMARK SMILES IDX 24 28 25 29 26 30 27 31 28 32 29 34 30 35 31 36 32 37 37 38
REMARK SMILES IDX 33 39 36 40 34 41 35 42 38 44 39 45 40 46 41 48 42 49 43 50
REMARK SMILES IDX 44 51 49 52 45 53 48 54 46 55 47 56 50 58 51 59 52 60
REMARK H PARENT 14 8 11 11 9 14 9 15 28 33 35 43 40 47 47 57 52 61
ROOT
ATOM      1  O   UNL     1      -6.118   7.709  -9.690  1.00  0.00    -0.272 OA
ATOM      2  C   UNL     1      -5.023   8.037 -10.171  1.00  0.00     0.245 C 
ENDROOT
BRANCH   2   3
ATOM      3  C   UNL     1      -4.378   9.367  -9.706  1.00  0.00     0.168 C 
ATOM      4  C   UNL     1      -4.248  10.342 -10.870  1.00  0.00     0.041 C 
BRANCH   3   5
ATOM      5  N   UNL     1      -5.014   9.983  -8.551  1.00  0.00    -0.342 N 
ATOM      6  C   UNL     1      -4.573   9.747  -7.266  1.00  0.00     0.251 C 
ATOM      7  O   UNL     1      -3.654   8.981  -6.996  1.00  0.00    -0.272 OA
ATOM      8  H   UNL     1      -5.808  10.611  -8.648  1.00  0.00     0.164 HD
BRANCH   6   9
ATOM      9  C   UNL     1      -5.298  10.611  -6.222  1.00  0.00     0.219 C 
BRANCH   9  10
ATOM     10  O   UNL     1      -5.371  11.991  -6.600  1.00  0.00    -0.382 OA
ATOM     11  H   UNL     1      -4.891  12.454  -5.879  1.00  0.00     0.211 HD
ENDBRANCH   9  10
BRANCH   9  12
ATOM     12  C   UNL     1      -6.702  10.068  -5.850  1.00  0.00     0.089 C 
BRANCH  12  13
ATOM     13  N   UNL     1      -6.956   8.845  -6.646  1.00  0.00    -0.325 NA
ATOM     14  H   UNL     1      -7.810   8.970  -7.192  1.00  0.00     0.119 HD
ATOM     15  H   UNL     1      -7.158   8.071  -6.009  1.00  0.00     0.119 HD
ENDBRANCH  12  13
BRANCH  12  16
ATOM     16  C   UNL     1      -6.944   9.784  -4.348  1.00  0.00     0.022 C 
BRANCH  16  17
ATOM     17  C   UNL     1      -7.357   8.371  -3.912  1.00  0.00     0.002 C 
BRANCH  17  18
ATOM     18  C   UNL     1      -8.760   8.265  -3.319  1.00  0.00     0.000 C 
BRANCH  18  19
ATOM     19  C   UNL     1      -8.989   7.001  -2.478  1.00  0.00    -0.000 C 
BRANCH  19  20
ATOM     20  C   UNL     1      -7.777   6.532  -1.668  1.00  0.00    -0.000 C 
BRANCH  20  21
ATOM     21  C   UNL     1      -7.993   5.172  -0.999  1.00  0.00    -0.003 C 
ATOM     22  C   UNL     1      -9.373   4.613  -1.312  1.00  0.00     0.004 C 
ENDBRANCH  20  21
ENDBRANCH  19  20
ENDBRANCH  18  19
ENDBRANCH  17  18
ENDBRANCH  16  17
ENDBRANCH  12  16
ENDBRANCH   9  12
ENDBRANCH   6   9
ENDBRANCH   3   5
ENDBRANCH   2   3
BRANCH   2  23
ATOM     23  N   UNL     1      -4.344   7.165 -11.014  1.00  0.00    -0.332 N 
ATOM     24  C   UNL     1      -4.579   7.048 -12.446  1.00  0.00     0.147 C 
BRANCH  23  25
ATOM     25  C   UNL     1      -3.203   6.358 -10.499  1.00  0.00     0.174 C 
BRANCH  25  26
ATOM     26  C   UNL     1      -1.967   6.403 -11.427  1.00  0.00     0.038 C 
BRANCH  26  27
ATOM     27  C   UNL     1      -0.950   7.541 -11.185  1.00  0.00    -0.015 C 
ATOM     28  C   UNL     1      -1.100   8.682 -12.191  1.00  0.00     0.007 C 
ATOM     29  C   UNL     1      -0.969   8.078  -9.756  1.00  0.00     0.007 C 
ENDBRANCH  26  27
ENDBRANCH  25  26
BRANCH  25  30
ATOM     30  C   UNL     1      -3.675   4.925 -10.160  1.00  0.00     0.243 C 
ATOM     31  O   UNL     1      -3.158   3.933 -10.671  1.00  0.00    -0.273 OA
ATOM     32  N   UNL     1      -4.707   4.838  -9.262  1.00  0.00    -0.342 N 
ATOM     33  H   UNL     1      -4.987   5.694  -8.776  1.00  0.00     0.164 HD
BRANCH  32  34
ATOM     34  C   UNL     1      -5.300   3.564  -8.844  1.00  0.00     0.175 C 
BRANCH  34  35
ATOM     35  C   UNL     1      -4.664   3.052  -7.543  1.00  0.00     0.070 C 
BRANCH  35  36
ATOM     36  C   UNL     1      -4.424   1.559  -7.558  1.00  0.00    -0.045 A 
ATOM     37  C   UNL     1      -4.203   0.896  -8.775  1.00  0.00     0.007 A 
ATOM     38  C   UNL     1      -4.441   0.816  -6.370  1.00  0.00     0.007 A 
ATOM     39  C   UNL     1      -3.994  -0.483  -8.800  1.00  0.00     0.046 A 
ATOM     40  C   UNL     1      -4.233  -0.565  -6.395  1.00  0.00     0.046 A 
ATOM     41  C   UNL     1      -4.010  -1.202  -7.611  1.00  0.00     0.115 A 
BRANCH  41  42
ATOM     42  O   UNL     1      -3.805  -2.549  -7.680  1.00  0.00    -0.508 OA
ATOM     43  H   UNL     1      -3.772  -2.804  -8.617  1.00  0.00     0.293 HD
ENDBRANCH  41  42
ENDBRANCH  35  36
ENDBRANCH  34  35
BRANCH  34  44
ATOM     44  C   UNL     1      -6.825   3.771  -8.699  1.00  0.00     0.243 C 
ATOM     45  O   UNL     1      -7.663   3.322  -9.476  1.00  0.00    -0.273 OA
ATOM     46  N   UNL     1      -7.167   4.629  -7.676  1.00  0.00    -0.341 N 
ATOM     47  H   UNL     1      -6.429   5.069  -7.132  1.00  0.00     0.164 HD
BRANCH  46  48
ATOM     48  C   UNL     1      -8.546   5.031  -7.388  1.00  0.00     0.196 C 
BRANCH  48  49
ATOM     49  C   UNL     1      -8.749   5.302  -5.888  1.00  0.00     0.072 C 
BRANCH  49  50
ATOM     50  C   UNL     1      -7.753   4.564  -5.023  1.00  0.00    -0.045 A 
ATOM     51  C   UNL     1      -6.487   5.118  -4.787  1.00  0.00     0.007 A 
ATOM     52  C   UNL     1      -8.067   3.317  -4.467  1.00  0.00     0.007 A 
ATOM     53  C   UNL     1      -5.555   4.440  -4.001  1.00  0.00     0.046 A 
ATOM     54  C   UNL     1      -7.133   2.637  -3.681  1.00  0.00     0.046 A 
ATOM     55  C   UNL     1      -5.884   3.206  -3.454  1.00  0.00     0.115 A 
BRANCH  55  56
ATOM     56  O   UNL     1      -4.945   2.575  -2.694  1.00  0.00    -0.508 OA
ATOM     57  H   UNL     1      -4.918   3.002  -1.823  1.00  0.00     0.293 HD
ENDBRANCH  55  56
ENDBRANCH  49  50
ENDBRANCH  48  49
BRANCH  48  58
ATOM     58  C   UNL     1      -8.875   6.298  -8.190  1.00  0.00     0.326 C 
ATOM     59  O   UNL     1      -9.288   7.360  -7.756  1.00  0.00    -0.250 OA
BRANCH  58  60
ATOM     60  O   UNL     1      -8.649   6.169  -9.522  1.00  0.00    -0.480 OA
ATOM     61  H   UNL     1      -9.523   5.892  -9.874  1.00  0.00     0.296 HD
ENDBRANCH  58  60
ENDBRANCH  48  58
ENDBRANCH  46  48
ENDBRANCH  34  44
ENDBRANCH  32  34
ENDBRANCH  25  30
ENDBRANCH  23  25
ENDBRANCH   2  23
TORSDOF 28
ENDMDL
MODEL 25
REMARK VINA RESULT:    -5.351      2.631      8.056
REMARK INTER + INTRA:         -19.273
REMARK INTER:                 -13.028
REMARK INTRA:                  -6.246
REMARK UNBOUND:                -5.946
REMARK SMILES CCCCCCC[C@H](N)[C@H](O)C(=O)N[C@H](C)C(=O)N(C)[C@H](CC(C)C)C(=O)N[C@@H](Cc1ccc(O)cc1)C(=O)N[C@@H](Cc1ccc(O)cc1)C(=O)O
REMARK SMILES IDX 18 1 17 2 15 3 16 4 14 5 12 6 13 7 10 9 11 10 8 12 9 13 7 16
REMARK SMILES IDX 6 17 5 18 4 19 3 20 2 21 1 22 19 23 20 24 21 25 22 26 23 27
REMARK SMILES IDX 24 28 25 29 26 30 27 31 28 32 29 34 30 35 31 36 32 37 37 38
REMARK SMILES IDX 33 39 36 40 34 41 35 42 38 44 39 45 40 46 41 48 42 49 43 50
REMARK SMILES IDX 44 51 49 52 45 53 48 54 46 55 47 56 50 58 51 59 52 60
REMARK H PARENT 14 8 11 11 9 14 9 15 28 33 35 43 40 47 47 57 52 61
ROOT
ATOM      1  O   UNL     1      -5.481   8.259  -9.918  1.00  0.00    -0.272 OA
ATOM      2  C   UNL     1      -5.523   7.975 -11.124  1.00  0.00     0.245 C 
ENDROOT
BRANCH   2   3
ATOM      3  C   UNL     1      -6.907   7.866 -11.811  1.00  0.00     0.168 C 
ATOM      4  C   UNL     1      -7.100   6.483 -12.423  1.00  0.00     0.041 C 
BRANCH   3   5
ATOM      5  N   UNL     1      -8.035   8.252 -10.978  1.00  0.00    -0.342 N 
ATOM      6  C   UNL     1      -9.094   8.980 -11.478  1.00  0.00     0.251 C 
ATOM      7  O   UNL     1      -9.149   9.389 -12.633  1.00  0.00    -0.272 OA
ATOM      8  H   UNL     1      -8.086   8.000  -9.993  1.00  0.00     0.164 HD
BRANCH   6   9
ATOM      9  C   UNL     1     -10.233   9.149 -10.459  1.00  0.00     0.219 C 
BRANCH   9  10
ATOM     10  O   UNL     1     -10.938  10.386 -10.619  1.00  0.00    -0.382 OA
ATOM     11  H   UNL     1     -10.526  10.785 -11.416  1.00  0.00     0.211 HD
ENDBRANCH   9  10
BRANCH   9  12
ATOM     12  C   UNL     1     -11.219   7.951 -10.444  1.00  0.00     0.089 C 
BRANCH  12  13
ATOM     13  N   UNL     1     -10.661   6.876 -11.295  1.00  0.00    -0.325 NA
ATOM     14  H   UNL     1     -10.737   7.150 -12.277  1.00  0.00     0.119 HD
ATOM     15  H   UNL     1     -11.248   6.043 -11.204  1.00  0.00     0.119 HD
ENDBRANCH  12  13
BRANCH  12  16
ATOM     16  C   UNL     1     -11.582   7.390  -9.049  1.00  0.00     0.022 C 
BRANCH  16  17
ATOM     17  C   UNL     1     -11.048   8.099  -7.796  1.00  0.00     0.002 C 
BRANCH  17  18
ATOM     18  C   UNL     1     -12.016   8.137  -6.615  1.00  0.00     0.000 C 
BRANCH  18  19
ATOM     19  C   UNL     1     -11.522   7.376  -5.378  1.00  0.00    -0.000 C 
BRANCH  19  20
ATOM     20  C   UNL     1     -10.038   6.996  -5.398  1.00  0.00    -0.000 C 
BRANCH  20  21
ATOM     21  C   UNL     1      -9.598   6.235  -4.145  1.00  0.00    -0.003 C 
ATOM     22  C   UNL     1     -10.046   4.783  -4.191  1.00  0.00     0.004 C 
ENDBRANCH  20  21
ENDBRANCH  19  20
ENDBRANCH  18  19
ENDBRANCH  17  18
ENDBRANCH  16  17
ENDBRANCH  12  16
ENDBRANCH   9  12
ENDBRANCH   6   9
ENDBRANCH   3   5
ENDBRANCH   2   3
BRANCH   2  23
ATOM     23  N   UNL     1      -4.346   7.881 -11.858  1.00  0.00    -0.332 N 
ATOM     24  C   UNL     1      -4.051   8.664 -13.049  1.00  0.00     0.147 C 
BRANCH  23  25
ATOM     25  C   UNL     1      -3.225   7.030 -11.375  1.00  0.00     0.174 C 
BRANCH  25  26
ATOM     26  C   UNL     1      -1.920   7.239 -12.178  1.00  0.00     0.038 C 
BRANCH  26  27
ATOM     27  C   UNL     1      -0.628   7.478 -11.365  1.00  0.00    -0.015 C 
ATOM     28  C   UNL     1      -0.841   7.300  -9.862  1.00  0.00     0.007 C 
ATOM     29  C   UNL     1       0.555   6.639 -11.843  1.00  0.00     0.007 C 
ENDBRANCH  26  27
ENDBRANCH  25  26
BRANCH  25  30
ATOM     30  C   UNL     1      -3.675   5.553 -11.293  1.00  0.00     0.243 C 
ATOM     31  O   UNL     1      -4.001   4.917 -12.294  1.00  0.00    -0.273 OA
ATOM     32  N   UNL     1      -3.690   5.006 -10.036  1.00  0.00    -0.342 N 
ATOM     33  H   UNL     1      -3.272   5.550  -9.277  1.00  0.00     0.164 HD
BRANCH  32  34
ATOM     34  C   UNL     1      -4.114   3.630  -9.766  1.00  0.00     0.175 C 
BRANCH  34  35
ATOM     35  C   UNL     1      -3.091   2.892  -8.889  1.00  0.00     0.070 C 
BRANCH  35  36
ATOM     36  C   UNL     1      -3.525   1.485  -8.541  1.00  0.00    -0.045 A 
ATOM     37  C   UNL     1      -3.864   1.163  -7.218  1.00  0.00     0.007 A 
ATOM     38  C   UNL     1      -3.573   0.485  -9.521  1.00  0.00     0.007 A 
ATOM     39  C   UNL     1      -4.253  -0.135  -6.885  1.00  0.00     0.046 A 
ATOM     40  C   UNL     1      -3.961  -0.815  -9.188  1.00  0.00     0.046 A 
ATOM     41  C   UNL     1      -4.299  -1.113  -7.872  1.00  0.00     0.115 A 
BRANCH  41  42
ATOM     42  O   UNL     1      -4.680  -2.370  -7.504  1.00  0.00    -0.508 OA
ATOM     43  H   UNL     1      -4.296  -3.001  -8.135  1.00  0.00     0.293 HD
ENDBRANCH  41  42
ENDBRANCH  35  36
ENDBRANCH  34  35
BRANCH  34  44
ATOM     44  C   UNL     1      -5.511   3.680  -9.106  1.00  0.00     0.243 C 
ATOM     45  O   UNL     1      -6.436   2.921  -9.381  1.00  0.00    -0.273 OA
ATOM     46  N   UNL     1      -5.677   4.752  -8.255  1.00  0.00    -0.341 N 
ATOM     47  H   UNL     1      -4.918   5.420  -8.148  1.00  0.00     0.164 HD
BRANCH  46  48
ATOM     48  C   UNL     1      -6.936   5.046  -7.567  1.00  0.00     0.196 C 
BRANCH  48  49
ATOM     49  C   UNL     1      -6.689   5.768  -6.231  1.00  0.00     0.072 C 
BRANCH  49  50
ATOM     50  C   UNL     1      -6.232   4.829  -5.138  1.00  0.00    -0.045 A 
ATOM     51  C   UNL     1      -6.155   3.451  -5.388  1.00  0.00     0.007 A 
ATOM     52  C   UNL     1      -5.902   5.311  -3.865  1.00  0.00     0.007 A 
ATOM     53  C   UNL     1      -5.747   2.573  -4.383  1.00  0.00     0.046 A 
ATOM     54  C   UNL     1      -5.495   4.432  -2.859  1.00  0.00     0.046 A 
ATOM     55  C   UNL     1      -5.420   3.070  -3.127  1.00  0.00     0.115 A 
BRANCH  55  56
ATOM     56  O   UNL     1      -5.028   2.179  -2.172  1.00  0.00    -0.508 OA
ATOM     57  H   UNL     1      -5.111   2.604  -1.304  1.00  0.00     0.293 HD
ENDBRANCH  55  56
ENDBRANCH  49  50
ENDBRANCH  48  49
BRANCH  48  58
ATOM     58  C   UNL     1      -7.807   5.926  -8.474  1.00  0.00     0.326 C 
ATOM     59  O   UNL     1      -8.608   5.554  -9.316  1.00  0.00    -0.250 OA
BRANCH  58  60
ATOM     60  O   UNL     1      -7.637   7.256  -8.264  1.00  0.00    -0.480 OA
ATOM     61  H   UNL     1      -7.446   7.310  -7.302  1.00  0.00     0.296 HD
ENDBRANCH  58  60
ENDBRANCH  48  58
ENDBRANCH  46  48
ENDBRANCH  34  44
ENDBRANCH  32  34
ENDBRANCH  25  30
ENDBRANCH  23  25
ENDBRANCH   2  23
TORSDOF 28
ENDMDL
MODEL 26
REMARK VINA RESULT:    -5.349      2.545      4.695
REMARK INTER + INTRA:         -19.269
REMARK INTER:                 -14.871
REMARK INTRA:                  -4.398
REMARK UNBOUND:                -5.946
REMARK SMILES CCCCCCC[C@H](N)[C@H](O)C(=O)N[C@H](C)C(=O)N(C)[C@H](CC(C)C)C(=O)N[C@@H](Cc1ccc(O)cc1)C(=O)N[C@@H](Cc1ccc(O)cc1)C(=O)O
REMARK SMILES IDX 18 1 17 2 15 3 16 4 14 5 12 6 13 7 10 9 11 10 8 12 9 13 7 16
REMARK SMILES IDX 6 17 5 18 4 19 3 20 2 21 1 22 19 23 20 24 21 25 22 26 23 27
REMARK SMILES IDX 24 28 25 29 26 30 27 31 28 32 29 34 30 35 31 36 32 37 37 38
REMARK SMILES IDX 33 39 36 40 34 41 35 42 38 44 39 45 40 46 41 48 42 49 43 50
REMARK SMILES IDX 44 51 49 52 45 53 48 54 46 55 47 56 50 58 51 59 52 60
REMARK H PARENT 14 8 11 11 9 14 9 15 28 33 35 43 40 47 47 57 52 61
ROOT
ATOM      1  O   UNL     1      -4.147   5.983  -9.193  1.00  0.00    -0.272 OA
ATOM      2  C   UNL     1      -5.002   5.842 -10.080  1.00  0.00     0.245 C 
ENDROOT
BRANCH   2   3
ATOM      3  C   UNL     1      -4.849   4.666 -11.076  1.00  0.00     0.168 C 
ATOM      4  C   UNL     1      -4.545   5.180 -12.479  1.00  0.00     0.041 C 
BRANCH   3   5
ATOM      5  N   UNL     1      -3.912   3.633 -10.663  1.00  0.00    -0.342 N 
ATOM      6  C   UNL     1      -4.295   2.584  -9.853  1.00  0.00     0.251 C 
ATOM      7  O   UNL     1      -5.425   2.464  -9.392  1.00  0.00    -0.272 OA
ATOM      8  H   UNL     1      -2.937   3.645 -10.954  1.00  0.00     0.164 HD
BRANCH   6   9
ATOM      9  C   UNL     1      -3.181   1.542  -9.664  1.00  0.00     0.219 C 
BRANCH   9  10
ATOM     10  O   UNL     1      -2.501   1.682  -8.411  1.00  0.00    -0.382 OA
ATOM     11  H   UNL     1      -2.090   2.573  -8.469  1.00  0.00     0.211 HD
ENDBRANCH   9  10
BRANCH   9  12
ATOM     12  C   UNL     1      -3.670   0.084  -9.865  1.00  0.00     0.089 C 
BRANCH  12  13
ATOM     13  N   UNL     1      -3.144  -0.412 -11.157  1.00  0.00    -0.325 NA
ATOM     14  H   UNL     1      -3.715  -1.198 -11.473  1.00  0.00     0.119 HD
ATOM     15  H   UNL     1      -2.211  -0.802 -11.007  1.00  0.00     0.119 HD
ENDBRANCH  12  13
BRANCH  12  16
ATOM     16  C   UNL     1      -3.321  -0.911  -8.732  1.00  0.00     0.022 C 
BRANCH  16  17
ATOM     17  C   UNL     1      -4.345  -1.162  -7.616  1.00  0.00     0.002 C 
BRANCH  17  18
ATOM     18  C   UNL     1      -4.193  -2.497  -6.891  1.00  0.00     0.000 C 
BRANCH  18  19
ATOM     19  C   UNL     1      -3.218  -3.469  -7.568  1.00  0.00    -0.000 C 
BRANCH  19  20
ATOM     20  C   UNL     1      -3.038  -4.812  -6.855  1.00  0.00    -0.000 C 
BRANCH  20  21
ATOM     21  C   UNL     1      -1.682  -4.944  -6.157  1.00  0.00    -0.003 C 
ATOM     22  C   UNL     1      -1.848  -5.238  -4.674  1.00  0.00     0.004 C 
ENDBRANCH  20  21
ENDBRANCH  19  20
ENDBRANCH  18  19
ENDBRANCH  17  18
ENDBRANCH  16  17
ENDBRANCH  12  16
ENDBRANCH   9  12
ENDBRANCH   6   9
ENDBRANCH   3   5
ENDBRANCH   2   3
BRANCH   2  23
ATOM     23  N   UNL     1      -6.132   6.653 -10.094  1.00  0.00    -0.332 N 
ATOM     24  C   UNL     1      -6.111   8.094 -10.297  1.00  0.00     0.147 C 
BRANCH  23  25
ATOM     25  C   UNL     1      -7.491   6.050 -10.022  1.00  0.00     0.174 C 
BRANCH  25  26
ATOM     26  C   UNL     1      -8.619   7.074 -10.285  1.00  0.00     0.038 C 
BRANCH  26  27
ATOM     27  C   UNL     1      -9.626   7.316  -9.139  1.00  0.00    -0.015 C 
ATOM     28  C   UNL     1      -9.423   8.670  -8.459  1.00  0.00     0.007 C 
ATOM     29  C   UNL     1     -11.082   7.141  -9.562  1.00  0.00     0.007 C 
ENDBRANCH  26  27
ENDBRANCH  25  26
BRANCH  25  30
ATOM     30  C   UNL     1      -7.657   5.268  -8.699  1.00  0.00     0.243 C 
ATOM     31  O   UNL     1      -8.276   4.206  -8.645  1.00  0.00    -0.273 OA
ATOM     32  N   UNL     1      -7.076   5.839  -7.596  1.00  0.00    -0.342 N 
ATOM     33  H   UNL     1      -6.462   6.643  -7.747  1.00  0.00     0.164 HD
BRANCH  32  34
ATOM     34  C   UNL     1      -7.155   5.253  -6.255  1.00  0.00     0.175 C 
BRANCH  34  35
ATOM     35  C   UNL     1      -5.770   5.179  -5.595  1.00  0.00     0.070 C 
BRANCH  35  36
ATOM     36  C   UNL     1      -5.413   3.783  -5.137  1.00  0.00    -0.045 A 
ATOM     37  C   UNL     1      -4.601   2.967  -5.940  1.00  0.00     0.007 A 
ATOM     38  C   UNL     1      -5.903   3.276  -3.927  1.00  0.00     0.007 A 
ATOM     39  C   UNL     1      -4.278   1.672  -5.533  1.00  0.00     0.046 A 
ATOM     40  C   UNL     1      -5.582   1.979  -3.519  1.00  0.00     0.046 A 
ATOM     41  C   UNL     1      -4.770   1.189  -4.326  1.00  0.00     0.115 A 
BRANCH  41  42
ATOM     42  O   UNL     1      -4.434  -0.083  -3.967  1.00  0.00    -0.508 OA
ATOM     43  H   UNL     1      -4.442  -0.637  -4.765  1.00  0.00     0.293 HD
ENDBRANCH  41  42
ENDBRANCH  35  36
ENDBRANCH  34  35
BRANCH  34  44
ATOM     44  C   UNL     1      -8.147   6.096  -5.422  1.00  0.00     0.243 C 
ATOM     45  O   UNL     1      -9.305   6.334  -5.754  1.00  0.00    -0.273 OA
ATOM     46  N   UNL     1      -7.574   6.680  -4.312  1.00  0.00    -0.341 N 
ATOM     47  H   UNL     1      -6.580   6.548  -4.142  1.00  0.00     0.164 HD
BRANCH  46  48
ATOM     48  C   UNL     1      -8.298   7.576  -3.409  1.00  0.00     0.196 C 
BRANCH  48  49
ATOM     49  C   UNL     1      -8.286   7.047  -1.965  1.00  0.00     0.072 C 
BRANCH  49  50
ATOM     50  C   UNL     1      -8.823   5.638  -1.857  1.00  0.00    -0.045 A 
ATOM     51  C   UNL     1     -10.094   5.334  -2.367  1.00  0.00     0.007 A 
ATOM     52  C   UNL     1      -8.079   4.628  -1.234  1.00  0.00     0.007 A 
ATOM     53  C   UNL     1     -10.607   4.041  -2.261  1.00  0.00     0.046 A 
ATOM     54  C   UNL     1      -8.593   3.333  -1.128  1.00  0.00     0.046 A 
ATOM     55  C   UNL     1      -9.853   3.051  -1.643  1.00  0.00     0.115 A 
BRANCH  55  56
ATOM     56  O   UNL     1     -10.390   1.800  -1.559  1.00  0.00    -0.508 OA
ATOM     57  H   UNL     1     -10.923   1.751  -0.750  1.00  0.00     0.293 HD
ENDBRANCH  55  56
ENDBRANCH  49  50
ENDBRANCH  48  49
BRANCH  48  58
ATOM     58  C   UNL     1      -7.645   8.965  -3.454  1.00  0.00     0.326 C 
ATOM     59  O   UNL     1      -6.643   9.291  -4.069  1.00  0.00    -0.250 OA
BRANCH  58  60
ATOM     60  O   UNL     1      -8.305   9.897  -2.721  1.00  0.00    -0.480 OA
ATOM     61  H   UNL     1      -7.599  10.283  -2.158  1.00  0.00     0.296 HD
ENDBRANCH  58  60
ENDBRANCH  48  58
ENDBRANCH  46  48
ENDBRANCH  34  44
ENDBRANCH  32  34
ENDBRANCH  25  30
ENDBRANCH  23  25
ENDBRANCH   2  23
TORSDOF 28
ENDMDL
MODEL 27
REMARK VINA RESULT:    -5.343     15.281     20.222
REMARK INTER + INTRA:         -19.254
REMARK INTER:                 -13.215
REMARK INTRA:                  -6.040
REMARK UNBOUND:                -5.946
REMARK SMILES CCCCCCC[C@H](N)[C@H](O)C(=O)N[C@H](C)C(=O)N(C)[C@H](CC(C)C)C(=O)N[C@@H](Cc1ccc(O)cc1)C(=O)N[C@@H](Cc1ccc(O)cc1)C(=O)O
REMARK SMILES IDX 18 1 17 2 15 3 16 4 14 5 12 6 13 7 10 9 11 10 8 12 9 13 7 16
REMARK SMILES IDX 6 17 5 18 4 19 3 20 2 21 1 22 19 23 20 24 21 25 22 26 23 27
REMARK SMILES IDX 24 28 25 29 26 30 27 31 28 32 29 34 30 35 31 36 32 37 37 38
REMARK SMILES IDX 33 39 36 40 34 41 35 42 38 44 39 45 40 46 41 48 42 49 43 50
REMARK SMILES IDX 44 51 49 52 45 53 48 54 46 55 47 56 50 58 51 59 52 60
REMARK H PARENT 14 8 11 11 9 14 9 15 28 33 35 43 40 47 47 57 52 61
ROOT
ATOM      1  O   UNL     1       0.751   6.234  10.106  1.00  0.00    -0.272 OA
ATOM      2  C   UNL     1       0.733   6.091  11.338  1.00  0.00     0.245 C 
ENDROOT
BRANCH   2   3
ATOM      3  C   UNL     1      -0.253   5.064  11.950  1.00  0.00     0.168 C 
ATOM      4  C   UNL     1      -1.493   4.917  11.076  1.00  0.00     0.041 C 
BRANCH   3   5
ATOM      5  N   UNL     1       0.335   3.775  12.280  1.00  0.00    -0.342 N 
ATOM      6  C   UNL     1       0.228   3.228  13.541  1.00  0.00     0.251 C 
ATOM      7  O   UNL     1      -0.324   3.793  14.479  1.00  0.00    -0.272 OA
ATOM      8  H   UNL     1       0.847   3.228  11.592  1.00  0.00     0.164 HD
BRANCH   6   9
ATOM      9  C   UNL     1       0.797   1.802  13.620  1.00  0.00     0.219 C 
BRANCH   9  10
ATOM     10  O   UNL     1       1.399   1.517  14.888  1.00  0.00    -0.382 OA
ATOM     11  H   UNL     1       0.633   1.313  15.468  1.00  0.00     0.211 HD
ENDBRANCH   9  10
BRANCH   9  12
ATOM     12  C   UNL     1      -0.239   0.711  13.245  1.00  0.00     0.089 C 
BRANCH  12  13
ATOM     13  N   UNL     1      -1.593   1.305  13.324  1.00  0.00    -0.325 NA
ATOM     14  H   UNL     1      -2.245   0.728  12.789  1.00  0.00     0.119 HD
ATOM     15  H   UNL     1      -1.585   2.211  12.848  1.00  0.00     0.119 HD
ENDBRANCH  12  13
BRANCH  12  16
ATOM     16  C   UNL     1      -0.037   0.028  11.871  1.00  0.00     0.022 C 
BRANCH  16  17
ATOM     17  C   UNL     1      -0.514   0.749  10.602  1.00  0.00     0.002 C 
BRANCH  17  18
ATOM     18  C   UNL     1       0.239   0.374   9.327  1.00  0.00     0.000 C 
BRANCH  18  19
ATOM     19  C   UNL     1      -0.527   0.688   8.035  1.00  0.00    -0.000 C 
BRANCH  19  20
ATOM     20  C   UNL     1      -0.478   2.152   7.589  1.00  0.00    -0.000 C 
BRANCH  20  21
ATOM     21  C   UNL     1      -0.798   2.338   6.104  1.00  0.00    -0.003 C 
ATOM     22  C   UNL     1      -2.279   2.129   5.825  1.00  0.00     0.004 C 
ENDBRANCH  20  21
ENDBRANCH  19  20
ENDBRANCH  18  19
ENDBRANCH  17  18
ENDBRANCH  16  17
ENDBRANCH  12  16
ENDBRANCH   9  12
ENDBRANCH   6   9
ENDBRANCH   3   5
ENDBRANCH   2   3
BRANCH   2  23
ATOM     23  N   UNL     1       1.667   6.752  12.129  1.00  0.00    -0.332 N 
ATOM     24  C   UNL     1       1.339   7.764  13.121  1.00  0.00     0.147 C 
BRANCH  23  25
ATOM     25  C   UNL     1       3.100   6.353  12.090  1.00  0.00     0.174 C 
BRANCH  25  26
ATOM     26  C   UNL     1       3.824   6.575  13.439  1.00  0.00     0.038 C 
BRANCH  26  27
ATOM     27  C   UNL     1       5.343   6.295  13.473  1.00  0.00    -0.015 C 
ATOM     28  C   UNL     1       6.137   7.453  14.077  1.00  0.00     0.007 C 
ATOM     29  C   UNL     1       5.703   4.981  14.161  1.00  0.00     0.007 C 
ENDBRANCH  26  27
ENDBRANCH  25  26
BRANCH  25  30
ATOM     30  C   UNL     1       3.807   7.022  10.888  1.00  0.00     0.243 C 
ATOM     31  O   UNL     1       4.125   8.210  10.901  1.00  0.00    -0.273 OA
ATOM     32  N   UNL     1       4.047   6.207   9.812  1.00  0.00    -0.342 N 
ATOM     33  H   UNL     1       3.883   5.204   9.932  1.00  0.00     0.164 HD
BRANCH  32  34
ATOM     34  C   UNL     1       4.682   6.676   8.578  1.00  0.00     0.175 C 
BRANCH  34  35
ATOM     35  C   UNL     1       6.083   6.070   8.405  1.00  0.00     0.070 C 
BRANCH  35  36
ATOM     36  C   UNL     1       7.032   6.466   9.515  1.00  0.00    -0.045 A 
ATOM     37  C   UNL     1       7.435   7.803   9.649  1.00  0.00     0.007 A 
ATOM     38  C   UNL     1       7.536   5.508  10.404  1.00  0.00     0.007 A 
ATOM     39  C   UNL     1       8.321   8.175  10.661  1.00  0.00     0.046 A 
ATOM     40  C   UNL     1       8.424   5.880  11.417  1.00  0.00     0.046 A 
ATOM     41  C   UNL     1       8.807   7.212  11.537  1.00  0.00     0.115 A 
BRANCH  41  42
ATOM     42  O   UNL     1       9.673   7.616  12.510  1.00  0.00    -0.508 OA
ATOM     43  H   UNL     1       9.298   7.369  13.372  1.00  0.00     0.293 HD
ENDBRANCH  41  42
ENDBRANCH  35  36
ENDBRANCH  34  35
BRANCH  34  44
ATOM     44  C   UNL     1       3.750   6.321   7.396  1.00  0.00     0.243 C 
ATOM     45  O   UNL     1       3.891   6.742   6.251  1.00  0.00    -0.273 OA
ATOM     46  N   UNL     1       2.649   5.580   7.769  1.00  0.00    -0.341 N 
ATOM     47  H   UNL     1       2.515   5.354   8.752  1.00  0.00     0.164 HD
BRANCH  46  48
ATOM     48  C   UNL     1       1.592   5.182   6.836  1.00  0.00     0.196 C 
BRANCH  48  49
ATOM     49  C   UNL     1       0.791   6.400   6.346  1.00  0.00     0.072 C 
BRANCH  49  50
ATOM     50  C   UNL     1      -0.696   6.133   6.289  1.00  0.00    -0.045 A 
ATOM     51  C   UNL     1      -1.396   5.822   7.464  1.00  0.00     0.007 A 
ATOM     52  C   UNL     1      -1.389   6.171   5.072  1.00  0.00     0.007 A 
ATOM     53  C   UNL     1      -2.766   5.561   7.422  1.00  0.00     0.046 A 
ATOM     54  C   UNL     1      -2.760   5.909   5.030  1.00  0.00     0.046 A 
ATOM     55  C   UNL     1      -3.437   5.607   6.206  1.00  0.00     0.115 A 
BRANCH  55  56
ATOM     56  O   UNL     1      -4.775   5.344   6.208  1.00  0.00    -0.508 OA
ATOM     57  H   UNL     1      -5.150   5.667   7.042  1.00  0.00     0.293 HD
ENDBRANCH  55  56
ENDBRANCH  49  50
ENDBRANCH  48  49
BRANCH  48  58
ATOM     58  C   UNL     1       2.228   4.467   5.636  1.00  0.00     0.326 C 
ATOM     59  O   UNL     1       2.838   3.410   5.644  1.00  0.00    -0.250 OA
BRANCH  58  60
ATOM     60  O   UNL     1       2.051   5.121   4.461  1.00  0.00    -0.480 OA
ATOM     61  H   UNL     1       1.076   5.216   4.399  1.00  0.00     0.296 HD
ENDBRANCH  58  60
ENDBRANCH  48  58
ENDBRANCH  46  48
ENDBRANCH  34  44
ENDBRANCH  32  34
ENDBRANCH  25  30
ENDBRANCH  23  25
ENDBRANCH   2  23
TORSDOF 28
ENDMDL
MODEL 28
REMARK VINA RESULT:    -5.338      2.118      6.996
REMARK INTER + INTRA:         -19.243
REMARK INTER:                 -14.273
REMARK INTRA:                  -4.970
REMARK UNBOUND:                -5.946
REMARK SMILES CCCCCCC[C@H](N)[C@H](O)C(=O)N[C@H](C)C(=O)N(C)[C@H](CC(C)C)C(=O)N[C@@H](Cc1ccc(O)cc1)C(=O)N[C@@H](Cc1ccc(O)cc1)C(=O)O
REMARK SMILES IDX 18 1 17 2 15 3 16 4 14 5 12 6 13 7 10 9 11 10 8 12 9 13 7 16
REMARK SMILES IDX 6 17 5 18 4 19 3 20 2 21 1 22 19 23 20 24 21 25 22 26 23 27
REMARK SMILES IDX 24 28 25 29 26 30 27 31 28 32 29 34 30 35 31 36 32 37 37 38
REMARK SMILES IDX 33 39 36 40 34 41 35 42 38 44 39 45 40 46 41 48 42 49 43 50
REMARK SMILES IDX 44 51 49 52 45 53 48 54 46 55 47 56 50 58 51 59 52 60
REMARK H PARENT 14 8 11 11 9 14 9 15 28 33 35 43 40 47 47 57 52 61
ROOT
ATOM      1  O   UNL     1      -5.049   7.216  -7.647  1.00  0.00    -0.272 OA
ATOM      2  C   UNL     1      -6.132   7.274  -7.047  1.00  0.00     0.245 C 
ENDROOT
BRANCH   2   3
ATOM      3  C   UNL     1      -7.441   7.147  -7.865  1.00  0.00     0.168 C 
ATOM      4  C   UNL     1      -8.119   8.504  -8.017  1.00  0.00     0.041 C 
BRANCH   3   5
ATOM      5  N   UNL     1      -7.298   6.466  -9.143  1.00  0.00    -0.342 N 
ATOM      6  C   UNL     1      -8.345   5.783  -9.725  1.00  0.00     0.251 C 
ATOM      7  O   UNL     1      -9.447   5.660  -9.200  1.00  0.00    -0.272 OA
ATOM      8  H   UNL     1      -6.420   6.469  -9.657  1.00  0.00     0.164 HD
BRANCH   6   9
ATOM      9  C   UNL     1      -8.009   5.267 -11.133  1.00  0.00     0.219 C 
BRANCH   9  10
ATOM     10  O   UNL     1      -8.974   4.327 -11.622  1.00  0.00    -0.382 OA
ATOM     11  H   UNL     1      -9.494   4.848 -12.273  1.00  0.00     0.211 HD
ENDBRANCH   9  10
BRANCH   9  12
ATOM     12  C   UNL     1      -7.780   6.406 -12.160  1.00  0.00     0.089 C 
BRANCH  12  13
ATOM     13  N   UNL     1      -8.511   7.608 -11.696  1.00  0.00    -0.325 NA
ATOM     14  H   UNL     1      -7.865   8.398 -11.654  1.00  0.00     0.119 HD
ATOM     15  H   UNL     1      -8.814   7.459 -10.731  1.00  0.00     0.119 HD
ENDBRANCH  12  13
BRANCH  12  16
ATOM     16  C   UNL     1      -6.304   6.764 -12.458  1.00  0.00     0.022 C 
BRANCH  16  17
ATOM     17  C   UNL     1      -5.348   5.659 -12.928  1.00  0.00     0.002 C 
BRANCH  17  18
ATOM     18  C   UNL     1      -3.865   6.017 -12.858  1.00  0.00     0.000 C 
BRANCH  18  19
ATOM     19  C   UNL     1      -3.140   5.436 -11.637  1.00  0.00    -0.000 C 
BRANCH  19  20
ATOM     20  C   UNL     1      -1.964   6.271 -11.121  1.00  0.00    -0.000 C 
BRANCH  20  21
ATOM     21  C   UNL     1      -2.004   6.491  -9.607  1.00  0.00    -0.003 C 
ATOM     22  C   UNL     1      -1.860   7.964  -9.256  1.00  0.00     0.004 C 
ENDBRANCH  20  21
ENDBRANCH  19  20
ENDBRANCH  18  19
ENDBRANCH  17  18
ENDBRANCH  16  17
ENDBRANCH  12  16
ENDBRANCH   9  12
ENDBRANCH   6   9
ENDBRANCH   3   5
ENDBRANCH   2   3
BRANCH   2  23
ATOM     23  N   UNL     1      -6.155   7.328  -5.657  1.00  0.00    -0.332 N 
ATOM     24  C   UNL     1      -5.461   8.326  -4.858  1.00  0.00     0.147 C 
BRANCH  23  25
ATOM     25  C   UNL     1      -7.029   6.403  -4.884  1.00  0.00     0.174 C 
BRANCH  25  26
ATOM     26  C   UNL     1      -7.952   7.140  -3.886  1.00  0.00     0.038 C 
BRANCH  26  27
ATOM     27  C   UNL     1      -9.462   7.156  -4.209  1.00  0.00    -0.015 C 
ATOM     28  C   UNL     1      -9.835   6.163  -5.310  1.00  0.00     0.007 C 
ATOM     29  C   UNL     1     -10.348   6.955  -2.983  1.00  0.00     0.007 C 
ENDBRANCH  26  27
ENDBRANCH  25  26
BRANCH  25  30
ATOM     30  C   UNL     1      -6.179   5.285  -4.236  1.00  0.00     0.243 C 
ATOM     31  O   UNL     1      -5.567   5.461  -3.184  1.00  0.00    -0.273 OA
ATOM     32  N   UNL     1      -6.151   4.094  -4.914  1.00  0.00    -0.342 N 
ATOM     33  H   UNL     1      -6.795   3.981  -5.701  1.00  0.00     0.164 HD
BRANCH  32  34
ATOM     34  C   UNL     1      -5.377   2.933  -4.464  1.00  0.00     0.175 C 
BRANCH  34  35
ATOM     35  C   UNL     1      -6.286   1.868  -3.830  1.00  0.00     0.070 C 
BRANCH  35  36
ATOM     36  C   UNL     1      -7.443   2.468  -3.064  1.00  0.00    -0.045 A 
ATOM     37  C   UNL     1      -7.303   2.764  -1.699  1.00  0.00     0.007 A 
ATOM     38  C   UNL     1      -8.671   2.714  -3.692  1.00  0.00     0.007 A 
ATOM     39  C   UNL     1      -8.369   3.304  -0.980  1.00  0.00     0.046 A 
ATOM     40  C   UNL     1      -9.740   3.254  -2.972  1.00  0.00     0.046 A 
ATOM     41  C   UNL     1      -9.578   3.545  -1.622  1.00  0.00     0.115 A 
BRANCH  41  42
ATOM     42  O   UNL     1     -10.596   4.071  -0.883  1.00  0.00    -0.508 OA
ATOM     43  H   UNL     1     -11.371   3.493  -0.977  1.00  0.00     0.293 HD
ENDBRANCH  41  42
ENDBRANCH  35  36
ENDBRANCH  34  35
BRANCH  34  44
ATOM     44  C   UNL     1      -4.596   2.379  -5.676  1.00  0.00     0.243 C 
ATOM     45  O   UNL     1      -3.511   1.809  -5.601  1.00  0.00    -0.273 OA
ATOM     46  N   UNL     1      -5.168   2.697  -6.890  1.00  0.00    -0.341 N 
ATOM     47  H   UNL     1      -6.006   3.273  -6.905  1.00  0.00     0.164 HD
BRANCH  46  48
ATOM     48  C   UNL     1      -4.573   2.339  -8.180  1.00  0.00     0.196 C 
BRANCH  48  49
ATOM     49  C   UNL     1      -4.817   0.859  -8.517  1.00  0.00     0.072 C 
BRANCH  49  50
ATOM     50  C   UNL     1      -3.788   0.303  -9.476  1.00  0.00    -0.045 A 
ATOM     51  C   UNL     1      -2.580   0.986  -9.676  1.00  0.00     0.007 A 
ATOM     52  C   UNL     1      -4.030  -0.878 -10.188  1.00  0.00     0.007 A 
ATOM     53  C   UNL     1      -1.628   0.490 -10.568  1.00  0.00     0.046 A 
ATOM     54  C   UNL     1      -3.078  -1.374 -11.082  1.00  0.00     0.046 A 
ATOM     55  C   UNL     1      -1.884  -0.685 -11.263  1.00  0.00     0.115 A 
BRANCH  55  56
ATOM     56  O   UNL     1      -0.930  -1.135 -12.127  1.00  0.00    -0.508 OA
ATOM     57  H   UNL     1      -1.371  -1.598 -12.857  1.00  0.00     0.293 HD
ENDBRANCH  55  56
ENDBRANCH  49  50
ENDBRANCH  48  49
BRANCH  48  58
ATOM     58  C   UNL     1      -5.185   3.224  -9.274  1.00  0.00     0.326 C 
ATOM     59  O   UNL     1      -5.775   2.857 -10.277  1.00  0.00    -0.250 OA
BRANCH  58  60
ATOM     60  O   UNL     1      -5.035   4.553  -9.043  1.00  0.00    -0.480 OA
ATOM     61  H   UNL     1      -4.604   4.581  -8.161  1.00  0.00     0.296 HD
ENDBRANCH  58  60
ENDBRANCH  48  58
ENDBRANCH  46  48
ENDBRANCH  34  44
ENDBRANCH  32  34
ENDBRANCH  25  30
ENDBRANCH  23  25
ENDBRANCH   2  23
TORSDOF 28
ENDMDL
MODEL 29
REMARK VINA RESULT:    -5.337      4.022      6.110
REMARK INTER + INTRA:         -19.238
REMARK INTER:                 -16.215
REMARK INTRA:                  -3.023
REMARK UNBOUND:                -5.946
REMARK SMILES CCCCCCC[C@H](N)[C@H](O)C(=O)N[C@H](C)C(=O)N(C)[C@H](CC(C)C)C(=O)N[C@@H](Cc1ccc(O)cc1)C(=O)N[C@@H](Cc1ccc(O)cc1)C(=O)O
REMARK SMILES IDX 18 1 17 2 15 3 16 4 14 5 12 6 13 7 10 9 11 10 8 12 9 13 7 16
REMARK SMILES IDX 6 17 5 18 4 19 3 20 2 21 1 22 19 23 20 24 21 25 22 26 23 27
REMARK SMILES IDX 24 28 25 29 26 30 27 31 28 32 29 34 30 35 31 36 32 37 37 38
REMARK SMILES IDX 33 39 36 40 34 41 35 42 38 44 39 45 40 46 41 48 42 49 43 50
REMARK SMILES IDX 44 51 49 52 45 53 48 54 46 55 47 56 50 58 51 59 52 60
REMARK H PARENT 14 8 11 11 9 14 9 15 28 33 35 43 40 47 47 57 52 61
ROOT
ATOM      1  O   UNL     1      -4.010   4.676  -8.216  1.00  0.00    -0.272 OA
ATOM      2  C   UNL     1      -5.125   4.138  -8.279  1.00  0.00     0.245 C 
ENDROOT
BRANCH   2   3
ATOM      3  C   UNL     1      -5.437   3.222  -9.489  1.00  0.00     0.168 C 
ATOM      4  C   UNL     1      -5.752   4.051 -10.729  1.00  0.00     0.041 C 
BRANCH   3   5
ATOM      5  N   UNL     1      -4.435   2.202  -9.758  1.00  0.00    -0.342 N 
ATOM      6  C   UNL     1      -4.501   0.948  -9.189  1.00  0.00     0.251 C 
ATOM      7  O   UNL     1      -5.371   0.612  -8.393  1.00  0.00    -0.272 OA
ATOM      8  H   UNL     1      -3.646   2.376 -10.377  1.00  0.00     0.164 HD
BRANCH   6   9
ATOM      9  C   UNL     1      -3.422  -0.006  -9.726  1.00  0.00     0.219 C 
BRANCH   9  10
ATOM     10  O   UNL     1      -2.123   0.271  -9.188  1.00  0.00    -0.382 OA
ATOM     11  H   UNL     1      -2.139  -0.167  -8.309  1.00  0.00     0.211 HD
ENDBRANCH   9  10
BRANCH   9  12
ATOM     12  C   UNL     1      -3.787  -1.502  -9.544  1.00  0.00     0.089 C 
BRANCH  12  13
ATOM     13  N   UNL     1      -3.390  -2.232 -10.769  1.00  0.00    -0.325 NA
ATOM     14  H   UNL     1      -3.771  -1.751 -11.586  1.00  0.00     0.119 HD
ATOM     15  H   UNL     1      -3.839  -3.151 -10.768  1.00  0.00     0.119 HD
ENDBRANCH  12  13
BRANCH  12  16
ATOM     16  C   UNL     1      -3.193  -2.197  -8.295  1.00  0.00     0.022 C 
BRANCH  16  17
ATOM     17  C   UNL     1      -2.757  -3.666  -8.394  1.00  0.00     0.002 C 
BRANCH  17  18
ATOM     18  C   UNL     1      -3.033  -4.505  -7.149  1.00  0.00     0.000 C 
BRANCH  18  19
ATOM     19  C   UNL     1      -1.772  -4.904  -6.372  1.00  0.00    -0.000 C 
BRANCH  19  20
ATOM     20  C   UNL     1      -2.004  -5.285  -4.907  1.00  0.00    -0.000 C 
BRANCH  20  21
ATOM     21  C   UNL     1      -1.851  -4.101  -3.948  1.00  0.00    -0.003 C 
ATOM     22  C   UNL     1      -2.036  -4.532  -2.501  1.00  0.00     0.004 C 
ENDBRANCH  20  21
ENDBRANCH  19  20
ENDBRANCH  18  19
ENDBRANCH  17  18
ENDBRANCH  16  17
ENDBRANCH  12  16
ENDBRANCH   9  12
ENDBRANCH   6   9
ENDBRANCH   3   5
ENDBRANCH   2   3
BRANCH   2  23
ATOM     23  N   UNL     1      -6.019   4.263  -7.222  1.00  0.00    -0.332 N 
ATOM     24  C   UNL     1      -7.465   4.338  -7.367  1.00  0.00     0.147 C 
BRANCH  23  25
ATOM     25  C   UNL     1      -5.533   4.198  -5.816  1.00  0.00     0.174 C 
BRANCH  25  26
ATOM     26  C   UNL     1      -6.001   2.923  -5.076  1.00  0.00     0.038 C 
BRANCH  26  27
ATOM     27  C   UNL     1      -4.905   2.048  -4.427  1.00  0.00    -0.015 C 
ATOM     28  C   UNL     1      -5.487   0.917  -3.578  1.00  0.00     0.007 C 
ATOM     29  C   UNL     1      -3.893   1.500  -5.430  1.00  0.00     0.007 C 
ENDBRANCH  26  27
ENDBRANCH  25  26
BRANCH  25  30
ATOM     30  C   UNL     1      -5.876   5.509  -5.073  1.00  0.00     0.243 C 
ATOM     31  O   UNL     1      -5.775   6.609  -5.615  1.00  0.00    -0.273 OA
ATOM     32  N   UNL     1      -6.293   5.364  -3.774  1.00  0.00    -0.342 N 
ATOM     33  H   UNL     1      -6.486   4.416  -3.442  1.00  0.00     0.164 HD
BRANCH  32  34
ATOM     34  C   UNL     1      -6.634   6.497  -2.910  1.00  0.00     0.175 C 
BRANCH  34  35
ATOM     35  C   UNL     1      -8.137   6.526  -2.594  1.00  0.00     0.070 C 
BRANCH  35  36
ATOM     36  C   UNL     1      -8.825   5.216  -2.905  1.00  0.00    -0.045 A 
ATOM     37  C   UNL     1      -8.806   4.173  -1.967  1.00  0.00     0.007 A 
ATOM     38  C   UNL     1      -9.468   5.016  -4.134  1.00  0.00     0.007 A 
ATOM     39  C   UNL     1      -9.427   2.956  -2.251  1.00  0.00     0.046 A 
ATOM     40  C   UNL     1     -10.088   3.798  -4.420  1.00  0.00     0.046 A 
ATOM     41  C   UNL     1     -10.063   2.778  -3.474  1.00  0.00     0.115 A 
BRANCH  41  42
ATOM     42  O   UNL     1     -10.655   1.573  -3.714  1.00  0.00    -0.508 OA
ATOM     43  H   UNL     1     -10.017   0.873  -3.498  1.00  0.00     0.293 HD
ENDBRANCH  41  42
ENDBRANCH  35  36
ENDBRANCH  34  35
BRANCH  34  44
ATOM     44  C   UNL     1      -5.776   6.397  -1.629  1.00  0.00     0.243 C 
ATOM     45  O   UNL     1      -5.334   5.348  -1.170  1.00  0.00    -0.273 OA
ATOM     46  N   UNL     1      -5.652   7.595  -0.957  1.00  0.00    -0.341 N 
ATOM     47  H   UNL     1      -6.135   8.415  -1.316  1.00  0.00     0.164 HD
BRANCH  46  48
ATOM     48  C   UNL     1      -4.942   7.735   0.317  1.00  0.00     0.196 C 
BRANCH  48  49
ATOM     49  C   UNL     1      -3.724   8.663   0.180  1.00  0.00     0.072 C 
BRANCH  49  50
ATOM     50  C   UNL     1      -2.412   7.930   0.351  1.00  0.00    -0.045 A 
ATOM     51  C   UNL     1      -2.411   6.569   0.690  1.00  0.00     0.007 A 
ATOM     52  C   UNL     1      -1.190   8.596   0.197  1.00  0.00     0.007 A 
ATOM     53  C   UNL     1      -1.207   5.886   0.863  1.00  0.00     0.046 A 
ATOM     54  C   UNL     1       0.016   7.912   0.371  1.00  0.00     0.046 A 
ATOM     55  C   UNL     1      -0.004   6.561   0.702  1.00  0.00     0.115 A 
BRANCH  55  56
ATOM     56  O   UNL     1       1.150   5.858   0.882  1.00  0.00    -0.508 OA
ATOM     57  H   UNL     1       1.058   5.318   1.683  1.00  0.00     0.293 HD
ENDBRANCH  55  56
ENDBRANCH  49  50
ENDBRANCH  48  49
BRANCH  48  58
ATOM     58  C   UNL     1      -5.908   8.303   1.366  1.00  0.00     0.326 C 
ATOM     59  O   UNL     1      -5.753   8.327   2.577  1.00  0.00    -0.250 OA
BRANCH  58  60
ATOM     60  O   UNL     1      -7.035   8.837   0.832  1.00  0.00    -0.480 OA
ATOM     61  H   UNL     1      -7.132   9.687   1.313  1.00  0.00     0.296 HD
ENDBRANCH  58  60
ENDBRANCH  48  58
ENDBRANCH  46  48
ENDBRANCH  34  44
ENDBRANCH  32  34
ENDBRANCH  25  30
ENDBRANCH  23  25
ENDBRANCH   2  23
TORSDOF 28
ENDMDL
MODEL 30
REMARK VINA RESULT:    -5.321      2.528      8.802
REMARK INTER + INTRA:         -19.198
REMARK INTER:                 -14.586
REMARK INTRA:                  -4.613
REMARK UNBOUND:                -5.946
REMARK SMILES CCCCCCC[C@H](N)[C@H](O)C(=O)N[C@H](C)C(=O)N(C)[C@H](CC(C)C)C(=O)N[C@@H](Cc1ccc(O)cc1)C(=O)N[C@@H](Cc1ccc(O)cc1)C(=O)O
REMARK SMILES IDX 18 1 17 2 15 3 16 4 14 5 12 6 13 7 10 9 11 10 8 12 9 13 7 16
REMARK SMILES IDX 6 17 5 18 4 19 3 20 2 21 1 22 19 23 20 24 21 25 22 26 23 27
REMARK SMILES IDX 24 28 25 29 26 30 27 31 28 32 29 34 30 35 31 36 32 37 37 38
REMARK SMILES IDX 33 39 36 40 34 41 35 42 38 44 39 45 40 46 41 48 42 49 43 50
REMARK SMILES IDX 44 51 49 52 45 53 48 54 46 55 47 56 50 58 51 59 52 60
REMARK H PARENT 14 8 11 11 9 14 9 15 28 33 35 43 40 47 47 57 52 61
ROOT
ATOM      1  O   UNL     1      -5.656   7.224  -5.270  1.00  0.00    -0.272 OA
ATOM      2  C   UNL     1      -6.314   7.630  -6.239  1.00  0.00     0.245 C 
ENDROOT
BRANCH   2   3
ATOM      3  C   UNL     1      -7.819   7.269  -6.317  1.00  0.00     0.168 C 
ATOM      4  C   UNL     1      -8.054   6.136  -7.310  1.00  0.00     0.041 C 
BRANCH   3   5
ATOM      5  N   UNL     1      -8.450   7.004  -5.034  1.00  0.00    -0.342 N 
ATOM      6  C   UNL     1      -9.811   7.135  -4.851  1.00  0.00     0.251 C 
ATOM      7  O   UNL     1     -10.577   7.519  -5.728  1.00  0.00    -0.272 OA
ATOM      8  H   UNL     1      -7.912   6.712  -4.221  1.00  0.00     0.164 HD
BRANCH   6   9
ATOM      9  C   UNL     1     -10.272   6.667  -3.461  1.00  0.00     0.219 C 
BRANCH   9  10
ATOM     10  O   UNL     1     -11.103   7.630  -2.802  1.00  0.00    -0.382 OA
ATOM     11  H   UNL     1     -10.461   8.278  -2.437  1.00  0.00     0.211 HD
ENDBRANCH   9  10
BRANCH   9  12
ATOM     12  C   UNL     1     -10.954   5.274  -3.483  1.00  0.00     0.089 C 
BRANCH  12  13
ATOM     13  N   UNL     1     -12.305   5.424  -4.070  1.00  0.00    -0.325 NA
ATOM     14  H   UNL     1     -12.301   5.050  -5.021  1.00  0.00     0.119 HD
ATOM     15  H   UNL     1     -12.511   6.420  -4.175  1.00  0.00     0.119 HD
ENDBRANCH  12  13
BRANCH  12  16
ATOM     16  C   UNL     1     -10.178   4.151  -4.213  1.00  0.00     0.022 C 
BRANCH  16  17
ATOM     17  C   UNL     1      -9.756   2.902  -3.427  1.00  0.00     0.002 C 
BRANCH  17  18
ATOM     18  C   UNL     1      -9.499   3.133  -1.939  1.00  0.00     0.000 C 
BRANCH  18  19
ATOM     19  C   UNL     1      -8.013   3.249  -1.573  1.00  0.00    -0.000 C 
BRANCH  19  20
ATOM     20  C   UNL     1      -7.456   4.675  -1.561  1.00  0.00    -0.000 C 
BRANCH  20  21
ATOM     21  C   UNL     1      -6.156   4.818  -2.357  1.00  0.00    -0.003 C 
ATOM     22  C   UNL     1      -5.004   4.102  -1.669  1.00  0.00     0.004 C 
ENDBRANCH  20  21
ENDBRANCH  19  20
ENDBRANCH  18  19
ENDBRANCH  17  18
ENDBRANCH  16  17
ENDBRANCH  12  16
ENDBRANCH   9  12
ENDBRANCH   6   9
ENDBRANCH   3   5
ENDBRANCH   2   3
BRANCH   2  23
ATOM     23  N   UNL     1      -5.732   8.491  -7.164  1.00  0.00    -0.332 N 
ATOM     24  C   UNL     1      -6.105   9.886  -7.341  1.00  0.00     0.147 C 
BRANCH  23  25
ATOM     25  C   UNL     1      -4.562   8.048  -7.970  1.00  0.00     0.174 C 
BRANCH  25  26
ATOM     26  C   UNL     1      -3.697   9.227  -8.474  1.00  0.00     0.038 C 
BRANCH  26  27
ATOM     27  C   UNL     1      -2.368   9.488  -7.731  1.00  0.00    -0.015 C 
ATOM     28  C   UNL     1      -1.265   8.515  -8.148  1.00  0.00     0.007 C 
ATOM     29  C   UNL     1      -1.882  10.931  -7.844  1.00  0.00     0.007 C 
ENDBRANCH  26  27
ENDBRANCH  25  26
BRANCH  25  30
ATOM     30  C   UNL     1      -5.021   7.089  -9.092  1.00  0.00     0.243 C 
ATOM     31  O   UNL     1      -5.913   7.394  -9.883  1.00  0.00    -0.273 OA
ATOM     32  N   UNL     1      -4.374   5.881  -9.142  1.00  0.00    -0.342 N 
ATOM     33  H   UNL     1      -3.553   5.758  -8.544  1.00  0.00     0.164 HD
BRANCH  32  34
ATOM     34  C   UNL     1      -4.696   4.839 -10.121  1.00  0.00     0.175 C 
BRANCH  34  35
ATOM     35  C   UNL     1      -3.512   4.571 -11.062  1.00  0.00     0.070 C 
BRANCH  35  36
ATOM     36  C   UNL     1      -2.944   5.838 -11.662  1.00  0.00    -0.045 A 
ATOM     37  C   UNL     1      -1.696   6.317 -11.237  1.00  0.00     0.007 A 
ATOM     38  C   UNL     1      -3.659   6.560 -12.626  1.00  0.00     0.007 A 
ATOM     39  C   UNL     1      -1.170   7.493 -11.774  1.00  0.00     0.046 A 
ATOM     40  C   UNL     1      -3.134   7.738 -13.164  1.00  0.00     0.046 A 
ATOM     41  C   UNL     1      -1.892   8.193 -12.733  1.00  0.00     0.115 A 
BRANCH  41  42
ATOM     42  O   UNL     1      -1.344   9.338 -13.231  1.00  0.00    -0.508 OA
ATOM     43  H   UNL     1      -0.783   9.103 -13.988  1.00  0.00     0.293 HD
ENDBRANCH  41  42
ENDBRANCH  35  36
ENDBRANCH  34  35
BRANCH  34  44
ATOM     44  C   UNL     1      -5.117   3.569  -9.347  1.00  0.00     0.243 C 
ATOM     45  O   UNL     1      -5.999   2.796  -9.710  1.00  0.00    -0.273 OA
ATOM     46  N   UNL     1      -4.495   3.441  -8.123  1.00  0.00    -0.341 N 
ATOM     47  H   UNL     1      -3.857   4.170  -7.815  1.00  0.00     0.164 HD
BRANCH  46  48
ATOM     48  C   UNL     1      -4.782   2.355  -7.183  1.00  0.00     0.196 C 
BRANCH  48  49
ATOM     49  C   UNL     1      -3.595   1.384  -7.069  1.00  0.00     0.072 C 
BRANCH  49  50
ATOM     50  C   UNL     1      -3.334   0.632  -8.354  1.00  0.00    -0.045 A 
ATOM     51  C   UNL     1      -2.316   1.059  -9.220  1.00  0.00     0.007 A 
ATOM     52  C   UNL     1      -4.108  -0.480  -8.709  1.00  0.00     0.007 A 
ATOM     53  C   UNL     1      -2.074   0.381 -10.414  1.00  0.00     0.046 A 
ATOM     54  C   UNL     1      -3.867  -1.159  -9.905  1.00  0.00     0.046 A 
ATOM     55  C   UNL     1      -2.850  -0.723 -10.748  1.00  0.00     0.115 A 
BRANCH  55  56
ATOM     56  O   UNL     1      -2.583  -1.356 -11.925  1.00  0.00    -0.508 OA
ATOM     57  H   UNL     1      -2.365  -2.282 -11.732  1.00  0.00     0.293 HD
ENDBRANCH  55  56
ENDBRANCH  49  50
ENDBRANCH  48  49
BRANCH  48  58
ATOM     58  C   UNL     1      -5.090   2.957  -5.804  1.00  0.00     0.326 C 
ATOM     59  O   UNL     1      -5.027   2.395  -4.723  1.00  0.00    -0.250 OA
BRANCH  58  60
ATOM     60  O   UNL     1      -5.454   4.263  -5.853  1.00  0.00    -0.480 OA
ATOM     61  H   UNL     1      -6.288   4.284  -5.335  1.00  0.00     0.296 HD
ENDBRANCH  58  60
ENDBRANCH  48  58
ENDBRANCH  46  48
ENDBRANCH  34  44
ENDBRANCH  32  34
ENDBRANCH  25  30
ENDBRANCH  23  25
ENDBRANCH   2  23
TORSDOF 28
ENDMDL
MODEL 31
REMARK VINA RESULT:    -5.316      2.203      6.227
REMARK INTER + INTRA:         -19.186
REMARK INTER:                 -14.138
REMARK INTRA:                  -5.048
REMARK UNBOUND:                -5.946
REMARK SMILES CCCCCCC[C@H](N)[C@H](O)C(=O)N[C@H](C)C(=O)N(C)[C@H](CC(C)C)C(=O)N[C@@H](Cc1ccc(O)cc1)C(=O)N[C@@H](Cc1ccc(O)cc1)C(=O)O
REMARK SMILES IDX 18 1 17 2 15 3 16 4 14 5 12 6 13 7 10 9 11 10 8 12 9 13 7 16
REMARK SMILES IDX 6 17 5 18 4 19 3 20 2 21 1 22 19 23 20 24 21 25 22 26 23 27
REMARK SMILES IDX 24 28 25 29 26 30 27 31 28 32 29 34 30 35 31 36 32 37 37 38
REMARK SMILES IDX 33 39 36 40 34 41 35 42 38 44 39 45 40 46 41 48 42 49 43 50
REMARK SMILES IDX 44 51 49 52 45 53 48 54 46 55 47 56 50 58 51 59 52 60
REMARK H PARENT 14 8 11 11 9 14 9 15 28 33 35 43 40 47 47 57 52 61
ROOT
ATOM      1  O   UNL     1      -9.637   5.215  -9.267  1.00  0.00    -0.272 OA
ATOM      2  C   UNL     1      -8.545   5.635  -9.678  1.00  0.00     0.245 C 
ENDROOT
BRANCH   2   3
ATOM      3  C   UNL     1      -7.741   4.761 -10.673  1.00  0.00     0.168 C 
ATOM      4  C   UNL     1      -8.358   4.819 -12.066  1.00  0.00     0.041 C 
BRANCH   3   5
ATOM      5  N   UNL     1      -6.311   5.026 -10.701  1.00  0.00    -0.342 N 
ATOM      6  C   UNL     1      -5.383   4.042 -10.437  1.00  0.00     0.251 C 
ATOM      7  O   UNL     1      -5.684   2.895 -10.122  1.00  0.00    -0.272 OA
ATOM      8  H   UNL     1      -5.941   5.949 -10.917  1.00  0.00     0.164 HD
BRANCH   6   9
ATOM      9  C   UNL     1      -3.937   4.511 -10.665  1.00  0.00     0.219 C 
BRANCH   9  10
ATOM     10  O   UNL     1      -3.720   5.009 -11.991  1.00  0.00    -0.382 OA
ATOM     11  H   UNL     1      -3.455   4.210 -12.497  1.00  0.00     0.211 HD
ENDBRANCH   9  10
BRANCH   9  12
ATOM     12  C   UNL     1      -3.456   5.538  -9.606  1.00  0.00     0.089 C 
BRANCH  12  13
ATOM     13  N   UNL     1      -4.206   5.300  -8.351  1.00  0.00    -0.325 NA
ATOM     14  H   UNL     1      -3.550   5.270  -7.568  1.00  0.00     0.119 HD
ATOM     15  H   UNL     1      -4.624   4.367  -8.386  1.00  0.00     0.119 HD
ENDBRANCH  12  13
BRANCH  12  16
ATOM     16  C   UNL     1      -1.935   5.556  -9.321  1.00  0.00     0.022 C 
BRANCH  16  17
ATOM     17  C   UNL     1      -1.124   6.809  -9.675  1.00  0.00     0.002 C 
BRANCH  17  18
ATOM     18  C   UNL     1      -1.852   8.133  -9.451  1.00  0.00     0.000 C 
BRANCH  18  19
ATOM     19  C   UNL     1      -0.926   9.301  -9.084  1.00  0.00    -0.000 C 
BRANCH  19  20
ATOM     20  C   UNL     1      -1.427  10.193  -7.945  1.00  0.00    -0.000 C 
BRANCH  20  21
ATOM     21  C   UNL     1      -2.952  10.323  -7.911  1.00  0.00    -0.003 C 
ATOM     22  C   UNL     1      -3.515   9.896  -6.564  1.00  0.00     0.004 C 
ENDBRANCH  20  21
ENDBRANCH  19  20
ENDBRANCH  18  19
ENDBRANCH  17  18
ENDBRANCH  16  17
ENDBRANCH  12  16
ENDBRANCH   9  12
ENDBRANCH   6   9
ENDBRANCH   3   5
ENDBRANCH   2   3
BRANCH   2  23
ATOM     23  N   UNL     1      -8.123   6.918  -9.344  1.00  0.00    -0.332 N 
ATOM     24  C   UNL     1      -7.621   7.897 -10.296  1.00  0.00     0.147 C 
BRANCH  23  25
ATOM     25  C   UNL     1      -8.286   7.423  -7.953  1.00  0.00     0.174 C 
BRANCH  25  26
ATOM     26  C   UNL     1      -8.504   8.953  -7.889  1.00  0.00     0.038 C 
BRANCH  26  27
ATOM     27  C   UNL     1      -9.400   9.486  -6.749  1.00  0.00    -0.015 C 
ATOM     28  C   UNL     1     -10.149  10.759  -7.142  1.00  0.00     0.007 C 
ATOM     29  C   UNL     1     -10.369   8.441  -6.200  1.00  0.00     0.007 C 
ENDBRANCH  26  27
ENDBRANCH  25  26
BRANCH  25  30
ATOM     30  C   UNL     1      -7.123   6.923  -7.066  1.00  0.00     0.243 C 
ATOM     31  O   UNL     1      -5.981   7.368  -7.179  1.00  0.00    -0.273 OA
ATOM     32  N   UNL     1      -7.447   5.952  -6.153  1.00  0.00    -0.342 N 
ATOM     33  H   UNL     1      -8.439   5.737  -6.023  1.00  0.00     0.164 HD
BRANCH  32  34
ATOM     34  C   UNL     1      -6.468   5.342  -5.249  1.00  0.00     0.175 C 
BRANCH  34  35
ATOM     35  C   UNL     1      -7.058   5.132  -3.847  1.00  0.00     0.070 C 
BRANCH  35  36
ATOM     36  C   UNL     1      -8.500   4.679  -3.881  1.00  0.00    -0.045 A 
ATOM     37  C   UNL     1      -9.535   5.624  -3.807  1.00  0.00     0.007 A 
ATOM     38  C   UNL     1      -8.825   3.319  -3.963  1.00  0.00     0.007 A 
ATOM     39  C   UNL     1     -10.868   5.215  -3.824  1.00  0.00     0.046 A 
ATOM     40  C   UNL     1     -10.160   2.908  -3.979  1.00  0.00     0.046 A 
ATOM     41  C   UNL     1     -11.171   3.862  -3.910  1.00  0.00     0.115 A 
BRANCH  41  42
ATOM     42  O   UNL     1     -12.486   3.504  -3.921  1.00  0.00    -0.508 OA
ATOM     43  H   UNL     1     -12.767   3.403  -4.846  1.00  0.00     0.293 HD
ENDBRANCH  41  42
ENDBRANCH  35  36
ENDBRANCH  34  35
BRANCH  34  44
ATOM     44  C   UNL     1      -5.994   4.014  -5.882  1.00  0.00     0.243 C 
ATOM     45  O   UNL     1      -6.325   3.620  -6.997  1.00  0.00    -0.273 OA
ATOM     46  N   UNL     1      -5.256   3.229  -5.022  1.00  0.00    -0.341 N 
ATOM     47  H   UNL     1      -5.106   3.548  -4.067  1.00  0.00     0.164 HD
BRANCH  46  48
ATOM     48  C   UNL     1      -4.756   1.899  -5.374  1.00  0.00     0.196 C 
BRANCH  48  49
ATOM     49  C   UNL     1      -3.401   1.983  -6.097  1.00  0.00     0.072 C 
BRANCH  49  50
ATOM     50  C   UNL     1      -3.408   1.267  -7.429  1.00  0.00    -0.045 A 
ATOM     51  C   UNL     1      -2.636   1.759  -8.491  1.00  0.00     0.007 A 
ATOM     52  C   UNL     1      -4.193   0.124  -7.629  1.00  0.00     0.007 A 
ATOM     53  C   UNL     1      -2.644   1.115  -9.728  1.00  0.00     0.046 A 
ATOM     54  C   UNL     1      -4.202  -0.521  -8.868  1.00  0.00     0.046 A 
ATOM     55  C   UNL     1      -3.426  -0.020  -9.908  1.00  0.00     0.115 A 
BRANCH  55  56
ATOM     56  O   UNL     1      -3.408  -0.619 -11.132  1.00  0.00    -0.508 OA
ATOM     57  H   UNL     1      -4.226  -0.385 -11.600  1.00  0.00     0.293 HD
ENDBRANCH  55  56
ENDBRANCH  49  50
ENDBRANCH  48  49
BRANCH  48  58
ATOM     58  C   UNL     1      -4.604   1.067  -4.092  1.00  0.00     0.326 C 
ATOM     59  O   UNL     1      -4.302  -0.112  -4.008  1.00  0.00    -0.250 OA
BRANCH  58  60
ATOM     60  O   UNL     1      -4.828   1.776  -2.957  1.00  0.00    -0.480 OA
ATOM     61  H   UNL     1      -5.203   1.108  -2.344  1.00  0.00     0.296 HD
ENDBRANCH  58  60
ENDBRANCH  48  58
ENDBRANCH  46  48
ENDBRANCH  34  44
ENDBRANCH  32  34
ENDBRANCH  25  30
ENDBRANCH  23  25
ENDBRANCH   2  23
TORSDOF 28
ENDMDL
MODEL 32
REMARK VINA RESULT:    -5.311      2.438      6.035
REMARK INTER + INTRA:         -19.173
REMARK INTER:                 -13.370
REMARK INTRA:                  -5.803
REMARK UNBOUND:                -5.946
REMARK SMILES CCCCCCC[C@H](N)[C@H](O)C(=O)N[C@H](C)C(=O)N(C)[C@H](CC(C)C)C(=O)N[C@@H](Cc1ccc(O)cc1)C(=O)N[C@@H](Cc1ccc(O)cc1)C(=O)O
REMARK SMILES IDX 18 1 17 2 15 3 16 4 14 5 12 6 13 7 10 9 11 10 8 12 9 13 7 16
REMARK SMILES IDX 6 17 5 18 4 19 3 20 2 21 1 22 19 23 20 24 21 25 22 26 23 27
REMARK SMILES IDX 24 28 25 29 26 30 27 31 28 32 29 34 30 35 31 36 32 37 37 38
REMARK SMILES IDX 33 39 36 40 34 41 35 42 38 44 39 45 40 46 41 48 42 49 43 50
REMARK SMILES IDX 44 51 49 52 45 53 48 54 46 55 47 56 50 58 51 59 52 60
REMARK H PARENT 14 8 11 11 9 14 9 15 28 33 35 43 40 47 47 57 52 61
ROOT
ATOM      1  O   UNL     1      -5.405   7.213  -6.890  1.00  0.00    -0.272 OA
ATOM      2  C   UNL     1      -6.537   7.608  -7.208  1.00  0.00     0.245 C 
ENDROOT
BRANCH   2   3
ATOM      3  C   UNL     1      -6.867   7.774  -8.713  1.00  0.00     0.168 C 
ATOM      4  C   UNL     1      -6.474   9.163  -9.204  1.00  0.00     0.041 C 
BRANCH   3   5
ATOM      5  N   UNL     1      -6.342   6.726  -9.573  1.00  0.00    -0.342 N 
ATOM      6  C   UNL     1      -7.170   5.900 -10.303  1.00  0.00     0.251 C 
ATOM      7  O   UNL     1      -8.394   5.954 -10.253  1.00  0.00    -0.272 OA
ATOM      8  H   UNL     1      -5.342   6.562  -9.669  1.00  0.00     0.164 HD
BRANCH   6   9
ATOM      9  C   UNL     1      -6.396   4.965 -11.247  1.00  0.00     0.219 C 
BRANCH   9  10
ATOM     10  O   UNL     1      -7.086   3.735 -11.495  1.00  0.00    -0.382 OA
ATOM     11  H   UNL     1      -7.626   3.929 -12.292  1.00  0.00     0.211 HD
ENDBRANCH   9  10
BRANCH   9  12
ATOM     12  C   UNL     1      -5.989   5.647 -12.579  1.00  0.00     0.089 C 
BRANCH  12  13
ATOM     13  N   UNL     1      -6.501   7.036 -12.569  1.00  0.00    -0.325 NA
ATOM     14  H   UNL     1      -6.092   7.550 -13.352  1.00  0.00     0.119 HD
ATOM     15  H   UNL     1      -6.157   7.510 -11.730  1.00  0.00     0.119 HD
ENDBRANCH  12  13
BRANCH  12  16
ATOM     16  C   UNL     1      -4.477   5.640 -12.910  1.00  0.00     0.022 C 
BRANCH  16  17
ATOM     17  C   UNL     1      -3.492   6.268 -11.915  1.00  0.00     0.002 C 
BRANCH  17  18
ATOM     18  C   UNL     1      -2.812   5.279 -10.970  1.00  0.00     0.000 C 
BRANCH  18  19
ATOM     19  C   UNL     1      -2.958   5.633  -9.484  1.00  0.00    -0.000 C 
BRANCH  19  20
ATOM     20  C   UNL     1      -2.657   7.092  -9.130  1.00  0.00    -0.000 C 
BRANCH  20  21
ATOM     21  C   UNL     1      -1.176   7.343  -8.833  1.00  0.00    -0.003 C 
ATOM     22  C   UNL     1      -0.982   8.604  -8.005  1.00  0.00     0.004 C 
ENDBRANCH  20  21
ENDBRANCH  19  20
ENDBRANCH  18  19
ENDBRANCH  17  18
ENDBRANCH  16  17
ENDBRANCH  12  16
ENDBRANCH   9  12
ENDBRANCH   6   9
ENDBRANCH   3   5
ENDBRANCH   2   3
BRANCH   2  23
ATOM     23  N   UNL     1      -7.515   7.776  -6.234  1.00  0.00    -0.332 N 
ATOM     24  C   UNL     1      -7.606   8.926  -5.345  1.00  0.00     0.147 C 
BRANCH  23  25
ATOM     25  C   UNL     1      -8.642   6.810  -6.126  1.00  0.00     0.174 C 
BRANCH  25  26
ATOM     26  C   UNL     1      -9.494   7.018  -4.852  1.00  0.00     0.038 C 
BRANCH  26  27
ATOM     27  C   UNL     1     -10.946   7.505  -5.054  1.00  0.00    -0.015 C 
ATOM     28  C   UNL     1     -11.274   7.775  -6.522  1.00  0.00     0.007 C 
ATOM     29  C   UNL     1     -11.989   6.579  -4.432  1.00  0.00     0.007 C 
ENDBRANCH  26  27
ENDBRANCH  25  26
BRANCH  25  30
ATOM     30  C   UNL     1      -8.121   5.364  -6.296  1.00  0.00     0.243 C 
ATOM     31  O   UNL     1      -8.515   4.634  -7.204  1.00  0.00    -0.273 OA
ATOM     32  N   UNL     1      -7.199   4.953  -5.368  1.00  0.00    -0.342 N 
ATOM     33  H   UNL     1      -6.818   5.659  -4.734  1.00  0.00     0.164 HD
BRANCH  32  34
ATOM     34  C   UNL     1      -6.618   3.608  -5.357  1.00  0.00     0.175 C 
BRANCH  34  35
ATOM     35  C   UNL     1      -5.086   3.660  -5.463  1.00  0.00     0.070 C 
BRANCH  35  36
ATOM     36  C   UNL     1      -4.567   3.053  -6.747  1.00  0.00    -0.045 A 
ATOM     37  C   UNL     1      -3.258   2.551  -6.807  1.00  0.00     0.007 A 
ATOM     38  C   UNL     1      -5.369   3.003  -7.894  1.00  0.00     0.007 A 
ATOM     39  C   UNL     1      -2.766   2.002  -7.992  1.00  0.00     0.046 A 
ATOM     40  C   UNL     1      -4.877   2.454  -9.081  1.00  0.00     0.046 A 
ATOM     41  C   UNL     1      -3.579   1.957  -9.118  1.00  0.00     0.115 A 
BRANCH  41  42
ATOM     42  O   UNL     1      -3.059   1.415 -10.256  1.00  0.00    -0.508 OA
ATOM     43  H   UNL     1      -3.558   0.608 -10.464  1.00  0.00     0.293 HD
ENDBRANCH  41  42
ENDBRANCH  35  36
ENDBRANCH  34  35
BRANCH  34  44
ATOM     44  C   UNL     1      -7.083   2.895  -4.067  1.00  0.00     0.243 C 
ATOM     45  O   UNL     1      -6.580   1.867  -3.622  1.00  0.00    -0.273 OA
ATOM     46  N   UNL     1      -8.218   3.448  -3.514  1.00  0.00    -0.341 N 
ATOM     47  H   UNL     1      -8.668   4.229  -3.986  1.00  0.00     0.164 HD
BRANCH  46  48
ATOM     48  C   UNL     1      -8.884   2.904  -2.329  1.00  0.00     0.196 C 
BRANCH  48  49
ATOM     49  C   UNL     1      -8.392   3.592  -1.044  1.00  0.00     0.072 C 
BRANCH  49  50
ATOM     50  C   UNL     1      -7.945   5.016  -1.282  1.00  0.00    -0.045 A 
ATOM     51  C   UNL     1      -6.590   5.294  -1.515  1.00  0.00     0.007 A 
ATOM     52  C   UNL     1      -8.862   6.074  -1.254  1.00  0.00     0.007 A 
ATOM     53  C   UNL     1      -6.163   6.606  -1.722  1.00  0.00     0.046 A 
ATOM     54  C   UNL     1      -8.435   7.388  -1.461  1.00  0.00     0.046 A 
ATOM     55  C   UNL     1      -7.088   7.642  -1.694  1.00  0.00     0.115 A 
BRANCH  55  56
ATOM     56  O   UNL     1      -6.631   8.910  -1.900  1.00  0.00    -0.508 OA
ATOM     57  H   UNL     1      -5.664   8.903  -1.818  1.00  0.00     0.293 HD
ENDBRANCH  55  56
ENDBRANCH  49  50
ENDBRANCH  48  49
BRANCH  48  58
ATOM     58  C   UNL     1     -10.400   3.104  -2.471  1.00  0.00     0.326 C 
ATOM     59  O   UNL     1     -11.046   3.143  -3.506  1.00  0.00    -0.250 OA
BRANCH  58  60
ATOM     60  O   UNL     1     -11.043   3.232  -1.284  1.00  0.00    -0.480 OA
ATOM     61  H   UNL     1     -10.925   4.181  -1.064  1.00  0.00     0.296 HD
ENDBRANCH  58  60
ENDBRANCH  48  58
ENDBRANCH  46  48
ENDBRANCH  34  44
ENDBRANCH  32  34
ENDBRANCH  25  30
ENDBRANCH  23  25
ENDBRANCH   2  23
TORSDOF 28
ENDMDL
MODEL 33
REMARK VINA RESULT:    -5.309      5.574      8.609
REMARK INTER + INTRA:         -19.168
REMARK INTER:                 -15.421
REMARK INTRA:                  -3.747
REMARK UNBOUND:                -5.946
REMARK SMILES CCCCCCC[C@H](N)[C@H](O)C(=O)N[C@H](C)C(=O)N(C)[C@H](CC(C)C)C(=O)N[C@@H](Cc1ccc(O)cc1)C(=O)N[C@@H](Cc1ccc(O)cc1)C(=O)O
REMARK SMILES IDX 18 1 17 2 15 3 16 4 14 5 12 6 13 7 10 9 11 10 8 12 9 13 7 16
REMARK SMILES IDX 6 17 5 18 4 19 3 20 2 21 1 22 19 23 20 24 21 25 22 26 23 27
REMARK SMILES IDX 24 28 25 29 26 30 27 31 28 32 29 34 30 35 31 36 32 37 37 38
REMARK SMILES IDX 33 39 36 40 34 41 35 42 38 44 39 45 40 46 41 48 42 49 43 50
REMARK SMILES IDX 44 51 49 52 45 53 48 54 46 55 47 56 50 58 51 59 52 60
REMARK H PARENT 14 8 11 11 9 14 9 15 28 33 35 43 40 47 47 57 52 61
ROOT
ATOM      1  O   UNL     1      -5.551   4.841  -1.230  1.00  0.00    -0.272 OA
ATOM      2  C   UNL     1      -6.446   5.368  -1.907  1.00  0.00     0.245 C 
ENDROOT
BRANCH   2   3
ATOM      3  C   UNL     1      -6.553   5.001  -3.408  1.00  0.00     0.168 C 
ATOM      4  C   UNL     1      -6.608   6.258  -4.270  1.00  0.00     0.041 C 
BRANCH   3   5
ATOM      5  N   UNL     1      -5.546   4.064  -3.881  1.00  0.00    -0.342 N 
ATOM      6  C   UNL     1      -5.837   2.735  -4.108  1.00  0.00     0.251 C 
ATOM      7  O   UNL     1      -6.938   2.238  -3.892  1.00  0.00    -0.272 OA
ATOM      8  H   UNL     1      -4.587   4.353  -4.062  1.00  0.00     0.164 HD
BRANCH   6   9
ATOM      9  C   UNL     1      -4.664   1.968  -4.738  1.00  0.00     0.219 C 
BRANCH   9  10
ATOM     10  O   UNL     1      -4.540   0.634  -4.231  1.00  0.00    -0.382 OA
ATOM     11  H   UNL     1      -5.412   0.229  -4.431  1.00  0.00     0.211 HD
ENDBRANCH   9  10
BRANCH   9  12
ATOM     12  C   UNL     1      -4.700   1.967  -6.289  1.00  0.00     0.089 C 
BRANCH  12  13
ATOM     13  N   UNL     1      -4.156   3.258  -6.770  1.00  0.00    -0.325 NA
ATOM     14  H   UNL     1      -3.148   3.166  -6.910  1.00  0.00     0.119 HD
ATOM     15  H   UNL     1      -4.260   3.957  -6.031  1.00  0.00     0.119 HD
ENDBRANCH  12  13
BRANCH  12  16
ATOM     16  C   UNL     1      -3.973   0.791  -6.983  1.00  0.00     0.022 C 
BRANCH  16  17
ATOM     17  C   UNL     1      -4.518   0.258  -8.315  1.00  0.00     0.002 C 
BRANCH  17  18
ATOM     18  C   UNL     1      -3.926  -1.076  -8.766  1.00  0.00     0.000 C 
BRANCH  18  19
ATOM     19  C   UNL     1      -3.724  -1.189 -10.283  1.00  0.00    -0.000 C 
BRANCH  19  20
ATOM     20  C   UNL     1      -2.281  -1.007 -10.762  1.00  0.00    -0.000 C 
BRANCH  20  21
ATOM     21  C   UNL     1      -2.179  -0.714 -12.261  1.00  0.00    -0.003 C 
ATOM     22  C   UNL     1      -0.754  -0.884 -12.764  1.00  0.00     0.004 C 
ENDBRANCH  20  21
ENDBRANCH  19  20
ENDBRANCH  18  19
ENDBRANCH  17  18
ENDBRANCH  16  17
ENDBRANCH  12  16
ENDBRANCH   9  12
ENDBRANCH   6   9
ENDBRANCH   3   5
ENDBRANCH   2   3
BRANCH   2  23
ATOM     23  N   UNL     1      -7.401   6.171  -1.293  1.00  0.00    -0.332 N 
ATOM     24  C   UNL     1      -7.295   7.615  -1.145  1.00  0.00     0.147 C 
BRANCH  23  25
ATOM     25  C   UNL     1      -8.697   5.589  -0.846  1.00  0.00     0.174 C 
BRANCH  25  26
ATOM     26  C   UNL     1      -9.783   5.621  -1.946  1.00  0.00     0.038 C 
BRANCH  26  27
ATOM     27  C   UNL     1     -10.267   4.260  -2.492  1.00  0.00    -0.015 C 
ATOM     28  C   UNL     1     -10.055   4.126  -4.000  1.00  0.00     0.007 C 
ATOM     29  C   UNL     1      -9.669   3.063  -1.758  1.00  0.00     0.007 C 
ENDBRANCH  26  27
ENDBRANCH  25  26
BRANCH  25  30
ATOM     30  C   UNL     1      -9.140   6.238   0.485  1.00  0.00     0.243 C 
ATOM     31  O   UNL     1      -8.399   6.282   1.466  1.00  0.00    -0.273 OA
ATOM     32  N   UNL     1     -10.412   6.752   0.500  1.00  0.00    -0.342 N 
ATOM     33  H   UNL     1     -10.912   6.804  -0.391  1.00  0.00     0.164 HD
BRANCH  32  34
ATOM     34  C   UNL     1     -11.009   7.379   1.682  1.00  0.00     0.175 C 
BRANCH  34  35
ATOM     35  C   UNL     1     -11.789   8.649   1.307  1.00  0.00     0.070 C 
BRANCH  35  36
ATOM     36  C   UNL     1     -11.504   9.807   2.237  1.00  0.00    -0.045 A 
ATOM     37  C   UNL     1     -10.514   9.686   3.223  1.00  0.00     0.007 A 
ATOM     38  C   UNL     1     -12.233  10.999   2.144  1.00  0.00     0.007 A 
ATOM     39  C   UNL     1     -10.253  10.744   4.095  1.00  0.00     0.046 A 
ATOM     40  C   UNL     1     -11.973  12.058   3.018  1.00  0.00     0.046 A 
ATOM     41  C   UNL     1     -10.984  11.921   3.985  1.00  0.00     0.115 A 
BRANCH  41  42
ATOM     42  O   UNL     1     -10.700  12.929   4.858  1.00  0.00    -0.508 OA
ATOM     43  H   UNL     1     -10.297  12.540   5.652  1.00  0.00     0.293 HD
ENDBRANCH  41  42
ENDBRANCH  35  36
ENDBRANCH  34  35
BRANCH  34  44
ATOM     44  C   UNL     1     -11.910   6.332   2.375  1.00  0.00     0.243 C 
ATOM     45  O   UNL     1     -11.607   5.154   2.536  1.00  0.00    -0.273 OA
ATOM     46  N   UNL     1     -13.164   6.811   2.692  1.00  0.00    -0.341 N 
ATOM     47  H   UNL     1     -13.409   7.764   2.433  1.00  0.00     0.164 HD
BRANCH  46  48
ATOM     48  C   UNL     1     -14.213   5.985   3.294  1.00  0.00     0.196 C 
BRANCH  48  49
ATOM     49  C   UNL     1     -15.050   6.790   4.302  1.00  0.00     0.072 C 
BRANCH  49  50
ATOM     50  C   UNL     1     -14.208   7.718   5.148  1.00  0.00    -0.045 A 
ATOM     51  C   UNL     1     -13.388   7.193   6.157  1.00  0.00     0.007 A 
ATOM     52  C   UNL     1     -14.248   9.105   4.954  1.00  0.00     0.007 A 
ATOM     53  C   UNL     1     -12.616   8.041   6.952  1.00  0.00     0.046 A 
ATOM     54  C   UNL     1     -13.476   9.954   5.752  1.00  0.00     0.046 A 
ATOM     55  C   UNL     1     -12.666   9.413   6.744  1.00  0.00     0.115 A 
BRANCH  55  56
ATOM     56  O   UNL     1     -11.898  10.207   7.544  1.00  0.00    -0.508 OA
ATOM     57  H   UNL     1     -12.320  10.261   8.416  1.00  0.00     0.293 HD
ENDBRANCH  55  56
ENDBRANCH  49  50
ENDBRANCH  48  49
BRANCH  48  58
ATOM     58  C   UNL     1     -15.124   5.447   2.182  1.00  0.00     0.326 C 
ATOM     59  O   UNL     1     -15.208   5.854   1.034  1.00  0.00    -0.250 OA
BRANCH  58  60
ATOM     60  O   UNL     1     -15.888   4.395   2.569  1.00  0.00    -0.480 OA
ATOM     61  H   UNL     1     -15.541   4.180   3.462  1.00  0.00     0.296 HD
ENDBRANCH  58  60
ENDBRANCH  48  58
ENDBRANCH  46  48
ENDBRANCH  34  44
ENDBRANCH  32  34
ENDBRANCH  25  30
ENDBRANCH  23  25
ENDBRANCH   2  23
TORSDOF 28
ENDMDL
MODEL 34
REMARK VINA RESULT:    -5.308      2.994      9.155
REMARK INTER + INTRA:         -19.167
REMARK INTER:                 -13.785
REMARK INTRA:                  -5.382
REMARK UNBOUND:                -5.946
REMARK SMILES CCCCCCC[C@H](N)[C@H](O)C(=O)N[C@H](C)C(=O)N(C)[C@H](CC(C)C)C(=O)N[C@@H](Cc1ccc(O)cc1)C(=O)N[C@@H](Cc1ccc(O)cc1)C(=O)O
REMARK SMILES IDX 18 1 17 2 15 3 16 4 14 5 12 6 13 7 10 9 11 10 8 12 9 13 7 16
REMARK SMILES IDX 6 17 5 18 4 19 3 20 2 21 1 22 19 23 20 24 21 25 22 26 23 27
REMARK SMILES IDX 24 28 25 29 26 30 27 31 28 32 29 34 30 35 31 36 32 37 37 38
REMARK SMILES IDX 33 39 36 40 34 41 35 42 38 44 39 45 40 46 41 48 42 49 43 50
REMARK SMILES IDX 44 51 49 52 45 53 48 54 46 55 47 56 50 58 51 59 52 60
REMARK H PARENT 14 8 11 11 9 14 9 15 28 33 35 43 40 47 47 57 52 61
ROOT
ATOM      1  O   UNL     1      -8.864   4.422  -6.644  1.00  0.00    -0.272 OA
ATOM      2  C   UNL     1      -9.178   5.265  -5.791  1.00  0.00     0.245 C 
ENDROOT
BRANCH   2   3
ATOM      3  C   UNL     1      -9.926   4.790  -4.520  1.00  0.00     0.168 C 
ATOM      4  C   UNL     1     -10.710   3.512  -4.799  1.00  0.00     0.041 C 
BRANCH   3   5
ATOM      5  N   UNL     1      -9.096   4.668  -3.332  1.00  0.00    -0.342 N 
ATOM      6  C   UNL     1      -9.581   4.950  -2.073  1.00  0.00     0.251 C 
ATOM      7  O   UNL     1     -10.717   5.359  -1.862  1.00  0.00    -0.272 OA
ATOM      8  H   UNL     1      -8.124   4.370  -3.385  1.00  0.00     0.164 HD
BRANCH   6   9
ATOM      9  C   UNL     1      -8.575   4.615  -0.960  1.00  0.00     0.219 C 
BRANCH   9  10
ATOM     10  O   UNL     1      -8.896   5.249   0.284  1.00  0.00    -0.382 OA
ATOM     11  H   UNL     1      -9.794   4.910   0.492  1.00  0.00     0.211 HD
ENDBRANCH   9  10
BRANCH   9  12
ATOM     12  C   UNL     1      -8.369   3.090  -0.763  1.00  0.00     0.089 C 
BRANCH  12  13
ATOM     13  N   UNL     1      -9.520   2.382  -1.368  1.00  0.00    -0.325 NA
ATOM     14  H   UNL     1      -9.413   2.372  -2.384  1.00  0.00     0.119 HD
ATOM     15  H   UNL     1     -10.370   2.923  -1.195  1.00  0.00     0.119 HD
ENDBRANCH  12  13
BRANCH  12  16
ATOM     16  C   UNL     1      -7.042   2.510  -1.308  1.00  0.00     0.022 C 
BRANCH  16  17
ATOM     17  C   UNL     1      -5.889   3.466  -1.640  1.00  0.00     0.002 C 
BRANCH  17  18
ATOM     18  C   UNL     1      -5.092   3.105  -2.891  1.00  0.00     0.000 C 
BRANCH  18  19
ATOM     19  C   UNL     1      -5.915   2.391  -3.972  1.00  0.00    -0.000 C 
BRANCH  19  20
ATOM     20  C   UNL     1      -5.818   3.003  -5.373  1.00  0.00    -0.000 C 
BRANCH  20  21
ATOM     21  C   UNL     1      -4.570   2.556  -6.137  1.00  0.00    -0.003 C 
ATOM     22  C   UNL     1      -4.277   1.081  -5.907  1.00  0.00     0.004 C 
ENDBRANCH  20  21
ENDBRANCH  19  20
ENDBRANCH  18  19
ENDBRANCH  17  18
ENDBRANCH  16  17
ENDBRANCH  12  16
ENDBRANCH   9  12
ENDBRANCH   6   9
ENDBRANCH   3   5
ENDBRANCH   2   3
BRANCH   2  23
ATOM     23  N   UNL     1      -8.754   6.583  -5.926  1.00  0.00    -0.332 N 
ATOM     24  C   UNL     1      -9.601   7.682  -6.364  1.00  0.00     0.147 C 
BRANCH  23  25
ATOM     25  C   UNL     1      -7.387   6.980  -5.490  1.00  0.00     0.174 C 
BRANCH  25  26
ATOM     26  C   UNL     1      -7.366   8.324  -4.725  1.00  0.00     0.038 C 
BRANCH  26  27
ATOM     27  C   UNL     1      -6.375   8.443  -3.546  1.00  0.00    -0.015 C 
ATOM     28  C   UNL     1      -6.133   7.105  -2.849  1.00  0.00     0.007 C 
ATOM     29  C   UNL     1      -5.049   9.096  -3.931  1.00  0.00     0.007 C 
ENDBRANCH  26  27
ENDBRANCH  25  26
BRANCH  25  30
ATOM     30  C   UNL     1      -6.412   6.931  -6.688  1.00  0.00     0.243 C 
ATOM     31  O   UNL     1      -5.828   5.898  -7.009  1.00  0.00    -0.273 OA
ATOM     32  N   UNL     1      -6.239   8.114  -7.361  1.00  0.00    -0.342 N 
ATOM     33  H   UNL     1      -6.863   8.889  -7.124  1.00  0.00     0.164 HD
BRANCH  32  34
ATOM     34  C   UNL     1      -5.333   8.261  -8.503  1.00  0.00     0.175 C 
BRANCH  34  35
ATOM     35  C   UNL     1      -3.892   7.888  -8.125  1.00  0.00     0.070 C 
BRANCH  35  36
ATOM     36  C   UNL     1      -2.882   8.914  -8.587  1.00  0.00    -0.045 A 
ATOM     37  C   UNL     1      -3.253   9.894  -9.521  1.00  0.00     0.007 A 
ATOM     38  C   UNL     1      -1.564   8.890  -8.112  1.00  0.00     0.007 A 
ATOM     39  C   UNL     1      -2.324  10.836  -9.963  1.00  0.00     0.046 A 
ATOM     40  C   UNL     1      -0.633   9.833  -8.555  1.00  0.00     0.046 A 
ATOM     41  C   UNL     1      -1.023  10.799  -9.477  1.00  0.00     0.115 A 
BRANCH  41  42
ATOM     42  O   UNL     1      -0.146  11.736  -9.937  1.00  0.00    -0.508 OA
ATOM     43  H   UNL     1      -0.465  12.612  -9.663  1.00  0.00     0.293 HD
ENDBRANCH  41  42
ENDBRANCH  35  36
ENDBRANCH  34  35
BRANCH  34  44
ATOM     44  C   UNL     1      -5.872   7.386  -9.658  1.00  0.00     0.243 C 
ATOM     45  O   UNL     1      -6.927   7.594 -10.252  1.00  0.00    -0.273 OA
ATOM     46  N   UNL     1      -5.119   6.254  -9.886  1.00  0.00    -0.341 N 
ATOM     47  H   UNL     1      -4.318   6.065  -9.289  1.00  0.00     0.164 HD
BRANCH  46  48
ATOM     48  C   UNL     1      -5.471   5.240 -10.883  1.00  0.00     0.196 C 
BRANCH  48  49
ATOM     49  C   UNL     1      -4.240   4.802 -11.694  1.00  0.00     0.072 C 
BRANCH  49  50
ATOM     50  C   UNL     1      -3.260   5.931 -11.920  1.00  0.00    -0.045 A 
ATOM     51  C   UNL     1      -2.070   5.983 -11.180  1.00  0.00     0.007 A 
ATOM     52  C   UNL     1      -3.531   6.946 -12.847  1.00  0.00     0.007 A 
ATOM     53  C   UNL     1      -1.164   7.027 -11.371  1.00  0.00     0.046 A 
ATOM     54  C   UNL     1      -2.626   7.992 -13.037  1.00  0.00     0.046 A 
ATOM     55  C   UNL     1      -1.448   8.023 -12.297  1.00  0.00     0.115 A 
BRANCH  55  56
ATOM     56  O   UNL     1      -0.539   9.026 -12.452  1.00  0.00    -0.508 OA
ATOM     57  H   UNL     1       0.341   8.629 -12.549  1.00  0.00     0.293 HD
ENDBRANCH  55  56
ENDBRANCH  49  50
ENDBRANCH  48  49
BRANCH  48  58
ATOM     58  C   UNL     1      -6.075   4.024 -10.166  1.00  0.00     0.326 C 
ATOM     59  O   UNL     1      -7.083   3.996  -9.480  1.00  0.00    -0.250 OA
BRANCH  58  60
ATOM     60  O   UNL     1      -5.376   2.878 -10.363  1.00  0.00    -0.480 OA
ATOM     61  H   UNL     1      -5.623   2.617 -11.277  1.00  0.00     0.296 HD
ENDBRANCH  58  60
ENDBRANCH  48  58
ENDBRANCH  46  48
ENDBRANCH  34  44
ENDBRANCH  32  34
ENDBRANCH  25  30
ENDBRANCH  23  25
ENDBRANCH   2  23
TORSDOF 28
ENDMDL
MODEL 35
REMARK VINA RESULT:    -5.305      2.643      8.188
REMARK INTER + INTRA:         -19.160
REMARK INTER:                 -13.650
REMARK INTRA:                  -5.511
REMARK UNBOUND:                -5.946
REMARK SMILES CCCCCCC[C@H](N)[C@H](O)C(=O)N[C@H](C)C(=O)N(C)[C@H](CC(C)C)C(=O)N[C@@H](Cc1ccc(O)cc1)C(=O)N[C@@H](Cc1ccc(O)cc1)C(=O)O
REMARK SMILES IDX 18 1 17 2 15 3 16 4 14 5 12 6 13 7 10 9 11 10 8 12 9 13 7 16
REMARK SMILES IDX 6 17 5 18 4 19 3 20 2 21 1 22 19 23 20 24 21 25 22 26 23 27
REMARK SMILES IDX 24 28 25 29 26 30 27 31 28 32 29 34 30 35 31 36 32 37 37 38
REMARK SMILES IDX 33 39 36 40 34 41 35 42 38 44 39 45 40 46 41 48 42 49 43 50
REMARK SMILES IDX 44 51 49 52 45 53 48 54 46 55 47 56 50 58 51 59 52 60
REMARK H PARENT 14 8 11 11 9 14 9 15 28 33 35 43 40 47 47 57 52 61
ROOT
ATOM      1  O   UNL     1     -12.218   3.768  -3.911  1.00  0.00    -0.272 OA
ATOM      2  C   UNL     1     -11.048   3.816  -3.503  1.00  0.00     0.245 C 
ENDROOT
BRANCH   2   3
ATOM      3  C   UNL     1     -10.679   3.034  -2.218  1.00  0.00     0.168 C 
ATOM      4  C   UNL     1     -11.581   1.817  -2.046  1.00  0.00     0.041 C 
BRANCH   3   5
ATOM      5  N   UNL     1      -9.272   2.688  -2.096  1.00  0.00    -0.342 N 
ATOM      6  C   UNL     1      -8.415   3.397  -1.281  1.00  0.00     0.251 C 
ATOM      7  O   UNL     1      -8.756   4.385  -0.639  1.00  0.00    -0.272 OA
ATOM      8  H   UNL     1      -8.865   1.908  -2.608  1.00  0.00     0.164 HD
BRANCH   6   9
ATOM      9  C   UNL     1      -7.015   2.768  -1.199  1.00  0.00     0.219 C 
BRANCH   9  10
ATOM     10  O   UNL     1      -7.047   1.338  -1.279  1.00  0.00    -0.382 OA
ATOM     11  H   UNL     1      -7.318   1.164  -2.208  1.00  0.00     0.211 HD
ENDBRANCH   9  10
BRANCH   9  12
ATOM     12  C   UNL     1      -6.021   3.356  -2.235  1.00  0.00     0.089 C 
BRANCH  12  13
ATOM     13  N   UNL     1      -4.692   3.471  -1.593  1.00  0.00    -0.325 NA
ATOM     14  H   UNL     1      -4.228   2.561  -1.615  1.00  0.00     0.119 HD
ATOM     15  H   UNL     1      -4.820   3.681  -0.600  1.00  0.00     0.119 HD
ENDBRANCH  12  13
BRANCH  12  16
ATOM     16  C   UNL     1      -5.901   2.586  -3.572  1.00  0.00     0.022 C 
BRANCH  16  17
ATOM     17  C   UNL     1      -4.642   1.750  -3.842  1.00  0.00     0.002 C 
BRANCH  17  18
ATOM     18  C   UNL     1      -4.731   0.825  -5.053  1.00  0.00     0.000 C 
BRANCH  18  19
ATOM     19  C   UNL     1      -4.349   1.494  -6.380  1.00  0.00    -0.000 C 
BRANCH  19  20
ATOM     20  C   UNL     1      -4.641   0.665  -7.634  1.00  0.00    -0.000 C 
BRANCH  20  21
ATOM     21  C   UNL     1      -3.634   0.907  -8.761  1.00  0.00    -0.003 C 
ATOM     22  C   UNL     1      -2.350   1.528  -8.234  1.00  0.00     0.004 C 
ENDBRANCH  20  21
ENDBRANCH  19  20
ENDBRANCH  18  19
ENDBRANCH  17  18
ENDBRANCH  16  17
ENDBRANCH  12  16
ENDBRANCH   9  12
ENDBRANCH   6   9
ENDBRANCH   3   5
ENDBRANCH   2   3
BRANCH   2  23
ATOM     23  N   UNL     1     -10.074   4.458  -4.259  1.00  0.00    -0.332 N 
ATOM     24  C   UNL     1      -9.327   3.838  -5.343  1.00  0.00     0.147 C 
BRANCH  23  25
ATOM     25  C   UNL     1      -9.820   5.914  -4.076  1.00  0.00     0.174 C 
BRANCH  25  26
ATOM     26  C   UNL     1     -10.656   6.796  -5.033  1.00  0.00     0.038 C 
BRANCH  26  27
ATOM     27  C   UNL     1     -11.807   7.613  -4.404  1.00  0.00    -0.015 C 
ATOM     28  C   UNL     1     -13.182   7.027  -4.722  1.00  0.00     0.007 C 
ATOM     29  C   UNL     1     -11.649   7.828  -2.901  1.00  0.00     0.007 C 
ENDBRANCH  26  27
ENDBRANCH  25  26
BRANCH  25  30
ATOM     30  C   UNL     1      -8.302   6.201  -4.135  1.00  0.00     0.243 C 
ATOM     31  O   UNL     1      -7.621   6.311  -3.116  1.00  0.00    -0.273 OA
ATOM     32  N   UNL     1      -7.770   6.329  -5.393  1.00  0.00    -0.342 N 
ATOM     33  H   UNL     1      -8.367   6.084  -6.186  1.00  0.00     0.164 HD
BRANCH  32  34
ATOM     34  C   UNL     1      -6.357   6.627  -5.639  1.00  0.00     0.175 C 
BRANCH  34  35
ATOM     35  C   UNL     1      -5.536   5.340  -5.813  1.00  0.00     0.070 C 
BRANCH  35  36
ATOM     36  C   UNL     1      -5.598   4.793  -7.221  1.00  0.00    -0.045 A 
ATOM     37  C   UNL     1      -6.764   4.159  -7.676  1.00  0.00     0.007 A 
ATOM     38  C   UNL     1      -4.494   4.887  -8.078  1.00  0.00     0.007 A 
ATOM     39  C   UNL     1      -6.826   3.639  -8.969  1.00  0.00     0.046 A 
ATOM     40  C   UNL     1      -4.555   4.364  -9.372  1.00  0.00     0.046 A 
ATOM     41  C   UNL     1      -5.723   3.745  -9.807  1.00  0.00     0.115 A 
BRANCH  41  42
ATOM     42  O   UNL     1      -5.823   3.221 -11.061  1.00  0.00    -0.508 OA
ATOM     43  H   UNL     1      -5.749   3.947 -11.702  1.00  0.00     0.293 HD
ENDBRANCH  41  42
ENDBRANCH  35  36
ENDBRANCH  34  35
BRANCH  34  44
ATOM     44  C   UNL     1      -6.270   7.540  -6.883  1.00  0.00     0.243 C 
ATOM     45  O   UNL     1      -5.251   8.117  -7.251  1.00  0.00    -0.273 OA
ATOM     46  N   UNL     1      -7.490   7.761  -7.487  1.00  0.00    -0.341 N 
ATOM     47  H   UNL     1      -8.326   7.354  -7.075  1.00  0.00     0.164 HD
BRANCH  46  48
ATOM     48  C   UNL     1      -7.669   8.645  -8.641  1.00  0.00     0.196 C 
BRANCH  48  49
ATOM     49  C   UNL     1      -8.937   8.283  -9.433  1.00  0.00     0.072 C 
BRANCH  49  50
ATOM     50  C   UNL     1      -8.722   7.121 -10.376  1.00  0.00    -0.045 A 
ATOM     51  C   UNL     1      -7.668   7.157 -11.301  1.00  0.00     0.007 A 
ATOM     52  C   UNL     1      -9.575   6.010 -10.357  1.00  0.00     0.007 A 
ATOM     53  C   UNL     1      -7.468   6.097 -12.184  1.00  0.00     0.046 A 
ATOM     54  C   UNL     1      -9.375   4.949 -11.242  1.00  0.00     0.046 A 
ATOM     55  C   UNL     1      -8.322   5.001 -12.149  1.00  0.00     0.115 A 
BRANCH  55  56
ATOM     56  O   UNL     1      -8.093   3.986 -13.031  1.00  0.00    -0.508 OA
ATOM     57  H   UNL     1      -8.947   3.691 -13.386  1.00  0.00     0.293 HD
ENDBRANCH  55  56
ENDBRANCH  49  50
ENDBRANCH  48  49
BRANCH  48  58
ATOM     58  C   UNL     1      -7.766  10.096  -8.149  1.00  0.00     0.326 C 
ATOM     59  O   UNL     1      -6.909  10.961  -8.224  1.00  0.00    -0.250 OA
BRANCH  58  60
ATOM     60  O   UNL     1      -8.965  10.398  -7.588  1.00  0.00    -0.480 OA
ATOM     61  H   UNL     1      -9.322   9.520  -7.331  1.00  0.00     0.296 HD
ENDBRANCH  58  60
ENDBRANCH  48  58
ENDBRANCH  46  48
ENDBRANCH  34  44
ENDBRANCH  32  34
ENDBRANCH  25  30
ENDBRANCH  23  25
ENDBRANCH   2  23
TORSDOF 28
ENDMDL
MODEL 36
REMARK VINA RESULT:    -5.289      2.084      4.505
REMARK INTER + INTRA:         -19.119
REMARK INTER:                 -14.331
REMARK INTRA:                  -4.788
REMARK UNBOUND:                -5.946
REMARK SMILES CCCCCCC[C@H](N)[C@H](O)C(=O)N[C@H](C)C(=O)N(C)[C@H](CC(C)C)C(=O)N[C@@H](Cc1ccc(O)cc1)C(=O)N[C@@H](Cc1ccc(O)cc1)C(=O)O
REMARK SMILES IDX 18 1 17 2 15 3 16 4 14 5 12 6 13 7 10 9 11 10 8 12 9 13 7 16
REMARK SMILES IDX 6 17 5 18 4 19 3 20 2 21 1 22 19 23 20 24 21 25 22 26 23 27
REMARK SMILES IDX 24 28 25 29 26 30 27 31 28 32 29 34 30 35 31 36 32 37 37 38
REMARK SMILES IDX 33 39 36 40 34 41 35 42 38 44 39 45 40 46 41 48 42 49 43 50
REMARK SMILES IDX 44 51 49 52 45 53 48 54 46 55 47 56 50 58 51 59 52 60
REMARK H PARENT 14 8 11 11 9 14 9 15 28 33 35 43 40 47 47 57 52 61
ROOT
ATOM      1  O   UNL     1      -3.285   8.446  -8.068  1.00  0.00    -0.272 OA
ATOM      2  C   UNL     1      -3.561   7.950  -9.171  1.00  0.00     0.245 C 
ENDROOT
BRANCH   2   3
ATOM      3  C   UNL     1      -2.875   6.623  -9.578  1.00  0.00     0.168 C 
ATOM      4  C   UNL     1      -1.420   6.602  -9.122  1.00  0.00     0.041 C 
BRANCH   3   5
ATOM      5  N   UNL     1      -3.586   5.419  -9.176  1.00  0.00    -0.342 N 
ATOM      6  C   UNL     1      -3.795   4.371 -10.049  1.00  0.00     0.251 C 
ATOM      7  O   UNL     1      -3.442   4.389 -11.223  1.00  0.00    -0.272 OA
ATOM      8  H   UNL     1      -3.956   5.304  -8.236  1.00  0.00     0.164 HD
BRANCH   6   9
ATOM      9  C   UNL     1      -4.439   3.152  -9.369  1.00  0.00     0.219 C 
BRANCH   9  10
ATOM     10  O   UNL     1      -5.442   2.532 -10.183  1.00  0.00    -0.382 OA
ATOM     11  H   UNL     1      -6.278   2.943  -9.872  1.00  0.00     0.211 HD
ENDBRANCH   9  10
BRANCH   9  12
ATOM     12  C   UNL     1      -3.400   2.107  -8.884  1.00  0.00     0.089 C 
BRANCH  12  13
ATOM     13  N   UNL     1      -2.492   2.765  -7.916  1.00  0.00    -0.325 NA
ATOM     14  H   UNL     1      -3.042   3.350  -7.284  1.00  0.00     0.119 HD
ATOM     15  H   UNL     1      -1.886   3.415  -8.421  1.00  0.00     0.119 HD
ENDBRANCH  12  13
BRANCH  12  16
ATOM     16  C   UNL     1      -3.980   0.810  -8.271  1.00  0.00     0.022 C 
BRANCH  16  17
ATOM     17  C   UNL     1      -3.579  -0.544  -8.873  1.00  0.00     0.002 C 
BRANCH  17  18
ATOM     18  C   UNL     1      -4.051  -0.777 -10.306  1.00  0.00     0.000 C 
BRANCH  18  19
ATOM     19  C   UNL     1      -3.124  -1.682 -11.129  1.00  0.00    -0.000 C 
BRANCH  19  20
ATOM     20  C   UNL     1      -2.017  -0.953 -11.896  1.00  0.00    -0.000 C 
BRANCH  20  21
ATOM     21  C   UNL     1      -0.615  -1.272 -11.371  1.00  0.00    -0.003 C 
ATOM     22  C   UNL     1       0.362  -0.148 -11.680  1.00  0.00     0.004 C 
ENDBRANCH  20  21
ENDBRANCH  19  20
ENDBRANCH  18  19
ENDBRANCH  17  18
ENDBRANCH  16  17
ENDBRANCH  12  16
ENDBRANCH   9  12
ENDBRANCH   6   9
ENDBRANCH   3   5
ENDBRANCH   2   3
BRANCH   2  23
ATOM     23  N   UNL     1      -4.557   8.517  -9.959  1.00  0.00    -0.332 N 
ATOM     24  C   UNL     1      -4.343   9.071 -11.287  1.00  0.00     0.147 C 
BRANCH  23  25
ATOM     25  C   UNL     1      -5.979   8.472  -9.520  1.00  0.00     0.174 C 
BRANCH  25  26
ATOM     26  C   UNL     1      -6.352   9.634  -8.569  1.00  0.00     0.038 C 
BRANCH  26  27
ATOM     27  C   UNL     1      -5.580  10.961  -8.748  1.00  0.00    -0.015 C 
ATOM     28  C   UNL     1      -6.415  12.033  -9.446  1.00  0.00     0.007 C 
ATOM     29  C   UNL     1      -4.991  11.500  -7.447  1.00  0.00     0.007 C 
ENDBRANCH  26  27
ENDBRANCH  25  26
BRANCH  25  30
ATOM     30  C   UNL     1      -6.317   7.074  -8.954  1.00  0.00     0.243 C 
ATOM     31  O   UNL     1      -6.616   6.131  -9.686  1.00  0.00    -0.273 OA
ATOM     32  N   UNL     1      -6.269   6.958  -7.589  1.00  0.00    -0.342 N 
ATOM     33  H   UNL     1      -5.877   7.742  -7.061  1.00  0.00     0.164 HD
BRANCH  32  34
ATOM     34  C   UNL     1      -6.585   5.717  -6.877  1.00  0.00     0.175 C 
BRANCH  34  35
ATOM     35  C   UNL     1      -5.881   5.660  -5.513  1.00  0.00     0.070 C 
BRANCH  35  36
ATOM     36  C   UNL     1      -5.884   4.272  -4.911  1.00  0.00    -0.045 A 
ATOM     37  C   UNL     1      -5.100   3.258  -5.482  1.00  0.00     0.007 A 
ATOM     38  C   UNL     1      -6.680   3.973  -3.798  1.00  0.00     0.007 A 
ATOM     39  C   UNL     1      -5.107   1.972  -4.942  1.00  0.00     0.046 A 
ATOM     40  C   UNL     1      -6.689   2.685  -3.258  1.00  0.00     0.046 A 
ATOM     41  C   UNL     1      -5.900   1.696  -3.835  1.00  0.00     0.115 A 
BRANCH  41  42
ATOM     42  O   UNL     1      -5.880   0.425  -3.340  1.00  0.00    -0.508 OA
ATOM     43  H   UNL     1      -6.623   0.328  -2.721  1.00  0.00     0.293 HD
ENDBRANCH  41  42
ENDBRANCH  35  36
ENDBRANCH  34  35
BRANCH  34  44
ATOM     44  C   UNL     1      -8.121   5.623  -6.739  1.00  0.00     0.243 C 
ATOM     45  O   UNL     1      -8.828   4.838  -7.364  1.00  0.00    -0.273 OA
ATOM     46  N   UNL     1      -8.660   6.603  -5.932  1.00  0.00    -0.341 N 
ATOM     47  H   UNL     1      -8.045   7.304  -5.527  1.00  0.00     0.164 HD
BRANCH  46  48
ATOM     48  C   UNL     1     -10.099   6.757  -5.704  1.00  0.00     0.196 C 
BRANCH  48  49
ATOM     49  C   UNL     1     -10.418   6.885  -4.204  1.00  0.00     0.072 C 
BRANCH  49  50
ATOM     50  C   UNL     1     -10.326   5.563  -3.476  1.00  0.00    -0.045 A 
ATOM     51  C   UNL     1      -9.906   5.530  -2.138  1.00  0.00     0.007 A 
ATOM     52  C   UNL     1     -10.635   4.360  -4.124  1.00  0.00     0.007 A 
ATOM     53  C   UNL     1      -9.805   4.315  -1.460  1.00  0.00     0.046 A 
ATOM     54  C   UNL     1     -10.532   3.144  -3.445  1.00  0.00     0.046 A 
ATOM     55  C   UNL     1     -10.119   3.132  -2.117  1.00  0.00     0.115 A 
BRANCH  55  56
ATOM     56  O   UNL     1     -10.005   1.966  -1.419  1.00  0.00    -0.508 OA
ATOM     57  H   UNL     1      -9.065   1.810  -1.236  1.00  0.00     0.293 HD
ENDBRANCH  55  56
ENDBRANCH  49  50
ENDBRANCH  48  49
BRANCH  48  58
ATOM     58  C   UNL     1     -10.589   8.010  -6.442  1.00  0.00     0.326 C 
ATOM     59  O   UNL     1     -11.622   8.630  -6.242  1.00  0.00    -0.250 OA
BRANCH  58  60
ATOM     60  O   UNL     1      -9.735   8.441  -7.405  1.00  0.00    -0.480 OA
ATOM     61  H   UNL     1      -8.897   7.978  -7.186  1.00  0.00     0.296 HD
ENDBRANCH  58  60
ENDBRANCH  48  58
ENDBRANCH  46  48
ENDBRANCH  34  44
ENDBRANCH  32  34
ENDBRANCH  25  30
ENDBRANCH  23  25
ENDBRANCH   2  23
TORSDOF 28
ENDMDL
MODEL 37
REMARK VINA RESULT:    -5.288      2.029      6.511
REMARK INTER + INTRA:         -19.116
REMARK INTER:                 -15.744
REMARK INTRA:                  -3.372
REMARK UNBOUND:                -5.946
REMARK SMILES CCCCCCC[C@H](N)[C@H](O)C(=O)N[C@H](C)C(=O)N(C)[C@H](CC(C)C)C(=O)N[C@@H](Cc1ccc(O)cc1)C(=O)N[C@@H](Cc1ccc(O)cc1)C(=O)O
REMARK SMILES IDX 18 1 17 2 15 3 16 4 14 5 12 6 13 7 10 9 11 10 8 12 9 13 7 16
REMARK SMILES IDX 6 17 5 18 4 19 3 20 2 21 1 22 19 23 20 24 21 25 22 26 23 27
REMARK SMILES IDX 24 28 25 29 26 30 27 31 28 32 29 34 30 35 31 36 32 37 37 38
REMARK SMILES IDX 33 39 36 40 34 41 35 42 38 44 39 45 40 46 41 48 42 49 43 50
REMARK SMILES IDX 44 51 49 52 45 53 48 54 46 55 47 56 50 58 51 59 52 60
REMARK H PARENT 14 8 11 11 9 14 9 15 28 33 35 43 40 47 47 57 52 61
ROOT
ATOM      1  O   UNL     1      -5.484   4.436  -5.853  1.00  0.00    -0.272 OA
ATOM      2  C   UNL     1      -5.459   3.567  -4.969  1.00  0.00     0.245 C 
ENDROOT
BRANCH   2   3
ATOM      3  C   UNL     1      -4.825   2.193  -5.298  1.00  0.00     0.168 C 
ATOM      4  C   UNL     1      -5.381   1.107  -4.383  1.00  0.00     0.041 C 
BRANCH   3   5
ATOM      5  N   UNL     1      -4.894   1.808  -6.700  1.00  0.00    -0.342 N 
ATOM      6  C   UNL     1      -3.763   1.693  -7.479  1.00  0.00     0.251 C 
ATOM      7  O   UNL     1      -2.633   1.943  -7.072  1.00  0.00    -0.272 OA
ATOM      8  H   UNL     1      -5.780   1.610  -7.158  1.00  0.00     0.164 HD
BRANCH   6   9
ATOM      9  C   UNL     1      -4.061   1.139  -8.881  1.00  0.00     0.219 C 
BRANCH   9  10
ATOM     10  O   UNL     1      -3.628   2.017  -9.927  1.00  0.00    -0.382 OA
ATOM     11  H   UNL     1      -4.391   2.035 -10.545  1.00  0.00     0.211 HD
ENDBRANCH   9  10
BRANCH   9  12
ATOM     12  C   UNL     1      -3.507  -0.293  -9.100  1.00  0.00     0.089 C 
BRANCH  12  13
ATOM     13  N   UNL     1      -3.688  -1.061  -7.848  1.00  0.00    -0.325 NA
ATOM     14  H   UNL     1      -3.660  -0.420  -7.053  1.00  0.00     0.119 HD
ATOM     15  H   UNL     1      -2.885  -1.681  -7.720  1.00  0.00     0.119 HD
ENDBRANCH  12  13
BRANCH  12  16
ATOM     16  C   UNL     1      -4.103  -1.076 -10.295  1.00  0.00     0.022 C 
BRANCH  16  17
ATOM     17  C   UNL     1      -3.179  -1.501 -11.445  1.00  0.00     0.002 C 
BRANCH  17  18
ATOM     18  C   UNL     1      -1.688  -1.478 -11.116  1.00  0.00     0.000 C 
BRANCH  18  19
ATOM     19  C   UNL     1      -0.840  -0.678 -12.114  1.00  0.00    -0.000 C 
BRANCH  19  20
ATOM     20  C   UNL     1       0.574  -1.218 -12.346  1.00  0.00    -0.000 C 
BRANCH  20  21
ATOM     21  C   UNL     1       1.640  -0.474 -11.537  1.00  0.00    -0.003 C 
ATOM     22  C   UNL     1       3.041  -0.919 -11.925  1.00  0.00     0.004 C 
ENDBRANCH  20  21
ENDBRANCH  19  20
ENDBRANCH  18  19
ENDBRANCH  17  18
ENDBRANCH  16  17
ENDBRANCH  12  16
ENDBRANCH   9  12
ENDBRANCH   6   9
ENDBRANCH   3   5
ENDBRANCH   2   3
BRANCH   2  23
ATOM     23  N   UNL     1      -5.881   3.875  -3.680  1.00  0.00    -0.332 N 
ATOM     24  C   UNL     1      -5.006   3.939  -2.518  1.00  0.00     0.147 C 
BRANCH  23  25
ATOM     25  C   UNL     1      -7.286   4.296  -3.430  1.00  0.00     0.174 C 
BRANCH  25  26
ATOM     26  C   UNL     1      -8.061   3.304  -2.530  1.00  0.00     0.038 C 
BRANCH  26  27
ATOM     27  C   UNL     1      -9.443   3.762  -2.012  1.00  0.00    -0.015 C 
ATOM     28  C   UNL     1     -10.490   2.650  -2.078  1.00  0.00     0.007 C 
ATOM     29  C   UNL     1      -9.396   4.372  -0.614  1.00  0.00     0.007 C 
ENDBRANCH  26  27
ENDBRANCH  25  26
BRANCH  25  30
ATOM     30  C   UNL     1      -7.995   4.605  -4.769  1.00  0.00     0.243 C 
ATOM     31  O   UNL     1      -8.601   3.739  -5.398  1.00  0.00    -0.273 OA
ATOM     32  N   UNL     1      -7.898   5.901  -5.206  1.00  0.00    -0.342 N 
ATOM     33  H   UNL     1      -7.502   6.590  -4.562  1.00  0.00     0.164 HD
BRANCH  32  34
ATOM     34  C   UNL     1      -8.483   6.368  -6.466  1.00  0.00     0.175 C 
BRANCH  34  35
ATOM     35  C   UNL     1      -9.241   7.691  -6.273  1.00  0.00     0.070 C 
BRANCH  35  36
ATOM     36  C   UNL     1     -10.685   7.485  -5.877  1.00  0.00    -0.045 A 
ATOM     37  C   UNL     1     -11.713   8.036  -6.657  1.00  0.00     0.007 A 
ATOM     38  C   UNL     1     -11.018   6.767  -4.721  1.00  0.00     0.007 A 
ATOM     39  C   UNL     1     -13.048   7.864  -6.292  1.00  0.00     0.046 A 
ATOM     40  C   UNL     1     -12.355   6.595  -4.353  1.00  0.00     0.046 A 
ATOM     41  C   UNL     1     -13.359   7.145  -5.144  1.00  0.00     0.115 A 
BRANCH  41  42
ATOM     42  O   UNL     1     -14.676   7.002  -4.821  1.00  0.00    -0.508 OA
ATOM     43  H   UNL     1     -15.205   7.470  -5.488  1.00  0.00     0.293 HD
ENDBRANCH  41  42
ENDBRANCH  35  36
ENDBRANCH  34  35
BRANCH  34  44
ATOM     44  C   UNL     1      -7.346   6.499  -7.503  1.00  0.00     0.243 C 
ATOM     45  O   UNL     1      -6.629   7.489  -7.625  1.00  0.00    -0.273 OA
ATOM     46  N   UNL     1      -7.283   5.442  -8.386  1.00  0.00    -0.341 N 
ATOM     47  H   UNL     1      -7.975   4.700  -8.317  1.00  0.00     0.164 HD
BRANCH  46  48
ATOM     48  C   UNL     1      -6.332   5.376  -9.498  1.00  0.00     0.196 C 
BRANCH  48  49
ATOM     49  C   UNL     1      -4.944   4.917  -9.021  1.00  0.00     0.072 C 
BRANCH  49  50
ATOM     50  C   UNL     1      -3.824   5.750  -9.601  1.00  0.00    -0.045 A 
ATOM     51  C   UNL     1      -3.178   5.334 -10.774  1.00  0.00     0.007 A 
ATOM     52  C   UNL     1      -3.402   6.929  -8.972  1.00  0.00     0.007 A 
ATOM     53  C   UNL     1      -2.135   6.088 -11.312  1.00  0.00     0.046 A 
ATOM     54  C   UNL     1      -2.356   7.683  -9.509  1.00  0.00     0.046 A 
ATOM     55  C   UNL     1      -1.732   7.256 -10.676  1.00  0.00     0.115 A 
BRANCH  55  56
ATOM     56  O   UNL     1      -0.707   7.963 -11.233  1.00  0.00    -0.508 OA
ATOM     57  H   UNL     1      -1.012   8.871 -11.389  1.00  0.00     0.293 HD
ENDBRANCH  55  56
ENDBRANCH  49  50
ENDBRANCH  48  49
BRANCH  48  58
ATOM     58  C   UNL     1      -6.864   4.396 -10.553  1.00  0.00     0.326 C 
ATOM     59  O   UNL     1      -7.902   4.486 -11.188  1.00  0.00    -0.250 OA
BRANCH  58  60
ATOM     60  O   UNL     1      -6.043   3.338 -10.771  1.00  0.00    -0.480 OA
ATOM     61  H   UNL     1      -5.441   3.355  -9.996  1.00  0.00     0.296 HD
ENDBRANCH  58  60
ENDBRANCH  48  58
ENDBRANCH  46  48
ENDBRANCH  34  44
ENDBRANCH  32  34
ENDBRANCH  25  30
ENDBRANCH  23  25
ENDBRANCH   2  23
TORSDOF 28
ENDMDL
MODEL 38
REMARK VINA RESULT:    -5.256      2.855      5.847
REMARK INTER + INTRA:         -19.037
REMARK INTER:                 -14.528
REMARK INTRA:                  -4.509
REMARK UNBOUND:                -5.946
REMARK SMILES CCCCCCC[C@H](N)[C@H](O)C(=O)N[C@H](C)C(=O)N(C)[C@H](CC(C)C)C(=O)N[C@@H](Cc1ccc(O)cc1)C(=O)N[C@@H](Cc1ccc(O)cc1)C(=O)O
REMARK SMILES IDX 18 1 17 2 15 3 16 4 14 5 12 6 13 7 10 9 11 10 8 12 9 13 7 16
REMARK SMILES IDX 6 17 5 18 4 19 3 20 2 21 1 22 19 23 20 24 21 25 22 26 23 27
REMARK SMILES IDX 24 28 25 29 26 30 27 31 28 32 29 34 30 35 31 36 32 37 37 38
REMARK SMILES IDX 33 39 36 40 34 41 35 42 38 44 39 45 40 46 41 48 42 49 43 50
REMARK SMILES IDX 44 51 49 52 45 53 48 54 46 55 47 56 50 58 51 59 52 60
REMARK H PARENT 14 8 11 11 9 14 9 15 28 33 35 43 40 47 47 57 52 61
ROOT
ATOM      1  O   UNL     1      -6.724   8.667  -6.049  1.00  0.00    -0.272 OA
ATOM      2  C   UNL     1      -7.080   8.339  -7.190  1.00  0.00     0.245 C 
ENDROOT
BRANCH   2   3
ATOM      3  C   UNL     1      -6.005   7.838  -8.187  1.00  0.00     0.168 C 
ATOM      4  C   UNL     1      -4.605   8.184  -7.691  1.00  0.00     0.041 C 
BRANCH   3   5
ATOM      5  N   UNL     1      -6.119   6.436  -8.555  1.00  0.00    -0.342 N 
ATOM      6  C   UNL     1      -6.575   6.043  -9.796  1.00  0.00     0.251 C 
ATOM      7  O   UNL     1      -6.953   6.830 -10.657  1.00  0.00    -0.272 OA
ATOM      8  H   UNL     1      -5.868   5.690  -7.910  1.00  0.00     0.164 HD
BRANCH   6   9
ATOM      9  C   UNL     1      -6.476   4.525 -10.012  1.00  0.00     0.219 C 
BRANCH   9  10
ATOM     10  O   UNL     1      -7.745   3.924 -10.298  1.00  0.00    -0.382 OA
ATOM     11  H   UNL     1      -7.910   4.169 -11.235  1.00  0.00     0.211 HD
ENDBRANCH   9  10
BRANCH   9  12
ATOM     12  C   UNL     1      -5.425   4.129 -11.082  1.00  0.00     0.089 C 
BRANCH  12  13
ATOM     13  N   UNL     1      -5.892   4.620 -12.399  1.00  0.00    -0.325 NA
ATOM     14  H   UNL     1      -6.648   5.293 -12.258  1.00  0.00     0.119 HD
ATOM     15  H   UNL     1      -6.318   3.843 -12.910  1.00  0.00     0.119 HD
ENDBRANCH  12  13
BRANCH  12  16
ATOM     16  C   UNL     1      -3.977   4.607 -10.820  1.00  0.00     0.022 C 
BRANCH  16  17
ATOM     17  C   UNL     1      -3.389   5.723 -11.695  1.00  0.00     0.002 C 
BRANCH  17  18
ATOM     18  C   UNL     1      -1.985   6.179 -11.301  1.00  0.00     0.000 C 
BRANCH  18  19
ATOM     19  C   UNL     1      -1.863   6.629  -9.839  1.00  0.00    -0.000 C 
BRANCH  19  20
ATOM     20  C   UNL     1      -0.882   7.780  -9.594  1.00  0.00    -0.000 C 
BRANCH  20  21
ATOM     21  C   UNL     1      -0.976   8.357  -8.179  1.00  0.00    -0.003 C 
ATOM     22  C   UNL     1      -1.178   9.864  -8.207  1.00  0.00     0.004 C 
ENDBRANCH  20  21
ENDBRANCH  19  20
ENDBRANCH  18  19
ENDBRANCH  17  18
ENDBRANCH  16  17
ENDBRANCH  12  16
ENDBRANCH   9  12
ENDBRANCH   6   9
ENDBRANCH   3   5
ENDBRANCH   2   3
BRANCH   2  23
ATOM     23  N   UNL     1      -8.432   8.309  -7.515  1.00  0.00    -0.332 N 
ATOM     24  C   UNL     1      -9.028   9.022  -8.635  1.00  0.00     0.147 C 
BRANCH  23  25
ATOM     25  C   UNL     1      -9.362   7.408  -6.780  1.00  0.00     0.174 C 
BRANCH  25  26
ATOM     26  C   UNL     1      -9.811   7.988  -5.418  1.00  0.00     0.038 C 
BRANCH  26  27
ATOM     27  C   UNL     1     -11.292   7.788  -5.026  1.00  0.00    -0.015 C 
ATOM     28  C   UNL     1     -12.234   7.897  -6.225  1.00  0.00     0.007 C 
ATOM     29  C   UNL     1     -11.547   6.493  -4.259  1.00  0.00     0.007 C 
ENDBRANCH  26  27
ENDBRANCH  25  26
BRANCH  25  30
ATOM     30  C   UNL     1      -8.760   5.988  -6.682  1.00  0.00     0.243 C 
ATOM     31  O   UNL     1      -8.926   5.149  -7.567  1.00  0.00    -0.273 OA
ATOM     32  N   UNL     1      -8.038   5.726  -5.546  1.00  0.00    -0.342 N 
ATOM     33  H   UNL     1      -7.827   6.513  -4.927  1.00  0.00     0.164 HD
BRANCH  32  34
ATOM     34  C   UNL     1      -7.419   4.427  -5.271  1.00  0.00     0.175 C 
BRANCH  34  35
ATOM     35  C   UNL     1      -5.894   4.552  -5.135  1.00  0.00     0.070 C 
BRANCH  35  36
ATOM     36  C   UNL     1      -5.151   3.418  -5.805  1.00  0.00    -0.045 A 
ATOM     37  C   UNL     1      -4.694   3.560  -7.124  1.00  0.00     0.007 A 
ATOM     38  C   UNL     1      -4.930   2.208  -5.134  1.00  0.00     0.007 A 
ATOM     39  C   UNL     1      -4.021   2.514  -7.755  1.00  0.00     0.046 A 
ATOM     40  C   UNL     1      -4.257   1.160  -5.765  1.00  0.00     0.046 A 
ATOM     41  C   UNL     1      -3.807   1.323  -7.071  1.00  0.00     0.115 A 
BRANCH  41  42
ATOM     42  O   UNL     1      -3.147   0.325  -7.725  1.00  0.00    -0.508 OA
ATOM     43  H   UNL     1      -3.614   0.146  -8.558  1.00  0.00     0.293 HD
ENDBRANCH  41  42
ENDBRANCH  35  36
ENDBRANCH  34  35
BRANCH  34  44
ATOM     44  C   UNL     1      -8.067   3.848  -3.993  1.00  0.00     0.243 C 
ATOM     45  O   UNL     1      -8.830   2.887  -3.976  1.00  0.00    -0.273 OA
ATOM     46  N   UNL     1      -7.814   4.597  -2.863  1.00  0.00    -0.341 N 
ATOM     47  H   UNL     1      -7.271   5.452  -2.948  1.00  0.00     0.164 HD
BRANCH  46  48
ATOM     48  C   UNL     1      -8.376   4.284  -1.547  1.00  0.00     0.196 C 
BRANCH  48  49
ATOM     49  C   UNL     1      -9.859   4.685  -1.462  1.00  0.00     0.072 C 
BRANCH  49  50
ATOM     50  C   UNL     1     -10.153   5.578  -0.279  1.00  0.00    -0.045 A 
ATOM     51  C   UNL     1      -9.986   5.090   1.025  1.00  0.00     0.007 A 
ATOM     52  C   UNL     1     -10.613   6.889  -0.462  1.00  0.00     0.007 A 
ATOM     53  C   UNL     1     -10.267   5.901   2.125  1.00  0.00     0.046 A 
ATOM     54  C   UNL     1     -10.896   7.700   0.639  1.00  0.00     0.046 A 
ATOM     55  C   UNL     1     -10.719   7.199   1.924  1.00  0.00     0.115 A 
BRANCH  55  56
ATOM     56  O   UNL     1     -10.984   7.958   3.025  1.00  0.00    -0.508 OA
ATOM     57  H   UNL     1     -10.140   8.222   3.425  1.00  0.00     0.293 HD
ENDBRANCH  55  56
ENDBRANCH  49  50
ENDBRANCH  48  49
BRANCH  48  58
ATOM     58  C   UNL     1      -8.235   2.778  -1.288  1.00  0.00     0.326 C 
ATOM     59  O   UNL     1      -7.202   2.152  -1.110  1.00  0.00    -0.250 OA
BRANCH  58  60
ATOM     60  O   UNL     1      -9.421   2.121  -1.251  1.00  0.00    -0.480 OA
ATOM     61  H   UNL     1      -9.487   1.827  -0.316  1.00  0.00     0.296 HD
ENDBRANCH  58  60
ENDBRANCH  48  58
ENDBRANCH  46  48
ENDBRANCH  34  44
ENDBRANCH  32  34
ENDBRANCH  25  30
ENDBRANCH  23  25
ENDBRANCH   2  23
TORSDOF 28
ENDMDL
MODEL 39
REMARK VINA RESULT:    -5.247      3.829      8.246
REMARK INTER + INTRA:         -19.016
REMARK INTER:                 -14.614
REMARK INTRA:                  -4.402
REMARK UNBOUND:                -5.946
REMARK SMILES CCCCCCC[C@H](N)[C@H](O)C(=O)N[C@H](C)C(=O)N(C)[C@H](CC(C)C)C(=O)N[C@@H](Cc1ccc(O)cc1)C(=O)N[C@@H](Cc1ccc(O)cc1)C(=O)O
REMARK SMILES IDX 18 1 17 2 15 3 16 4 14 5 12 6 13 7 10 9 11 10 8 12 9 13 7 16
REMARK SMILES IDX 6 17 5 18 4 19 3 20 2 21 1 22 19 23 20 24 21 25 22 26 23 27
REMARK SMILES IDX 24 28 25 29 26 30 27 31 28 32 29 34 30 35 31 36 32 37 37 38
REMARK SMILES IDX 33 39 36 40 34 41 35 42 38 44 39 45 40 46 41 48 42 49 43 50
REMARK SMILES IDX 44 51 49 52 45 53 48 54 46 55 47 56 50 58 51 59 52 60
REMARK H PARENT 14 8 11 11 9 14 9 15 28 33 35 43 40 47 47 57 52 61
ROOT
ATOM      1  O   UNL     1     -11.411   5.481  -3.305  1.00  0.00    -0.272 OA
ATOM      2  C   UNL     1     -10.454   4.706  -3.160  1.00  0.00     0.245 C 
ENDROOT
BRANCH   2   3
ATOM      3  C   UNL     1      -9.250   4.828  -4.127  1.00  0.00     0.168 C 
ATOM      4  C   UNL     1      -8.831   3.456  -4.645  1.00  0.00     0.041 C 
BRANCH   3   5
ATOM      5  N   UNL     1      -9.428   5.785  -5.208  1.00  0.00    -0.342 N 
ATOM      6  C   UNL     1      -8.517   6.792  -5.446  1.00  0.00     0.251 C 
ATOM      7  O   UNL     1      -7.524   6.984  -4.752  1.00  0.00    -0.272 OA
ATOM      8  H   UNL     1     -10.232   5.747  -5.830  1.00  0.00     0.164 HD
BRANCH   6   9
ATOM      9  C   UNL     1      -8.834   7.591  -6.721  1.00  0.00     0.219 C 
BRANCH   9  10
ATOM     10  O   UNL     1      -7.654   8.004  -7.421  1.00  0.00    -0.382 OA
ATOM     11  H   UNL     1      -7.740   8.982  -7.462  1.00  0.00     0.211 HD
ENDBRANCH   9  10
BRANCH   9  12
ATOM     12  C   UNL     1      -9.811   6.854  -7.674  1.00  0.00     0.089 C 
BRANCH  12  13
ATOM     13  N   UNL     1     -10.886   7.796  -8.060  1.00  0.00    -0.325 NA
ATOM     14  H   UNL     1     -11.251   8.251  -7.222  1.00  0.00     0.119 HD
ATOM     15  H   UNL     1     -11.672   7.264  -8.439  1.00  0.00     0.119 HD
ENDBRANCH  12  13
BRANCH  12  16
ATOM     16  C   UNL     1      -9.178   6.222  -8.937  1.00  0.00     0.022 C 
BRANCH  16  17
ATOM     17  C   UNL     1      -8.709   4.762  -8.886  1.00  0.00     0.002 C 
BRANCH  17  18
ATOM     18  C   UNL     1      -7.330   4.549  -8.265  1.00  0.00     0.000 C 
BRANCH  18  19
ATOM     19  C   UNL     1      -6.173   4.634  -9.270  1.00  0.00    -0.000 C 
BRANCH  19  20
ATOM     20  C   UNL     1      -4.772   4.620  -8.651  1.00  0.00    -0.000 C 
BRANCH  20  21
ATOM     21  C   UNL     1      -3.778   3.759  -9.434  1.00  0.00    -0.003 C 
ATOM     22  C   UNL     1      -3.425   4.396 -10.769  1.00  0.00     0.004 C 
ENDBRANCH  20  21
ENDBRANCH  19  20
ENDBRANCH  18  19
ENDBRANCH  17  18
ENDBRANCH  16  17
ENDBRANCH  12  16
ENDBRANCH   9  12
ENDBRANCH   6   9
ENDBRANCH   3   5
ENDBRANCH   2   3
BRANCH   2  23
ATOM     23  N   UNL     1     -10.421   3.837  -2.075  1.00  0.00    -0.332 N 
ATOM     24  C   UNL     1     -11.125   2.565  -2.014  1.00  0.00     0.147 C 
BRANCH  23  25
ATOM     25  C   UNL     1      -9.525   4.113  -0.918  1.00  0.00     0.174 C 
BRANCH  25  26
ATOM     26  C   UNL     1      -9.537   5.599  -0.489  1.00  0.00     0.038 C 
BRANCH  26  27
ATOM     27  C   UNL     1     -10.007   5.908   0.949  1.00  0.00    -0.015 C 
ATOM     28  C   UNL     1     -10.142   7.408   1.211  1.00  0.00     0.007 C 
ATOM     29  C   UNL     1     -11.290   5.179   1.339  1.00  0.00     0.007 C 
ENDBRANCH  26  27
ENDBRANCH  25  26
BRANCH  25  30
ATOM     30  C   UNL     1      -8.109   3.558  -1.197  1.00  0.00     0.243 C 
ATOM     31  O   UNL     1      -7.841   2.365  -1.062  1.00  0.00    -0.273 OA
ATOM     32  N   UNL     1      -7.178   4.481  -1.597  1.00  0.00    -0.342 N 
ATOM     33  H   UNL     1      -7.510   5.422  -1.822  1.00  0.00     0.164 HD
BRANCH  32  34
ATOM     34  C   UNL     1      -5.781   4.141  -1.878  1.00  0.00     0.175 C 
BRANCH  34  35
ATOM     35  C   UNL     1      -5.444   4.345  -3.364  1.00  0.00     0.070 C 
BRANCH  35  36
ATOM     36  C   UNL     1      -5.150   3.046  -4.080  1.00  0.00    -0.045 A 
ATOM     37  C   UNL     1      -4.978   3.036  -5.473  1.00  0.00     0.007 A 
ATOM     38  C   UNL     1      -5.068   1.838  -3.375  1.00  0.00     0.007 A 
ATOM     39  C   UNL     1      -4.720   1.841  -6.145  1.00  0.00     0.046 A 
ATOM     40  C   UNL     1      -4.811   0.641  -4.047  1.00  0.00     0.046 A 
ATOM     41  C   UNL     1      -4.638   0.654  -5.427  1.00  0.00     0.115 A 
BRANCH  41  42
ATOM     42  O   UNL     1      -4.388  -0.493  -6.122  1.00  0.00    -0.508 OA
ATOM     43  H   UNL     1      -4.032  -1.152  -5.503  1.00  0.00     0.293 HD
ENDBRANCH  41  42
ENDBRANCH  35  36
ENDBRANCH  34  35
BRANCH  34  44
ATOM     44  C   UNL     1      -4.884   5.001  -0.960  1.00  0.00     0.243 C 
ATOM     45  O   UNL     1      -3.785   4.651  -0.537  1.00  0.00    -0.273 OA
ATOM     46  N   UNL     1      -5.488   6.167  -0.539  1.00  0.00    -0.341 N 
ATOM     47  H   UNL     1      -6.445   6.357  -0.823  1.00  0.00     0.164 HD
BRANCH  46  48
ATOM     48  C   UNL     1      -4.860   7.109   0.390  1.00  0.00     0.196 C 
BRANCH  48  49
ATOM     49  C   UNL     1      -3.954   8.107  -0.351  1.00  0.00     0.072 C 
BRANCH  49  50
ATOM     50  C   UNL     1      -2.543   8.126   0.192  1.00  0.00    -0.045 A 
ATOM     51  C   UNL     1      -1.553   8.874  -0.461  1.00  0.00     0.007 A 
ATOM     52  C   UNL     1      -2.200   7.389   1.333  1.00  0.00     0.007 A 
ATOM     53  C   UNL     1      -0.245   8.889   0.024  1.00  0.00     0.046 A 
ATOM     54  C   UNL     1      -0.890   7.404   1.818  1.00  0.00     0.046 A 
ATOM     55  C   UNL     1       0.077   8.155   1.159  1.00  0.00     0.115 A 
BRANCH  55  56
ATOM     56  O   UNL     1       1.367   8.195   1.599  1.00  0.00    -0.508 OA
ATOM     57  H   UNL     1       1.950   8.281   0.828  1.00  0.00     0.293 HD
ENDBRANCH  55  56
ENDBRANCH  49  50
ENDBRANCH  48  49
BRANCH  48  58
ATOM     58  C   UNL     1      -5.958   7.873   1.144  1.00  0.00     0.326 C 
ATOM     59  O   UNL     1      -6.722   8.709   0.690  1.00  0.00    -0.250 OA
BRANCH  58  60
ATOM     60  O   UNL     1      -6.053   7.531   2.454  1.00  0.00    -0.480 OA
ATOM     61  H   UNL     1      -5.320   6.889   2.573  1.00  0.00     0.296 HD
ENDBRANCH  58  60
ENDBRANCH  48  58
ENDBRANCH  46  48
ENDBRANCH  34  44
ENDBRANCH  32  34
ENDBRANCH  25  30
ENDBRANCH  23  25
ENDBRANCH   2  23
TORSDOF 28
ENDMDL
MODEL 40
REMARK VINA RESULT:    -5.246      5.681      9.282
REMARK INTER + INTRA:         -19.012
REMARK INTER:                 -14.280
REMARK INTRA:                  -4.732
REMARK UNBOUND:                -5.946
REMARK SMILES CCCCCCC[C@H](N)[C@H](O)C(=O)N[C@H](C)C(=O)N(C)[C@H](CC(C)C)C(=O)N[C@@H](Cc1ccc(O)cc1)C(=O)N[C@@H](Cc1ccc(O)cc1)C(=O)O
REMARK SMILES IDX 18 1 17 2 15 3 16 4 14 5 12 6 13 7 10 9 11 10 8 12 9 13 7 16
REMARK SMILES IDX 6 17 5 18 4 19 3 20 2 21 1 22 19 23 20 24 21 25 22 26 23 27
REMARK SMILES IDX 24 28 25 29 26 30 27 31 28 32 29 34 30 35 31 36 32 37 37 38
REMARK SMILES IDX 33 39 36 40 34 41 35 42 38 44 39 45 40 46 41 48 42 49 43 50
REMARK SMILES IDX 44 51 49 52 45 53 48 54 46 55 47 56 50 58 51 59 52 60
REMARK H PARENT 14 8 11 11 9 14 9 15 28 33 35 43 40 47 47 57 52 61
ROOT
ATOM      1  O   UNL     1     -11.455   6.874  -2.391  1.00  0.00    -0.272 OA
ATOM      2  C   UNL     1     -10.410   6.241  -2.604  1.00  0.00     0.245 C 
ENDROOT
BRANCH   2   3
ATOM      3  C   UNL     1      -9.724   6.385  -3.985  1.00  0.00     0.168 C 
ATOM      4  C   UNL     1      -9.594   7.853  -4.375  1.00  0.00     0.041 C 
BRANCH   3   5
ATOM      5  N   UNL     1      -8.462   5.675  -4.118  1.00  0.00    -0.342 N 
ATOM      6  C   UNL     1      -8.341   4.544  -4.898  1.00  0.00     0.251 C 
ATOM      7  O   UNL     1      -9.281   4.032  -5.497  1.00  0.00    -0.272 OA
ATOM      8  H   UNL     1      -7.619   5.985  -3.639  1.00  0.00     0.164 HD
BRANCH   6   9
ATOM      9  C   UNL     1      -6.890   4.047  -5.003  1.00  0.00     0.219 C 
BRANCH   9  10
ATOM     10  O   UNL     1      -5.935   5.114  -4.954  1.00  0.00    -0.382 OA
ATOM     11  H   UNL     1      -6.434   5.887  -5.300  1.00  0.00     0.211 HD
ENDBRANCH   9  10
BRANCH   9  12
ATOM     12  C   UNL     1      -6.545   2.950  -3.962  1.00  0.00     0.089 C 
BRANCH  12  13
ATOM     13  N   UNL     1      -7.807   2.462  -3.362  1.00  0.00    -0.325 NA
ATOM     14  H   UNL     1      -7.765   2.582  -2.348  1.00  0.00     0.119 HD
ATOM     15  H   UNL     1      -7.875   1.452  -3.509  1.00  0.00     0.119 HD
ENDBRANCH  12  13
BRANCH  12  16
ATOM     16  C   UNL     1      -5.709   1.758  -4.486  1.00  0.00     0.022 C 
BRANCH  16  17
ATOM     17  C   UNL     1      -4.211   1.958  -4.758  1.00  0.00     0.002 C 
BRANCH  17  18
ATOM     18  C   UNL     1      -3.824   1.998  -6.234  1.00  0.00     0.000 C 
BRANCH  18  19
ATOM     19  C   UNL     1      -4.567   0.974  -7.103  1.00  0.00    -0.000 C 
BRANCH  19  20
ATOM     20  C   UNL     1      -4.220  -0.491  -6.821  1.00  0.00    -0.000 C 
BRANCH  20  21
ATOM     21  C   UNL     1      -4.274  -1.372  -8.072  1.00  0.00    -0.003 C 
ATOM     22  C   UNL     1      -3.818  -0.610  -9.306  1.00  0.00     0.004 C 
ENDBRANCH  20  21
ENDBRANCH  19  20
ENDBRANCH  18  19
ENDBRANCH  17  18
ENDBRANCH  16  17
ENDBRANCH  12  16
ENDBRANCH   9  12
ENDBRANCH   6   9
ENDBRANCH   3   5
ENDBRANCH   2   3
BRANCH   2  23
ATOM     23  N   UNL     1      -9.812   5.521  -1.575  1.00  0.00    -0.332 N 
ATOM     24  C   UNL     1     -10.140   4.146  -1.230  1.00  0.00     0.147 C 
BRANCH  23  25
ATOM     25  C   UNL     1      -8.667   6.100  -0.820  1.00  0.00     0.174 C 
BRANCH  25  26
ATOM     26  C   UNL     1      -7.450   5.147  -0.747  1.00  0.00     0.038 C 
BRANCH  26  27
ATOM     27  C   UNL     1      -6.138   5.635  -1.401  1.00  0.00    -0.015 C 
ATOM     28  C   UNL     1      -5.752   7.045  -0.956  1.00  0.00     0.007 C 
ATOM     29  C   UNL     1      -4.969   4.672  -1.210  1.00  0.00     0.007 C 
ENDBRANCH  26  27
ENDBRANCH  25  26
BRANCH  25  30
ATOM     30  C   UNL     1      -9.142   6.608   0.561  1.00  0.00     0.243 C 
ATOM     31  O   UNL     1      -8.415   6.572   1.552  1.00  0.00    -0.273 OA
ATOM     32  N   UNL     1     -10.424   7.093   0.605  1.00  0.00    -0.342 N 
ATOM     33  H   UNL     1     -10.913   7.221  -0.284  1.00  0.00     0.164 HD
BRANCH  32  34
ATOM     34  C   UNL     1     -11.051   7.590   1.833  1.00  0.00     0.175 C 
BRANCH  34  35
ATOM     35  C   UNL     1     -11.889   8.849   1.562  1.00  0.00     0.070 C 
BRANCH  35  36
ATOM     36  C   UNL     1     -11.586   9.972   2.528  1.00  0.00    -0.045 A 
ATOM     37  C   UNL     1     -10.541   9.838   3.455  1.00  0.00     0.007 A 
ATOM     38  C   UNL     1     -12.351  11.146   2.529  1.00  0.00     0.007 A 
ATOM     39  C   UNL     1     -10.263  10.863   4.360  1.00  0.00     0.046 A 
ATOM     40  C   UNL     1     -12.075  12.172   3.435  1.00  0.00     0.046 A 
ATOM     41  C   UNL     1     -11.031  12.022   4.342  1.00  0.00     0.115 A 
BRANCH  41  42
ATOM     42  O   UNL     1     -10.729  12.998   5.244  1.00  0.00    -0.508 OA
ATOM     43  H   UNL     1     -10.326  13.742   4.765  1.00  0.00     0.293 HD
ENDBRANCH  41  42
ENDBRANCH  35  36
ENDBRANCH  34  35
BRANCH  34  44
ATOM     44  C   UNL     1     -11.902   6.448   2.433  1.00  0.00     0.243 C 
ATOM     45  O   UNL     1     -11.550   5.273   2.482  1.00  0.00    -0.273 OA
ATOM     46  N   UNL     1     -13.170   6.844   2.800  1.00  0.00    -0.341 N 
ATOM     47  H   UNL     1     -13.456   7.805   2.631  1.00  0.00     0.164 HD
BRANCH  46  48
ATOM     48  C   UNL     1     -14.180   5.924   3.329  1.00  0.00     0.196 C 
BRANCH  48  49
ATOM     49  C   UNL     1     -14.997   6.578   4.456  1.00  0.00     0.072 C 
BRANCH  49  50
ATOM     50  C   UNL     1     -14.189   7.571   5.260  1.00  0.00    -0.045 A 
ATOM     51  C   UNL     1     -13.276   7.114   6.222  1.00  0.00     0.007 A 
ATOM     52  C   UNL     1     -14.351   8.950   5.075  1.00  0.00     0.007 A 
ATOM     53  C   UNL     1     -12.534   8.022   6.979  1.00  0.00     0.046 A 
ATOM     54  C   UNL     1     -13.609   9.859   5.834  1.00  0.00     0.046 A 
ATOM     55  C   UNL     1     -12.706   9.386   6.779  1.00  0.00     0.115 A 
BRANCH  55  56
ATOM     56  O   UNL     1     -11.963  10.239   7.540  1.00  0.00    -0.508 OA
ATOM     57  H   UNL     1     -12.522  10.571   8.261  1.00  0.00     0.293 HD
ENDBRANCH  55  56
ENDBRANCH  49  50
ENDBRANCH  48  49
BRANCH  48  58
ATOM     58  C   UNL     1     -15.118   5.504   2.190  1.00  0.00     0.326 C 
ATOM     59  O   UNL     1     -15.188   5.989   1.072  1.00  0.00    -0.250 OA
BRANCH  58  60
ATOM     60  O   UNL     1     -15.929   4.465   2.512  1.00  0.00    -0.480 OA
ATOM     61  H   UNL     1     -15.329   3.848   2.985  1.00  0.00     0.296 HD
ENDBRANCH  58  60
ENDBRANCH  48  58
ENDBRANCH  46  48
ENDBRANCH  34  44
ENDBRANCH  32  34
ENDBRANCH  25  30
ENDBRANCH  23  25
ENDBRANCH   2  23
TORSDOF 28
ENDMDL
MODEL 41
REMARK VINA RESULT:    -5.234      4.418      7.020
REMARK INTER + INTRA:         -18.982
REMARK INTER:                 -16.135
REMARK INTRA:                  -2.847
REMARK UNBOUND:                -5.946
REMARK SMILES CCCCCCC[C@H](N)[C@H](O)C(=O)N[C@H](C)C(=O)N(C)[C@H](CC(C)C)C(=O)N[C@@H](Cc1ccc(O)cc1)C(=O)N[C@@H](Cc1ccc(O)cc1)C(=O)O
REMARK SMILES IDX 18 1 17 2 15 3 16 4 14 5 12 6 13 7 10 9 11 10 8 12 9 13 7 16
REMARK SMILES IDX 6 17 5 18 4 19 3 20 2 21 1 22 19 23 20 24 21 25 22 26 23 27
REMARK SMILES IDX 24 28 25 29 26 30 27 31 28 32 29 34 30 35 31 36 32 37 37 38
REMARK SMILES IDX 33 39 36 40 34 41 35 42 38 44 39 45 40 46 41 48 42 49 43 50
REMARK SMILES IDX 44 51 49 52 45 53 48 54 46 55 47 56 50 58 51 59 52 60
REMARK H PARENT 14 8 11 11 9 14 9 15 28 33 35 43 40 47 47 57 52 61
ROOT
ATOM      1  O   UNL     1      -5.415   4.842  -4.603  1.00  0.00    -0.272 OA
ATOM      2  C   UNL     1      -5.434   3.975  -3.717  1.00  0.00     0.245 C 
ENDROOT
BRANCH   2   3
ATOM      3  C   UNL     1      -5.063   2.519  -4.096  1.00  0.00     0.168 C 
ATOM      4  C   UNL     1      -5.827   1.523  -3.231  1.00  0.00     0.041 C 
BRANCH   3   5
ATOM      5  N   UNL     1      -5.178   2.208  -5.512  1.00  0.00    -0.342 N 
ATOM      6  C   UNL     1      -4.083   1.855  -6.271  1.00  0.00     0.251 C 
ATOM      7  O   UNL     1      -2.939   1.815  -5.831  1.00  0.00    -0.272 OA
ATOM      8  H   UNL     1      -6.071   2.241  -5.997  1.00  0.00     0.164 HD
BRANCH   6   9
ATOM      9  C   UNL     1      -4.461   1.433  -7.700  1.00  0.00     0.219 C 
BRANCH   9  10
ATOM     10  O   UNL     1      -4.338   2.504  -8.643  1.00  0.00    -0.382 OA
ATOM     11  H   UNL     1      -4.070   3.270  -8.089  1.00  0.00     0.211 HD
ENDBRANCH   9  10
BRANCH   9  12
ATOM     12  C   UNL     1      -3.691   0.178  -8.189  1.00  0.00     0.089 C 
BRANCH  12  13
ATOM     13  N   UNL     1      -4.267  -1.012  -7.523  1.00  0.00    -0.325 NA
ATOM     14  H   UNL     1      -4.993  -0.714  -6.870  1.00  0.00     0.119 HD
ATOM     15  H   UNL     1      -3.547  -1.447  -6.940  1.00  0.00     0.119 HD
ENDBRANCH  12  13
BRANCH  12  16
ATOM     16  C   UNL     1      -3.649  -0.038  -9.720  1.00  0.00     0.022 C 
BRANCH  16  17
ATOM     17  C   UNL     1      -3.896  -1.444 -10.284  1.00  0.00     0.002 C 
BRANCH  17  18
ATOM     18  C   UNL     1      -2.857  -1.925 -11.295  1.00  0.00     0.000 C 
BRANCH  18  19
ATOM     19  C   UNL     1      -1.918  -0.821 -11.799  1.00  0.00    -0.000 C 
BRANCH  19  20
ATOM     20  C   UNL     1      -1.660  -0.826 -13.308  1.00  0.00    -0.000 C 
BRANCH  20  21
ATOM     21  C   UNL     1      -0.210  -0.493 -13.670  1.00  0.00    -0.003 C 
ATOM     22  C   UNL     1       0.752  -1.534 -13.120  1.00  0.00     0.004 C 
ENDBRANCH  20  21
ENDBRANCH  19  20
ENDBRANCH  18  19
ENDBRANCH  17  18
ENDBRANCH  16  17
ENDBRANCH  12  16
ENDBRANCH   9  12
ENDBRANCH   6   9
ENDBRANCH   3   5
ENDBRANCH   2   3
BRANCH   2  23
ATOM     23  N   UNL     1      -5.664   4.337  -2.394  1.00  0.00    -0.332 N 
ATOM     24  C   UNL     1      -4.638   4.396  -1.363  1.00  0.00     0.147 C 
BRANCH  23  25
ATOM     25  C   UNL     1      -7.005   4.827  -1.972  1.00  0.00     0.174 C 
BRANCH  25  26
ATOM     26  C   UNL     1      -8.130   4.421  -2.953  1.00  0.00     0.038 C 
BRANCH  26  27
ATOM     27  C   UNL     1      -9.218   3.465  -2.413  1.00  0.00    -0.015 C 
ATOM     28  C   UNL     1      -8.899   2.947  -1.011  1.00  0.00     0.007 C 
ATOM     29  C   UNL     1     -10.624   4.059  -2.459  1.00  0.00     0.007 C 
ENDBRANCH  26  27
ENDBRANCH  25  26
BRANCH  25  30
ATOM     30  C   UNL     1      -6.951   6.344  -1.682  1.00  0.00     0.243 C 
ATOM     31  O   UNL     1      -7.055   7.181  -2.577  1.00  0.00    -0.273 OA
ATOM     32  N   UNL     1      -6.773   6.691  -0.367  1.00  0.00    -0.342 N 
ATOM     33  H   UNL     1      -6.837   5.946   0.332  1.00  0.00     0.164 HD
BRANCH  32  34
ATOM     34  C   UNL     1      -6.671   8.080   0.089  1.00  0.00     0.175 C 
BRANCH  34  35
ATOM     35  C   UNL     1      -7.851   8.458   0.997  1.00  0.00     0.070 C 
BRANCH  35  36
ATOM     36  C   UNL     1      -8.941   7.409   1.007  1.00  0.00    -0.045 A 
ATOM     37  C   UNL     1      -8.773   6.232   1.751  1.00  0.00     0.007 A 
ATOM     38  C   UNL     1     -10.115   7.584   0.263  1.00  0.00     0.007 A 
ATOM     39  C   UNL     1      -9.766   5.252   1.757  1.00  0.00     0.046 A 
ATOM     40  C   UNL     1     -11.109   6.603   0.267  1.00  0.00     0.046 A 
ATOM     41  C   UNL     1     -10.926   5.445   1.016  1.00  0.00     0.115 A 
BRANCH  41  42
ATOM     42  O   UNL     1     -11.871   4.463   1.045  1.00  0.00    -0.508 OA
ATOM     43  H   UNL     1     -12.068   4.202   0.130  1.00  0.00     0.293 HD
ENDBRANCH  41  42
ENDBRANCH  35  36
ENDBRANCH  34  35
BRANCH  34  44
ATOM     44  C   UNL     1      -5.313   8.249   0.807  1.00  0.00     0.243 C 
ATOM     45  O   UNL     1      -5.174   8.751   1.919  1.00  0.00    -0.273 OA
ATOM     46  N   UNL     1      -4.232   7.900   0.026  1.00  0.00    -0.341 N 
ATOM     47  H   UNL     1      -4.392   7.599  -0.933  1.00  0.00     0.164 HD
BRANCH  46  48
ATOM     48  C   UNL     1      -2.842   8.039   0.465  1.00  0.00     0.196 C 
BRANCH  48  49
ATOM     49  C   UNL     1      -2.034   6.762   0.180  1.00  0.00     0.072 C 
BRANCH  49  50
ATOM     50  C   UNL     1      -0.825   6.625   1.078  1.00  0.00    -0.045 A 
ATOM     51  C   UNL     1       0.462   6.620   0.521  1.00  0.00     0.007 A 
ATOM     52  C   UNL     1      -0.969   6.481   2.464  1.00  0.00     0.007 A 
ATOM     53  C   UNL     1       1.584   6.481   1.338  1.00  0.00     0.046 A 
ATOM     54  C   UNL     1       0.154   6.341   3.282  1.00  0.00     0.046 A 
ATOM     55  C   UNL     1       1.422   6.343   2.711  1.00  0.00     0.115 A 
BRANCH  55  56
ATOM     56  O   UNL     1       2.544   6.208   3.474  1.00  0.00    -0.508 OA
ATOM     57  H   UNL     1       3.230   5.782   2.937  1.00  0.00     0.293 HD
ENDBRANCH  55  56
ENDBRANCH  49  50
ENDBRANCH  48  49
BRANCH  48  58
ATOM     58  C   UNL     1      -2.203   9.227  -0.267  1.00  0.00     0.326 C 
ATOM     59  O   UNL     1      -1.171   9.809   0.028  1.00  0.00    -0.250 OA
BRANCH  58  60
ATOM     60  O   UNL     1      -2.896   9.623  -1.364  1.00  0.00    -0.480 OA
ATOM     61  H   UNL     1      -2.852  10.603  -1.317  1.00  0.00     0.296 HD
ENDBRANCH  58  60
ENDBRANCH  48  58
ENDBRANCH  46  48
ENDBRANCH  34  44
ENDBRANCH  32  34
ENDBRANCH  25  30
ENDBRANCH  23  25
ENDBRANCH   2  23
TORSDOF 28
ENDMDL
MODEL 42
REMARK VINA RESULT:    -5.208     12.399     17.350
REMARK INTER + INTRA:         -18.918
REMARK INTER:                 -14.621
REMARK INTRA:                  -4.297
REMARK UNBOUND:                -5.946
REMARK SMILES CCCCCCC[C@H](N)[C@H](O)C(=O)N[C@H](C)C(=O)N(C)[C@H](CC(C)C)C(=O)N[C@@H](Cc1ccc(O)cc1)C(=O)N[C@@H](Cc1ccc(O)cc1)C(=O)O
REMARK SMILES IDX 18 1 17 2 15 3 16 4 14 5 12 6 13 7 10 9 11 10 8 12 9 13 7 16
REMARK SMILES IDX 6 17 5 18 4 19 3 20 2 21 1 22 19 23 20 24 21 25 22 26 23 27
REMARK SMILES IDX 24 28 25 29 26 30 27 31 28 32 29 34 30 35 31 36 32 37 37 38
REMARK SMILES IDX 33 39 36 40 34 41 35 42 38 44 39 45 40 46 41 48 42 49 43 50
REMARK SMILES IDX 44 51 49 52 45 53 48 54 46 55 47 56 50 58 51 59 52 60
REMARK H PARENT 14 8 11 11 9 14 9 15 28 33 35 43 40 47 47 57 52 61
ROOT
ATOM      1  O   UNL     1      -1.201   5.040   9.247  1.00  0.00    -0.272 OA
ATOM      2  C   UNL     1      -0.787   5.800  10.135  1.00  0.00     0.245 C 
ENDROOT
BRANCH   2   3
ATOM      3  C   UNL     1      -1.170   5.499  11.605  1.00  0.00     0.168 C 
ATOM      4  C   UNL     1      -2.657   5.741  11.838  1.00  0.00     0.041 C 
BRANCH   3   5
ATOM      5  N   UNL     1      -0.750   4.194  12.091  1.00  0.00    -0.342 N 
ATOM      6  C   UNL     1      -0.710   3.897  13.437  1.00  0.00     0.251 C 
ATOM      7  O   UNL     1      -0.980   4.708  14.317  1.00  0.00    -0.272 OA
ATOM      8  H   UNL     1      -0.469   3.451  11.457  1.00  0.00     0.164 HD
BRANCH   6   9
ATOM      9  C   UNL     1      -0.376   2.422  13.711  1.00  0.00     0.219 C 
BRANCH   9  10
ATOM     10  O   UNL     1       0.036   2.190  15.063  1.00  0.00    -0.382 OA
ATOM     11  H   UNL     1      -0.543   2.788  15.587  1.00  0.00     0.211 HD
ENDBRANCH   9  10
BRANCH   9  12
ATOM     12  C   UNL     1      -1.519   1.454  13.310  1.00  0.00     0.089 C 
BRANCH  12  13
ATOM     13  N   UNL     1      -2.787   2.219  13.272  1.00  0.00    -0.325 NA
ATOM     14  H   UNL     1      -2.903   2.721  14.155  1.00  0.00     0.119 HD
ATOM     15  H   UNL     1      -3.569   1.561  13.235  1.00  0.00     0.119 HD
ENDBRANCH  12  13
BRANCH  12  16
ATOM     16  C   UNL     1      -1.323   0.686  11.981  1.00  0.00     0.022 C 
BRANCH  16  17
ATOM     17  C   UNL     1       0.102   0.402  11.486  1.00  0.00     0.002 C 
BRANCH  17  18
ATOM     18  C   UNL     1       0.253   0.317   9.969  1.00  0.00     0.000 C 
BRANCH  18  19
ATOM     19  C   UNL     1      -0.336   1.516   9.214  1.00  0.00    -0.000 C 
BRANCH  19  20
ATOM     20  C   UNL     1      -0.681   1.254   7.745  1.00  0.00    -0.000 C 
BRANCH  20  21
ATOM     21  C   UNL     1      -0.281   2.408   6.821  1.00  0.00    -0.003 C 
ATOM     22  C   UNL     1       0.994   3.085   7.299  1.00  0.00     0.004 C 
ENDBRANCH  20  21
ENDBRANCH  19  20
ENDBRANCH  18  19
ENDBRANCH  17  18
ENDBRANCH  16  17
ENDBRANCH  12  16
ENDBRANCH   9  12
ENDBRANCH   6   9
ENDBRANCH   3   5
ENDBRANCH   2   3
BRANCH   2  23
ATOM     23  N   UNL     1       0.101   6.823   9.817  1.00  0.00    -0.332 N 
ATOM     24  C   UNL     1       0.364   7.979  10.660  1.00  0.00     0.147 C 
BRANCH  23  25
ATOM     25  C   UNL     1       0.959   6.723   8.604  1.00  0.00     0.174 C 
BRANCH  25  26
ATOM     26  C   UNL     1       2.287   7.503   8.741  1.00  0.00     0.038 C 
BRANCH  26  27
ATOM     27  C   UNL     1       3.110   7.715   7.450  1.00  0.00    -0.015 C 
ATOM     28  C   UNL     1       3.418   9.189   7.189  1.00  0.00     0.007 C 
ATOM     29  C   UNL     1       4.389   6.883   7.402  1.00  0.00     0.007 C 
ENDBRANCH  26  27
ENDBRANCH  25  26
BRANCH  25  30
ATOM     30  C   UNL     1       0.145   7.096   7.344  1.00  0.00     0.243 C 
ATOM     31  O   UNL     1      -0.236   8.246   7.134  1.00  0.00    -0.273 OA
ATOM     32  N   UNL     1      -0.127   6.062   6.485  1.00  0.00    -0.342 N 
ATOM     33  H   UNL     1       0.342   5.168   6.656  1.00  0.00     0.164 HD
BRANCH  32  34
ATOM     34  C   UNL     1      -0.908   6.224   5.256  1.00  0.00     0.175 C 
BRANCH  34  35
ATOM     35  C   UNL     1      -0.385   5.311   4.137  1.00  0.00     0.070 C 
BRANCH  35  36
ATOM     36  C   UNL     1       0.144   6.084   2.951  1.00  0.00    -0.045 A 
ATOM     37  C   UNL     1      -0.732   6.840   2.158  1.00  0.00     0.007 A 
ATOM     38  C   UNL     1       1.503   6.040   2.612  1.00  0.00     0.007 A 
ATOM     39  C   UNL     1      -0.255   7.546   1.053  1.00  0.00     0.046 A 
ATOM     40  C   UNL     1       1.981   6.745   1.505  1.00  0.00     0.046 A 
ATOM     41  C   UNL     1       1.097   7.494   0.736  1.00  0.00     0.115 A 
BRANCH  41  42
ATOM     42  O   UNL     1       1.521   8.195  -0.354  1.00  0.00    -0.508 OA
ATOM     43  H   UNL     1       1.929   7.571  -0.978  1.00  0.00     0.293 HD
ENDBRANCH  41  42
ENDBRANCH  35  36
ENDBRANCH  34  35
BRANCH  34  44
ATOM     44  C   UNL     1      -2.390   5.939   5.590  1.00  0.00     0.243 C 
ATOM     45  O   UNL     1      -3.342   6.472   5.028  1.00  0.00    -0.273 OA
ATOM     46  N   UNL     1      -2.557   5.115   6.682  1.00  0.00    -0.341 N 
ATOM     47  H   UNL     1      -1.736   4.791   7.188  1.00  0.00     0.164 HD
BRANCH  46  48
ATOM     48  C   UNL     1      -3.869   4.757   7.228  1.00  0.00     0.196 C 
BRANCH  48  49
ATOM     49  C   UNL     1      -4.791   5.985   7.320  1.00  0.00     0.072 C 
BRANCH  49  50
ATOM     50  C   UNL     1      -5.339   6.198   8.713  1.00  0.00    -0.045 A 
ATOM     51  C   UNL     1      -5.864   5.114   9.431  1.00  0.00     0.007 A 
ATOM     52  C   UNL     1      -5.350   7.472   9.296  1.00  0.00     0.007 A 
ATOM     53  C   UNL     1      -6.385   5.301  10.711  1.00  0.00     0.046 A 
ATOM     54  C   UNL     1      -5.872   7.659  10.577  1.00  0.00     0.046 A 
ATOM     55  C   UNL     1      -6.384   6.571  11.275  1.00  0.00     0.115 A 
BRANCH  55  56
ATOM     56  O   UNL     1      -6.904   6.712  12.528  1.00  0.00    -0.508 OA
ATOM     57  H   UNL     1      -7.110   7.650  12.670  1.00  0.00     0.293 HD
ENDBRANCH  55  56
ENDBRANCH  49  50
ENDBRANCH  48  49
BRANCH  48  58
ATOM     58  C   UNL     1      -4.513   3.696   6.326  1.00  0.00     0.326 C 
ATOM     59  O   UNL     1      -5.701   3.545   6.094  1.00  0.00    -0.250 OA
BRANCH  58  60
ATOM     60  O   UNL     1      -3.613   2.869   5.736  1.00  0.00    -0.480 OA
ATOM     61  H   UNL     1      -2.862   3.465   5.525  1.00  0.00     0.296 HD
ENDBRANCH  58  60
ENDBRANCH  48  58
ENDBRANCH  46  48
ENDBRANCH  34  44
ENDBRANCH  32  34
ENDBRANCH  25  30
ENDBRANCH  23  25
ENDBRANCH   2  23
TORSDOF 28
ENDMDL
MODEL 43
REMARK VINA RESULT:    -5.186      4.399      9.529
REMARK INTER + INTRA:         -18.863
REMARK INTER:                 -13.165
REMARK INTRA:                  -5.698
REMARK UNBOUND:                -5.946
REMARK SMILES CCCCCCC[C@H](N)[C@H](O)C(=O)N[C@H](C)C(=O)N(C)[C@H](CC(C)C)C(=O)N[C@@H](Cc1ccc(O)cc1)C(=O)N[C@@H](Cc1ccc(O)cc1)C(=O)O
REMARK SMILES IDX 18 1 17 2 15 3 16 4 14 5 12 6 13 7 10 9 11 10 8 12 9 13 7 16
REMARK SMILES IDX 6 17 5 18 4 19 3 20 2 21 1 22 19 23 20 24 21 25 22 26 23 27
REMARK SMILES IDX 24 28 25 29 26 30 27 31 28 32 29 34 30 35 31 36 32 37 37 38
REMARK SMILES IDX 33 39 36 40 34 41 35 42 38 44 39 45 40 46 41 48 42 49 43 50
REMARK SMILES IDX 44 51 49 52 45 53 48 54 46 55 47 56 50 58 51 59 52 60
REMARK H PARENT 14 8 11 11 9 14 9 15 28 33 35 43 40 47 47 57 52 61
ROOT
ATOM      1  O   UNL     1     -11.746   5.069  -3.651  1.00  0.00    -0.272 OA
ATOM      2  C   UNL     1     -10.627   4.646  -3.327  1.00  0.00     0.245 C 
ENDROOT
BRANCH   2   3
ATOM      3  C   UNL     1      -9.384   5.189  -4.074  1.00  0.00     0.168 C 
ATOM      4  C   UNL     1      -9.157   4.427  -5.375  1.00  0.00     0.041 C 
BRANCH   3   5
ATOM      5  N   UNL     1      -9.376   6.629  -4.282  1.00  0.00    -0.342 N 
ATOM      6  C   UNL     1      -8.389   7.435  -3.756  1.00  0.00     0.251 C 
ATOM      7  O   UNL     1      -7.477   7.016  -3.051  1.00  0.00    -0.272 OA
ATOM      8  H   UNL     1     -10.101   7.097  -4.822  1.00  0.00     0.164 HD
BRANCH   6   9
ATOM      9  C   UNL     1      -8.504   8.896  -4.221  1.00  0.00     0.219 C 
BRANCH   9  10
ATOM     10  O   UNL     1      -9.715   9.152  -4.942  1.00  0.00    -0.382 OA
ATOM     11  H   UNL     1     -10.393   9.228  -4.236  1.00  0.00     0.211 HD
ENDBRANCH   9  10
BRANCH   9  12
ATOM     12  C   UNL     1      -8.323   9.918  -3.068  1.00  0.00     0.089 C 
BRANCH  12  13
ATOM     13  N   UNL     1      -9.002   9.388  -1.863  1.00  0.00    -0.325 NA
ATOM     14  H   UNL     1      -9.068  10.129  -1.163  1.00  0.00     0.119 HD
ATOM     15  H   UNL     1      -8.410   8.671  -1.438  1.00  0.00     0.119 HD
ENDBRANCH  12  13
BRANCH  12  16
ATOM     16  C   UNL     1      -6.863  10.305  -2.729  1.00  0.00     0.022 C 
BRANCH  16  17
ATOM     17  C   UNL     1      -6.318  11.656  -3.211  1.00  0.00     0.002 C 
BRANCH  17  18
ATOM     18  C   UNL     1      -4.969  12.056  -2.617  1.00  0.00     0.000 C 
BRANCH  18  19
ATOM     19  C   UNL     1      -3.777  11.287  -3.200  1.00  0.00    -0.000 C 
BRANCH  19  20
ATOM     20  C   UNL     1      -3.846  11.025  -4.708  1.00  0.00    -0.000 C 
BRANCH  20  21
ATOM     21  C   UNL     1      -3.577   9.563  -5.076  1.00  0.00    -0.003 C 
ATOM     22  C   UNL     1      -4.868   8.820  -5.379  1.00  0.00     0.004 C 
ENDBRANCH  20  21
ENDBRANCH  19  20
ENDBRANCH  18  19
ENDBRANCH  17  18
ENDBRANCH  16  17
ENDBRANCH  12  16
ENDBRANCH   9  12
ENDBRANCH   6   9
ENDBRANCH   3   5
ENDBRANCH   2   3
BRANCH   2  23
ATOM     23  N   UNL     1     -10.495   3.796  -2.234  1.00  0.00    -0.332 N 
ATOM     24  C   UNL     1     -11.064   2.459  -2.154  1.00  0.00     0.147 C 
BRANCH  23  25
ATOM     25  C   UNL     1      -9.622   4.176  -1.089  1.00  0.00     0.174 C 
BRANCH  25  26
ATOM     26  C   UNL     1      -9.652   5.692  -0.786  1.00  0.00     0.038 C 
BRANCH  26  27
ATOM     27  C   UNL     1      -9.436   6.117   0.684  1.00  0.00    -0.015 C 
ATOM     28  C   UNL     1     -10.085   7.462   1.005  1.00  0.00     0.007 C 
ATOM     29  C   UNL     1      -9.870   5.056   1.692  1.00  0.00     0.007 C 
ENDBRANCH  26  27
ENDBRANCH  25  26
BRANCH  25  30
ATOM     30  C   UNL     1      -8.198   3.611  -1.296  1.00  0.00     0.243 C 
ATOM     31  O   UNL     1      -7.909   2.452  -0.999  1.00  0.00    -0.273 OA
ATOM     32  N   UNL     1      -7.283   4.486  -1.822  1.00  0.00    -0.342 N 
ATOM     33  H   UNL     1      -7.632   5.382  -2.173  1.00  0.00     0.164 HD
BRANCH  32  34
ATOM     34  C   UNL     1      -5.881   4.133  -2.061  1.00  0.00     0.175 C 
BRANCH  34  35
ATOM     35  C   UNL     1      -5.500   4.324  -3.537  1.00  0.00     0.070 C 
BRANCH  35  36
ATOM     36  C   UNL     1      -5.206   3.017  -4.239  1.00  0.00    -0.045 A 
ATOM     37  C   UNL     1      -5.067   1.836  -3.494  1.00  0.00     0.007 A 
ATOM     38  C   UNL     1      -5.047   2.967  -5.630  1.00  0.00     0.007 A 
ATOM     39  C   UNL     1      -4.782   0.628  -4.131  1.00  0.00     0.046 A 
ATOM     40  C   UNL     1      -4.760   1.758  -6.268  1.00  0.00     0.046 A 
ATOM     41  C   UNL     1      -4.632   0.598  -5.512  1.00  0.00     0.115 A 
BRANCH  41  42
ATOM     42  O   UNL     1      -4.351  -0.602  -6.095  1.00  0.00    -0.508 OA
ATOM     43  H   UNL     1      -5.169  -0.948  -6.488  1.00  0.00     0.293 HD
ENDBRANCH  41  42
ENDBRANCH  35  36
ENDBRANCH  34  35
BRANCH  34  44
ATOM     44  C   UNL     1      -5.004   4.993  -1.123  1.00  0.00     0.243 C 
ATOM     45  O   UNL     1      -3.950   4.616  -0.620  1.00  0.00    -0.273 OA
ATOM     46  N   UNL     1      -5.581   6.200  -0.788  1.00  0.00    -0.341 N 
ATOM     47  H   UNL     1      -6.510   6.418  -1.138  1.00  0.00     0.164 HD
BRANCH  46  48
ATOM     48  C   UNL     1      -4.970   7.154   0.141  1.00  0.00     0.196 C 
BRANCH  48  49
ATOM     49  C   UNL     1      -4.244   8.282  -0.613  1.00  0.00     0.072 C 
BRANCH  49  50
ATOM     50  C   UNL     1      -2.766   8.333  -0.298  1.00  0.00    -0.045 A 
ATOM     51  C   UNL     1      -2.181   7.324   0.481  1.00  0.00     0.007 A 
ATOM     52  C   UNL     1      -1.968   9.389  -0.756  1.00  0.00     0.007 A 
ATOM     53  C   UNL     1      -0.821   7.368   0.789  1.00  0.00     0.046 A 
ATOM     54  C   UNL     1      -0.606   9.434  -0.447  1.00  0.00     0.046 A 
ATOM     55  C   UNL     1      -0.044   8.422   0.322  1.00  0.00     0.115 A 
BRANCH  55  56
ATOM     56  O   UNL     1       1.280   8.429   0.647  1.00  0.00    -0.508 OA
ATOM     57  H   UNL     1       1.369   8.740   1.562  1.00  0.00     0.293 HD
ENDBRANCH  55  56
ENDBRANCH  49  50
ENDBRANCH  48  49
BRANCH  48  58
ATOM     58  C   UNL     1      -6.065   7.754   1.033  1.00  0.00     0.326 C 
ATOM     59  O   UNL     1      -6.247   7.545   2.222  1.00  0.00    -0.250 OA
BRANCH  58  60
ATOM     60  O   UNL     1      -6.885   8.615   0.379  1.00  0.00    -0.480 OA
ATOM     61  H   UNL     1      -7.650   8.706   0.989  1.00  0.00     0.296 HD
ENDBRANCH  58  60
ENDBRANCH  48  58
ENDBRANCH  46  48
ENDBRANCH  34  44
ENDBRANCH  32  34
ENDBRANCH  25  30
ENDBRANCH  23  25
ENDBRANCH   2  23
TORSDOF 28
ENDMDL
MODEL 44
REMARK VINA RESULT:    -5.128     13.113     17.418
REMARK INTER + INTRA:         -18.718
REMARK INTER:                 -13.431
REMARK INTRA:                  -5.288
REMARK UNBOUND:                -5.946
REMARK SMILES CCCCCCC[C@H](N)[C@H](O)C(=O)N[C@H](C)C(=O)N(C)[C@H](CC(C)C)C(=O)N[C@@H](Cc1ccc(O)cc1)C(=O)N[C@@H](Cc1ccc(O)cc1)C(=O)O
REMARK SMILES IDX 18 1 17 2 15 3 16 4 14 5 12 6 13 7 10 9 11 10 8 12 9 13 7 16
REMARK SMILES IDX 6 17 5 18 4 19 3 20 2 21 1 22 19 23 20 24 21 25 22 26 23 27
REMARK SMILES IDX 24 28 25 29 26 30 27 31 28 32 29 34 30 35 31 36 32 37 37 38
REMARK SMILES IDX 33 39 36 40 34 41 35 42 38 44 39 45 40 46 41 48 42 49 43 50
REMARK SMILES IDX 44 51 49 52 45 53 48 54 46 55 47 56 50 58 51 59 52 60
REMARK H PARENT 14 8 11 11 9 14 9 15 28 33 35 43 40 47 47 57 52 61
ROOT
ATOM      1  O   UNL     1      -0.604   7.856   3.952  1.00  0.00    -0.272 OA
ATOM      2  C   UNL     1      -1.208   6.903   4.465  1.00  0.00     0.245 C 
ENDROOT
BRANCH   2   3
ATOM      3  C   UNL     1      -0.599   5.484   4.337  1.00  0.00     0.168 C 
ATOM      4  C   UNL     1       0.067   5.302   2.977  1.00  0.00     0.041 C 
BRANCH   3   5
ATOM      5  N   UNL     1       0.281   5.096   5.428  1.00  0.00    -0.342 N 
ATOM      6  C   UNL     1       1.588   5.530   5.499  1.00  0.00     0.251 C 
ATOM      7  O   UNL     1       2.115   6.230   4.642  1.00  0.00    -0.272 OA
ATOM      8  H   UNL     1      -0.034   4.489   6.181  1.00  0.00     0.164 HD
BRANCH   6   9
ATOM      9  C   UNL     1       2.282   5.113   6.806  1.00  0.00     0.219 C 
BRANCH   9  10
ATOM     10  O   UNL     1       3.679   4.849   6.629  1.00  0.00    -0.382 OA
ATOM     11  H   UNL     1       3.696   4.133   5.957  1.00  0.00     0.211 HD
ENDBRANCH   9  10
BRANCH   9  12
ATOM     12  C   UNL     1       2.054   6.120   7.964  1.00  0.00     0.089 C 
BRANCH  12  13
ATOM     13  N   UNL     1       1.044   7.112   7.529  1.00  0.00    -0.325 NA
ATOM     14  H   UNL     1       1.344   7.531   6.646  1.00  0.00     0.119 HD
ATOM     15  H   UNL     1       1.028   7.884   8.199  1.00  0.00     0.119 HD
ENDBRANCH  12  13
BRANCH  12  16
ATOM     16  C   UNL     1       1.644   5.506   9.324  1.00  0.00     0.022 C 
BRANCH  16  17
ATOM     17  C   UNL     1       0.162   5.495   9.723  1.00  0.00     0.002 C 
BRANCH  17  18
ATOM     18  C   UNL     1      -0.484   4.112   9.762  1.00  0.00     0.000 C 
BRANCH  18  19
ATOM     19  C   UNL     1      -0.857   3.557   8.381  1.00  0.00    -0.000 C 
BRANCH  19  20
ATOM     20  C   UNL     1       0.010   2.394   7.892  1.00  0.00    -0.000 C 
BRANCH  20  21
ATOM     21  C   UNL     1      -0.537   1.024   8.302  1.00  0.00    -0.003 C 
ATOM     22  C   UNL     1       0.554   0.147   8.895  1.00  0.00     0.004 C 
ENDBRANCH  20  21
ENDBRANCH  19  20
ENDBRANCH  18  19
ENDBRANCH  17  18
ENDBRANCH  16  17
ENDBRANCH  12  16
ENDBRANCH   9  12
ENDBRANCH   6   9
ENDBRANCH   3   5
ENDBRANCH   2   3
BRANCH   2  23
ATOM     23  N   UNL     1      -2.340   7.133   5.240  1.00  0.00    -0.332 N 
ATOM     24  C   UNL     1      -3.287   8.215   5.018  1.00  0.00     0.147 C 
BRANCH  23  25
ATOM     25  C   UNL     1      -2.727   6.170   6.307  1.00  0.00     0.174 C 
BRANCH  25  26
ATOM     26  C   UNL     1      -4.083   5.478   6.031  1.00  0.00     0.038 C 
BRANCH  26  27
ATOM     27  C   UNL     1      -4.210   3.995   6.446  1.00  0.00    -0.015 C 
ATOM     28  C   UNL     1      -5.658   3.507   6.433  1.00  0.00     0.007 C 
ATOM     29  C   UNL     1      -3.321   3.059   5.631  1.00  0.00     0.007 C 
ENDBRANCH  26  27
ENDBRANCH  25  26
BRANCH  25  30
ATOM     30  C   UNL     1      -2.648   6.851   7.693  1.00  0.00     0.243 C 
ATOM     31  O   UNL     1      -1.759   7.654   7.973  1.00  0.00    -0.273 OA
ATOM     32  N   UNL     1      -3.626   6.496   8.586  1.00  0.00    -0.342 N 
ATOM     33  H   UNL     1      -4.407   5.935   8.234  1.00  0.00     0.164 HD
BRANCH  32  34
ATOM     34  C   UNL     1      -3.693   7.019   9.953  1.00  0.00     0.175 C 
BRANCH  34  35
ATOM     35  C   UNL     1      -4.871   7.991  10.122  1.00  0.00     0.070 C 
BRANCH  35  36
ATOM     36  C   UNL     1      -5.139   8.339  11.569  1.00  0.00    -0.045 A 
ATOM     37  C   UNL     1      -6.261   7.807  12.223  1.00  0.00     0.007 A 
ATOM     38  C   UNL     1      -4.292   9.209  12.268  1.00  0.00     0.007 A 
ATOM     39  C   UNL     1      -6.524   8.133  13.554  1.00  0.00     0.046 A 
ATOM     40  C   UNL     1      -4.555   9.537  13.600  1.00  0.00     0.046 A 
ATOM     41  C   UNL     1      -5.669   8.994  14.231  1.00  0.00     0.115 A 
BRANCH  41  42
ATOM     42  O   UNL     1      -5.963   9.290  15.529  1.00  0.00    -0.508 OA
ATOM     43  H   UNL     1      -6.272   8.478  15.964  1.00  0.00     0.293 HD
ENDBRANCH  41  42
ENDBRANCH  35  36
ENDBRANCH  34  35
BRANCH  34  44
ATOM     44  C   UNL     1      -3.791   5.819  10.921  1.00  0.00     0.243 C 
ATOM     45  O   UNL     1      -4.656   4.949  10.863  1.00  0.00    -0.273 OA
ATOM     46  N   UNL     1      -2.883   5.875  11.957  1.00  0.00    -0.341 N 
ATOM     47  H   UNL     1      -2.263   6.677  12.028  1.00  0.00     0.164 HD
BRANCH  46  48
ATOM     48  C   UNL     1      -2.830   4.885  13.036  1.00  0.00     0.196 C 
BRANCH  48  49
ATOM     49  C   UNL     1      -1.388   4.667  13.525  1.00  0.00     0.072 C 
BRANCH  49  50
ATOM     50  C   UNL     1      -0.903   3.254  13.297  1.00  0.00    -0.045 A 
ATOM     51  C   UNL     1      -1.714   2.339  12.608  1.00  0.00     0.007 A 
ATOM     52  C   UNL     1       0.341   2.831  13.782  1.00  0.00     0.007 A 
ATOM     53  C   UNL     1      -1.283   1.029  12.403  1.00  0.00     0.046 A 
ATOM     54  C   UNL     1       0.772   1.518  13.578  1.00  0.00     0.046 A 
ATOM     55  C   UNL     1      -0.044   0.628  12.888  1.00  0.00     0.115 A 
BRANCH  55  56
ATOM     56  O   UNL     1       0.339  -0.662  12.668  1.00  0.00    -0.508 OA
ATOM     57  H   UNL     1       0.698  -1.020  13.496  1.00  0.00     0.293 HD
ENDBRANCH  55  56
ENDBRANCH  49  50
ENDBRANCH  48  49
BRANCH  48  58
ATOM     58  C   UNL     1      -3.702   5.370  14.202  1.00  0.00     0.326 C 
ATOM     59  O   UNL     1      -3.480   6.308  14.951  1.00  0.00    -0.250 OA
BRANCH  58  60
ATOM     60  O   UNL     1      -4.840   4.649  14.363  1.00  0.00    -0.480 OA
ATOM     61  H   UNL     1      -5.309   5.125  15.083  1.00  0.00     0.296 HD
ENDBRANCH  58  60
ENDBRANCH  48  58
ENDBRANCH  46  48
ENDBRANCH  34  44
ENDBRANCH  32  34
ENDBRANCH  25  30
ENDBRANCH  23  25
ENDBRANCH   2  23
TORSDOF 28
ENDMDL
MODEL 45
REMARK VINA RESULT:    -5.126     11.381     17.090
REMARK INTER + INTRA:         -18.714
REMARK INTER:                 -14.231
REMARK INTRA:                  -4.484
REMARK UNBOUND:                -5.946
REMARK SMILES CCCCCCC[C@H](N)[C@H](O)C(=O)N[C@H](C)C(=O)N(C)[C@H](CC(C)C)C(=O)N[C@@H](Cc1ccc(O)cc1)C(=O)N[C@@H](Cc1ccc(O)cc1)C(=O)O
REMARK SMILES IDX 18 1 17 2 15 3 16 4 14 5 12 6 13 7 10 9 11 10 8 12 9 13 7 16
REMARK SMILES IDX 6 17 5 18 4 19 3 20 2 21 1 22 19 23 20 24 21 25 22 26 23 27
REMARK SMILES IDX 24 28 25 29 26 30 27 31 28 32 29 34 30 35 31 36 32 37 37 38
REMARK SMILES IDX 33 39 36 40 34 41 35 42 38 44 39 45 40 46 41 48 42 49 43 50
REMARK SMILES IDX 44 51 49 52 45 53 48 54 46 55 47 56 50 58 51 59 52 60
REMARK H PARENT 14 8 11 11 9 14 9 15 28 33 35 43 40 47 47 57 52 61
ROOT
ATOM      1  O   UNL     1      -3.346   6.769   5.665  1.00  0.00    -0.272 OA
ATOM      2  C   UNL     1      -3.536   6.657   6.885  1.00  0.00     0.245 C 
ENDROOT
BRANCH   2   3
ATOM      3  C   UNL     1      -4.485   5.541   7.388  1.00  0.00     0.168 C 
ATOM      4  C   UNL     1      -4.000   4.170   6.930  1.00  0.00     0.041 C 
BRANCH   3   5
ATOM      5  N   UNL     1      -4.759   5.570   8.817  1.00  0.00    -0.342 N 
ATOM      6  C   UNL     1      -5.981   5.193   9.332  1.00  0.00     0.251 C 
ATOM      7  O   UNL     1      -6.931   4.850   8.636  1.00  0.00    -0.272 OA
ATOM      8  H   UNL     1      -4.058   5.870   9.491  1.00  0.00     0.164 HD
BRANCH   6   9
ATOM      9  C   UNL     1      -5.996   5.166  10.868  1.00  0.00     0.219 C 
BRANCH   9  10
ATOM     10  O   UNL     1      -6.890   4.178  11.395  1.00  0.00    -0.382 OA
ATOM     11  H   UNL     1      -6.716   3.388  10.838  1.00  0.00     0.211 HD
ENDBRANCH   9  10
BRANCH   9  12
ATOM     12  C   UNL     1      -4.582   5.015  11.489  1.00  0.00     0.089 C 
BRANCH  12  13
ATOM     13  N   UNL     1      -4.015   6.367  11.694  1.00  0.00    -0.325 NA
ATOM     14  H   UNL     1      -4.561   6.855  12.406  1.00  0.00     0.119 HD
ATOM     15  H   UNL     1      -4.143   6.913  10.839  1.00  0.00     0.119 HD
ENDBRANCH  12  13
BRANCH  12  16
ATOM     16  C   UNL     1      -4.501   4.199  12.801  1.00  0.00     0.022 C 
BRANCH  16  17
ATOM     17  C   UNL     1      -3.445   3.092  12.929  1.00  0.00     0.002 C 
BRANCH  17  18
ATOM     18  C   UNL     1      -2.006   3.545  12.696  1.00  0.00     0.000 C 
BRANCH  18  19
ATOM     19  C   UNL     1      -0.986   2.895  13.641  1.00  0.00    -0.000 C 
BRANCH  19  20
ATOM     20  C   UNL     1      -0.847   1.377  13.504  1.00  0.00    -0.000 C 
BRANCH  20  21
ATOM     21  C   UNL     1      -0.210   0.950  12.179  1.00  0.00    -0.003 C 
ATOM     22  C   UNL     1      -1.190   0.168  11.319  1.00  0.00     0.004 C 
ENDBRANCH  20  21
ENDBRANCH  19  20
ENDBRANCH  18  19
ENDBRANCH  17  18
ENDBRANCH  16  17
ENDBRANCH  12  16
ENDBRANCH   9  12
ENDBRANCH   6   9
ENDBRANCH   3   5
ENDBRANCH   2   3
BRANCH   2  23
ATOM     23  N   UNL     1      -2.812   7.443   7.776  1.00  0.00    -0.332 N 
ATOM     24  C   UNL     1      -3.245   8.741   8.273  1.00  0.00     0.147 C 
BRANCH  23  25
ATOM     25  C   UNL     1      -1.563   6.920   8.394  1.00  0.00     0.174 C 
BRANCH  25  26
ATOM     26  C   UNL     1      -1.302   7.497   9.805  1.00  0.00     0.038 C 
BRANCH  26  27
ATOM     27  C   UNL     1      -0.247   6.775  10.673  1.00  0.00    -0.015 C 
ATOM     28  C   UNL     1      -0.498   6.956  12.170  1.00  0.00     0.007 C 
ATOM     29  C   UNL     1      -0.087   5.297  10.330  1.00  0.00     0.007 C 
ENDBRANCH  26  27
ENDBRANCH  25  26
BRANCH  25  30
ATOM     30  C   UNL     1      -0.374   7.095   7.422  1.00  0.00     0.243 C 
ATOM     31  O   UNL     1       0.310   8.117   7.409  1.00  0.00    -0.273 OA
ATOM     32  N   UNL     1      -0.141   6.043   6.574  1.00  0.00    -0.342 N 
ATOM     33  H   UNL     1      -0.660   5.177   6.741  1.00  0.00     0.164 HD
BRANCH  32  34
ATOM     34  C   UNL     1       0.925   6.044   5.568  1.00  0.00     0.175 C 
BRANCH  34  35
ATOM     35  C   UNL     1       1.619   4.676   5.487  1.00  0.00     0.070 C 
BRANCH  35  36
ATOM     36  C   UNL     1       0.790   3.564   6.089  1.00  0.00    -0.045 A 
ATOM     37  C   UNL     1      -0.239   2.972   5.342  1.00  0.00     0.007 A 
ATOM     38  C   UNL     1       1.020   3.125   7.400  1.00  0.00     0.007 A 
ATOM     39  C   UNL     1      -1.018   1.954   5.894  1.00  0.00     0.046 A 
ATOM     40  C   UNL     1       0.240   2.107   7.954  1.00  0.00     0.046 A 
ATOM     41  C   UNL     1      -0.772   1.529   7.194  1.00  0.00     0.115 A 
BRANCH  41  42
ATOM     42  O   UNL     1      -1.557   0.535   7.697  1.00  0.00    -0.508 OA
ATOM     43  H   UNL     1      -1.020  -0.272   7.766  1.00  0.00     0.293 HD
ENDBRANCH  41  42
ENDBRANCH  35  36
ENDBRANCH  34  35
BRANCH  34  44
ATOM     44  C   UNL     1       0.304   6.459   4.215  1.00  0.00     0.243 C 
ATOM     45  O   UNL     1      -0.845   6.199   3.870  1.00  0.00    -0.273 OA
ATOM     46  N   UNL     1       1.208   7.044   3.353  1.00  0.00    -0.341 N 
ATOM     47  H   UNL     1       2.179   7.132   3.641  1.00  0.00     0.164 HD
BRANCH  46  48
ATOM     48  C   UNL     1       0.869   7.458   1.990  1.00  0.00     0.196 C 
BRANCH  48  49
ATOM     49  C   UNL     1       0.323   8.895   1.961  1.00  0.00     0.072 C 
BRANCH  49  50
ATOM     50  C   UNL     1      -0.870   9.046   1.043  1.00  0.00    -0.045 A 
ATOM     51  C   UNL     1      -2.063   8.368   1.331  1.00  0.00     0.007 A 
ATOM     52  C   UNL     1      -0.797   9.839  -0.109  1.00  0.00     0.007 A 
ATOM     53  C   UNL     1      -3.165   8.488   0.485  1.00  0.00     0.046 A 
ATOM     54  C   UNL     1      -1.901   9.959  -0.957  1.00  0.00     0.046 A 
ATOM     55  C   UNL     1      -3.077   9.282  -0.651  1.00  0.00     0.115 A 
BRANCH  55  56
ATOM     56  O   UNL     1      -4.176   9.372  -1.453  1.00  0.00    -0.508 OA
ATOM     57  H   UNL     1      -4.875   9.833  -0.963  1.00  0.00     0.293 HD
ENDBRANCH  55  56
ENDBRANCH  49  50
ENDBRANCH  48  49
BRANCH  48  58
ATOM     58  C   UNL     1       2.127   7.368   1.114  1.00  0.00     0.326 C 
ATOM     59  O   UNL     1       2.294   7.858   0.009  1.00  0.00    -0.250 OA
BRANCH  58  60
ATOM     60  O   UNL     1       3.136   6.664   1.687  1.00  0.00    -0.480 OA
ATOM     61  H   UNL     1       3.840   7.337   1.807  1.00  0.00     0.296 HD
ENDBRANCH  58  60
ENDBRANCH  48  58
ENDBRANCH  46  48
ENDBRANCH  34  44
ENDBRANCH  32  34
ENDBRANCH  25  30
ENDBRANCH  23  25
ENDBRANCH   2  23
TORSDOF 28
ENDMDL
MODEL 46
REMARK VINA RESULT:    -5.113      3.875      8.539
REMARK INTER + INTRA:         -18.680
REMARK INTER:                 -13.247
REMARK INTRA:                  -5.433
REMARK UNBOUND:                -5.946
REMARK SMILES CCCCCCC[C@H](N)[C@H](O)C(=O)N[C@H](C)C(=O)N(C)[C@H](CC(C)C)C(=O)N[C@@H](Cc1ccc(O)cc1)C(=O)N[C@@H](Cc1ccc(O)cc1)C(=O)O
REMARK SMILES IDX 18 1 17 2 15 3 16 4 14 5 12 6 13 7 10 9 11 10 8 12 9 13 7 16
REMARK SMILES IDX 6 17 5 18 4 19 3 20 2 21 1 22 19 23 20 24 21 25 22 26 23 27
REMARK SMILES IDX 24 28 25 29 26 30 27 31 28 32 29 34 30 35 31 36 32 37 37 38
REMARK SMILES IDX 33 39 36 40 34 41 35 42 38 44 39 45 40 46 41 48 42 49 43 50
REMARK SMILES IDX 44 51 49 52 45 53 48 54 46 55 47 56 50 58 51 59 52 60
REMARK H PARENT 14 8 11 11 9 14 9 15 28 33 35 43 40 47 47 57 52 61
ROOT
ATOM      1  O   UNL     1     -11.683   5.187  -3.636  1.00  0.00    -0.272 OA
ATOM      2  C   UNL     1     -10.643   4.598  -3.306  1.00  0.00     0.245 C 
ENDROOT
BRANCH   2   3
ATOM      3  C   UNL     1      -9.354   4.857  -4.125  1.00  0.00     0.168 C 
ATOM      4  C   UNL     1      -9.035   3.666  -5.022  1.00  0.00     0.041 C 
BRANCH   3   5
ATOM      5  N   UNL     1      -9.339   6.110  -4.862  1.00  0.00    -0.342 N 
ATOM      6  C   UNL     1      -8.643   7.212  -4.411  1.00  0.00     0.251 C 
ATOM      7  O   UNL     1      -8.028   7.235  -3.350  1.00  0.00    -0.272 OA
ATOM      8  H   UNL     1      -9.842   6.223  -5.739  1.00  0.00     0.164 HD
BRANCH   6   9
ATOM      9  C   UNL     1      -8.651   8.374  -5.418  1.00  0.00     0.219 C 
BRANCH   9  10
ATOM     10  O   UNL     1      -9.317   9.538  -4.913  1.00  0.00    -0.382 OA
ATOM     11  H   UNL     1      -9.640   9.254  -4.029  1.00  0.00     0.211 HD
ENDBRANCH   9  10
BRANCH   9  12
ATOM     12  C   UNL     1      -7.238   8.733  -5.945  1.00  0.00     0.089 C 
BRANCH  12  13
ATOM     13  N   UNL     1      -6.503   9.437  -4.869  1.00  0.00    -0.325 NA
ATOM     14  H   UNL     1      -5.656   9.856  -5.260  1.00  0.00     0.119 HD
ATOM     15  H   UNL     1      -6.171   8.748  -4.190  1.00  0.00     0.119 HD
ENDBRANCH  12  13
BRANCH  12  16
ATOM     16  C   UNL     1      -6.394   7.551  -6.480  1.00  0.00     0.022 C 
BRANCH  16  17
ATOM     17  C   UNL     1      -6.074   7.481  -7.980  1.00  0.00     0.002 C 
BRANCH  17  18
ATOM     18  C   UNL     1      -4.808   6.704  -8.333  1.00  0.00     0.000 C 
BRANCH  18  19
ATOM     19  C   UNL     1      -5.054   5.227  -8.669  1.00  0.00    -0.000 C 
BRANCH  19  20
ATOM     20  C   UNL     1      -6.318   4.948  -9.487  1.00  0.00    -0.000 C 
BRANCH  20  21
ATOM     21  C   UNL     1      -7.315   4.042  -8.760  1.00  0.00    -0.003 C 
ATOM     22  C   UNL     1      -8.636   4.755  -8.515  1.00  0.00     0.004 C 
ENDBRANCH  20  21
ENDBRANCH  19  20
ENDBRANCH  18  19
ENDBRANCH  17  18
ENDBRANCH  16  17
ENDBRANCH  12  16
ENDBRANCH   9  12
ENDBRANCH   6   9
ENDBRANCH   3   5
ENDBRANCH   2   3
BRANCH   2  23
ATOM     23  N   UNL     1     -10.619   3.824  -2.151  1.00  0.00    -0.332 N 
ATOM     24  C   UNL     1     -11.304   2.549  -1.997  1.00  0.00     0.147 C 
BRANCH  23  25
ATOM     25  C   UNL     1      -9.751   4.211  -1.005  1.00  0.00     0.174 C 
BRANCH  25  26
ATOM     26  C   UNL     1      -9.845   5.716  -0.661  1.00  0.00     0.038 C 
BRANCH  26  27
ATOM     27  C   UNL     1     -10.572   6.091   0.650  1.00  0.00    -0.015 C 
ATOM     28  C   UNL     1     -11.409   7.362   0.511  1.00  0.00     0.007 C 
ATOM     29  C   UNL     1     -11.414   4.954   1.224  1.00  0.00     0.007 C 
ENDBRANCH  26  27
ENDBRANCH  25  26
BRANCH  25  30
ATOM     30  C   UNL     1      -8.306   3.716  -1.240  1.00  0.00     0.243 C 
ATOM     31  O   UNL     1      -7.980   2.546  -1.049  1.00  0.00    -0.273 OA
ATOM     32  N   UNL     1      -7.415   4.667  -1.669  1.00  0.00    -0.342 N 
ATOM     33  H   UNL     1      -7.791   5.580  -1.940  1.00  0.00     0.164 HD
BRANCH  32  34
ATOM     34  C   UNL     1      -5.999   4.385  -1.917  1.00  0.00     0.175 C 
BRANCH  34  35
ATOM     35  C   UNL     1      -5.624   4.655  -3.382  1.00  0.00     0.070 C 
BRANCH  35  36
ATOM     36  C   UNL     1      -5.296   3.391  -4.144  1.00  0.00    -0.045 A 
ATOM     37  C   UNL     1      -5.061   2.194  -3.450  1.00  0.00     0.007 A 
ATOM     38  C   UNL     1      -5.198   3.399  -5.542  1.00  0.00     0.007 A 
ATOM     39  C   UNL     1      -4.744   1.026  -4.144  1.00  0.00     0.046 A 
ATOM     40  C   UNL     1      -4.880   2.230  -6.237  1.00  0.00     0.046 A 
ATOM     41  C   UNL     1      -4.657   1.052  -5.530  1.00  0.00     0.115 A 
BRANCH  41  42
ATOM     42  O   UNL     1      -4.342  -0.110  -6.170  1.00  0.00    -0.508 OA
ATOM     43  H   UNL     1      -4.318  -0.823  -5.510  1.00  0.00     0.293 HD
ENDBRANCH  41  42
ENDBRANCH  35  36
ENDBRANCH  34  35
BRANCH  34  44
ATOM     44  C   UNL     1      -5.162   5.241  -0.940  1.00  0.00     0.243 C 
ATOM     45  O   UNL     1      -4.055   4.926  -0.514  1.00  0.00    -0.273 OA
ATOM     46  N   UNL     1      -5.831   6.353  -0.473  1.00  0.00    -0.341 N 
ATOM     47  H   UNL     1      -6.793   6.510  -0.765  1.00  0.00     0.164 HD
BRANCH  46  48
ATOM     48  C   UNL     1      -5.268   7.278   0.513  1.00  0.00     0.196 C 
BRANCH  48  49
ATOM     49  C   UNL     1      -4.945   8.642  -0.118  1.00  0.00     0.072 C 
BRANCH  49  50
ATOM     50  C   UNL     1      -3.495   9.035   0.056  1.00  0.00    -0.045 A 
ATOM     51  C   UNL     1      -2.653   9.115  -1.062  1.00  0.00     0.007 A 
ATOM     52  C   UNL     1      -2.969   9.304   1.326  1.00  0.00     0.007 A 
ATOM     53  C   UNL     1      -1.311   9.464  -0.912  1.00  0.00     0.046 A 
ATOM     54  C   UNL     1      -1.625   9.652   1.477  1.00  0.00     0.046 A 
ATOM     55  C   UNL     1      -0.807   9.730   0.355  1.00  0.00     0.115 A 
BRANCH  55  56
ATOM     56  O   UNL     1       0.510  10.066   0.459  1.00  0.00    -0.508 OA
ATOM     57  H   UNL     1       1.039   9.254   0.397  1.00  0.00     0.293 HD
ENDBRANCH  55  56
ENDBRANCH  49  50
ENDBRANCH  48  49
BRANCH  48  58
ATOM     58  C   UNL     1      -6.276   7.465   1.655  1.00  0.00     0.326 C 
ATOM     59  O   UNL     1      -7.488   7.326   1.601  1.00  0.00    -0.250 OA
BRANCH  58  60
ATOM     60  O   UNL     1      -5.701   7.809   2.835  1.00  0.00    -0.480 OA
ATOM     61  H   UNL     1      -5.808   7.002   3.383  1.00  0.00     0.296 HD
ENDBRANCH  58  60
ENDBRANCH  48  58
ENDBRANCH  46  48
ENDBRANCH  34  44
ENDBRANCH  32  34
ENDBRANCH  25  30
ENDBRANCH  23  25
ENDBRANCH   2  23
TORSDOF 28
ENDMDL
MODEL 47
REMARK VINA RESULT:    -5.095      4.090      6.937
REMARK INTER + INTRA:         -18.636
REMARK INTER:                 -15.101
REMARK INTRA:                  -3.535
REMARK UNBOUND:                -5.946
REMARK SMILES CCCCCCC[C@H](N)[C@H](O)C(=O)N[C@H](C)C(=O)N(C)[C@H](CC(C)C)C(=O)N[C@@H](Cc1ccc(O)cc1)C(=O)N[C@@H](Cc1ccc(O)cc1)C(=O)O
REMARK SMILES IDX 18 1 17 2 15 3 16 4 14 5 12 6 13 7 10 9 11 10 8 12 9 13 7 16
REMARK SMILES IDX 6 17 5 18 4 19 3 20 2 21 1 22 19 23 20 24 21 25 22 26 23 27
REMARK SMILES IDX 24 28 25 29 26 30 27 31 28 32 29 34 30 35 31 36 32 37 37 38
REMARK SMILES IDX 33 39 36 40 34 41 35 42 38 44 39 45 40 46 41 48 42 49 43 50
REMARK SMILES IDX 44 51 49 52 45 53 48 54 46 55 47 56 50 58 51 59 52 60
REMARK H PARENT 14 8 11 11 9 14 9 15 28 33 35 43 40 47 47 57 52 61
ROOT
ATOM      1  O   UNL     1      -5.453   4.971  -3.875  1.00  0.00    -0.272 OA
ATOM      2  C   UNL     1      -6.144   4.024  -4.280  1.00  0.00     0.245 C 
ENDROOT
BRANCH   2   3
ATOM      3  C   UNL     1      -6.153   3.709  -5.796  1.00  0.00     0.168 C 
ATOM      4  C   UNL     1      -7.159   4.592  -6.527  1.00  0.00     0.041 C 
BRANCH   3   5
ATOM      5  N   UNL     1      -4.846   3.734  -6.433  1.00  0.00    -0.342 N 
ATOM      6  C   UNL     1      -4.342   2.640  -7.105  1.00  0.00     0.251 C 
ATOM      7  O   UNL     1      -4.926   1.565  -7.180  1.00  0.00    -0.272 OA
ATOM      8  H   UNL     1      -4.253   4.560  -6.407  1.00  0.00     0.164 HD
BRANCH   6   9
ATOM      9  C   UNL     1      -3.013   2.941  -7.817  1.00  0.00     0.219 C 
BRANCH   9  10
ATOM     10  O   UNL     1      -1.976   2.019  -7.463  1.00  0.00    -0.382 OA
ATOM     11  H   UNL     1      -2.385   1.139  -7.618  1.00  0.00     0.211 HD
ENDBRANCH   9  10
BRANCH   9  12
ATOM     12  C   UNL     1      -3.158   3.042  -9.358  1.00  0.00     0.089 C 
BRANCH  12  13
ATOM     13  N   UNL     1      -3.323   1.675  -9.903  1.00  0.00    -0.325 NA
ATOM     14  H   UNL     1      -2.429   1.182  -9.848  1.00  0.00     0.119 HD
ATOM     15  H   UNL     1      -3.532   1.739 -10.902  1.00  0.00     0.119 HD
ENDBRANCH  12  13
BRANCH  12  16
ATOM     16  C   UNL     1      -4.292   3.959  -9.874  1.00  0.00     0.022 C 
BRANCH  16  17
ATOM     17  C   UNL     1      -3.954   5.390 -10.315  1.00  0.00     0.002 C 
BRANCH  17  18
ATOM     18  C   UNL     1      -2.733   5.512 -11.223  1.00  0.00     0.000 C 
BRANCH  18  19
ATOM     19  C   UNL     1      -1.860   6.741 -10.935  1.00  0.00    -0.000 C 
BRANCH  19  20
ATOM     20  C   UNL     1      -1.038   6.667  -9.644  1.00  0.00    -0.000 C 
BRANCH  20  21
ATOM     21  C   UNL     1      -1.272   7.860  -8.715  1.00  0.00    -0.003 C 
ATOM     22  C   UNL     1      -2.360   8.777  -9.253  1.00  0.00     0.004 C 
ENDBRANCH  20  21
ENDBRANCH  19  20
ENDBRANCH  18  19
ENDBRANCH  17  18
ENDBRANCH  16  17
ENDBRANCH  12  16
ENDBRANCH   9  12
ENDBRANCH   6   9
ENDBRANCH   3   5
ENDBRANCH   2   3
BRANCH   2  23
ATOM     23  N   UNL     1      -6.793   3.197  -3.369  1.00  0.00    -0.332 N 
ATOM     24  C   UNL     1      -6.186   2.042  -2.725  1.00  0.00     0.147 C 
BRANCH  23  25
ATOM     25  C   UNL     1      -8.160   3.537  -2.888  1.00  0.00     0.174 C 
BRANCH  25  26
ATOM     26  C   UNL     1      -9.264   3.181  -3.911  1.00  0.00     0.038 C 
BRANCH  26  27
ATOM     27  C   UNL     1     -10.503   2.430  -3.372  1.00  0.00    -0.015 C 
ATOM     28  C   UNL     1     -10.746   2.695  -1.887  1.00  0.00     0.007 C 
ATOM     29  C   UNL     1     -11.771   2.694  -4.179  1.00  0.00     0.007 C 
ENDBRANCH  26  27
ENDBRANCH  25  26
BRANCH  25  30
ATOM     30  C   UNL     1      -8.206   5.006  -2.409  1.00  0.00     0.243 C 
ATOM     31  O   UNL     1      -8.865   5.861  -2.999  1.00  0.00    -0.273 OA
ATOM     32  N   UNL     1      -7.463   5.290  -1.293  1.00  0.00    -0.342 N 
ATOM     33  H   UNL     1      -7.059   4.502  -0.779  1.00  0.00     0.164 HD
BRANCH  32  34
ATOM     34  C   UNL     1      -7.366   6.633  -0.714  1.00  0.00     0.175 C 
BRANCH  34  35
ATOM     35  C   UNL     1      -7.797   6.637   0.761  1.00  0.00     0.070 C 
BRANCH  35  36
ATOM     36  C   UNL     1      -9.294   6.512   0.934  1.00  0.00    -0.045 A 
ATOM     37  C   UNL     1      -9.825   5.484   1.727  1.00  0.00     0.007 A 
ATOM     38  C   UNL     1     -10.168   7.399   0.292  1.00  0.00     0.007 A 
ATOM     39  C   UNL     1     -11.206   5.352   1.882  1.00  0.00     0.046 A 
ATOM     40  C   UNL     1     -11.551   7.267   0.445  1.00  0.00     0.046 A 
ATOM     41  C   UNL     1     -12.057   6.244   1.240  1.00  0.00     0.115 A 
BRANCH  41  42
ATOM     42  O   UNL     1     -13.399   6.078   1.414  1.00  0.00    -0.508 OA
ATOM     43  H   UNL     1     -13.662   5.250   0.981  1.00  0.00     0.293 HD
ENDBRANCH  41  42
ENDBRANCH  35  36
ENDBRANCH  34  35
BRANCH  34  44
ATOM     44  C   UNL     1      -5.914   7.128  -0.893  1.00  0.00     0.243 C 
ATOM     45  O   UNL     1      -5.520   7.792  -1.848  1.00  0.00    -0.273 OA
ATOM     46  N   UNL     1      -5.047   6.645   0.065  1.00  0.00    -0.341 N 
ATOM     47  H   UNL     1      -5.399   6.002   0.770  1.00  0.00     0.164 HD
BRANCH  46  48
ATOM     48  C   UNL     1      -3.609   6.922   0.063  1.00  0.00     0.196 C 
BRANCH  48  49
ATOM     49  C   UNL     1      -3.198   7.753   1.291  1.00  0.00     0.072 C 
BRANCH  49  50
ATOM     50  C   UNL     1      -2.222   8.856   0.946  1.00  0.00    -0.045 A 
ATOM     51  C   UNL     1      -1.163   9.149   1.818  1.00  0.00     0.007 A 
ATOM     52  C   UNL     1      -2.370   9.609  -0.225  1.00  0.00     0.007 A 
ATOM     53  C   UNL     1      -0.265  10.173   1.517  1.00  0.00     0.046 A 
ATOM     54  C   UNL     1      -1.471  10.635  -0.526  1.00  0.00     0.046 A 
ATOM     55  C   UNL     1      -0.424  10.907   0.349  1.00  0.00     0.115 A 
BRANCH  55  56
ATOM     56  O   UNL     1       0.474  11.900   0.093  1.00  0.00    -0.508 OA
ATOM     57  H   UNL     1       0.004  12.749   0.106  1.00  0.00     0.293 HD
ENDBRANCH  55  56
ENDBRANCH  49  50
ENDBRANCH  48  49
BRANCH  48  58
ATOM     58  C   UNL     1      -2.844   5.591   0.063  1.00  0.00     0.326 C 
ATOM     59  O   UNL     1      -1.741   5.373   0.538  1.00  0.00    -0.250 OA
BRANCH  58  60
ATOM     60  O   UNL     1      -3.521   4.578  -0.534  1.00  0.00    -0.480 OA
ATOM     61  H   UNL     1      -3.280   4.672  -1.481  1.00  0.00     0.296 HD
ENDBRANCH  58  60
ENDBRANCH  48  58
ENDBRANCH  46  48
ENDBRANCH  34  44
ENDBRANCH  32  34
ENDBRANCH  25  30
ENDBRANCH  23  25
ENDBRANCH   2  23
TORSDOF 28
ENDMDL
MODEL 48
REMARK VINA RESULT:    -5.094     11.730     17.396
REMARK INTER + INTRA:         -18.635
REMARK INTER:                 -13.450
REMARK INTRA:                  -5.185
REMARK UNBOUND:                -5.946
REMARK SMILES CCCCCCC[C@H](N)[C@H](O)C(=O)N[C@H](C)C(=O)N(C)[C@H](CC(C)C)C(=O)N[C@@H](Cc1ccc(O)cc1)C(=O)N[C@@H](Cc1ccc(O)cc1)C(=O)O
REMARK SMILES IDX 18 1 17 2 15 3 16 4 14 5 12 6 13 7 10 9 11 10 8 12 9 13 7 16
REMARK SMILES IDX 6 17 5 18 4 19 3 20 2 21 1 22 19 23 20 24 21 25 22 26 23 27
REMARK SMILES IDX 24 28 25 29 26 30 27 31 28 32 29 34 30 35 31 36 32 37 37 38
REMARK SMILES IDX 33 39 36 40 34 41 35 42 38 44 39 45 40 46 41 48 42 49 43 50
REMARK SMILES IDX 44 51 49 52 45 53 48 54 46 55 47 56 50 58 51 59 52 60
REMARK H PARENT 14 8 11 11 9 14 9 15 28 33 35 43 40 47 47 57 52 61
ROOT
ATOM      1  O   UNL     1      -4.699   5.181   8.716  1.00  0.00    -0.272 OA
ATOM      2  C   UNL     1      -4.925   5.974   9.643  1.00  0.00     0.245 C 
ENDROOT
BRANCH   2   3
ATOM      3  C   UNL     1      -4.899   5.441  11.097  1.00  0.00     0.168 C 
ATOM      4  C   UNL     1      -5.930   4.333  11.286  1.00  0.00     0.041 C 
BRANCH   3   5
ATOM      5  N   UNL     1      -3.585   5.046  11.580  1.00  0.00    -0.342 N 
ATOM      6  C   UNL     1      -3.258   5.091  12.919  1.00  0.00     0.251 C 
ATOM      7  O   UNL     1      -4.020   5.499  13.788  1.00  0.00    -0.272 OA
ATOM      8  H   UNL     1      -2.856   4.723  10.948  1.00  0.00     0.164 HD
BRANCH   6   9
ATOM      9  C   UNL     1      -1.871   4.495  13.212  1.00  0.00     0.219 C 
BRANCH   9  10
ATOM     10  O   UNL     1      -1.276   5.037  14.397  1.00  0.00    -0.382 OA
ATOM     11  H   UNL     1      -1.359   6.009  14.273  1.00  0.00     0.211 HD
ENDBRANCH   9  10
BRANCH   9  12
ATOM     12  C   UNL     1      -1.871   2.944  13.256  1.00  0.00     0.089 C 
BRANCH  12  13
ATOM     13  N   UNL     1      -3.277   2.477  13.254  1.00  0.00    -0.325 NA
ATOM     14  H   UNL     1      -3.303   1.490  13.516  1.00  0.00     0.119 HD
ATOM     15  H   UNL     1      -3.635   2.509  12.297  1.00  0.00     0.119 HD
ENDBRANCH  12  13
BRANCH  12  16
ATOM     16  C   UNL     1      -1.074   2.234  12.136  1.00  0.00     0.022 C 
BRANCH  16  17
ATOM     17  C   UNL     1      -1.098   0.701  12.059  1.00  0.00     0.002 C 
BRANCH  17  18
ATOM     18  C   UNL     1      -0.870   0.122  10.665  1.00  0.00     0.000 C 
BRANCH  18  19
ATOM     19  C   UNL     1      -0.142   1.073   9.705  1.00  0.00    -0.000 C 
BRANCH  19  20
ATOM     20  C   UNL     1      -0.304   0.745   8.218  1.00  0.00    -0.000 C 
BRANCH  20  21
ATOM     21  C   UNL     1      -0.880   1.909   7.407  1.00  0.00    -0.003 C 
ATOM     22  C   UNL     1      -1.608   1.414   6.167  1.00  0.00     0.004 C 
ENDBRANCH  20  21
ENDBRANCH  19  20
ENDBRANCH  18  19
ENDBRANCH  17  18
ENDBRANCH  16  17
ENDBRANCH  12  16
ENDBRANCH   9  12
ENDBRANCH   6   9
ENDBRANCH   3   5
ENDBRANCH   2   3
BRANCH   2  23
ATOM     23  N   UNL     1      -5.073   7.331   9.376  1.00  0.00    -0.332 N 
ATOM     24  C   UNL     1      -6.319   7.960   8.963  1.00  0.00     0.147 C 
BRANCH  23  25
ATOM     25  C   UNL     1      -3.950   8.274   9.632  1.00  0.00     0.174 C 
BRANCH  25  26
ATOM     26  C   UNL     1      -4.367   9.757   9.501  1.00  0.00     0.038 C 
BRANCH  26  27
ATOM     27  C   UNL     1      -3.510  10.796  10.258  1.00  0.00    -0.015 C 
ATOM     28  C   UNL     1      -2.991  10.263  11.594  1.00  0.00     0.007 C 
ATOM     29  C   UNL     1      -2.363  11.361   9.424  1.00  0.00     0.007 C 
ENDBRANCH  26  27
ENDBRANCH  25  26
BRANCH  25  30
ATOM     30  C   UNL     1      -2.728   7.893   8.766  1.00  0.00     0.243 C 
ATOM     31  O   UNL     1      -1.615   7.708   9.257  1.00  0.00    -0.273 OA
ATOM     32  N   UNL     1      -2.965   7.782   7.420  1.00  0.00    -0.342 N 
ATOM     33  H   UNL     1      -3.939   7.811   7.107  1.00  0.00     0.164 HD
BRANCH  32  34
ATOM     34  C   UNL     1      -1.921   7.456   6.446  1.00  0.00     0.175 C 
BRANCH  34  35
ATOM     35  C   UNL     1      -1.927   5.959   6.100  1.00  0.00     0.070 C 
BRANCH  35  36
ATOM     36  C   UNL     1      -0.545   5.346   6.135  1.00  0.00    -0.045 A 
ATOM     37  C   UNL     1      -0.087   4.588   5.046  1.00  0.00     0.007 A 
ATOM     38  C   UNL     1       0.284   5.503   7.253  1.00  0.00     0.007 A 
ATOM     39  C   UNL     1       1.181   4.006   5.075  1.00  0.00     0.046 A 
ATOM     40  C   UNL     1       1.553   4.920   7.283  1.00  0.00     0.046 A 
ATOM     41  C   UNL     1       1.991   4.177   6.191  1.00  0.00     0.115 A 
BRANCH  41  42
ATOM     42  O   UNL     1       3.221   3.590   6.180  1.00  0.00    -0.508 OA
ATOM     43  H   UNL     1       3.861   4.230   5.828  1.00  0.00     0.293 HD
ENDBRANCH  41  42
ENDBRANCH  35  36
ENDBRANCH  34  35
BRANCH  34  44
ATOM     44  C   UNL     1      -2.141   8.338   5.196  1.00  0.00     0.243 C 
ATOM     45  O   UNL     1      -2.396   9.539   5.230  1.00  0.00    -0.273 OA
ATOM     46  N   UNL     1      -2.154   7.624   4.016  1.00  0.00    -0.341 N 
ATOM     47  H   UNL     1      -2.054   6.613   4.049  1.00  0.00     0.164 HD
BRANCH  46  48
ATOM     48  C   UNL     1      -2.411   8.233   2.709  1.00  0.00     0.196 C 
BRANCH  48  49
ATOM     49  C   UNL     1      -1.997   7.295   1.563  1.00  0.00     0.072 C 
BRANCH  49  50
ATOM     50  C   UNL     1      -0.499   7.100   1.483  1.00  0.00    -0.045 A 
ATOM     51  C   UNL     1       0.319   8.151   1.044  1.00  0.00     0.007 A 
ATOM     52  C   UNL     1       0.088   5.875   1.821  1.00  0.00     0.007 A 
ATOM     53  C   UNL     1       1.701   7.980   0.953  1.00  0.00     0.046 A 
ATOM     54  C   UNL     1       1.471   5.702   1.730  1.00  0.00     0.046 A 
ATOM     55  C   UNL     1       2.266   6.758   1.297  1.00  0.00     0.115 A 
BRANCH  55  56
ATOM     56  O   UNL     1       3.619   6.630   1.192  1.00  0.00    -0.508 OA
ATOM     57  H   UNL     1       3.817   5.752   0.829  1.00  0.00     0.293 HD
ENDBRANCH  55  56
ENDBRANCH  49  50
ENDBRANCH  48  49
BRANCH  48  58
ATOM     58  C   UNL     1      -3.908   8.555   2.594  1.00  0.00     0.326 C 
ATOM     59  O   UNL     1      -4.827   7.763   2.469  1.00  0.00    -0.250 OA
BRANCH  58  60
ATOM     60  O   UNL     1      -4.182   9.883   2.659  1.00  0.00    -0.480 OA
ATOM     61  H   UNL     1      -5.099   9.907   3.008  1.00  0.00     0.296 HD
ENDBRANCH  58  60
ENDBRANCH  48  58
ENDBRANCH  46  48
ENDBRANCH  34  44
ENDBRANCH  32  34
ENDBRANCH  25  30
ENDBRANCH  23  25
ENDBRANCH   2  23
TORSDOF 28
ENDMDL
MODEL 49
REMARK VINA RESULT:    -4.997      3.021      9.283
REMARK INTER + INTRA:         -18.393
REMARK INTER:                 -13.475
REMARK INTRA:                  -4.918
REMARK UNBOUND:                -5.946
REMARK SMILES CCCCCCC[C@H](N)[C@H](O)C(=O)N[C@H](C)C(=O)N(C)[C@H](CC(C)C)C(=O)N[C@@H](Cc1ccc(O)cc1)C(=O)N[C@@H](Cc1ccc(O)cc1)C(=O)O
REMARK SMILES IDX 18 1 17 2 15 3 16 4 14 5 12 6 13 7 10 9 11 10 8 12 9 13 7 16
REMARK SMILES IDX 6 17 5 18 4 19 3 20 2 21 1 22 19 23 20 24 21 25 22 26 23 27
REMARK SMILES IDX 24 28 25 29 26 30 27 31 28 32 29 34 30 35 31 36 32 37 37 38
REMARK SMILES IDX 33 39 36 40 34 41 35 42 38 44 39 45 40 46 41 48 42 49 43 50
REMARK SMILES IDX 44 51 49 52 45 53 48 54 46 55 47 56 50 58 51 59 52 60
REMARK H PARENT 14 8 11 11 9 14 9 15 28 33 35 43 40 47 47 57 52 61
ROOT
ATOM      1  O   UNL     1     -10.136   6.444  -3.740  1.00  0.00    -0.272 OA
ATOM      2  C   UNL     1      -9.784   7.398  -3.031  1.00  0.00     0.245 C 
ENDROOT
BRANCH   2   3
ATOM      3  C   UNL     1     -10.875   8.233  -2.316  1.00  0.00     0.168 C 
ATOM      4  C   UNL     1     -11.989   8.613  -3.286  1.00  0.00     0.041 C 
BRANCH   3   5
ATOM      5  N   UNL     1     -11.399   7.637  -1.096  1.00  0.00    -0.342 N 
ATOM      6  C   UNL     1     -11.037   8.099   0.152  1.00  0.00     0.251 C 
ATOM      7  O   UNL     1     -10.229   9.003   0.331  1.00  0.00    -0.272 OA
ATOM      8  H   UNL     1     -12.051   6.857  -1.118  1.00  0.00     0.164 HD
BRANCH   6   9
ATOM      9  C   UNL     1     -11.819   7.418   1.286  1.00  0.00     0.219 C 
BRANCH   9  10
ATOM     10  O   UNL     1     -13.089   6.912   0.856  1.00  0.00    -0.382 OA
ATOM     11  H   UNL     1     -13.084   5.980   1.168  1.00  0.00     0.211 HD
ENDBRANCH   9  10
BRANCH   9  12
ATOM     12  C   UNL     1     -11.005   6.315   2.012  1.00  0.00     0.089 C 
BRANCH  12  13
ATOM     13  N   UNL     1     -11.939   5.250   2.442  1.00  0.00    -0.325 NA
ATOM     14  H   UNL     1     -12.469   4.921   1.632  1.00  0.00     0.119 HD
ATOM     15  H   UNL     1     -12.636   5.655   3.070  1.00  0.00     0.119 HD
ENDBRANCH  12  13
BRANCH  12  16
ATOM     16  C   UNL     1      -9.831   5.702   1.210  1.00  0.00     0.022 C 
BRANCH  16  17
ATOM     17  C   UNL     1     -10.136   4.702   0.087  1.00  0.00     0.002 C 
BRANCH  17  18
ATOM     18  C   UNL     1      -8.915   3.995  -0.497  1.00  0.00     0.000 C 
BRANCH  18  19
ATOM     19  C   UNL     1      -9.245   2.997  -1.615  1.00  0.00    -0.000 C 
BRANCH  19  20
ATOM     20  C   UNL     1     -10.640   3.148  -2.230  1.00  0.00    -0.000 C 
BRANCH  20  21
ATOM     21  C   UNL     1     -11.493   1.884  -2.097  1.00  0.00    -0.003 C 
ATOM     22  C   UNL     1     -11.850   1.310  -3.460  1.00  0.00     0.004 C 
ENDBRANCH  20  21
ENDBRANCH  19  20
ENDBRANCH  18  19
ENDBRANCH  17  18
ENDBRANCH  16  17
ENDBRANCH  12  16
ENDBRANCH   9  12
ENDBRANCH   6   9
ENDBRANCH   3   5
ENDBRANCH   2   3
BRANCH   2  23
ATOM     23  N   UNL     1      -8.433   7.626  -2.794  1.00  0.00    -0.332 N 
ATOM     24  C   UNL     1      -7.755   7.339  -1.538  1.00  0.00     0.147 C 
BRANCH  23  25
ATOM     25  C   UNL     1      -7.542   8.078  -3.898  1.00  0.00     0.174 C 
BRANCH  25  26
ATOM     26  C   UNL     1      -8.251   9.023  -4.896  1.00  0.00     0.038 C 
BRANCH  26  27
ATOM     27  C   UNL     1      -8.040  10.540  -4.695  1.00  0.00    -0.015 C 
ATOM     28  C   UNL     1      -8.002  11.305  -6.018  1.00  0.00     0.007 C 
ATOM     29  C   UNL     1      -9.047  11.172  -3.738  1.00  0.00     0.007 C 
ENDBRANCH  26  27
ENDBRANCH  25  26
BRANCH  25  30
ATOM     30  C   UNL     1      -6.865   6.860  -4.568  1.00  0.00     0.243 C 
ATOM     31  O   UNL     1      -5.792   6.411  -4.169  1.00  0.00    -0.273 OA
ATOM     32  N   UNL     1      -7.537   6.322  -5.635  1.00  0.00    -0.342 N 
ATOM     33  H   UNL     1      -8.486   6.659  -5.817  1.00  0.00     0.164 HD
BRANCH  32  34
ATOM     34  C   UNL     1      -7.033   5.183  -6.408  1.00  0.00     0.175 C 
BRANCH  34  35
ATOM     35  C   UNL     1      -5.618   5.453  -6.943  1.00  0.00     0.070 C 
BRANCH  35  36
ATOM     36  C   UNL     1      -5.490   5.175  -8.424  1.00  0.00    -0.045 A 
ATOM     37  C   UNL     1      -4.529   5.858  -9.185  1.00  0.00     0.007 A 
ATOM     38  C   UNL     1      -6.335   4.256  -9.059  1.00  0.00     0.007 A 
ATOM     39  C   UNL     1      -4.413   5.619 -10.555  1.00  0.00     0.046 A 
ATOM     40  C   UNL     1      -6.220   4.017 -10.430  1.00  0.00     0.046 A 
ATOM     41  C   UNL     1      -5.258   4.700 -11.166  1.00  0.00     0.115 A 
BRANCH  41  42
ATOM     42  O   UNL     1      -5.113   4.497 -12.506  1.00  0.00    -0.508 OA
ATOM     43  H   UNL     1      -5.458   5.278 -12.972  1.00  0.00     0.293 HD
ENDBRANCH  41  42
ENDBRANCH  35  36
ENDBRANCH  34  35
BRANCH  34  44
ATOM     44  C   UNL     1      -7.079   3.932  -5.502  1.00  0.00     0.243 C 
ATOM     45  O   UNL     1      -8.092   3.512  -4.950  1.00  0.00    -0.273 OA
ATOM     46  N   UNL     1      -5.836   3.388  -5.255  1.00  0.00    -0.341 N 
ATOM     47  H   UNL     1      -5.012   3.842  -5.641  1.00  0.00     0.164 HD
BRANCH  46  48
ATOM     48  C   UNL     1      -5.621   2.240  -4.371  1.00  0.00     0.196 C 
BRANCH  48  49
ATOM     49  C   UNL     1      -4.358   1.457  -4.768  1.00  0.00     0.072 C 
BRANCH  49  50
ATOM     50  C   UNL     1      -4.023   1.599  -6.235  1.00  0.00    -0.045 A 
ATOM     51  C   UNL     1      -3.048   2.521  -6.644  1.00  0.00     0.007 A 
ATOM     52  C   UNL     1      -4.688   0.836  -7.204  1.00  0.00     0.007 A 
ATOM     53  C   UNL     1      -2.739   2.670  -7.996  1.00  0.00     0.046 A 
ATOM     54  C   UNL     1      -4.380   0.986  -8.558  1.00  0.00     0.046 A 
ATOM     55  C   UNL     1      -3.407   1.902  -8.942  1.00  0.00     0.115 A 
BRANCH  55  56
ATOM     56  O   UNL     1      -3.077   2.080 -10.254  1.00  0.00    -0.508 OA
ATOM     57  H   UNL     1      -3.001   3.032 -10.424  1.00  0.00     0.293 HD
ENDBRANCH  55  56
ENDBRANCH  49  50
ENDBRANCH  48  49
BRANCH  48  58
ATOM     58  C   UNL     1      -5.483   2.741  -2.927  1.00  0.00     0.326 C 
ATOM     59  O   UNL     1      -5.722   2.121  -1.903  1.00  0.00    -0.250 OA
BRANCH  58  60
ATOM     60  O   UNL     1      -5.027   4.016  -2.837  1.00  0.00    -0.480 OA
ATOM     61  H   UNL     1      -4.106   3.951  -3.171  1.00  0.00     0.296 HD
ENDBRANCH  58  60
ENDBRANCH  48  58
ENDBRANCH  46  48
ENDBRANCH  34  44
ENDBRANCH  32  34
ENDBRANCH  25  30
ENDBRANCH  23  25
ENDBRANCH   2  23
TORSDOF 28
ENDMDL
MODEL 50
REMARK VINA RESULT:    -4.953      2.155      3.746
REMARK INTER + INTRA:         -18.283
REMARK INTER:                 -13.766
REMARK INTRA:                  -4.517
REMARK UNBOUND:                -5.946
REMARK SMILES CCCCCCC[C@H](N)[C@H](O)C(=O)N[C@H](C)C(=O)N(C)[C@H](CC(C)C)C(=O)N[C@@H](Cc1ccc(O)cc1)C(=O)N[C@@H](Cc1ccc(O)cc1)C(=O)O
REMARK SMILES IDX 18 1 17 2 15 3 16 4 14 5 12 6 13 7 10 9 11 10 8 12 9 13 7 16
REMARK SMILES IDX 6 17 5 18 4 19 3 20 2 21 1 22 19 23 20 24 21 25 22 26 23 27
REMARK SMILES IDX 24 28 25 29 26 30 27 31 28 32 29 34 30 35 31 36 32 37 37 38
REMARK SMILES IDX 33 39 36 40 34 41 35 42 38 44 39 45 40 46 41 48 42 49 43 50
REMARK SMILES IDX 44 51 49 52 45 53 48 54 46 55 47 56 50 58 51 59 52 60
REMARK H PARENT 14 8 11 11 9 14 9 15 28 33 35 43 40 47 47 57 52 61
ROOT
ATOM      1  O   UNL     1      -5.348   5.388  -6.780  1.00  0.00    -0.272 OA
ATOM      2  C   UNL     1      -5.390   5.555  -8.008  1.00  0.00     0.245 C 
ENDROOT
BRANCH   2   3
ATOM      3  C   UNL     1      -4.274   4.928  -8.880  1.00  0.00     0.168 C 
ATOM      4  C   UNL     1      -3.257   5.983  -9.300  1.00  0.00     0.041 C 
BRANCH   3   5
ATOM      5  N   UNL     1      -3.633   3.757  -8.303  1.00  0.00    -0.342 N 
ATOM      6  C   UNL     1      -3.722   2.513  -8.892  1.00  0.00     0.251 C 
ATOM      7  O   UNL     1      -4.371   2.292  -9.909  1.00  0.00    -0.272 OA
ATOM      8  H   UNL     1      -3.095   3.810  -7.441  1.00  0.00     0.164 HD
BRANCH   6   9
ATOM      9  C   UNL     1      -2.852   1.459  -8.189  1.00  0.00     0.219 C 
BRANCH   9  10
ATOM     10  O   UNL     1      -1.947   2.033  -7.239  1.00  0.00    -0.382 OA
ATOM     11  H   UNL     1      -2.366   1.837  -6.373  1.00  0.00     0.211 HD
ENDBRANCH   9  10
BRANCH   9  12
ATOM     12  C   UNL     1      -3.682   0.320  -7.541  1.00  0.00     0.089 C 
BRANCH  12  13
ATOM     13  N   UNL     1      -4.685   0.928  -6.638  1.00  0.00    -0.325 NA
ATOM     14  H   UNL     1      -5.150   1.698  -7.123  1.00  0.00     0.119 HD
ATOM     15  H   UNL     1      -4.201   1.363  -5.850  1.00  0.00     0.119 HD
ENDBRANCH  12  13
BRANCH  12  16
ATOM     16  C   UNL     1      -4.372  -0.659  -8.521  1.00  0.00     0.022 C 
BRANCH  16  17
ATOM     17  C   UNL     1      -3.505  -1.556  -9.415  1.00  0.00     0.002 C 
BRANCH  17  18
ATOM     18  C   UNL     1      -3.485  -1.168 -10.892  1.00  0.00     0.000 C 
BRANCH  18  19
ATOM     19  C   UNL     1      -2.091  -0.808 -11.423  1.00  0.00    -0.000 C 
BRANCH  19  20
ATOM     20  C   UNL     1      -1.950  -0.835 -12.948  1.00  0.00    -0.000 C 
BRANCH  20  21
ATOM     21  C   UNL     1      -0.512  -0.609 -13.421  1.00  0.00    -0.003 C 
ATOM     22  C   UNL     1       0.493  -1.195 -12.441  1.00  0.00     0.004 C 
ENDBRANCH  20  21
ENDBRANCH  19  20
ENDBRANCH  18  19
ENDBRANCH  17  18
ENDBRANCH  16  17
ENDBRANCH  12  16
ENDBRANCH   9  12
ENDBRANCH   6   9
ENDBRANCH   3   5
ENDBRANCH   2   3
BRANCH   2  23
ATOM     23  N   UNL     1      -6.486   6.187  -8.586  1.00  0.00    -0.332 N 
ATOM     24  C   UNL     1      -6.516   7.585  -8.988  1.00  0.00     0.147 C 
BRANCH  23  25
ATOM     25  C   UNL     1      -7.696   5.403  -8.957  1.00  0.00     0.174 C 
BRANCH  25  26
ATOM     26  C   UNL     1      -8.235   5.755 -10.363  1.00  0.00     0.038 C 
BRANCH  26  27
ATOM     27  C   UNL     1      -7.569   5.049 -11.565  1.00  0.00    -0.015 C 
ATOM     28  C   UNL     1      -8.591   4.447 -12.529  1.00  0.00     0.007 C 
ATOM     29  C   UNL     1      -6.578   5.935 -12.317  1.00  0.00     0.007 C 
ENDBRANCH  26  27
ENDBRANCH  25  26
BRANCH  25  30
ATOM     30  C   UNL     1      -8.760   5.506  -7.840  1.00  0.00     0.243 C 
ATOM     31  O   UNL     1      -9.855   6.031  -8.032  1.00  0.00    -0.273 OA
ATOM     32  N   UNL     1      -8.398   4.981  -6.626  1.00  0.00    -0.342 N 
ATOM     33  H   UNL     1      -7.532   4.438  -6.584  1.00  0.00     0.164 HD
BRANCH  32  34
ATOM     34  C   UNL     1      -9.268   5.014  -5.447  1.00  0.00     0.175 C 
BRANCH  34  35
ATOM     35  C   UNL     1      -9.380   3.627  -4.796  1.00  0.00     0.070 C 
BRANCH  35  36
ATOM     36  C   UNL     1      -8.217   3.314  -3.882  1.00  0.00    -0.045 A 
ATOM     37  C   UNL     1      -8.407   3.278  -2.492  1.00  0.00     0.007 A 
ATOM     38  C   UNL     1      -6.937   3.079  -4.401  1.00  0.00     0.007 A 
ATOM     39  C   UNL     1      -7.337   3.003  -1.640  1.00  0.00     0.046 A 
ATOM     40  C   UNL     1      -5.865   2.806  -3.548  1.00  0.00     0.046 A 
ATOM     41  C   UNL     1      -6.076   2.769  -2.174  1.00  0.00     0.115 A 
BRANCH  41  42
ATOM     42  O   UNL     1      -5.057   2.508  -1.307  1.00  0.00    -0.508 OA
ATOM     43  H   UNL     1      -4.307   2.157  -1.815  1.00  0.00     0.293 HD
ENDBRANCH  41  42
ENDBRANCH  35  36
ENDBRANCH  34  35
BRANCH  34  44
ATOM     44  C   UNL     1      -8.705   6.068  -4.467  1.00  0.00     0.243 C 
ATOM     45  O   UNL     1      -9.333   6.545  -3.525  1.00  0.00    -0.273 OA
ATOM     46  N   UNL     1      -7.456   6.534  -4.820  1.00  0.00    -0.341 N 
ATOM     47  H   UNL     1      -7.025   6.193  -5.675  1.00  0.00     0.164 HD
BRANCH  46  48
ATOM     48  C   UNL     1      -6.750   7.584  -4.082  1.00  0.00     0.196 C 
BRANCH  48  49
ATOM     49  C   UNL     1      -5.779   6.986  -3.050  1.00  0.00     0.072 C 
BRANCH  49  50
ATOM     50  C   UNL     1      -6.178   7.301  -1.626  1.00  0.00    -0.045 A 
ATOM     51  C   UNL     1      -6.130   8.624  -1.162  1.00  0.00     0.007 A 
ATOM     52  C   UNL     1      -6.579   6.286  -0.748  1.00  0.00     0.007 A 
ATOM     53  C   UNL     1      -6.483   8.925   0.153  1.00  0.00     0.046 A 
ATOM     54  C   UNL     1      -6.931   6.587   0.570  1.00  0.00     0.046 A 
ATOM     55  C   UNL     1      -6.881   7.905   1.009  1.00  0.00     0.115 A 
BRANCH  55  56
ATOM     56  O   UNL     1      -7.216   8.241   2.287  1.00  0.00    -0.508 OA
ATOM     57  H   UNL     1      -7.635   7.472   2.705  1.00  0.00     0.293 HD
ENDBRANCH  55  56
ENDBRANCH  49  50
ENDBRANCH  48  49
BRANCH  48  58
ATOM     58  C   UNL     1      -5.971   8.456  -5.077  1.00  0.00     0.326 C 
ATOM     59  O   UNL     1      -6.392   8.960  -6.105  1.00  0.00    -0.250 OA
BRANCH  58  60
ATOM     60  O   UNL     1      -4.680   8.667  -4.716  1.00  0.00    -0.480 OA
ATOM     61  H   UNL     1      -4.455   9.511  -5.165  1.00  0.00     0.296 HD
ENDBRANCH  58  60
ENDBRANCH  48  58
ENDBRANCH  46  48
ENDBRANCH  34  44
ENDBRANCH  32  34
ENDBRANCH  25  30
ENDBRANCH  23  25
ENDBRANCH   2  23
TORSDOF 28
ENDMDL
